@<TRIPOS>MOLECULE
NONAME
54 56 1 0 0 
SMALL
USER_CHARGES


@<TRIPOS>ATOM
  1 O       -0.4770     0.9140    -0.8420 O.2   1 <1>  -0.5700 
  2 C       -0.4470     2.1070    -1.0310 C.2   1 <1>   0.5690 
  3 N       -0.6190     3.0380    -0.0310 N.am  1 <1>  -0.6600 
  4 C       -0.2110     2.5690    -2.4730 C.3   1 <1>   0.1810 
  5 C       -0.5620     4.5060    -0.3510 C.3   1 <1>   0.3640 
  6 C       -0.6310     2.7030     1.4250 C.3   1 <1>   0.2200 
  7 O        0.2340     3.9010    -2.5640 O.3   1 <1>  -0.5600 
  8 C       -1.6870     5.2670     0.3500 C.ar  1 <1>  -0.1440 
  9 C       -0.6030     4.8000    -1.8680 C.3   1 <1>   0.2610 
 10 C        0.6860     2.0450     1.8350 C.3   1 <1>  -0.2400 
 11 C       -1.8390     1.8360     1.7810 C.3   1 <1>  -0.2400 
 12 C       -1.3820     6.3640     1.1440 C.ar  1 <1>  -0.1500 
 13 C       -3.0150     4.8900     0.2000 C.ar  1 <1>  -0.1500 
 14 C       -0.1830     6.2480    -2.1190 C.2   1 <1>   0.5690 
 15 C       -2.3880     7.0820     1.7650 C.ar  1 <1>  -0.1500 
 16 C       -4.0210     5.6040     0.8270 C.ar  1 <1>  -0.1500 
 17 O       -1.0310     7.1010    -2.2500 O.2   1 <1>  -0.5700 
 18 N        1.1380     6.5670    -2.1490 N.am  1 <1>  -0.7300 
 19 C       -3.7080     6.7020     1.6080 C.ar  1 <1>  -0.1500 
 20 C        1.6680     7.9360    -2.2520 C.3   1 <1>   0.3200 
 21 C        1.5080     8.6080    -0.9080 C.2   1 <1>  -0.3320 
 22 N        0.2990     8.8530    -0.3660 N.pl3 1 <1>   0.3000 
 23 C        2.4260     9.0750    -0.0340 C.2   1 <1>  -0.1500 
 24 N        0.4050     9.4520     0.8380 N.2   1 <1>  -0.7070 
 25 C        1.6860     9.5880     1.0280 C.2   1 <1>   0.1080 
 26 C        2.2630    10.2430     2.2770 C.3   1 <1>   0.3010 
 27 O        3.6650    10.2730     2.2350 O.3   1 <1>  -0.5600 
 28 C        4.2490    10.8900     3.3350 C.3   1 <1>   0.0400 
 29 H       -1.1230     2.4730    -3.0340 H     1 <1>   0.0800 
 30 H        0.5380     1.9440    -2.9250 H     1 <1>   0.0800 
 31 H        0.3770     4.8750     0.0240 H     1 <1>   0.0800 
 32 H       -0.7160     3.6140     1.9950 H     1 <1>   0.0800 
 33 H       -1.6050     4.6780    -2.2390 H     1 <1>   0.0800 
 34 H        0.7960     1.0800     1.3740 H     1 <1>   0.0800 
 35 H        0.7060     1.9080     2.9000 H     1 <1>   0.0800 
 36 H        1.5160     2.6690     1.5570 H     1 <1>   0.0800 
 37 H       -1.7730     0.8680     1.3200 H     1 <1>   0.0800 
 38 H       -2.7470     2.3180     1.4680 H     1 <1>   0.0800 
 39 H       -1.8820     1.6970     2.8450 H     1 <1>   0.0800 
 40 H       -0.3610     6.6790     1.2850 H     1 <1>   0.1500 
 41 H       -3.2710     4.0360    -0.4030 H     1 <1>   0.1500 
 42 H       -2.1370     7.9390     2.3670 H     1 <1>   0.1500 
 43 H       -5.0480     5.3060     0.7060 H     1 <1>   0.1500 
 44 H        1.8310     5.8160    -2.1110 H     1 <1>   0.3700 
 45 H       -4.4900     7.2620     2.0920 H     1 <1>   0.1500 
 46 H        2.7070     7.9030    -2.5330 H     1 <1>   0.0800 
 47 H        1.1240     8.4820    -3.0060 H     1 <1>   0.0800 
 48 H       -0.6030     8.5870    -0.7970 H     1 <1>   0.2700 
 49 H        3.5000     9.0740    -0.0990 H     1 <1>   0.1500 
 50 H        1.9560     9.6870     3.1450 H     1 <1>   0.0800 
 51 H        1.8980    11.2530     2.3470 H     1 <1>   0.0800 
 52 H        5.3170    10.8570     3.2080 H     1 <1>   0.0800 
 53 H        3.9750    10.3590     4.2310 H     1 <1>   0.0800 
 54 H        3.9230    11.9150     3.3840 H     1 <1>   0.0800 
@<TRIPOS>BOND
  1   1   2  2   
  2   2   3  am  
  3   2   4  1   
  4   3   5  1   
  5   3   6  1   
  6   4   7  1   
  7   4  29  1   
  8   4  30  1   
  9   5   8  1   
 10   5   9  1   
 11   5  31  1   
 12   6  10  1   
 13   6  11  1   
 14   6  32  1   
 15   7   9  1   
 16   8  12  ar  
 17   8  13  ar  
 18   9  14  1   
 19   9  33  1   
 20  10  34  1   
 21  10  35  1   
 22  10  36  1   
 23  11  37  1   
 24  11  38  1   
 25  11  39  1   
 26  12  15  ar  
 27  12  40  1   
 28  13  16  ar  
 29  13  41  1   
 30  14  17  2   
 31  14  18  am  
 32  15  19  ar  
 33  15  42  1   
 34  16  19  ar  
 35  16  43  1   
 36  18  20  1   
 37  18  44  1   
 38  19  45  1   
 39  20  21  1   
 40  20  46  1   
 41  20  47  1   
 42  21  22  1   
 43  21  23  2   
 44  22  24  1   
 45  22  48  1   
 46  23  25  1   
 47  23  49  1   
 48  24  25  2   
 49  25  26  1   
 50  26  27  1   
 51  26  50  1   
 52  26  51  1   
 53  27  28  1   
 54  28  52  1   
 55  28  53  1   
 56  28  54  1   
@<TRIPOS>SUBSTRUCTURE
  1 ****   5 GROUP 4 **** **** 0

# MOE 2024.06 (io_trps.svl 2023.06)
