@<TRIPOS>MOLECULE
NONAME
59 61 1 0 0 
SMALL
USER_CHARGES


@<TRIPOS>ATOM
  1 S       -0.4190     0.9840     1.0790 S.o2  1 <1>   1.5760 
  2 O       -0.0350     0.6040     2.4210 O.2   1 <1>  -0.6500 
  3 O       -1.5670     1.8290     0.8440 O.2   1 <1>  -0.6500 
  4 N        0.9360     1.7150     0.3750 N.am  1 <1>  -0.8490 
  5 N       -0.5120    -0.3960     0.1010 N.am  1 <1>  -0.8490 
  6 C        2.1410     0.8550     0.4770 C.3   1 <1>   0.1960 
  7 C        0.6990     2.1580    -1.0050 C.3   1 <1>   0.1960 
  8 C       -1.6840    -0.3750    -0.7840 C.3   1 <1>   0.1960 
  9 C       -0.4710    -1.6400     0.8820 C.3   1 <1>   0.1960 
 10 C        3.4300     1.6570     0.7350 C.3   1 <1>   0.3430 
 11 C        1.5750     3.3570    -1.3880 C.3   1 <1>  -0.1600 
 12 C       -1.6260    -1.5400    -1.7770 C.3   1 <1>  -0.1600 
 13 C       -0.3730    -2.8530    -0.0490 C.3   1 <1>  -0.1600 
 14 N        3.3130     3.0810     0.3120 N.4   1 <1>  -0.9590 
 15 C        3.0730     3.1900    -1.1480 C.3   1 <1>   0.3430 
 16 C       -1.5320    -2.8860    -1.0520 C.3   1 <1>  -0.1600 
 17 C        4.5730     3.8280     0.7110 C.3   1 <1>   0.4610 
 18 C        4.3120     5.3240     0.4910 C.ar  1 <1>  -0.1440 
 19 C        5.8760     3.2300     0.1040 C.2   1 <1>   0.9060 
 20 C        3.5280     6.0430     1.3930 C.ar  1 <1>  -0.1440 
 21 C        4.8350     5.9780    -0.6190 C.ar  1 <1>  -0.1500 
 22 O        6.7300     2.7960     0.8830 O.co2 1 <1>  -0.9000 
 23 O        5.9440     3.0270    -1.1200 O.co2 1 <1>  -0.9000 
 24 C        3.2740     7.3860     1.1570 C.ar  1 <1>  -0.1500 
 25 C        2.9390     5.4100     2.6490 C.3   1 <1>  -0.0970 
 26 C        4.5790     7.3180    -0.8500 C.ar  1 <1>  -0.1440 
 27 C        3.7930     8.0200     0.0440 C.ar  1 <1>  -0.1500 
 28 C        5.1640     8.0110    -2.0670 C.3   1 <1>  -0.0970 
 29 H        2.2560     0.2660    -0.4170 H     1 <1>   0.0800 
 30 H        2.0470     0.1550     1.2880 H     1 <1>   0.0800 
 31 H       -0.3250     2.4730    -1.1190 H     1 <1>   0.0800 
 32 H        0.8560     1.3400    -1.6900 H     1 <1>   0.0800 
 33 H       -1.7120     0.5480    -1.3380 H     1 <1>   0.0800 
 34 H       -2.5870    -0.4370    -0.1970 H     1 <1>   0.0800 
 35 H       -1.3530    -1.7150     1.4980 H     1 <1>   0.0800 
 36 H        0.3900    -1.6410     1.5300 H     1 <1>   0.0800 
 37 H        4.2570     1.1860     0.2280 H     1 <1>   0.0800 
 38 H        3.6410     1.6230     1.7910 H     1 <1>   0.0800 
 39 H        1.2300     4.2320    -0.8650 H     1 <1>   0.0800 
 40 H        1.4300     3.5500    -2.4360 H     1 <1>   0.0800 
 41 H       -0.7720    -1.4100    -2.4180 H     1 <1>   0.0800 
 42 H       -2.5060    -1.5250    -2.3950 H     1 <1>   0.0800 
 43 H       -0.3800    -3.7540     0.5380 H     1 <1>   0.0800 
 44 H        0.5630    -2.8120    -0.5770 H     1 <1>   0.0800 
 45 H        2.5030     3.4950     0.7840 H     1 <1>   0.4500 
 46 H        3.5860     4.0520    -1.5400 H     1 <1>   0.0800 
 47 H        3.4630     2.3240    -1.6590 H     1 <1>   0.0800 
 48 H       -1.3830    -3.6800    -1.7630 H     1 <1>   0.0800 
 49 H       -2.4530    -3.0750    -0.5270 H     1 <1>   0.0800 
 50 H        4.7070     3.6980     1.7690 H     1 <1>   0.0800 
 51 H        5.4550     5.4480    -1.3240 H     1 <1>   0.1500 
 52 H        2.6690     7.9540     1.8420 H     1 <1>   0.1500 
 53 H        3.7030     4.9010     3.2090 H     1 <1>   0.0800 
 54 H        2.1590     4.7160     2.3940 H     1 <1>   0.0800 
 55 H        2.5140     6.1620     3.2910 H     1 <1>   0.0800 
 56 H        3.5860     9.0630    -0.1190 H     1 <1>   0.1500 
 57 H        5.3330     7.3040    -2.8590 H     1 <1>   0.0800 
 58 H        6.1010     8.4680    -1.8060 H     1 <1>   0.0800 
 59 H        4.4930     8.7710    -2.4250 H     1 <1>   0.0800 
@<TRIPOS>BOND
  1   1   2  2   
  2   1   3  2   
  3   1   4  am  
  4   1   5  am  
  5   4   6  1   
  6   4   7  1   
  7   5   8  1   
  8   5   9  1   
  9   6  10  1   
 10   6  29  1   
 11   6  30  1   
 12   7  11  1   
 13   7  31  1   
 14   7  32  1   
 15   8  12  1   
 16   8  33  1   
 17   8  34  1   
 18   9  13  1   
 19   9  35  1   
 20   9  36  1   
 21  10  14  1   
 22  10  37  1   
 23  10  38  1   
 24  11  15  1   
 25  11  39  1   
 26  11  40  1   
 27  12  16  1   
 28  12  41  1   
 29  12  42  1   
 30  13  16  1   
 31  13  43  1   
 32  13  44  1   
 33  14  15  1   
 34  14  17  1   
 35  14  45  1   
 36  15  46  1   
 37  15  47  1   
 38  16  48  1   
 39  16  49  1   
 40  17  18  1   
 41  17  19  1   
 42  17  50  1   
 43  18  20  ar  
 44  18  21  ar  
 45  19  22  ar  
 46  19  23  ar  
 47  20  24  ar  
 48  20  25  1   
 49  21  26  ar  
 50  21  51  1   
 51  24  27  ar  
 52  24  52  1   
 53  25  53  1   
 54  25  54  1   
 55  25  55  1   
 56  26  27  ar  
 57  26  28  1   
 58  27  56  1   
 59  28  57  1   
 60  28  58  1   
 61  28  59  1   
@<TRIPOS>SUBSTRUCTURE
  1 ****  14 GROUP 4 **** **** 0

# MOE 2024.06 (io_trps.svl 2023.06)
