@<TRIPOS>MOLECULE
NONAME
51 52 1 0 0 
SMALL
USER_CHARGES


@<TRIPOS>ATOM
  1 O        0.2510    -0.2890     0.8890 O.2   1 <1>  -0.5700 
  2 C        1.3010    -0.7190     0.4860 C.2   1 <1>   0.5690 
  3 N        2.3520     0.0660     0.1100 N.am  1 <1>  -0.4940 
  4 C        1.4780    -2.2300     0.3920 C.3   1 <1>  -0.0990 
  5 C        2.4520     1.4640     0.1030 C.2   1 <1>   0.2040 
  6 C        0.1320    -2.9910     0.4300 C.3   1 <1>  -0.1600 
  7 O        1.4810     2.2410     0.5190 O.3   1 <1>  -0.0190 
  8 C        3.4700     2.2570    -0.2870 C.2   1 <1>  -0.1810 
  9 C        0.2600    -4.5110     0.2700 C.3   1 <1>   0.4230 
 10 N        1.7980     3.5080     0.4300 N.2   1 <1>  -0.4100 
 11 C        2.9880     3.5440    -0.0500 C.2   1 <1>   0.1080 
 12 C        4.8280     1.8760    -0.8510 C.3   1 <1>   0.0210 
 13 N       -1.0880    -5.0870     0.0420 N.4   1 <1>  -0.9590 
 14 C        0.9290    -5.1710     1.4800 C.3   1 <1>  -0.2400 
 15 C        3.7340     4.8350    -0.3130 C.3   1 <1>  -0.0590 
 16 C        5.8720     1.7990     0.2640 C.3   1 <1>  -0.2400 
 17 C       -2.0760    -4.9600     1.1700 C.3   1 <1>   0.3430 
 18 C       -1.0810    -6.4920    -0.4900 C.3   1 <1>   0.3430 
 19 C       -3.4890    -5.4090     0.7230 C.3   1 <1>   0.1100 
 20 C       -2.5070    -6.9420    -0.8960 C.3   1 <1>   0.1100 
 21 N       -3.5120    -5.8750    -0.6840 N.3   1 <1>  -0.8100 
 22 C       -4.8560    -6.3180    -1.0790 C.3   1 <1>   0.0300 
 23 H        3.1940    -0.4130    -0.1950 H     1 <1>   0.3700 
 24 H        2.0970    -2.5330     1.2160 H     1 <1>   0.0800 
 25 H        1.9920    -2.4590    -0.5240 H     1 <1>   0.0800 
 26 H       -0.4820    -2.6060    -0.3670 H     1 <1>   0.0800 
 27 H       -0.3560    -2.7630     1.3630 H     1 <1>   0.0800 
 28 H        0.8630    -4.7050    -0.6040 H     1 <1>   0.0800 
 29 H        5.1320     2.6010    -1.5870 H     1 <1>   0.0800 
 30 H        4.7600     0.9230    -1.3450 H     1 <1>   0.0800 
 31 H       -1.5520    -4.5610    -0.7160 H     1 <1>   0.4500 
 32 H        0.4240    -4.9160     2.3940 H     1 <1>   0.0800 
 33 H        1.9460    -4.8330     1.5630 H     1 <1>   0.0800 
 34 H        0.9590    -6.2390     1.3730 H     1 <1>   0.0800 
 35 H        4.6440     4.8550     0.2570 H     1 <1>   0.0800 
 36 H        3.1260     5.6730    -0.0240 H     1 <1>   0.0800 
 37 H        3.9630     4.9180    -1.3580 H     1 <1>   0.0800 
 38 H        5.9690     2.7520     0.7520 H     1 <1>   0.0800 
 39 H        6.8290     1.5220    -0.1410 H     1 <1>   0.0800 
 40 H        5.5810     1.0680     0.9980 H     1 <1>   0.0800 
 41 H       -2.1300    -3.9360     1.5020 H     1 <1>   0.0800 
 42 H       -1.7610    -5.5600     2.0070 H     1 <1>   0.0800 
 43 H       -0.6970    -7.1680     0.2550 H     1 <1>   0.0800 
 44 H       -0.4390    -6.5540    -1.3530 H     1 <1>   0.0800 
 45 H       -4.1670    -4.5790     0.8310 H     1 <1>   0.0800 
 46 H       -3.8330    -6.1930     1.3760 H     1 <1>   0.0800 
 47 H       -2.7760    -7.8170    -0.3290 H     1 <1>   0.0800 
 48 H       -2.4990    -7.2220    -1.9360 H     1 <1>   0.0800 
 49 H       -5.5600    -5.5120    -0.9560 H     1 <1>   0.0800 
 50 H       -5.1740    -7.1550    -0.4810 H     1 <1>   0.0800 
 51 H       -4.8580    -6.6090    -2.1160 H     1 <1>   0.0800 
@<TRIPOS>BOND
  1   1   2  2   
  2   2   3  am  
  3   2   4  1   
  4   3   5  1   
  5   3  23  1   
  6   4   6  1   
  7   4  24  1   
  8   4  25  1   
  9   5   7  1   
 10   5   8  2   
 11   6   9  1   
 12   6  26  1   
 13   6  27  1   
 14   7  10  1   
 15   8  11  1   
 16   8  12  1   
 17   9  13  1   
 18   9  14  1   
 19   9  28  1   
 20  10  11  2   
 21  11  15  1   
 22  12  16  1   
 23  12  29  1   
 24  12  30  1   
 25  13  17  1   
 26  13  18  1   
 27  13  31  1   
 28  14  32  1   
 29  14  33  1   
 30  14  34  1   
 31  15  35  1   
 32  15  36  1   
 33  15  37  1   
 34  16  38  1   
 35  16  39  1   
 36  16  40  1   
 37  17  19  1   
 38  17  41  1   
 39  17  42  1   
 40  18  20  1   
 41  18  43  1   
 42  18  44  1   
 43  19  21  1   
 44  19  45  1   
 45  19  46  1   
 46  20  21  1   
 47  20  47  1   
 48  20  48  1   
 49  21  22  1   
 50  22  49  1   
 51  22  50  1   
 52  22  51  1   
@<TRIPOS>SUBSTRUCTURE
  1 ****   4 GROUP 4 **** **** 0

# MOE 2024.06 (io_trps.svl 2023.06)
