@<TRIPOS>MOLECULE
NONAME
53 55 1 0 0 
SMALL
USER_CHARGES


@<TRIPOS>ATOM
  1 O        0.7280     0.2860     0.2170 O.3   1 <1>  -0.5600 
  2 C        0.9700    -0.9860     0.7410 C.3   1 <1>   0.2640 
  3 C        1.8510     1.0740     0.0290 C.3   1 <1>   0.1200 
  4 C       -0.3550    -1.7200     0.8360 C.ar  1 <1>  -0.1440 
  5 C        1.3580     2.4070    -0.5500 C.3   1 <1>   0.3430 
  6 C       -1.2870    -1.3540     1.7950 C.ar  1 <1>  -0.1500 
  7 C       -0.6480    -2.7640    -0.0300 C.ar  1 <1>  -0.1500 
  8 N        2.4670     3.3780    -0.8310 N.4   1 <1>  -0.9590 
  9 C       -2.4950    -2.0230     1.8920 C.ar  1 <1>  -0.1500 
 10 C       -1.8550    -3.4340     0.0650 C.ar  1 <1>  -0.1500 
 11 C        1.9260     4.7550    -1.0670 C.3   1 <1>   0.3430 
 12 C        3.3750     2.9410    -1.9240 C.3   1 <1>   0.3430 
 13 C       -2.7790    -3.0650     1.0270 C.ar  1 <1>  -0.1500 
 14 C        3.0270     5.8390    -1.0240 C.3   1 <1>   0.2090 
 15 C        4.8220     3.1620    -1.4840 C.3   1 <1>  -0.1600 
 16 N        4.3150     5.3580    -0.4030 N.pl3 1 <1>  -0.8380 
 17 C        5.2210     4.6330    -1.3440 C.3   1 <1>   0.2090 
 18 C        4.8580     5.9930     0.6730 C.ar  1 <1>   0.1000 
 19 C        5.3000     7.3320     0.6480 C.ar  1 <1>  -0.1440 
 20 C        5.0240     5.2880     1.8720 C.ar  1 <1>  -0.1500 
 21 C        5.8450     7.8940     1.7790 C.ar  1 <1>   0.2110 
 22 C        5.2110     8.1750    -0.6240 C.3   1 <1>  -0.0970 
 23 C        5.5740     5.8850     2.9760 C.ar  1 <1>   0.2110 
 24 N        5.9740     7.1780     2.9240 N.ar  1 <1>  -0.1790 
 25 H        1.4080    -0.8840     1.7190 H     1 <1>   0.0800 
 26 H        1.6480    -1.5110     0.0910 H     1 <1>   0.0800 
 27 H        2.5070     0.5670    -0.6560 H     1 <1>   0.0800 
 28 H        2.3280     1.2220     0.9820 H     1 <1>   0.0800 
 29 H        0.6740     2.8400     0.1610 H     1 <1>   0.0800 
 30 H        0.8140     2.2070    -1.4590 H     1 <1>   0.0800 
 31 H       -1.0760    -0.5420     2.4690 H     1 <1>   0.1500 
 32 H        0.0590    -3.0610    -0.7850 H     1 <1>   0.1500 
 33 H        3.0710     3.5010    -0.0030 H     1 <1>   0.4500 
 34 H       -3.2130    -1.7330     2.6380 H     1 <1>   0.1500 
 35 H       -2.0770    -4.2420    -0.6100 H     1 <1>   0.1500 
 36 H        1.2080     4.9860    -0.2970 H     1 <1>   0.0800 
 37 H        1.4090     4.8010    -2.0110 H     1 <1>   0.0800 
 38 H        3.1700     3.4880    -2.8300 H     1 <1>   0.0800 
 39 H        3.2290     1.8920    -2.1290 H     1 <1>   0.0800 
 40 H       -3.7180    -3.5860     1.1010 H     1 <1>   0.1500 
 41 H        2.6480     6.6810    -0.4690 H     1 <1>   0.0800 
 42 H        3.2180     6.1860    -2.0250 H     1 <1>   0.0800 
 43 H        5.4650     2.7210    -2.2250 H     1 <1>   0.0800 
 44 H        5.0130     2.6440    -0.5620 H     1 <1>   0.0800 
 45 H        5.2020     5.1130    -2.3090 H     1 <1>   0.0800 
 46 H        6.2350     4.6890    -0.9810 H     1 <1>   0.0800 
 47 H        4.7120     4.2610     1.9110 H     1 <1>   0.1500 
 48 H        6.1870     8.9170     1.7800 H     1 <1>   0.1500 
 49 H        5.5660     7.6140    -1.4710 H     1 <1>   0.0800 
 50 H        5.8120     9.0640    -0.5470 H     1 <1>   0.0800 
 51 H        4.1950     8.4740    -0.8060 H     1 <1>   0.0800 
 52 H        5.7000     5.3410     3.9000 H     1 <1>   0.1500 
 53 H        6.3870     7.6200     3.7540 H     1 <1>   0.4570 
@<TRIPOS>BOND
  1   1   2  1   
  2   1   3  1   
  3   2   4  1   
  4   2  25  1   
  5   2  26  1   
  6   3   5  1   
  7   3  27  1   
  8   3  28  1   
  9   4   6  ar  
 10   4   7  ar  
 11   5   8  1   
 12   5  29  1   
 13   5  30  1   
 14   6   9  ar  
 15   6  31  1   
 16   7  10  ar  
 17   7  32  1   
 18   8  11  1   
 19   8  12  1   
 20   8  33  1   
 21   9  13  ar  
 22   9  34  1   
 23  10  13  ar  
 24  10  35  1   
 25  11  14  1   
 26  11  36  1   
 27  11  37  1   
 28  12  15  1   
 29  12  38  1   
 30  12  39  1   
 31  13  40  1   
 32  14  16  1   
 33  14  41  1   
 34  14  42  1   
 35  15  17  1   
 36  15  43  1   
 37  15  44  1   
 38  16  17  1   
 39  16  18  1   
 40  17  45  1   
 41  17  46  1   
 42  18  19  ar  
 43  18  20  ar  
 44  19  21  ar  
 45  19  22  1   
 46  20  23  ar  
 47  20  47  1   
 48  21  24  ar  
 49  21  48  1   
 50  22  49  1   
 51  22  50  1   
 52  22  51  1   
 53  23  24  ar  
 54  23  52  1   
 55  24  53  1   
@<TRIPOS>SUBSTRUCTURE
  1 ****   8 GROUP 4 **** **** 0

# MOE 2024.06 (io_trps.svl 2023.06)
