@<TRIPOS>MOLECULE
NONAME
49 51 1 0 0 
SMALL
USER_CHARGES


@<TRIPOS>ATOM
  1 F       -1.8340    -0.0780    -1.9090 F     1 <1>  -0.1900 
  2 C       -1.9840     0.9480    -1.1160 C.ar  1 <1>   0.1900 
  3 C       -1.9960     2.2130    -1.6620 C.ar  1 <1>  -0.1500 
  4 C       -2.1220     0.7270     0.2380 C.ar  1 <1>  -0.1500 
  5 C       -2.1390     3.3250    -0.8330 C.ar  1 <1>   0.0860 
  6 C       -2.2830     1.8220     1.0690 C.ar  1 <1>  -0.1500 
  7 C       -2.2970     3.1080     0.5440 C.ar  1 <1>  -0.1440 
  8 C       -2.1210     4.6570    -1.4080 C.2   1 <1>   0.5440 
  9 C       -2.5070     4.2870     1.4870 C.3   1 <1>  -0.0960 
 10 O       -3.1710     5.2590    -1.5330 O.2   1 <1>  -0.5700 
 11 N       -0.9420     5.2620    -1.8020 N.am  1 <1>  -0.6600 
 12 C        0.3880     4.5850    -1.7210 C.3   1 <1>   0.1400 
 13 C       -0.9310     6.6670    -2.3020 C.3   1 <1>   0.1400 
 14 C        1.0550     4.8100    -0.3550 C.3   1 <1>   0.1100 
 15 C        0.2280     7.5010    -1.7400 C.3   1 <1>  -0.1600 
 16 N        1.5860     6.1780    -0.1590 N.3   1 <1>  -0.8100 
 17 C        0.5480     7.2240    -0.2680 C.3   1 <1>   0.1100 
 18 C        2.2890     6.2640     1.1410 C.3   1 <1>   0.2480 
 19 C        3.1880     7.4960     1.1900 C.2   1 <1>  -0.0380 
 20 N        3.7810     7.8920     0.0240 N.pl3 1 <1>  -0.5500 
 21 C        3.4510     8.2430     2.2850 C.2   1 <1>  -0.1360 
 22 C        4.5930     8.9830    -0.0370 C.2   1 <1>   0.4390 
 23 C        4.3100     9.3690     2.1810 C.2   1 <1>   0.7670 
 24 N        4.8710     9.7130     0.9780 N.2   1 <1>  -0.6610 
 25 C        5.1700     9.3210    -1.3890 C.3   1 <1>  -0.1790 
 26 O        4.5590    10.0500     3.1630 O.2   1 <1>  -0.5700 
 27 H       -1.8940     2.3420    -2.7240 H     1 <1>   0.1500 
 28 H       -2.1090    -0.2750     0.6280 H     1 <1>   0.1500 
 29 H       -2.4040     1.6630     2.1270 H     1 <1>   0.1500 
 30 H       -1.7160     5.0070     1.3760 H     1 <1>   0.0800 
 31 H       -2.5350     3.9670     2.5130 H     1 <1>   0.0800 
 32 H       -3.4410     4.7700     1.2570 H     1 <1>   0.0800 
 33 H        1.0340     4.9420    -2.5040 H     1 <1>   0.0800 
 34 H        0.2650     3.5290    -1.8740 H     1 <1>   0.0800 
 35 H       -1.8520     7.1510    -2.0270 H     1 <1>   0.0800 
 36 H       -0.8830     6.6560    -3.3770 H     1 <1>   0.0800 
 37 H        1.8770     4.1180    -0.2850 H     1 <1>   0.0800 
 38 H        0.3580     4.5650     0.4260 H     1 <1>   0.0800 
 39 H       -0.0530     8.5340    -1.8370 H     1 <1>   0.0800 
 40 H        1.1100     7.3650    -2.3390 H     1 <1>   0.0800 
 41 H       -0.3400     6.9450     0.2750 H     1 <1>   0.0800 
 42 H        0.9180     8.1410     0.1580 H     1 <1>   0.0800 
 43 H        2.9190     5.3980     1.2610 H     1 <1>   0.0800 
 44 H        1.5800     6.2800     1.9510 H     1 <1>   0.0800 
 45 H        3.5220     7.3740    -0.8240 H     1 <1>   0.4000 
 46 H        3.0440     8.0370     3.2540 H     1 <1>   0.1500 
 47 H        5.7780     8.5080    -1.7390 H     1 <1>   0.0800 
 48 H        5.7800    10.2030    -1.3180 H     1 <1>   0.0800 
 49 H        4.3770     9.5050    -2.0890 H     1 <1>   0.0800 
@<TRIPOS>BOND
  1   1   2  1   
  2   2   3  ar  
  3   2   4  ar  
  4   3   5  ar  
  5   3  27  1   
  6   4   6  ar  
  7   4  28  1   
  8   5   7  ar  
  9   5   8  1   
 10   6   7  ar  
 11   6  29  1   
 12   7   9  1   
 13   8  10  2   
 14   8  11  am  
 15   9  30  1   
 16   9  31  1   
 17   9  32  1   
 18  11  12  1   
 19  11  13  1   
 20  12  14  1   
 21  12  33  1   
 22  12  34  1   
 23  13  15  1   
 24  13  35  1   
 25  13  36  1   
 26  14  16  1   
 27  14  37  1   
 28  14  38  1   
 29  15  17  1   
 30  15  39  1   
 31  15  40  1   
 32  16  17  1   
 33  16  18  1   
 34  17  41  1   
 35  17  42  1   
 36  18  19  1   
 37  18  43  1   
 38  18  44  1   
 39  19  20  1   
 40  19  21  2   
 41  20  22  1   
 42  20  45  1   
 43  21  23  1   
 44  21  46  1   
 45  22  24  2   
 46  22  25  1   
 47  23  24  1   
 48  23  26  2   
 49  25  47  1   
 50  25  48  1   
 51  25  49  1   
@<TRIPOS>SUBSTRUCTURE
  1 ****  14 GROUP 4 **** **** 0

# MOE 2024.06 (io_trps.svl 2023.06)
