@<TRIPOS>MOLECULE
NONAME
45 47 1 0 0 
SMALL
USER_CHARGES


@<TRIPOS>ATOM
  1 O       -0.5880     0.5180    -0.7200 O.2   1 <1>  -0.5700 
  2 C       -1.6630     0.9820    -0.4210 C.2   1 <1>   0.5690 
  3 N       -2.7400     0.1790    -0.1770 N.am  1 <1>  -0.6600 
  4 C       -1.7970     2.4900    -0.3380 C.3   1 <1>  -0.0990 
  5 C       -4.1360     0.6120     0.0850 C.3   1 <1>   0.1400 
  6 C       -2.6470    -1.3000    -0.2150 C.3   1 <1>   0.1400 
  7 C       -0.4850     3.1440     0.1140 C.3   1 <1>   0.0960 
  8 C       -4.9630    -0.6710     0.0080 C.3   1 <1>   0.2000 
  9 C       -3.9860    -1.8010     0.3280 C.3   1 <1>  -0.0800 
 10 N       -0.6500     4.6050     0.2180 N.pl3 1 <1>   0.3140 
 11 O       -6.0050    -0.6660     0.9200 O.3   1 <1>  -0.6800 
 12 C       -4.4190    -3.1550    -0.2520 C.3   1 <1>   0.0200 
 13 N       -1.4550     5.1670     1.1400 N.2   1 <1>  -0.7070 
 14 C       -0.0670     5.5390    -0.5580 C.2   1 <1>  -0.3020 
 15 C       -3.3750    -4.2200     0.0230 C.2   1 <1>  -0.0400 
 16 C       -1.3600     6.4440     0.9280 C.2   1 <1>   0.1390 
 17 C       -0.5030     6.7400    -0.1270 C.2   1 <1>  -0.1810 
 18 O       -3.0840    -4.5470     1.2540 O.3   1 <1>  -0.0190 
 19 C       -2.6100    -4.9610    -0.7920 C.2   1 <1>  -0.1500 
 20 C       -0.1550     8.1170    -0.6530 C.3   1 <1>  -0.0590 
 21 N       -2.1620    -5.4630     1.3070 N.2   1 <1>  -0.4100 
 22 C       -1.8570    -5.7330     0.0880 C.2   1 <1>   0.1080 
 23 C       -0.8180    -6.7520    -0.3220 C.3   1 <1>  -0.0590 
 24 H       -2.0710     2.8610    -1.3070 H     1 <1>   0.0800 
 25 H       -2.5650     2.7480     0.3670 H     1 <1>   0.0800 
 26 H       -4.1940     1.0460     1.0690 H     1 <1>   0.0800 
 27 H       -4.4610     1.3200    -0.6570 H     1 <1>   0.0800 
 28 H       -2.4990    -1.6120    -1.2350 H     1 <1>   0.0800 
 29 H       -1.8220    -1.6480     0.3850 H     1 <1>   0.0800 
 30 H        0.3020     2.9320    -0.5860 H     1 <1>   0.0800 
 31 H       -0.1990     2.7680     1.0790 H     1 <1>   0.0800 
 32 H       -5.3770    -0.7770    -0.9800 H     1 <1>   0.0800 
 33 H       -3.8790    -1.8900     1.3960 H     1 <1>   0.0800 
 34 H       -5.6610    -0.6460     1.8350 H     1 <1>   0.4000 
 35 H       -4.5660    -3.0720    -1.3140 H     1 <1>   0.0800 
 36 H       -5.3520    -3.4570     0.1910 H     1 <1>   0.0800 
 37 H        0.6110     5.3020    -1.3560 H     1 <1>   0.1500 
 38 H       -1.8890     7.1800     1.5090 H     1 <1>   0.1500 
 39 H       -2.5580    -4.9810    -1.8650 H     1 <1>   0.1500 
 40 H        0.3010     8.7020     0.1250 H     1 <1>   0.0800 
 41 H       -1.0450     8.6160    -0.9920 H     1 <1>   0.0800 
 42 H        0.5330     8.0360    -1.4750 H     1 <1>   0.0800 
 43 H       -1.2690    -7.5040    -0.9430 H     1 <1>   0.0800 
 44 H       -0.4020    -7.2240     0.5500 H     1 <1>   0.0800 
 45 H       -0.0280    -6.2670    -0.8660 H     1 <1>   0.0800 
@<TRIPOS>BOND
  1   1   2  2   
  2   2   3  am  
  3   2   4  1   
  4   3   5  1   
  5   3   6  1   
  6   4   7  1   
  7   4  24  1   
  8   4  25  1   
  9   5   8  1   
 10   5  26  1   
 11   5  27  1   
 12   6   9  1   
 13   6  28  1   
 14   6  29  1   
 15   7  10  1   
 16   7  30  1   
 17   7  31  1   
 18   8   9  1   
 19   8  11  1   
 20   8  32  1   
 21   9  12  1   
 22   9  33  1   
 23  10  13  1   
 24  10  14  1   
 25  11  34  1   
 26  12  15  1   
 27  12  35  1   
 28  12  36  1   
 29  13  16  2   
 30  14  17  2   
 31  14  37  1   
 32  15  18  1   
 33  15  19  2   
 34  16  17  1   
 35  16  38  1   
 36  17  20  1   
 37  18  21  1   
 38  19  22  1   
 39  19  39  1   
 40  20  40  1   
 41  20  41  1   
 42  20  42  1   
 43  21  22  2   
 44  22  23  1   
 45  23  43  1   
 46  23  44  1   
 47  23  45  1   
@<TRIPOS>SUBSTRUCTURE
  1 ****   3 GROUP 4 **** **** 0

# MOE 2024.06 (io_trps.svl 2023.06)
