@<TRIPOS>MOLECULE
NONAME
49 51 1 0 0 
SMALL
USER_CHARGES


@<TRIPOS>ATOM
  1 S       -1.1010    -0.5020    -2.7470 S.3   1 <1>  -0.0800 
  2 C        0.0250    -0.5510    -1.4070 C.2   1 <1>   0.1980 
  3 C       -0.8130    -2.1930    -3.0250 C.2   1 <1>  -0.1100 
  4 N        0.5420    -1.6990    -1.2060 N.2   1 <1>  -0.5650 
  5 C        0.2460     0.7560    -0.6610 C.3   1 <1>   0.0200 
  6 C        0.0740    -2.6360    -2.1210 C.2   1 <1>   0.0460 
  7 C        1.1930     0.6110     0.5380 C.3   1 <1>  -0.2400 
  8 C        0.6000    -4.0630    -2.0200 C.3   1 <1>   0.5240 
  9 N       -0.1130    -4.8230    -0.9640 N.4   1 <1>  -0.9590 
 10 C        0.2490    -6.2600    -0.9300 C.3   1 <1>   0.3430 
 11 C       -0.1060    -4.1800     0.3850 C.3   1 <1>   0.3430 
 12 C       -0.8640    -7.0500    -0.2250 C.3   1 <1>  -0.1060 
 13 C       -0.4400    -5.1850     1.4950 C.3   1 <1>  -0.1600 
 14 C       -2.0190    -7.1170    -1.2060 C.2   1 <1>   0.9060 
 15 C       -1.4170    -6.2450     0.9850 C.3   1 <1>   0.2000 
 16 C       -0.3210    -8.4810     0.0730 C.3   1 <1>  -0.0170 
 17 O       -2.2280    -6.1210    -1.9160 O.co2 1 <1>  -0.9000 
 18 O       -2.7320    -8.1160    -1.2390 O.co2 1 <1>  -0.9000 
 19 O       -1.7690    -7.0590     2.0420 O.3   1 <1>  -0.6800 
 20 C        1.0860    -8.4990     0.6680 C.ar  1 <1>  -0.1440 
 21 C        1.2870    -8.2890     2.0230 C.ar  1 <1>  -0.1500 
 22 C        2.1830    -8.7280    -0.1500 C.ar  1 <1>  -0.1500 
 23 C        2.5670    -8.2810     2.5500 C.ar  1 <1>  -0.1500 
 24 C        3.4640    -8.7210     0.3750 C.ar  1 <1>  -0.1500 
 25 C        3.6570    -8.4940     1.7250 C.ar  1 <1>  -0.1500 
 26 H       -1.3440    -2.6680    -3.8320 H     1 <1>   0.1500 
 27 H        0.6500     1.4780    -1.3470 H     1 <1>   0.0800 
 28 H       -0.7050     1.1210    -0.3170 H     1 <1>   0.0800 
 29 H        2.1570     0.2640     0.2080 H     1 <1>   0.0800 
 30 H        0.7950    -0.0960     1.2430 H     1 <1>   0.0800 
 31 H        1.3170     1.5590     1.0300 H     1 <1>   0.0800 
 32 H        1.6560    -4.0350    -1.8100 H     1 <1>   0.0800 
 33 H        0.4490    -4.5550    -2.9660 H     1 <1>   0.0800 
 34 H       -1.1080    -4.8770    -1.3020 H     1 <1>   0.4500 
 35 H        0.3620    -6.6420    -1.9320 H     1 <1>   0.0800 
 36 H        1.1820    -6.3760    -0.4050 H     1 <1>   0.0800 
 37 H        0.8590    -3.7430     0.5810 H     1 <1>   0.0800 
 38 H       -0.8330    -3.3830     0.3900 H     1 <1>   0.0800 
 39 H       -0.8710    -4.6560     2.3260 H     1 <1>   0.0800 
 40 H        0.4670    -5.6520     1.8310 H     1 <1>   0.0800 
 41 H       -2.3220    -5.7330     0.6930 H     1 <1>   0.0800 
 42 H       -0.9960    -9.0250     0.7110 H     1 <1>   0.0800 
 43 H       -0.2980    -9.0350    -0.8500 H     1 <1>   0.0800 
 44 H       -2.4450    -7.7020     1.7340 H     1 <1>   0.4000 
 45 H        0.4480    -8.1310     2.6770 H     1 <1>   0.1500 
 46 H        2.0480    -8.9190    -1.2010 H     1 <1>   0.1500 
 47 H        2.7120    -8.1140     3.6030 H     1 <1>   0.1500 
 48 H        4.3110    -8.8990    -0.2660 H     1 <1>   0.1500 
 49 H        4.6520    -8.4900     2.1360 H     1 <1>   0.1500 
@<TRIPOS>BOND
  1   1   2  1   
  2   1   3  1   
  3   2   4  2   
  4   2   5  1   
  5   3   6  2   
  6   3  26  1   
  7   4   6  1   
  8   5   7  1   
  9   5  27  1   
 10   5  28  1   
 11   6   8  1   
 12   7  29  1   
 13   7  30  1   
 14   7  31  1   
 15   8   9  1   
 16   8  32  1   
 17   8  33  1   
 18   9  10  1   
 19   9  11  1   
 20   9  34  1   
 21  10  12  1   
 22  10  35  1   
 23  10  36  1   
 24  11  13  1   
 25  11  37  1   
 26  11  38  1   
 27  12  14  1   
 28  12  15  1   
 29  12  16  1   
 30  13  15  1   
 31  13  39  1   
 32  13  40  1   
 33  14  17  ar  
 34  14  18  ar  
 35  15  19  1   
 36  15  41  1   
 37  16  20  1   
 38  16  42  1   
 39  16  43  1   
 40  19  44  1   
 41  20  21  ar  
 42  20  22  ar  
 43  21  23  ar  
 44  21  45  1   
 45  22  24  ar  
 46  22  46  1   
 47  23  25  ar  
 48  23  47  1   
 49  24  25  ar  
 50  24  48  1   
 51  25  49  1   
@<TRIPOS>SUBSTRUCTURE
  1 ****   9 GROUP 4 **** **** 0

# MOE 2024.06 (io_trps.svl 2023.06)
