@<TRIPOS>MOLECULE
NONAME
53 56 1 0 0 
SMALL
USER_CHARGES


@<TRIPOS>ATOM
  1 S        1.2980     0.4640    -2.2690 S.3   1 <1>  -0.0800 
  2 C        0.4410    -0.6940    -1.2440 C.2   1 <1>   0.2930 
  3 C        1.2620     1.6210    -0.9850 C.2   1 <1>  -0.1400 
  4 N        0.1870    -0.2110    -0.0660 N.2   1 <1>  -0.5650 
  5 C        0.1460    -2.0030    -1.8180 C.2   1 <1>   0.7150 
  6 C        0.6530     1.0770     0.0700 C.2   1 <1>   0.0460 
  7 C        1.8540     3.0050    -1.1170 C.3   1 <1>   0.0200 
  8 O        0.7740    -2.4010    -2.7860 O.2   1 <1>  -0.5700 
  9 N       -0.8180    -2.8530    -1.2960 N.am  1 <1>  -0.6600 
 10 C        0.4710     1.8360     1.3700 C.3   1 <1>   0.0210 
 11 C        1.3620     3.8660     0.0640 C.3   1 <1>  -0.1600 
 12 C       -0.7440    -4.3390    -1.4680 C.3   1 <1>   0.1400 
 13 C       -2.0040    -2.3810    -0.5370 C.3   1 <1>   0.1400 
 14 C        1.3720     3.0910     1.4010 C.3   1 <1>  -0.1600 
 15 C       -0.6970    -5.0540    -0.0940 C.3   1 <1>   0.0000 
 16 C       -1.9880    -3.0130     0.8530 C.3   1 <1>  -0.1600 
 17 C       -1.9130    -4.5380     0.7270 C.3   1 <1>   0.2000 
 18 C       -0.9060    -6.5750    -0.2980 C.3   1 <1>   0.1200 
 19 C        0.6510    -4.7560     0.6390 C.3   1 <1>  -0.0160 
 20 O       -1.9270    -5.0730     2.0030 O.3   1 <1>  -0.6800 
 21 O       -0.0920    -7.0780    -1.3030 O.3   1 <1>  -0.6800 
 22 C        1.8810    -5.4470     0.0570 C.ar  1 <1>  -0.1440 
 23 C        2.5900    -4.8760    -0.9880 C.ar  1 <1>  -0.1500 
 24 C        2.3050    -6.6630     0.5750 C.ar  1 <1>  -0.1500 
 25 C        3.6930    -5.5180    -1.5220 C.ar  1 <1>  -0.1500 
 26 C        3.4090    -7.3060     0.0430 C.ar  1 <1>  -0.1500 
 27 C        4.1030    -6.7350    -1.0080 C.ar  1 <1>  -0.1500 
 28 H        2.9270     2.9290    -1.1000 H     1 <1>   0.0800 
 29 H        1.5550     3.4520    -2.0490 H     1 <1>   0.0800 
 30 H       -0.5630     2.1210     1.4550 H     1 <1>   0.0800 
 31 H        0.7140     1.1950     2.1980 H     1 <1>   0.0800 
 32 H        1.9760     4.7460     0.1450 H     1 <1>   0.0800 
 33 H        0.3550     4.1870    -0.1390 H     1 <1>   0.0800 
 34 H       -1.6110    -4.6640    -2.0170 H     1 <1>   0.0800 
 35 H        0.1170    -4.6090    -2.0550 H     1 <1>   0.0800 
 36 H       -2.0250    -1.3090    -0.4620 H     1 <1>   0.0800 
 37 H       -2.8940    -2.6840    -1.0640 H     1 <1>   0.0800 
 38 H        1.0530     3.7380     2.2000 H     1 <1>   0.0800 
 39 H        2.3820     2.7840     1.6130 H     1 <1>   0.0800 
 40 H       -2.8920    -2.7380     1.3670 H     1 <1>   0.0800 
 41 H       -1.1510    -2.6230     1.4020 H     1 <1>   0.0800 
 42 H       -2.8170    -4.8770     0.2470 H     1 <1>   0.0800 
 43 H       -1.9220    -6.7840    -0.5870 H     1 <1>   0.0800 
 44 H       -0.6970    -7.1150     0.6100 H     1 <1>   0.0800 
 45 H        0.8350    -3.6970     0.6550 H     1 <1>   0.0800 
 46 H        0.5770    -5.0630     1.6660 H     1 <1>   0.0800 
 47 H       -1.2710    -4.6200     2.5660 H     1 <1>   0.4000 
 48 H        0.8510    -6.8670    -1.1050 H     1 <1>   0.4000 
 49 H        2.2910    -3.9280    -1.3980 H     1 <1>   0.1500 
 50 H        1.7760    -7.1200     1.3930 H     1 <1>   0.1500 
 51 H        4.2310    -5.0660    -2.3380 H     1 <1>   0.1500 
 52 H        3.7280    -8.2510     0.4470 H     1 <1>   0.1500 
 53 H        4.9600    -7.2340    -1.4250 H     1 <1>   0.1500 
@<TRIPOS>BOND
  1   1   2  1   
  2   1   3  1   
  3   2   4  2   
  4   2   5  1   
  5   3   6  2   
  6   3   7  1   
  7   4   6  1   
  8   5   8  2   
  9   5   9  am  
 10   6  10  1   
 11   7  11  1   
 12   7  28  1   
 13   7  29  1   
 14   9  12  1   
 15   9  13  1   
 16  10  14  1   
 17  10  30  1   
 18  10  31  1   
 19  11  14  1   
 20  11  32  1   
 21  11  33  1   
 22  12  15  1   
 23  12  34  1   
 24  12  35  1   
 25  13  16  1   
 26  13  36  1   
 27  13  37  1   
 28  14  38  1   
 29  14  39  1   
 30  15  17  1   
 31  15  18  1   
 32  15  19  1   
 33  16  17  1   
 34  16  40  1   
 35  16  41  1   
 36  17  20  1   
 37  17  42  1   
 38  18  21  1   
 39  18  43  1   
 40  18  44  1   
 41  19  22  1   
 42  19  45  1   
 43  19  46  1   
 44  20  47  1   
 45  21  48  1   
 46  22  23  ar  
 47  22  24  ar  
 48  23  25  ar  
 49  23  49  1   
 50  24  26  ar  
 51  24  50  1   
 52  25  27  ar  
 53  25  51  1   
 54  26  27  ar  
 55  26  52  1   
 56  27  53  1   
@<TRIPOS>SUBSTRUCTURE
  1 ****   5 GROUP 4 **** **** 0

# MOE 2024.06 (io_trps.svl 2023.06)
