@<TRIPOS>MOLECULE
NONAME
47 49 1 0 0 
SMALL
USER_CHARGES


@<TRIPOS>ATOM
  1 O       -2.1400    -0.2330    -2.8180 O.2   1 <1>  -0.5700 
  2 C       -2.2480    -0.6700    -1.6960 C.2   1 <1>   0.5690 
  3 N       -2.1590     0.1300    -0.5950 N.am  1 <1>  -0.6600 
  4 C       -2.4800    -2.1540    -1.5390 C.3   1 <1>  -0.0190 
  5 C       -2.4040    -0.3980     0.7770 C.3   1 <1>   0.2200 
  6 C       -1.8930     1.5930    -0.7000 C.3   1 <1>   0.0600 
  7 C       -1.3320    -2.8150    -0.7560 C.3   1 <1>   0.1200 
  8 C       -3.9180    -2.4570    -1.0770 C.3   1 <1>   0.1400 
  9 C       -1.3280    -1.4280     1.1990 C.3   1 <1>   0.1200 
 10 C       -3.8700    -0.8550     0.9390 C.3   1 <1>   0.1400 
 11 O       -1.4550    -2.6990     0.6270 O.3   1 <1>  -0.5600 
 12 N       -4.2190    -2.2040     0.3720 N.am  1 <1>  -0.6600 
 13 C       -4.8330    -3.1580     1.1680 C.2   1 <1>   0.5440 
 14 O       -5.0540    -2.9040     2.3390 O.2   1 <1>  -0.5700 
 15 C       -5.2580    -4.4440     0.6360 C.ar  1 <1>   0.0860 
 16 C       -6.4780    -4.5640    -0.0430 C.ar  1 <1>  -0.1430 
 17 C       -4.4610    -5.5880     0.7710 C.ar  1 <1>  -0.1430 
 18 C       -6.8620    -5.7760    -0.5900 C.ar  1 <1>  -0.1500 
 19 C       -7.4090    -3.3650    -0.1830 C.3   1 <1>  -0.0970 
 20 C       -4.8610    -6.7920     0.2170 C.ar  1 <1>  -0.1500 
 21 C       -3.1400    -5.5390     1.5280 C.3   1 <1>  -0.0970 
 22 C       -6.0570    -6.8940    -0.4700 C.ar  1 <1>  -0.1430 
 23 C       -6.4860    -8.2200    -1.0710 C.3   1 <1>  -0.0970 
 24 H       -2.4100    -2.5530    -2.5340 H     1 <1>   0.0800 
 25 H       -2.2850     0.4330     1.4490 H     1 <1>   0.0800 
 26 H       -1.0260     1.8490    -0.1170 H     1 <1>   0.0800 
 27 H       -2.7430     2.1450    -0.3380 H     1 <1>   0.0800 
 28 H       -1.7110     1.8770    -1.7230 H     1 <1>   0.0800 
 29 H       -0.3810    -2.4030    -1.0510 H     1 <1>   0.0800 
 30 H       -1.3220    -3.8680    -0.9730 H     1 <1>   0.0800 
 31 H       -4.1120    -3.4870    -1.3130 H     1 <1>   0.0800 
 32 H       -4.5980    -1.8680    -1.6690 H     1 <1>   0.0800 
 33 H       -1.3980    -1.5740     2.2620 H     1 <1>   0.0800 
 34 H       -0.3450    -1.0520     0.9780 H     1 <1>   0.0800 
 35 H       -4.5140    -0.1190     0.4930 H     1 <1>   0.0800 
 36 H       -4.0800    -0.8460     1.9930 H     1 <1>   0.0800 
 37 H       -7.7990    -5.8570    -1.1120 H     1 <1>   0.1500 
 38 H       -8.3450    -3.6500    -0.6270 H     1 <1>   0.0800 
 39 H       -6.9540    -2.6110    -0.7990 H     1 <1>   0.0800 
 40 H       -7.6110    -2.9440     0.7870 H     1 <1>   0.0800 
 41 H       -4.2380    -7.6620     0.3220 H     1 <1>   0.1500 
 42 H       -2.8270    -6.5250     1.8190 H     1 <1>   0.0800 
 43 H       -3.2320    -4.9450     2.4200 H     1 <1>   0.0800 
 44 H       -2.3780    -5.1080     0.9060 H     1 <1>   0.0800 
 45 H       -7.0930    -8.0590    -1.9440 H     1 <1>   0.0800 
 46 H       -7.0570    -8.7760    -0.3490 H     1 <1>   0.0800 
 47 H       -5.6270    -8.8000    -1.3570 H     1 <1>   0.0800 
@<TRIPOS>BOND
  1   1   2  2   
  2   2   3  am  
  3   2   4  1   
  4   3   5  1   
  5   3   6  1   
  6   4   7  1   
  7   4   8  1   
  8   4  24  1   
  9   5   9  1   
 10   5  10  1   
 11   5  25  1   
 12   6  26  1   
 13   6  27  1   
 14   6  28  1   
 15   7  11  1   
 16   7  29  1   
 17   7  30  1   
 18   8  12  1   
 19   8  31  1   
 20   8  32  1   
 21   9  11  1   
 22   9  33  1   
 23   9  34  1   
 24  10  12  1   
 25  10  35  1   
 26  10  36  1   
 27  12  13  am  
 28  13  14  2   
 29  13  15  1   
 30  15  16  ar  
 31  15  17  ar  
 32  16  18  ar  
 33  16  19  1   
 34  17  20  ar  
 35  17  21  1   
 36  18  22  ar  
 37  18  37  1   
 38  19  38  1   
 39  19  39  1   
 40  19  40  1   
 41  20  22  ar  
 42  20  41  1   
 43  21  42  1   
 44  21  43  1   
 45  21  44  1   
 46  22  23  1   
 47  23  45  1   
 48  23  46  1   
 49  23  47  1   
@<TRIPOS>SUBSTRUCTURE
  1 ****  12 GROUP 4 **** **** 0

# MOE 2024.06 (io_trps.svl 2023.06)
