@<TRIPOS>MOLECULE
NONAME
43 46 1 0 0 
SMALL
USER_CHARGES


@<TRIPOS>ATOM
  1 O       -0.5760     0.2950    -0.3880 O.2   1 <1>  -0.5700 
  2 C       -1.6290     0.9140    -0.3970 C.2   1 <1>   0.7160 
  3 N       -2.7940     0.1680    -0.4600 N.am  1 <1>  -0.6600 
  4 C       -1.5990     2.3780    -0.3430 C.2   1 <1>   0.2030 
  5 C       -4.1750     0.7100    -0.4650 C.3   1 <1>   0.1400 
  6 C       -2.8150    -1.3150    -0.4750 C.3   1 <1>   0.1400 
  7 N       -2.6230     3.2210    -0.3130 N.2   1 <1>  -0.7070 
  8 C       -0.3980     3.1030    -0.3120 C.2   1 <1>  -0.1500 
  9 C       -5.0870    -0.5170    -0.5150 C.3   1 <1>   0.2000 
 10 C       -4.2320    -1.6910    -0.0410 C.3   1 <1>  -0.0800 
 11 N       -2.0790     4.4460    -0.2640 N.pl3 1 <1>   0.3000 
 12 C       -0.7360     4.4050    -0.2620 C.2   1 <1>  -0.2370 
 13 O       -6.1870    -0.3700     0.3170 O.3   1 <1>  -0.6800 
 14 C       -4.7220    -3.0400    -0.5910 C.3   1 <1>  -0.0170 
 15 C        0.1360     5.6420    -0.2120 C.3   1 <1>  -0.0150 
 16 C       -3.8660    -4.1920    -0.0930 C.ar  1 <1>   0.1670 
 17 C        1.4650     5.5970     0.4710 C.3   1 <1>  -0.2000 
 18 C        0.3260     6.3550     1.0870 C.3   1 <1>  -0.2000 
 19 N       -2.7730    -4.4580    -0.7910 N.ar  1 <1>  -0.6200 
 20 C       -4.2520    -4.8930     1.0400 C.ar  1 <1>  -0.1500 
 21 C       -2.0330    -5.4590    -0.3410 C.ar  1 <1>   0.1600 
 22 C       -3.4730    -5.9350     1.4970 C.ar  1 <1>  -0.1500 
 23 C       -2.3320    -6.2160     0.7780 C.ar  1 <1>  -0.1500 
 24 H       -4.3370     1.2790     0.4340 H     1 <1>   0.0800 
 25 H       -4.3250     1.3340    -1.3290 H     1 <1>   0.0800 
 26 H       -2.6140    -1.6580    -1.4760 H     1 <1>   0.0800 
 27 H       -2.0750    -1.7250     0.1930 H     1 <1>   0.0800 
 28 H        0.5840     2.6650    -0.3270 H     1 <1>   0.1500 
 29 H       -5.4390    -0.6680    -1.5210 H     1 <1>   0.0800 
 30 H       -4.2330    -1.7240     1.0340 H     1 <1>   0.0800 
 31 H       -2.6430     5.3040    -0.2280 H     1 <1>   0.2700 
 32 H       -5.8950    -0.1800     1.2290 H     1 <1>   0.4000 
 33 H       -4.7020    -3.0290    -1.6670 H     1 <1>   0.0800 
 34 H       -5.7420    -3.1960    -0.2890 H     1 <1>   0.0800 
 35 H        0.0690     6.2380    -1.1070 H     1 <1>   0.1000 
 36 H        1.7810     4.6780     0.9340 H     1 <1>   0.1000 
 37 H        2.2840     6.1450     0.0380 H     1 <1>   0.1000 
 38 H        0.3630     7.4300     1.0900 H     1 <1>   0.1000 
 39 H       -0.1310     5.9530     1.9750 H     1 <1>   0.1000 
 40 H       -5.1530    -4.6270     1.5620 H     1 <1>   0.1500 
 41 H       -1.1390    -5.6880    -0.8950 H     1 <1>   0.1500 
 42 H       -3.7420    -6.5000     2.3730 H     1 <1>   0.1500 
 43 H       -1.6780    -7.0150     1.0790 H     1 <1>   0.1500 
@<TRIPOS>BOND
  1   1   2  2   
  2   2   3  am  
  3   2   4  1   
  4   3   5  1   
  5   3   6  1   
  6   4   7  2   
  7   4   8  1   
  8   5   9  1   
  9   5  24  1   
 10   5  25  1   
 11   6  10  1   
 12   6  26  1   
 13   6  27  1   
 14   7  11  1   
 15   8  12  2   
 16   8  28  1   
 17   9  10  1   
 18   9  13  1   
 19   9  29  1   
 20  10  14  1   
 21  10  30  1   
 22  11  12  1   
 23  11  31  1   
 24  12  15  1   
 25  13  32  1   
 26  14  16  1   
 27  14  33  1   
 28  14  34  1   
 29  15  17  1   
 30  15  18  1   
 31  15  35  1   
 32  16  19  ar  
 33  16  20  ar  
 34  17  18  1   
 35  17  36  1   
 36  17  37  1   
 37  18  38  1   
 38  18  39  1   
 39  19  21  ar  
 40  20  22  ar  
 41  20  40  1   
 42  21  23  ar  
 43  21  41  1   
 44  22  23  ar  
 45  22  42  1   
 46  23  43  1   
@<TRIPOS>SUBSTRUCTURE
  1 ****   3 GROUP 4 **** **** 0

# MOE 2024.06 (io_trps.svl 2023.06)
