@<TRIPOS>MOLECULE
NONAME
52 53 1 0 0 
SMALL
USER_CHARGES


@<TRIPOS>ATOM
  1 CL       1.4710     1.1960     1.8550 Cl    1 <1>  -0.1770 
  2 C        1.9980    -0.2660     1.0490 C.ar  1 <1>   0.1770 
  3 C        2.5640    -0.2110    -0.2190 C.ar  1 <1>   0.0820 
  4 C        1.8300    -1.4650     1.7140 C.ar  1 <1>  -0.1500 
  5 O        2.6940     1.0080    -0.8080 O.3   1 <1>  -0.3630 
  6 C        2.9650    -1.3990    -0.8230 C.ar  1 <1>  -0.1500 
  7 C        2.2270    -2.6480     1.1080 C.ar  1 <1>  -0.1430 
  8 C        3.3140     1.1760    -2.0640 C.3   1 <1>   0.0400 
  9 C        2.7970    -2.6150    -0.1630 C.ar  1 <1>   0.0830 
 10 C        2.0400    -3.9690     1.8320 C.3   1 <1>   0.4870 
 11 O        3.1600    -3.8080    -0.7090 O.3   1 <1>  -0.3630 
 12 N        1.1330    -4.8260     1.0290 N.4   1 <1>  -0.9590 
 13 C        3.9400    -3.8710    -1.8880 C.3   1 <1>   0.0400 
 14 C       -0.2380    -4.2530     0.9150 C.3   1 <1>   0.3430 
 15 C        1.1350    -6.2370     1.4940 C.3   1 <1>   0.3430 
 16 C       -1.0530    -5.0850    -0.0730 C.3   1 <1>  -0.1600 
 17 C        0.3330    -7.1000     0.5190 C.3   1 <1>  -0.1600 
 18 C       -1.1030    -6.5700     0.3340 C.3   1 <1>  -0.0800 
 19 C       -1.9680    -7.4110    -0.6420 C.3   1 <1>  -0.0800 
 20 C       -2.2660    -8.8040    -0.0570 C.3   1 <1>   0.1200 
 21 C       -1.3720    -7.5350    -2.0590 C.3   1 <1>  -0.2400 
 22 O       -3.2340    -9.4220    -0.8400 O.3   1 <1>  -0.5600 
 23 C       -3.5760   -10.7030    -0.4190 C.3   1 <1>   0.0400 
 24 H        1.3910    -1.4490     2.6960 H     1 <1>   0.1500 
 25 H        3.3990    -1.3720    -1.8020 H     1 <1>   0.1500 
 26 H        3.3160     2.2270    -2.2940 H     1 <1>   0.0800 
 27 H        2.7510     0.6430    -2.8080 H     1 <1>   0.0800 
 28 H        4.3260     0.8150    -2.0070 H     1 <1>   0.0800 
 29 H        1.6300    -3.8050     2.8150 H     1 <1>   0.0800 
 30 H        3.0010    -4.4470     1.9340 H     1 <1>   0.0800 
 31 H        1.5500    -4.8010     0.0820 H     1 <1>   0.4500 
 32 H        4.1840    -4.9010    -2.0790 H     1 <1>   0.0800 
 33 H        4.8440    -3.3050    -1.7430 H     1 <1>   0.0800 
 34 H        3.3700    -3.4760    -2.7110 H     1 <1>   0.0800 
 35 H       -0.1870    -3.2340     0.5650 H     1 <1>   0.0800 
 36 H       -0.7200    -4.2600     1.8790 H     1 <1>   0.0800 
 37 H        0.6930    -6.2990     2.4760 H     1 <1>   0.0800 
 38 H        2.1460    -6.6080     1.5510 H     1 <1>   0.0800 
 39 H       -0.6240    -4.9680    -1.0520 H     1 <1>   0.0800 
 40 H       -2.0540    -4.6900    -0.1120 H     1 <1>   0.0800 
 41 H        0.3070    -8.1060     0.8990 H     1 <1>   0.0800 
 42 H        0.8520    -7.1240    -0.4220 H     1 <1>   0.0800 
 43 H       -1.5910    -6.6120     1.2950 H     1 <1>   0.0800 
 44 H       -2.9200    -6.9130    -0.7310 H     1 <1>   0.0800 
 45 H       -2.6520    -8.7200     0.9450 H     1 <1>   0.0800 
 46 H       -1.3830    -9.4190    -0.0580 H     1 <1>   0.0800 
 47 H       -0.4570    -8.0990    -2.0530 H     1 <1>   0.0800 
 48 H       -1.1910    -6.5730    -2.5000 H     1 <1>   0.0800 
 49 H       -2.0670    -8.0520    -2.6980 H     1 <1>   0.0800 
 50 H       -4.3270   -11.0830    -1.0890 H     1 <1>   0.0800 
 51 H       -3.9720   -10.6560     0.5800 H     1 <1>   0.0800 
 52 H       -2.7050   -11.3340    -0.4560 H     1 <1>   0.0800 
@<TRIPOS>BOND
  1   1   2  1   
  2   2   3  ar  
  3   2   4  ar  
  4   3   5  1   
  5   3   6  ar  
  6   4   7  ar  
  7   4  24  1   
  8   5   8  1   
  9   6   9  ar  
 10   6  25  1   
 11   7   9  ar  
 12   7  10  1   
 13   8  26  1   
 14   8  27  1   
 15   8  28  1   
 16   9  11  1   
 17  10  12  1   
 18  10  29  1   
 19  10  30  1   
 20  11  13  1   
 21  12  14  1   
 22  12  15  1   
 23  12  31  1   
 24  13  32  1   
 25  13  33  1   
 26  13  34  1   
 27  14  16  1   
 28  14  35  1   
 29  14  36  1   
 30  15  17  1   
 31  15  37  1   
 32  15  38  1   
 33  16  18  1   
 34  16  39  1   
 35  16  40  1   
 36  17  18  1   
 37  17  41  1   
 38  17  42  1   
 39  18  19  1   
 40  18  43  1   
 41  19  20  1   
 42  19  21  1   
 43  19  44  1   
 44  20  22  1   
 45  20  45  1   
 46  20  46  1   
 47  21  47  1   
 48  21  48  1   
 49  21  49  1   
 50  22  23  1   
 51  23  50  1   
 52  23  51  1   
 53  23  52  1   
@<TRIPOS>SUBSTRUCTURE
  1 ****  12 GROUP 4 **** **** 0

# MOE 2024.06 (io_trps.svl 2023.06)
