@<TRIPOS>MOLECULE
NONAME
32 32 1 0 0 
SMALL
USER_CHARGES


@<TRIPOS>ATOM
  1 N       -8.0550    -0.1240     0.1770 N.pl3 1 <1>  -0.8380 
  2 C       -7.7040    -1.2030    -0.6390 C.2   1 <1>  -0.0500 
  3 C       -6.8050     0.6910     0.2890 C.3   1 <1>   0.5780 
  4 C       -9.2070     0.6550    -0.3370 C.3   1 <1>   0.2090 
  5 C       -6.4260    -1.1670    -1.0010 C.2   1 <1>  -0.0500 
  6 N       -5.7650    -0.0460    -0.4950 N.pl3 1 <1>  -0.8380 
  7 C      -10.5010     0.0600     0.2190 C.3   1 <1>  -0.1600 
  8 C       -4.5800    -0.4040     0.3200 C.3   1 <1>   0.1290 
  9 C      -11.7310     0.8440    -0.2590 C.3   1 <1>  -0.1600 
 10 C      -13.0230     0.2410     0.3040 C.3   1 <1>  -0.1600 
 11 C      -14.2520     1.0230    -0.1720 C.3   1 <1>  -0.1600 
 12 C      -15.5410     0.4200     0.3910 C.3   1 <1>  -0.2400 
 13 H       -8.4380    -1.9460    -0.9040 H     1 <1>   0.1500 
 14 H       -6.5200     0.7770     1.3240 H     1 <1>   0.0800 
 15 H       -6.9410     1.6730    -0.1310 H     1 <1>   0.0800 
 16 H       -9.2150     0.6270    -1.4140 H     1 <1>   0.0800 
 17 H       -9.1270     1.6810    -0.0230 H     1 <1>   0.0800 
 18 H       -5.8960    -1.8800    -1.6110 H     1 <1>   0.1500 
 19 H      -10.4560     0.0770     1.2940 H     1 <1>   0.0800 
 20 H      -10.5820    -0.9640    -0.1010 H     1 <1>   0.0800 
 21 H       -4.1260     0.4850     0.7210 H     1 <1>   0.0800 
 22 H       -3.8590    -0.9130    -0.2960 H     1 <1>   0.0800 
 23 H       -4.8700    -1.0540     1.1290 H     1 <1>   0.0800 
 24 H      -11.7690     0.8280    -1.3350 H     1 <1>   0.0800 
 25 H      -11.6480     1.8700     0.0600 H     1 <1>   0.0800 
 26 H      -12.9850     0.2540     1.3800 H     1 <1>   0.0800 
 27 H      -13.1070    -0.7850    -0.0140 H     1 <1>   0.0800 
 28 H      -14.2950     1.0090    -1.2480 H     1 <1>   0.0800 
 29 H      -14.1730     2.0490     0.1460 H     1 <1>   0.0800 
 30 H      -15.6510    -0.6000     0.0680 H     1 <1>   0.0800 
 31 H      -16.3910     0.9820     0.0460 H     1 <1>   0.0800 
 32 H      -15.5290     0.4440     1.4670 H     1 <1>   0.0800 
@<TRIPOS>BOND
  1   1   2  1   
  2   1   3  1   
  3   1   4  1   
  4   2   5  2   
  5   2  13  1   
  6   3   6  1   
  7   3  14  1   
  8   3  15  1   
  9   4   7  1   
 10   4  16  1   
 11   4  17  1   
 12   5   6  1   
 13   5  18  1   
 14   6   8  1   
 15   7   9  1   
 16   7  19  1   
 17   7  20  1   
 18   8  21  1   
 19   8  22  1   
 20   8  23  1   
 21   9  10  1   
 22   9  24  1   
 23   9  25  1   
 24  10  11  1   
 25  10  26  1   
 26  10  27  1   
 27  11  12  1   
 28  11  28  1   
 29  11  29  1   
 30  12  30  1   
 31  12  31  1   
 32  12  32  1   
@<TRIPOS>SUBSTRUCTURE
  1 ****   4 GROUP 4 **** **** 0

# MOE 2024.06 (io_trps.svl 2023.06)
