@<TRIPOS>MOLECULE
NONAME
61 65 1 0 0 
SMALL
USER_CHARGES


@<TRIPOS>ATOM
  1 O        4.2770    -3.5960     0.2890 O.2   1 <1>  -0.5700 
  2 C        3.5880    -2.7840     0.8830 C.2   1 <1>   0.7160 
  3 N        4.2460    -1.8380     1.6510 N.am  1 <1>  -0.6600 
  4 C        2.1660    -2.8450     0.7320 C.2   1 <1>  -0.0860 
  5 C        5.7340    -1.7810     1.6390 C.3   1 <1>   0.1400 
  6 C        3.5760    -0.7120     2.3480 C.3   1 <1>   0.1400 
  7 C        1.2520    -1.9120     0.3060 C.2   1 <1>  -0.0260 
  8 C        1.3960    -3.9800     0.9710 C.2   1 <1>   0.1390 
  9 C        6.2230    -1.1810     0.3090 C.3   1 <1>   0.3430 
 10 C        3.9530     0.6330     1.7080 C.3   1 <1>  -0.1600 
 11 N        1.4190    -0.6060    -0.1070 N.2   1 <1>  -0.5760 
 12 N        0.0290    -2.5370     0.3350 N.pl3 1 <1>   0.6010 
 13 N        0.1270    -3.8110     0.7530 N.2   1 <1>  -0.7070 
 14 N        5.8340     0.2600     0.1020 N.4   1 <1>  -0.9590 
 15 C        4.3660     0.5430     0.2330 C.3   1 <1>   0.3430 
 16 C        0.3410     0.0170    -0.4750 C.2   1 <1>   0.3760 
 17 C       -1.0990    -1.8550    -0.0550 C.2   1 <1>  -0.1810 
 18 C        6.3170     0.7190    -1.2220 C.3   1 <1>   0.4810 
 19 C       -0.9600    -0.5660    -0.4670 C.2   1 <1>  -0.1240 
 20 C        6.2370     2.2290    -1.2490 C.2   1 <1>  -0.2540 
 21 C       -2.1500     0.2650    -0.9190 C.3   1 <1>  -0.1020 
 22 C        5.4100     2.9630    -2.0060 C.2   1 <1>  -0.2880 
 23 C        7.1970     2.9760    -0.3150 C.3   1 <1>   0.1160 
 24 C        5.4690     4.4910    -1.9190 C.3   1 <1>  -0.0220 
 25 C        7.9250     4.1740    -1.0270 C.3   1 <1>   0.0000 
 26 C        6.3670     4.0700     0.4310 C.3   1 <1>   0.0000 
 27 C        6.5410     4.9110    -0.8780 C.3   1 <1>   0.0000 
 28 C        9.0850     4.8090    -0.2220 C.3   1 <1>  -0.2400 
 29 C        8.4310     3.9220    -2.4650 C.3   1 <1>  -0.2400 
 30 H        6.1010    -1.2080     2.4720 H     1 <1>   0.0800 
 31 H        6.1250    -2.7810     1.7360 H     1 <1>   0.0800 
 32 H        2.5090    -0.8380     2.3190 H     1 <1>   0.0800 
 33 H        3.8610    -0.7150     3.3870 H     1 <1>   0.0800 
 34 H        1.8110    -4.9190     1.3050 H     1 <1>   0.1500 
 35 H        5.8230    -1.7830    -0.4910 H     1 <1>   0.0800 
 36 H        7.2960    -1.2660     0.2730 H     1 <1>   0.0800 
 37 H        4.7210     1.1180     2.2830 H     1 <1>   0.0800 
 38 H        3.0840     1.2630     1.7700 H     1 <1>   0.0800 
 39 H        6.3120     0.8450     0.7940 H     1 <1>   0.4500 
 40 H        4.1430     1.4920    -0.2290 H     1 <1>   0.0800 
 41 H        3.7890    -0.2120    -0.2750 H     1 <1>   0.0800 
 42 H        0.4230     1.0370    -0.8080 H     1 <1>   0.0600 
 43 H       -2.0230    -2.3990    -0.0070 H     1 <1>   0.1500 
 44 H        7.3380     0.4120    -1.3820 H     1 <1>   0.0800 
 45 H        5.7040     0.3010    -2.0050 H     1 <1>   0.0800 
 46 H       -2.2550     1.1350    -0.2950 H     1 <1>   0.0800 
 47 H       -3.0590    -0.3080    -0.8580 H     1 <1>   0.0800 
 48 H       -2.0160     0.5810    -1.9380 H     1 <1>   0.0800 
 49 H        4.6830     2.5810    -2.7050 H     1 <1>   0.1500 
 50 H        7.8140     2.3680     0.3240 H     1 <1>   0.0000 
 51 H        4.5100     4.8760    -1.6200 H     1 <1>   0.0800 
 52 H        5.7120     4.9090    -2.8810 H     1 <1>   0.0800 
 53 H        5.3500     3.7860     0.6440 H     1 <1>   0.0000 
 54 H        6.8470     4.4830     1.2990 H     1 <1>   0.0000 
 55 H        6.6120     5.9720    -0.7130 H     1 <1>   0.0000 
 56 H        9.3890     5.7280    -0.6900 H     1 <1>   0.0800 
 57 H        9.9310     4.1450    -0.2110 H     1 <1>   0.0800 
 58 H        8.8350     5.0360     0.7970 H     1 <1>   0.0800 
 59 H        8.7150     4.8550    -2.9170 H     1 <1>   0.0800 
 60 H        7.7040     3.4610    -3.1040 H     1 <1>   0.0800 
 61 H        9.2960     3.2840    -2.4420 H     1 <1>   0.0800 
@<TRIPOS>BOND
  1   1   2  2   
  2   2   3  am  
  3   2   4  1   
  4   3   5  1   
  5   3   6  1   
  6   4   7  2   
  7   4   8  1   
  8   5   9  1   
  9   5  30  1   
 10   5  31  1   
 11   6  10  1   
 12   6  32  1   
 13   6  33  1   
 14   7  11  1   
 15   7  12  1   
 16   8  13  2   
 17   8  34  1   
 18   9  14  1   
 19   9  35  1   
 20   9  36  1   
 21  10  15  1   
 22  10  37  1   
 23  10  38  1   
 24  11  16  2   
 25  12  13  1   
 26  12  17  1   
 27  14  15  1   
 28  14  18  1   
 29  14  39  1   
 30  15  40  1   
 31  15  41  1   
 32  16  19  1   
 33  16  42  1   
 34  17  19  2   
 35  17  43  1   
 36  18  20  1   
 37  18  44  1   
 38  18  45  1   
 39  19  21  1   
 40  20  22  2   
 41  20  23  1   
 42  21  46  1   
 43  21  47  1   
 44  21  48  1   
 45  22  24  1   
 46  22  49  1   
 47  23  25  1   
 48  23  26  1   
 49  23  50  1   
 50  24  27  1   
 51  24  51  1   
 52  24  52  1   
 53  25  27  1   
 54  25  28  1   
 55  25  29  1   
 56  26  27  1   
 57  26  53  1   
 58  26  54  1   
 59  27  55  1   
 60  28  56  1   
 61  28  57  1   
 62  28  58  1   
 63  29  59  1   
 64  29  60  1   
 65  29  61  1   
@<TRIPOS>SUBSTRUCTURE
  1 ****  15 GROUP 4 **** **** 0

# MOE 2024.06 (io_trps.svl 2023.06)
