@<TRIPOS>MOLECULE
NONAME
41 43 1 0 0 
SMALL
USER_CHARGES


@<TRIPOS>ATOM
  1 F        0.6750     0.0130    -0.2710 F     1 <1>  -0.3400 
  2 C        1.9310    -0.0290    -0.6970 C.3   1 <1>   0.8800 
  3 F        2.2960    -1.3010    -0.6320 F     1 <1>  -0.3400 
  4 O        2.7390     0.7020     0.1970 O.3   1 <1>  -0.3630 
  5 C        2.6930     2.0550     0.2570 C.ar  1 <1>   0.0830 
  6 C        1.8800     2.8510    -0.5460 C.ar  1 <1>  -0.1500 
  7 C        3.5200     2.6570     1.1910 C.ar  1 <1>  -0.1500 
  8 C        1.9050     4.2290    -0.4070 C.ar  1 <1>  -0.1500 
  9 C        3.5420     4.0320     1.3310 C.ar  1 <1>  -0.1500 
 10 C        2.7360     4.8290     0.5290 C.ar  1 <1>  -0.1440 
 11 C        2.7620     6.3400     0.6720 C.3   1 <1>   0.4870 
 12 N        4.1180     6.8310     0.3140 N.4   1 <1>  -0.9590 
 13 C        4.3630     8.2510     0.7600 C.3   1 <1>   0.3430 
 14 C        4.5040     6.4940    -1.0990 C.3   1 <1>   0.3430 
 15 C        5.8440     8.7190     0.6870 C.3   1 <1>   0.2200 
 16 C        6.0100     6.6040    -1.3790 C.3   1 <1>  -0.0190 
 17 N        6.2370     8.9710    -0.7190 N.am  1 <1>  -0.7300 
 18 C        6.8400     7.7400     1.3590 C.3   1 <1>   0.1200 
 19 C        6.3340     8.0410    -1.6850 C.2   1 <1>   0.5690 
 20 C        6.9620     6.0220    -0.3110 C.3   1 <1>   0.1200 
 21 O        6.6220     6.3980     0.9980 O.3   1 <1>  -0.5600 
 22 O        6.6450     8.3560    -2.8000 O.2   1 <1>  -0.5700 
 23 H        1.9960     0.3190    -1.7120 H     1 <1>   0.0800 
 24 H        1.2140     2.4240    -1.2740 H     1 <1>   0.1500 
 25 H        4.1420     2.0360     1.8130 H     1 <1>   0.1500 
 26 H        1.2620     4.8230    -1.0350 H     1 <1>   0.1500 
 27 H        4.1920     4.4630     2.0750 H     1 <1>   0.1500 
 28 H        2.5300     6.5990     1.6920 H     1 <1>   0.0800 
 29 H        2.0220     6.7870     0.0280 H     1 <1>   0.0800 
 30 H        4.7920     6.2700     0.8730 H     1 <1>   0.4500 
 31 H        3.7590     8.9260     0.1760 H     1 <1>   0.0800 
 32 H        4.0480     8.3420     1.7870 H     1 <1>   0.0800 
 33 H        4.2160     5.4750    -1.3010 H     1 <1>   0.0800 
 34 H        3.9660     7.1250    -1.7880 H     1 <1>   0.0800 
 35 H        5.9170     9.6610     1.2030 H     1 <1>   0.0800 
 36 H        6.1970     6.0630    -2.2890 H     1 <1>   0.0800 
 37 H        6.5250     9.9210    -0.9800 H     1 <1>   0.3700 
 38 H        6.7200     7.7930     2.4270 H     1 <1>   0.0800 
 39 H        7.8580     8.0060     1.1280 H     1 <1>   0.0800 
 40 H        7.9820     6.3160    -0.5030 H     1 <1>   0.0800 
 41 H        6.9190     4.9460    -0.3440 H     1 <1>   0.0800 
@<TRIPOS>BOND
  1   1   2  1   
  2   2   3  1   
  3   2   4  1   
  4   2  23  1   
  5   4   5  1   
  6   5   6  ar  
  7   5   7  ar  
  8   6   8  ar  
  9   6  24  1   
 10   7   9  ar  
 11   7  25  1   
 12   8  10  ar  
 13   8  26  1   
 14   9  10  ar  
 15   9  27  1   
 16  10  11  1   
 17  11  12  1   
 18  11  28  1   
 19  11  29  1   
 20  12  13  1   
 21  12  14  1   
 22  12  30  1   
 23  13  15  1   
 24  13  31  1   
 25  13  32  1   
 26  14  16  1   
 27  14  33  1   
 28  14  34  1   
 29  15  17  1   
 30  15  18  1   
 31  15  35  1   
 32  16  19  1   
 33  16  20  1   
 34  16  36  1   
 35  17  19  am  
 36  17  37  1   
 37  18  21  1   
 38  18  38  1   
 39  18  39  1   
 40  19  22  2   
 41  20  21  1   
 42  20  40  1   
 43  20  41  1   
@<TRIPOS>SUBSTRUCTURE
  1 ****  10 GROUP 4 **** **** 0

# MOE 2024.06 (io_trps.svl 2023.06)
