@<TRIPOS>MOLECULE
NONAME
44 45 1 0 0 
SMALL
USER_CHARGES


@<TRIPOS>ATOM
  1 O        0.7070    -0.6500     0.8690 O.3   1 <1>  -0.6800 
  2 C        1.1890     0.0750     1.9650 C.3   1 <1>   0.1200 
  3 C        2.5600    -0.4810     2.3910 C.3   1 <1>   0.3430 
  4 N        3.3370    -0.8620     1.1770 N.4   1 <1>  -0.9590 
  5 C        3.8710    -2.2400     1.2770 C.3   1 <1>   0.5230 
  6 C        4.3830     0.1450     0.8000 C.3   1 <1>   0.3430 
  7 C        4.3200    -2.6590    -0.0970 C.2   1 <1>  -0.3320 
  8 C        4.3040     0.5810    -0.6740 C.3   1 <1>   0.0630 
  9 N        3.5070    -3.0080    -1.1190 N.pl3 1 <1>   0.0480 
 10 C        5.5860    -2.7560    -0.5600 C.2   1 <1>   0.0770 
 11 C        5.5340     1.4280    -0.9700 C.ar  1 <1>  -0.1440 
 12 C        3.0060     1.3280    -1.0200 C.3   1 <1>  -0.2400 
 13 C        4.3480    -3.2730    -2.1430 C.2   1 <1>   0.0360 
 14 C        2.0330    -3.1020    -1.1610 C.3   1 <1>   0.0160 
 15 N        5.5980    -3.1260    -1.8490 N.2   1 <1>  -0.5650 
 16 C        5.6650     2.7220    -0.4830 C.ar  1 <1>  -0.1500 
 17 C        6.5620     0.8860    -1.7290 C.ar  1 <1>  -0.1500 
 18 C        6.8050     3.4600    -0.7510 C.ar  1 <1>  -0.1500 
 19 C        7.7010     1.6240    -1.9960 C.ar  1 <1>  -0.1500 
 20 C        7.8240     2.9110    -1.5070 C.ar  1 <1>  -0.1500 
 21 H       -0.2160    -0.3800     0.6580 H     1 <1>   0.4000 
 22 H        0.4830    -0.0040     2.7740 H     1 <1>   0.0800 
 23 H        1.2740     1.1090     1.6740 H     1 <1>   0.0800 
 24 H        2.3920    -1.3490     3.0070 H     1 <1>   0.0800 
 25 H        3.0930     0.2460     2.9820 H     1 <1>   0.0800 
 26 H        2.6220    -0.8840     0.4300 H     1 <1>   0.4500 
 27 H        3.1090    -2.9160     1.6300 H     1 <1>   0.0800 
 28 H        4.7030    -2.2670     1.9620 H     1 <1>   0.0800 
 29 H        5.3640    -0.2650     0.9800 H     1 <1>   0.0800 
 30 H        4.2840     1.0260     1.4120 H     1 <1>   0.0800 
 31 H        4.3550    -0.2880    -1.3030 H     1 <1>   0.0800 
 32 H        6.5130    -2.5700    -0.0390 H     1 <1>   0.1500 
 33 H        2.8340     2.1490    -0.3470 H     1 <1>   0.0800 
 34 H        2.1620     0.6660    -0.9880 H     1 <1>   0.0800 
 35 H        3.0770     1.7220    -2.0200 H     1 <1>   0.0800 
 36 H        3.9930    -3.5790    -3.1130 H     1 <1>   0.1500 
 37 H        1.6590    -3.4330    -0.2100 H     1 <1>   0.0800 
 38 H        1.7420    -3.8090    -1.9170 H     1 <1>   0.0800 
 39 H        1.6180    -2.1400    -1.4000 H     1 <1>   0.0800 
 40 H        4.8880     3.1770     0.1050 H     1 <1>   0.1500 
 41 H        6.4890    -0.1150    -2.1240 H     1 <1>   0.1500 
 42 H        6.9010     4.4640    -0.3740 H     1 <1>   0.1500 
 43 H        8.4920     1.1950    -2.5880 H     1 <1>   0.1500 
 44 H        8.7110     3.4850    -1.7160 H     1 <1>   0.1500 
@<TRIPOS>BOND
  1   1   2  1   
  2   1  21  1   
  3   2   3  1   
  4   2  22  1   
  5   2  23  1   
  6   3   4  1   
  7   3  24  1   
  8   3  25  1   
  9   4   5  1   
 10   4   6  1   
 11   4  26  1   
 12   5   7  1   
 13   5  27  1   
 14   5  28  1   
 15   6   8  1   
 16   6  29  1   
 17   6  30  1   
 18   7   9  1   
 19   7  10  2   
 20   8  11  1   
 21   8  12  1   
 22   8  31  1   
 23   9  13  1   
 24   9  14  1   
 25  10  15  1   
 26  10  32  1   
 27  11  16  ar  
 28  11  17  ar  
 29  12  33  1   
 30  12  34  1   
 31  12  35  1   
 32  13  15  2   
 33  13  36  1   
 34  14  37  1   
 35  14  38  1   
 36  14  39  1   
 37  16  18  ar  
 38  16  40  1   
 39  17  19  ar  
 40  17  41  1   
 41  18  20  ar  
 42  18  42  1   
 43  19  20  ar  
 44  19  43  1   
 45  20  44  1   
@<TRIPOS>SUBSTRUCTURE
  1 ****   8 GROUP 4 **** **** 0

# MOE 2024.06 (io_trps.svl 2023.06)
