@<TRIPOS>MOLECULE
NONAME
41 42 1 0 0 
SMALL
USER_CHARGES


@<TRIPOS>ATOM
  1 O        0.3320    -0.0470    -0.4220 O.3   1 <1>  -0.5600 
  2 C        1.5100    -0.7800    -0.6580 C.3   1 <1>   0.2000 
  3 C        0.4590     1.3420    -0.4930 C.3   1 <1>   0.1200 
  4 C        2.6580    -0.3270     0.2870 C.3   1 <1>   0.5660 
  5 C        1.2040    -2.2730    -0.4510 C.3   1 <1>   0.1200 
  6 C        1.4780     1.8320     0.5510 C.3   1 <1>   0.3430 
  7 N        2.8120     1.1680     0.3730 N.4   1 <1>  -0.9590 
  8 C        3.9960    -0.9120    -0.1470 C.ar  1 <1>  -0.1440 
  9 O        1.0940    -2.5560     0.9090 O.3   1 <1>  -0.6800 
 10 C        3.7610     1.5410     1.4670 C.3   1 <1>   0.2630 
 11 C        4.6580    -1.7750     0.7130 C.ar  1 <1>  -0.1500 
 12 C        4.5710    -0.6050    -1.3760 C.ar  1 <1>  -0.1500 
 13 C        5.8810    -2.3230     0.3670 C.ar  1 <1>   0.0820 
 14 C        5.8000    -1.1410    -1.7240 C.ar  1 <1>  -0.1500 
 15 O        6.4470    -3.1750     1.2550 O.3   1 <1>  -0.3620 
 16 C        6.4700    -1.9840    -0.8550 C.ar  1 <1>   0.0820 
 17 C        6.6120    -4.5130     0.8360 C.3   1 <1>   0.0400 
 18 O        7.6830    -2.4420    -1.2480 O.3   1 <1>  -0.3630 
 19 C        8.7980    -2.0330    -0.4850 C.3   1 <1>   0.0400 
 20 H        1.7840    -0.6240    -1.6860 H     1 <1>   0.0800 
 21 H        0.7530     1.6170    -1.4910 H     1 <1>   0.0800 
 22 H       -0.5090     1.7660    -0.2900 H     1 <1>   0.0800 
 23 H        2.4260    -0.7030     1.2700 H     1 <1>   0.0800 
 24 H        1.9980    -2.8820    -0.8500 H     1 <1>   0.0800 
 25 H        0.2790    -2.5330    -0.9370 H     1 <1>   0.0800 
 26 H        1.0880     1.6120     1.5320 H     1 <1>   0.0800 
 27 H        1.5860     2.9010     0.4690 H     1 <1>   0.0800 
 28 H        3.2180     1.4590    -0.5220 H     1 <1>   0.4500 
 29 H        0.6770    -3.4330     1.0470 H     1 <1>   0.4000 
 30 H        3.3830     1.2090     2.4210 H     1 <1>   0.0800 
 31 H        3.8960     2.6100     1.5010 H     1 <1>   0.0800 
 32 H        4.7230     1.0800     1.3020 H     1 <1>   0.0800 
 33 H        4.2330    -2.0480     1.6640 H     1 <1>   0.1500 
 34 H        4.0840     0.0460    -2.0810 H     1 <1>   0.1500 
 35 H        6.2530    -0.9070    -2.6720 H     1 <1>   0.1500 
 36 H        6.9620    -5.0870     1.6750 H     1 <1>   0.0800 
 37 H        7.3340    -4.5540     0.0410 H     1 <1>   0.0800 
 38 H        5.6640    -4.8930     0.5000 H     1 <1>   0.0800 
 39 H        9.6860    -2.3960    -0.9680 H     1 <1>   0.0800 
 40 H        8.7270    -2.4450     0.5050 H     1 <1>   0.0800 
 41 H        8.8150    -0.9580    -0.4430 H     1 <1>   0.0800 
@<TRIPOS>BOND
  1   1   2  1   
  2   1   3  1   
  3   2   4  1   
  4   2   5  1   
  5   2  20  1   
  6   3   6  1   
  7   3  21  1   
  8   3  22  1   
  9   4   7  1   
 10   4   8  1   
 11   4  23  1   
 12   5   9  1   
 13   5  24  1   
 14   5  25  1   
 15   6   7  1   
 16   6  26  1   
 17   6  27  1   
 18   7  10  1   
 19   7  28  1   
 20   8  11  ar  
 21   8  12  ar  
 22   9  29  1   
 23  10  30  1   
 24  10  31  1   
 25  10  32  1   
 26  11  13  ar  
 27  11  33  1   
 28  12  14  ar  
 29  12  34  1   
 30  13  15  1   
 31  13  16  ar  
 32  14  16  ar  
 33  14  35  1   
 34  15  17  1   
 35  16  18  1   
 36  17  36  1   
 37  17  37  1   
 38  17  38  1   
 39  18  19  1   
 40  19  39  1   
 41  19  40  1   
 42  19  41  1   
@<TRIPOS>SUBSTRUCTURE
  1 ****   8 GROUP 4 **** **** 0

# MOE 2024.06 (io_trps.svl 2023.06)
