@<TRIPOS>MOLECULE
NONAME
41 42 1 0 0 
SMALL
USER_CHARGES


@<TRIPOS>ATOM
  1 S       -0.1470     0.0240     0.0460 S.o2  1 <1>   1.3330 
  2 O       -0.1910    -0.6660     1.3160 O.2   1 <1>  -0.6500 
  3 O       -0.7580     1.3280    -0.0780 O.2   1 <1>  -0.6500 
  4 N       -0.8380    -0.9990    -1.1200 N.am  1 <1>  -0.8490 
  5 C        1.5500     0.1600    -0.5180 C.3   1 <1>  -0.0550 
  6 C       -2.2670    -0.7330    -1.3160 C.3   1 <1>   0.1160 
  7 C       -0.6300    -2.4240    -0.8400 C.3   1 <1>   0.1160 
  8 C        2.4180     1.0970     0.3450 C.3   1 <1>  -0.0800 
  9 C        3.7620     1.3560    -0.3150 C.3   1 <1>   0.2200 
 10 C        2.8440     0.4370     1.6590 C.3   1 <1>   0.1200 
 11 N        4.3300     2.6130     0.2180 N.am  1 <1>  -0.7300 
 12 C        4.5900     0.1700     0.1700 C.3   1 <1>   0.1200 
 13 O        4.0520    -0.2150     1.4020 O.3   1 <1>  -0.5600 
 14 C        4.4960     3.7750    -0.4760 C.2   1 <1>   0.7150 
 15 O        4.1510     3.7920    -1.6420 O.2   1 <1>  -0.5700 
 16 C        5.0670     4.9340     0.1730 C.2   1 <1>  -0.0450 
 17 S        5.6070     4.7460     1.8510 S.3   1 <1>  -0.0800 
 18 C        5.3080     6.2200    -0.2120 C.2   1 <1>  -0.1810 
 19 C        6.1380     6.4060     1.9540 C.2   1 <1>  -0.1100 
 20 C        5.9110     7.0390     0.7910 C.2   1 <1>  -0.1500 
 21 C        5.0050     6.8450    -1.5650 C.3   1 <1>  -0.0590 
 22 H        1.9950    -0.8150    -0.5500 H     1 <1>   0.0800 
 23 H        1.5290     0.5430    -1.5210 H     1 <1>   0.0800 
 24 H       -2.6680    -1.3880    -2.0710 H     1 <1>   0.0800 
 25 H       -2.4110     0.2830    -1.6430 H     1 <1>   0.0800 
 26 H       -2.8050    -0.8800    -0.3940 H     1 <1>   0.0800 
 27 H       -1.0040    -3.0190    -1.6560 H     1 <1>   0.0800 
 28 H       -1.1420    -2.7090     0.0650 H     1 <1>   0.0800 
 29 H        0.4200    -2.6310    -0.7220 H     1 <1>   0.0800 
 30 H        1.8830     2.0160     0.5150 H     1 <1>   0.0800 
 31 H        3.7070     1.3940    -1.3910 H     1 <1>   0.0800 
 32 H        2.1360    -0.2780     2.0380 H     1 <1>   0.0800 
 33 H        3.0310     1.1820     2.4130 H     1 <1>   0.0800 
 34 H        4.6310     2.5840     1.1930 H     1 <1>   0.3700 
 35 H        5.6310     0.4130     0.2900 H     1 <1>   0.0800 
 36 H        4.4870    -0.6640    -0.5010 H     1 <1>   0.0800 
 37 H        6.5680     6.7380     2.8810 H     1 <1>   0.1500 
 38 H        6.1480     8.0710     0.5970 H     1 <1>   0.1500 
 39 H        4.3680     7.7010    -1.4370 H     1 <1>   0.0800 
 40 H        4.5110     6.1560    -2.2230 H     1 <1>   0.0800 
 41 H        5.9200     7.1610    -2.0330 H     1 <1>   0.0800 
@<TRIPOS>BOND
  1   1   2  2   
  2   1   3  2   
  3   1   4  am  
  4   1   5  1   
  5   4   6  1   
  6   4   7  1   
  7   5   8  1   
  8   5  22  1   
  9   5  23  1   
 10   6  24  1   
 11   6  25  1   
 12   6  26  1   
 13   7  27  1   
 14   7  28  1   
 15   7  29  1   
 16   8   9  1   
 17   8  10  1   
 18   8  30  1   
 19   9  11  1   
 20   9  12  1   
 21   9  31  1   
 22  10  13  1   
 23  10  32  1   
 24  10  33  1   
 25  11  14  am  
 26  11  34  1   
 27  12  13  1   
 28  12  35  1   
 29  12  36  1   
 30  14  15  2   
 31  14  16  1   
 32  16  17  1   
 33  16  18  2   
 34  17  19  1   
 35  18  20  1   
 36  18  21  1   
 37  19  20  2   
 38  19  37  1   
 39  20  38  1   
 40  21  39  1   
 41  21  40  1   
 42  21  41  1   
@<TRIPOS>SUBSTRUCTURE
  1 ****   8 GROUP 4 **** **** 0

# MOE 2024.06 (io_trps.svl 2023.06)
