@<TRIPOS>MOLECULE
NONAME
60 64 1 0 0 
SMALL
USER_CHARGES


@<TRIPOS>ATOM
  1 O       -0.2860    -1.3950    -0.9830 O.3   1 <1>  -0.6800 
  2 C       -0.8050    -2.6810    -1.0190 C.3   1 <1>   0.1200 
  3 C       -2.3250    -2.5850    -0.9120 C.3   1 <1>   0.0960 
  4 N       -2.9110    -3.9310    -0.7730 N.pl3 1 <1>   0.3140 
  5 N       -2.7030    -4.9010    -1.6780 N.2   1 <1>  -0.7070 
  6 C       -3.6980    -4.3740     0.2280 C.2   1 <1>  -0.3020 
  7 C       -3.3380    -5.9350    -1.2380 C.2   1 <1>   0.1080 
  8 C       -4.0040    -5.6630    -0.0450 C.2   1 <1>  -0.1810 
  9 C       -3.2960    -7.2430    -1.9990 C.3   1 <1>  -0.0590 
 10 C       -4.8750    -6.6210     0.7350 C.3   1 <1>   0.5240 
 11 N       -6.0990    -6.8600    -0.0720 N.4   1 <1>  -0.9590 
 12 C       -6.9740    -5.6340    -0.1670 C.3   1 <1>   0.3430 
 13 C       -6.8290    -8.1020     0.3510 C.3   1 <1>   0.3430 
 14 C       -7.7580    -5.2930     1.1240 C.3   1 <1>   0.1430 
 15 C       -8.1110    -7.8160     1.1450 C.3   1 <1>  -0.1600 
 16 C       -9.0420    -4.6490     0.6430 C.ar  1 <1>   0.1670 
 17 C       -8.0180    -6.5430     1.9990 C.3   1 <1>  -0.1600 
 18 C       -7.1150    -4.1530     1.9590 C.3   1 <1>  -0.1600 
 19 N      -10.0110    -5.2840     0.0340 N.ar  1 <1>  -0.6200 
 20 C       -9.0620    -3.3100     0.8760 C.ar  1 <1>  -0.1430 
 21 C       -7.8030    -2.8360     1.5550 C.3   1 <1>  -0.0170 
 22 C      -11.0610    -4.5340    -0.3310 C.ar  1 <1>   0.6200 
 23 C      -10.1670    -2.6090     0.4680 C.ar  1 <1>   0.1600 
 24 N      -11.1650    -3.2120    -0.1360 N.ar  1 <1>  -0.6200 
 25 C      -12.1640    -5.2070    -0.9990 C.ar  1 <1>   0.0000 
 26 C      -12.5300    -6.5150    -0.6680 C.ar  1 <1>  -0.1500 
 27 C      -12.9050    -4.5770    -2.0020 C.ar  1 <1>  -0.1500 
 28 C      -13.5740    -7.1600    -1.3060 C.ar  1 <1>  -0.1500 
 29 C      -13.9500    -5.2160    -2.6440 C.ar  1 <1>  -0.1500 
 30 C      -14.2860    -6.5120    -2.2980 C.ar  1 <1>  -0.1500 
 31 H        0.6840    -1.4100    -1.1040 H     1 <1>   0.4000 
 32 H       -0.3950    -3.2320    -0.1900 H     1 <1>   0.0800 
 33 H       -0.5180    -3.1410    -1.9490 H     1 <1>   0.0800 
 34 H       -2.7230    -2.1320    -1.8000 H     1 <1>   0.0800 
 35 H       -2.5940    -1.9990    -0.0540 H     1 <1>   0.0800 
 36 H       -3.9720    -3.7430     1.0530 H     1 <1>   0.1500 
 37 H       -2.3110    -7.3790    -2.4100 H     1 <1>   0.0800 
 38 H       -3.9970    -7.2140    -2.8140 H     1 <1>   0.0800 
 39 H       -3.5120    -8.0780    -1.3610 H     1 <1>   0.0800 
 40 H       -5.1280    -6.2050     1.6950 H     1 <1>   0.0800 
 41 H       -4.3380    -7.5430     0.8870 H     1 <1>   0.0800 
 42 H       -5.7450    -7.0150    -1.0250 H     1 <1>   0.4500 
 43 H       -7.7010    -5.8070    -0.9440 H     1 <1>   0.0800 
 44 H       -6.3910    -4.7790    -0.4680 H     1 <1>   0.0800 
 45 H       -6.1760    -8.7130     0.9520 H     1 <1>   0.0800 
 46 H       -7.0960    -8.6790    -0.5210 H     1 <1>   0.0800 
 47 H       -8.3260    -8.6610     1.7750 H     1 <1>   0.0800 
 48 H       -8.9350    -7.7290     0.4570 H     1 <1>   0.0800 
 49 H       -8.9310    -6.4100     2.5570 H     1 <1>   0.0800 
 50 H       -7.2220    -6.6690     2.7120 H     1 <1>   0.0800 
 51 H       -6.0510    -4.0930     1.8360 H     1 <1>   0.0800 
 52 H       -7.3210    -4.3130     3.0040 H     1 <1>   0.0800 
 53 H       -7.2010    -2.2810     0.8560 H     1 <1>   0.0800 
 54 H       -8.0230    -2.2230     2.4130 H     1 <1>   0.0800 
 55 H      -10.2360    -1.5460     0.6320 H     1 <1>   0.1500 
 56 H      -11.9910    -7.0320     0.1050 H     1 <1>   0.1500 
 57 H      -12.6570    -3.5670    -2.2820 H     1 <1>   0.1500 
 58 H      -13.8340    -8.1670    -1.0300 H     1 <1>   0.1500 
 59 H      -14.5020    -4.7050    -3.4130 H     1 <1>   0.1500 
 60 H      -15.0990    -7.0110    -2.7960 H     1 <1>   0.1500 
@<TRIPOS>BOND
  1   1   2  1   
  2   1  31  1   
  3   2   3  1   
  4   2  32  1   
  5   2  33  1   
  6   3   4  1   
  7   3  34  1   
  8   3  35  1   
  9   4   5  1   
 10   4   6  1   
 11   5   7  2   
 12   6   8  2   
 13   6  36  1   
 14   7   8  1   
 15   7   9  1   
 16   8  10  1   
 17   9  37  1   
 18   9  38  1   
 19   9  39  1   
 20  10  11  1   
 21  10  40  1   
 22  10  41  1   
 23  11  12  1   
 24  11  13  1   
 25  11  42  1   
 26  12  14  1   
 27  12  43  1   
 28  12  44  1   
 29  13  15  1   
 30  13  45  1   
 31  13  46  1   
 32  14  16  1   
 33  14  17  1   
 34  14  18  1   
 35  15  17  1   
 36  15  47  1   
 37  15  48  1   
 38  16  19  ar  
 39  16  20  ar  
 40  17  49  1   
 41  17  50  1   
 42  18  21  1   
 43  18  51  1   
 44  18  52  1   
 45  19  22  ar  
 46  20  21  1   
 47  20  23  ar  
 48  21  53  1   
 49  21  54  1   
 50  22  24  ar  
 51  22  25  1   
 52  23  24  ar  
 53  23  55  1   
 54  25  26  ar  
 55  25  27  ar  
 56  26  28  ar  
 57  26  56  1   
 58  27  29  ar  
 59  27  57  1   
 60  28  30  ar  
 61  28  58  1   
 62  29  30  ar  
 63  29  59  1   
 64  30  60  1   
@<TRIPOS>SUBSTRUCTURE
  1 ****  12 GROUP 4 **** **** 0

# MOE 2024.06 (io_trps.svl 2023.06)
