@<TRIPOS>MOLECULE
NONAME
48 50 1 0 0 
SMALL
USER_CHARGES


@<TRIPOS>ATOM
  1 S        0.8350     0.7620    -1.8790 S.o2  1 <1>   1.3330 
  2 O        0.9950    -0.5450    -2.4760 O.2   1 <1>  -0.6500 
  3 O        0.2650     1.8370    -2.6580 O.2   1 <1>  -0.6500 
  4 N       -0.1310     0.5830    -0.4930 N.am  1 <1>  -0.8490 
  5 C        2.4280     1.2750    -1.2310 C.3   1 <1>  -0.0550 
  6 C       -1.2500    -0.3370    -0.7190 C.3   1 <1>   0.1160 
  7 C       -0.6360     1.8570     0.0320 C.3   1 <1>   0.1160 
  8 C        3.1760     0.1780    -0.4410 C.3   1 <1>  -0.0800 
  9 C        4.5860     0.5500    -0.0100 C.3   1 <1>   0.2200 
 10 C        2.5200    -0.2350     0.8820 C.3   1 <1>   0.1200 
 11 N        4.6280     1.9350     0.5050 N.am  1 <1>  -0.7300 
 12 C        4.7960    -0.4210     1.1440 C.3   1 <1>   0.1200 
 13 O        3.5560    -0.5240     1.7760 O.3   1 <1>  -0.5600 
 14 C        5.0680     3.0450    -0.1550 C.2   1 <1>   0.7160 
 15 O        5.4790     2.9030    -1.2950 O.2   1 <1>  -0.5700 
 16 C        4.9950     4.3380     0.5130 C.2   1 <1>   0.2030 
 17 N        4.4430     4.5330     1.7030 N.2   1 <1>  -0.7070 
 18 C        5.4800     5.5570     0.0120 C.2   1 <1>  -0.1810 
 19 N        4.5760     5.8450     1.9510 N.pl3 1 <1>   0.3000 
 20 C        5.1940     6.4830     0.9400 C.2   1 <1>  -0.3320 
 21 C        6.1890     5.8710    -1.2950 C.3   1 <1>   0.0210 
 22 C        5.5240     7.9610     0.8500 C.3   1 <1>   0.0200 
 23 C        6.8430     7.2640    -1.2280 C.3   1 <1>  -0.1600 
 24 C        5.9060     8.3160    -0.5990 C.3   1 <1>  -0.1600 
 25 H        3.0480     1.5660    -2.0570 H     1 <1>   0.0800 
 26 H        2.2940     2.1410    -0.6150 H     1 <1>   0.0800 
 27 H       -1.8350    -0.4420     0.1790 H     1 <1>   0.0800 
 28 H       -0.8780    -1.3100    -0.9920 H     1 <1>   0.0800 
 29 H       -1.8800     0.0280    -1.5130 H     1 <1>   0.0800 
 30 H       -1.1700     1.6920     0.9520 H     1 <1>   0.0800 
 31 H       -1.3000     2.3220    -0.6800 H     1 <1>   0.0800 
 32 H        0.1810     2.5290     0.2310 H     1 <1>   0.0800 
 33 H        3.2410    -0.7020    -1.0580 H     1 <1>   0.0800 
 34 H        5.3120     0.4140    -0.7950 H     1 <1>   0.0800 
 35 H        1.8980    -1.1060     0.7680 H     1 <1>   0.0800 
 36 H        1.9450     0.5700     1.3070 H     1 <1>   0.0800 
 37 H        4.2650     2.0840     1.4530 H     1 <1>   0.3700 
 38 H        5.5360    -0.0810     1.8470 H     1 <1>   0.0800 
 39 H        5.0580    -1.3980     0.7760 H     1 <1>   0.0800 
 40 H        4.2370     6.2820     2.8170 H     1 <1>   0.2700 
 41 H        6.9410     5.1290    -1.4970 H     1 <1>   0.0800 
 42 H        5.4670     5.8430    -2.0930 H     1 <1>   0.0800 
 43 H        4.6800     8.5550     1.1550 H     1 <1>   0.0800 
 44 H        6.3500     8.1750     1.5050 H     1 <1>   0.0800 
 45 H        7.7380     7.1980    -0.6340 H     1 <1>   0.0800 
 46 H        7.1270     7.5720    -2.2190 H     1 <1>   0.0800 
 47 H        5.0090     8.3760    -1.1910 H     1 <1>   0.0800 
 48 H        6.3780     9.2830    -0.6170 H     1 <1>   0.0800 
@<TRIPOS>BOND
  1   1   2  2   
  2   1   3  2   
  3   1   4  am  
  4   1   5  1   
  5   4   6  1   
  6   4   7  1   
  7   5   8  1   
  8   5  25  1   
  9   5  26  1   
 10   6  27  1   
 11   6  28  1   
 12   6  29  1   
 13   7  30  1   
 14   7  31  1   
 15   7  32  1   
 16   8   9  1   
 17   8  10  1   
 18   8  33  1   
 19   9  11  1   
 20   9  12  1   
 21   9  34  1   
 22  10  13  1   
 23  10  35  1   
 24  10  36  1   
 25  11  14  am  
 26  11  37  1   
 27  12  13  1   
 28  12  38  1   
 29  12  39  1   
 30  14  15  2   
 31  14  16  1   
 32  16  17  2   
 33  16  18  1   
 34  17  19  1   
 35  18  20  2   
 36  18  21  1   
 37  19  20  1   
 38  19  40  1   
 39  20  22  1   
 40  21  23  1   
 41  21  41  1   
 42  21  42  1   
 43  22  24  1   
 44  22  43  1   
 45  22  44  1   
 46  23  24  1   
 47  23  45  1   
 48  23  46  1   
 49  24  47  1   
 50  24  48  1   
@<TRIPOS>SUBSTRUCTURE
  1 ****  14 GROUP 4 **** **** 0

# MOE 2024.06 (io_trps.svl 2023.06)
