@<TRIPOS>MOLECULE
NONAME
48 50 1 0 0 
SMALL
USER_CHARGES


@<TRIPOS>ATOM
  1 O       -0.5470     0.1120     0.7520 O.2   1 <1>  -0.5700 
  2 C       -1.4730     0.7070     0.2520 C.2   1 <1>   0.5690 
  3 N       -2.5700     0.0380    -0.2130 N.am  1 <1>  -0.6600 
  4 C       -1.4190     2.2190     0.1390 C.3   1 <1>  -0.0990 
  5 C       -3.7940     0.6340    -0.8060 C.3   1 <1>   0.1400 
  6 C       -2.6970    -1.4380    -0.1390 C.3   1 <1>   0.1400 
  7 C       -0.0650     2.7890     0.5540 C.3   1 <1>   0.1200 
  8 C       -4.8470    -0.4640    -0.6690 C.3   1 <1>   0.2000 
  9 C       -4.0390    -1.7610    -0.8120 C.3   1 <1>  -0.0800 
 10 O       -0.1190     4.1690     0.3930 O.3   1 <1>  -0.5600 
 11 O       -5.3820    -0.3850     0.6080 O.3   1 <1>  -0.6800 
 12 C       -4.7400    -3.0180    -0.2520 C.3   1 <1>  -0.0170 
 13 C        1.0530     4.8190     0.7500 C.3   1 <1>   0.1200 
 14 C       -4.0500    -4.3640    -0.5050 C.ar  1 <1>  -0.1440 
 15 C        0.8370     6.3100     0.5210 C.3   1 <1>  -0.2400 
 16 C       -4.5400    -5.5320     0.1330 C.ar  1 <1>   0.0000 
 17 C       -2.9740    -4.5210    -1.3340 C.ar  1 <1>  -0.1500 
 18 C       -3.8720    -6.7570    -0.1130 C.ar  1 <1>   0.3100 
 19 C       -5.6610    -5.5580     0.9970 C.ar  1 <1>  -0.1500 
 20 C       -2.3890    -5.7800    -1.5110 C.ar  1 <1>   0.1600 
 21 N       -2.8000    -6.8640    -0.9360 N.ar  1 <1>  -0.6200 
 22 C       -4.3340    -7.9250     0.5130 C.ar  1 <1>  -0.1500 
 23 C       -6.0870    -6.7150     1.5910 C.ar  1 <1>  -0.1500 
 24 C       -5.4160    -7.9160     1.3500 C.ar  1 <1>  -0.1500 
 25 H       -1.6110     2.4970    -0.8790 H     1 <1>   0.0800 
 26 H       -2.1780     2.6370     0.7720 H     1 <1>   0.0800 
 27 H       -4.0950     1.5370    -0.3040 H     1 <1>   0.0800 
 28 H       -3.6130     0.8400    -1.8470 H     1 <1>   0.0800 
 29 H       -1.8680    -1.9100    -0.6370 H     1 <1>   0.0800 
 30 H       -2.7010    -1.7380     0.8960 H     1 <1>   0.0800 
 31 H        0.7200     2.3940    -0.0700 H     1 <1>   0.0800 
 32 H        0.1410     2.5630     1.5870 H     1 <1>   0.0800 
 33 H       -5.6480    -0.3760    -1.3830 H     1 <1>   0.0800 
 34 H       -3.8620    -1.9010    -1.8630 H     1 <1>   0.0800 
 35 H       -4.6480    -0.3150     1.2520 H     1 <1>   0.4000 
 36 H       -5.7300    -3.0680    -0.6710 H     1 <1>   0.0800 
 37 H       -4.8460    -2.8930     0.8110 H     1 <1>   0.0800 
 38 H        1.2600     4.6200     1.7880 H     1 <1>   0.0800 
 39 H        1.8570     4.4520     0.1340 H     1 <1>   0.0800 
 40 H        0.0230     6.6610     1.1280 H     1 <1>   0.0800 
 41 H        0.6180     6.4950    -0.5160 H     1 <1>   0.0800 
 42 H        1.7260     6.8520     0.7870 H     1 <1>   0.0800 
 43 H       -2.5340    -3.7090    -1.8790 H     1 <1>   0.1500 
 44 H       -6.2000    -4.6510     1.1970 H     1 <1>   0.1500 
 45 H       -1.5400    -5.8510    -2.1710 H     1 <1>   0.1500 
 46 H       -3.8030    -8.8370     0.3100 H     1 <1>   0.1500 
 47 H       -6.9410    -6.7170     2.2470 H     1 <1>   0.1500 
 48 H       -5.7600    -8.8200     1.8230 H     1 <1>   0.1500 
@<TRIPOS>BOND
  1   1   2  2   
  2   2   3  am  
  3   2   4  1   
  4   3   5  1   
  5   3   6  1   
  6   4   7  1   
  7   4  25  1   
  8   4  26  1   
  9   5   8  1   
 10   5  27  1   
 11   5  28  1   
 12   6   9  1   
 13   6  29  1   
 14   6  30  1   
 15   7  10  1   
 16   7  31  1   
 17   7  32  1   
 18   8   9  1   
 19   8  11  1   
 20   8  33  1   
 21   9  12  1   
 22   9  34  1   
 23  10  13  1   
 24  11  35  1   
 25  12  14  1   
 26  12  36  1   
 27  12  37  1   
 28  13  15  1   
 29  13  38  1   
 30  13  39  1   
 31  14  16  ar  
 32  14  17  ar  
 33  15  40  1   
 34  15  41  1   
 35  15  42  1   
 36  16  18  ar  
 37  16  19  ar  
 38  17  20  ar  
 39  17  43  1   
 40  18  21  ar  
 41  18  22  ar  
 42  19  23  ar  
 43  19  44  1   
 44  20  21  ar  
 45  20  45  1   
 46  22  24  ar  
 47  22  46  1   
 48  23  24  ar  
 49  23  47  1   
 50  24  48  1   
@<TRIPOS>SUBSTRUCTURE
  1 ****   6 GROUP 4 **** **** 0

# MOE 2024.06 (io_trps.svl 2023.06)
