@<TRIPOS>MOLECULE
NONAME
41 44 1 0 0 
SMALL
USER_CHARGES


@<TRIPOS>ATOM
  1 S        0.0450     0.4490     1.5050 S.3   1 <1>  -0.0800 
  2 C       -1.0440     1.1810     0.3360 C.2   1 <1>  -0.1400 
  3 C       -1.1330    -0.8060     1.8640 C.2   1 <1>  -0.1100 
  4 C       -2.1960     0.5000     0.2720 C.2   1 <1>  -0.1810 
  5 C       -0.6790     2.4240    -0.4680 C.3   1 <1>   0.4600 
  6 C       -2.2530    -0.6390     1.1350 C.2   1 <1>  -0.1500 
  7 C       -3.2870     0.9680    -0.6640 C.3   1 <1>   0.0210 
  8 O       -1.7000     2.6600    -1.4200 O.3   1 <1>  -0.5600 
  9 C       -0.5410     3.6590     0.4330 C.3   1 <1>  -0.1600 
 10 C        0.6110     2.2020    -1.2640 C.3   1 <1>  -0.1600 
 11 C       -3.0360     2.4450    -1.0290 C.3   1 <1>   0.1200 
 12 C       -0.1360     4.8990    -0.3650 C.3   1 <1>   0.1400 
 13 C        1.0090     3.4520    -2.0500 C.3   1 <1>   0.1400 
 14 N        1.1180     4.6110    -1.1180 N.am  1 <1>  -0.6600 
 15 C        2.3220     5.2500    -0.8940 C.2   1 <1>   0.5440 
 16 O        3.3490     4.7410    -1.2990 O.2   1 <1>  -0.5700 
 17 C        2.3980     6.5100    -0.1920 C.ar  1 <1>   0.0860 
 18 C        1.6630     7.6120    -0.6290 C.ar  1 <1>   0.1600 
 19 C        3.2000     6.6830     0.9270 C.ar  1 <1>  -0.1500 
 20 N        1.6370     8.8080    -0.0590 N.ar  1 <1>  -0.6200 
 21 C        3.2000     7.9190     1.5350 C.ar  1 <1>   0.0820 
 22 C        2.4090     8.9360     1.0110 C.ar  1 <1>   0.1600 
 23 O        3.9690     8.1080     2.6230 O.3   1 <1>  -0.5330 
 24 H       -0.8560    -1.5470     2.5930 H     1 <1>   0.1500 
 25 H       -3.1220    -1.2720     1.1680 H     1 <1>   0.1500 
 26 H       -4.2470     0.8770    -0.1880 H     1 <1>   0.0800 
 27 H       -3.2870     0.3650    -1.5540 H     1 <1>   0.0800 
 28 H        0.2140     3.4690     1.1740 H     1 <1>   0.0800 
 29 H       -1.4600     3.8380     0.9570 H     1 <1>   0.0800 
 30 H        0.4760     1.3740    -1.9350 H     1 <1>   0.0800 
 31 H        1.4140     1.9520    -0.5960 H     1 <1>   0.0800 
 32 H       -3.2520     3.0790    -0.1880 H     1 <1>   0.0800 
 33 H       -3.6680     2.7360    -1.8490 H     1 <1>   0.0800 
 34 H       -0.0030     5.7240     0.3120 H     1 <1>   0.0800 
 35 H       -0.9140     5.1560    -1.0640 H     1 <1>   0.0800 
 36 H        0.2620     3.6690    -2.7950 H     1 <1>   0.0800 
 37 H        1.9420     3.2780    -2.5580 H     1 <1>   0.0800 
 38 H        1.0570     7.4840    -1.5100 H     1 <1>   0.1500 
 39 H        3.8040     5.8760     1.3040 H     1 <1>   0.1500 
 40 H        2.4120     9.8980     1.4920 H     1 <1>   0.1500 
 41 H        3.9530     9.0150     2.9800 H     1 <1>   0.4500 
@<TRIPOS>BOND
  1   1   2  1   
  2   1   3  1   
  3   2   4  2   
  4   2   5  1   
  5   3   6  2   
  6   3  24  1   
  7   4   6  1   
  8   4   7  1   
  9   5   8  1   
 10   5   9  1   
 11   5  10  1   
 12   6  25  1   
 13   7  11  1   
 14   7  26  1   
 15   7  27  1   
 16   8  11  1   
 17   9  12  1   
 18   9  28  1   
 19   9  29  1   
 20  10  13  1   
 21  10  30  1   
 22  10  31  1   
 23  11  32  1   
 24  11  33  1   
 25  12  14  1   
 26  12  34  1   
 27  12  35  1   
 28  13  14  1   
 29  13  36  1   
 30  13  37  1   
 31  14  15  am  
 32  15  16  2   
 33  15  17  1   
 34  17  18  ar  
 35  17  19  ar  
 36  18  20  ar  
 37  18  38  1   
 38  19  21  ar  
 39  19  39  1   
 40  20  22  ar  
 41  21  22  ar  
 42  21  23  1   
 43  22  40  1   
 44  23  41  1   
@<TRIPOS>SUBSTRUCTURE
  1 ****  12 GROUP 4 **** **** 0

# MOE 2024.06 (io_trps.svl 2023.06)
