@<TRIPOS>MOLECULE
NONAME
51 52 1 0 0 
SMALL
USER_CHARGES


@<TRIPOS>ATOM
  1 S       -0.1610     0.2950     1.0450 S.o2  1 <1>   1.5760 
  2 O       -0.2830     1.7350     1.0660 O.2   1 <1>  -0.6500 
  3 O       -0.1390    -0.4590     2.2790 O.2   1 <1>  -0.6500 
  4 N       -1.3930    -0.3310     0.0810 N.am  1 <1>  -0.8490 
  5 N        1.1840    -0.1130     0.1060 N.am  1 <1>  -0.8490 
  6 C       -1.3560    -1.8050     0.0320 C.3   1 <1>   0.1960 
  7 C       -2.7090     0.0980     0.5730 C.3   1 <1>   0.1960 
  8 C        2.4140     0.0100     0.8880 C.3   1 <1>   0.1960 
  9 C        1.2400     0.6870    -1.1270 C.3   1 <1>   0.1160 
 10 C       -2.5190    -2.3730    -0.8050 C.3   1 <1>   0.3440 
 11 C       -3.8580    -0.4990    -0.2780 C.3   1 <1>   0.2000 
 12 C        3.5820    -0.6810     0.1850 C.3   1 <1>  -0.2400 
 13 O       -3.7420    -1.9000    -0.3070 O.3   1 <1>  -0.5600 
 14 C       -2.5170    -3.8980    -0.7740 C.ar  1 <1>  -0.1430 
 15 C       -5.2910    -0.1150     0.2020 C.3   1 <1>   0.0000 
 16 C       -1.9310    -4.6100    -1.8110 C.ar  1 <1>  -0.1500 
 17 C       -3.0840    -4.5950     0.2840 C.ar  1 <1>  -0.1500 
 18 C       -5.4790     1.4130     0.2080 C.3   1 <1>  -0.2400 
 19 C       -5.5910    -0.6480     1.6170 C.3   1 <1>  -0.2400 
 20 C       -6.3320    -0.7070    -0.7660 C.3   1 <1>  -0.2400 
 21 C       -1.9090    -5.9950    -1.7890 C.ar  1 <1>  -0.1500 
 22 C       -3.0640    -5.9780     0.3080 C.ar  1 <1>  -0.1500 
 23 C       -2.4750    -6.6800    -0.7290 C.ar  1 <1>  -0.1500 
 24 H       -0.4270    -2.1300    -0.4010 H     1 <1>   0.0800 
 25 H       -1.4170    -2.2170     1.0260 H     1 <1>   0.0800 
 26 H       -2.8280    -0.2010     1.6010 H     1 <1>   0.0800 
 27 H       -2.7580     1.1720     0.5310 H     1 <1>   0.0800 
 28 H        2.6400     1.0480     1.0710 H     1 <1>   0.0800 
 29 H        2.2790    -0.4720     1.8430 H     1 <1>   0.0800 
 30 H        2.0080     0.3190    -1.7830 H     1 <1>   0.0800 
 31 H        1.4330     1.7220    -0.8980 H     1 <1>   0.0800 
 32 H        0.3020     0.6220    -1.6520 H     1 <1>   0.0800 
 33 H       -2.4260    -2.0350    -1.8220 H     1 <1>   0.0800 
 34 H       -3.7410    -0.1460    -1.2880 H     1 <1>   0.0800 
 35 H        3.8790    -0.1470    -0.6980 H     1 <1>   0.0800 
 36 H        3.3120    -1.6900    -0.0730 H     1 <1>   0.0800 
 37 H        4.4260    -0.7160     0.8500 H     1 <1>   0.0800 
 38 H       -1.4870    -4.0920    -2.6430 H     1 <1>   0.1500 
 39 H       -3.5480    -4.0560     1.0930 H     1 <1>   0.1500 
 40 H       -6.4990     1.6650     0.4410 H     1 <1>   0.0800 
 41 H       -5.2440     1.8270    -0.7570 H     1 <1>   0.0800 
 42 H       -4.8530     1.8820     0.9450 H     1 <1>   0.0800 
 43 H       -6.6050    -0.4240     1.8960 H     1 <1>   0.0800 
 44 H       -4.9410    -0.2050     2.3490 H     1 <1>   0.0800 
 45 H       -5.4630    -1.7160     1.6500 H     1 <1>   0.0800 
 46 H       -7.3290    -0.4300    -0.4740 H     1 <1>   0.0800 
 47 H       -6.2740    -1.7820    -0.7720 H     1 <1>   0.0800 
 48 H       -6.1610    -0.3560    -1.7680 H     1 <1>   0.0800 
 49 H       -1.4530    -6.5390    -2.5970 H     1 <1>   0.1500 
 50 H       -3.5070    -6.5070     1.1330 H     1 <1>   0.1500 
 51 H       -2.4590    -7.7550    -0.7110 H     1 <1>   0.1500 
@<TRIPOS>BOND
  1   1   2  2   
  2   1   3  2   
  3   1   4  am  
  4   1   5  am  
  5   4   6  1   
  6   4   7  1   
  7   5   8  1   
  8   5   9  1   
  9   6  10  1   
 10   6  24  1   
 11   6  25  1   
 12   7  11  1   
 13   7  26  1   
 14   7  27  1   
 15   8  12  1   
 16   8  28  1   
 17   8  29  1   
 18   9  30  1   
 19   9  31  1   
 20   9  32  1   
 21  10  13  1   
 22  10  14  1   
 23  10  33  1   
 24  11  13  1   
 25  11  15  1   
 26  11  34  1   
 27  12  35  1   
 28  12  36  1   
 29  12  37  1   
 30  14  16  ar  
 31  14  17  ar  
 32  15  18  1   
 33  15  19  1   
 34  15  20  1   
 35  16  21  ar  
 36  16  38  1   
 37  17  22  ar  
 38  17  39  1   
 39  18  40  1   
 40  18  41  1   
 41  18  42  1   
 42  19  43  1   
 43  19  44  1   
 44  19  45  1   
 45  20  46  1   
 46  20  47  1   
 47  20  48  1   
 48  21  23  ar  
 49  21  49  1   
 50  22  23  ar  
 51  22  50  1   
 52  23  51  1   
@<TRIPOS>SUBSTRUCTURE
  1 ****   6 GROUP 4 **** **** 0

# MOE 2024.06 (io_trps.svl 2023.06)
