@<TRIPOS>MOLECULE
NONAME
56 59 1 0 0 
SMALL
USER_CHARGES


@<TRIPOS>ATOM
  1 F       -2.3930     1.0630    -0.9600 F     1 <1>  -0.1900 
  2 C       -3.0680     0.1000    -0.3920 C.ar  1 <1>   0.1900 
  3 C       -4.1360    -0.4530    -1.0730 C.ar  1 <1>  -0.1500 
  4 C       -2.6910    -0.3250     0.8670 C.ar  1 <1>  -0.1500 
  5 C       -4.8640    -1.4680    -0.4690 C.ar  1 <1>  -0.1440 
  6 C       -3.4140    -1.3450     1.4610 C.ar  1 <1>  -0.1500 
  7 C       -4.4910    -1.9110     0.7950 C.ar  1 <1>  -0.1500 
  8 C       -6.0610    -2.0950    -1.1800 C.3   1 <1>   0.0450 
  9 C       -7.3700    -1.9860    -0.4030 C.2   1 <1>   0.5690 
 10 O       -8.2140    -2.8340    -0.5730 O.2   1 <1>  -0.5700 
 11 N       -7.6520    -0.9320     0.4250 N.am  1 <1>  -0.6600 
 12 C       -8.5810    -1.1230     1.5880 C.3   1 <1>   0.1400 
 13 C       -7.3590     0.4730     0.0420 C.3   1 <1>   0.1400 
 14 C      -10.0660    -0.8360     1.2480 C.3   1 <1>   0.4230 
 15 C       -8.6510     1.2910    -0.1610 C.3   1 <1>  -0.0800 
 16 N      -10.2640    -0.7350    -0.2500 N.4   1 <1>  -0.9590 
 17 C      -10.6350     0.3670     2.0430 C.3   1 <1>   0.1200 
 18 C       -9.1410     1.9720     1.1340 C.3   1 <1>   0.1200 
 19 C       -9.7810     0.5360    -0.9020 C.3   1 <1>   0.3430 
 20 C      -11.6540    -1.0430    -0.6630 C.3   1 <1>   0.5240 
 21 O      -10.4570     1.6020     1.4090 O.3   1 <1>  -0.5600 
 22 C      -12.0390    -2.3950    -0.1100 C.2   1 <1>  -0.1810 
 23 C      -13.1210    -2.6510     0.7230 C.2   1 <1>   0.1390 
 24 C      -11.4370    -3.5960    -0.2680 C.2   1 <1>  -0.3020 
 25 N      -13.1790    -3.8960     1.0720 N.2   1 <1>  -0.7070 
 26 N      -12.1450    -4.4910     0.4490 N.pl3 1 <1>   0.3140 
 27 C      -11.8740    -5.9380     0.5780 C.3   1 <1>   0.0960 
 28 C      -12.3150    -6.7000    -0.6780 C.3   1 <1>  -0.2400 
 29 H       -4.3760    -0.0870    -2.0550 H     1 <1>   0.1500 
 30 H       -1.8530     0.1300     1.3630 H     1 <1>   0.1500 
 31 H       -3.1380    -1.7000     2.4400 H     1 <1>   0.1500 
 32 H       -5.0400    -2.7060     1.2720 H     1 <1>   0.1500 
 33 H       -5.8520    -3.1370    -1.3410 H     1 <1>   0.0800 
 34 H       -6.2010    -1.6450    -2.1450 H     1 <1>   0.0800 
 35 H       -8.5110    -2.1470     1.9160 H     1 <1>   0.0800 
 36 H       -8.2510    -0.5190     2.4150 H     1 <1>   0.0800 
 37 H       -6.7280     0.9270     0.7890 H     1 <1>   0.0800 
 38 H       -6.8080     0.4790    -0.8830 H     1 <1>   0.0800 
 39 H      -10.5970    -1.7020     1.6090 H     1 <1>   0.0800 
 40 H       -8.3660     2.1060    -0.8040 H     1 <1>   0.0800 
 41 H       -9.6710    -1.5130    -0.5980 H     1 <1>   0.4500 
 42 H      -10.2040     0.4210     3.0280 H     1 <1>   0.0800 
 43 H      -11.6950     0.2330     2.1660 H     1 <1>   0.0800 
 44 H       -9.1430     3.0410     1.0010 H     1 <1>   0.0800 
 45 H       -8.5210     1.7480     1.9860 H     1 <1>   0.0800 
 46 H       -9.4510     0.3090    -1.9020 H     1 <1>   0.0800 
 47 H      -10.6130     1.2180    -0.9840 H     1 <1>   0.0800 
 48 H      -12.3250    -0.2880    -0.2870 H     1 <1>   0.0800 
 49 H      -11.7260    -1.0650    -1.7380 H     1 <1>   0.0800 
 50 H      -13.8390    -1.9210     1.0610 H     1 <1>   0.1500 
 51 H      -10.5650    -3.8750    -0.8330 H     1 <1>   0.1500 
 52 H      -10.8220    -6.0760     0.7480 H     1 <1>   0.0800 
 53 H      -12.4110    -6.3050     1.4350 H     1 <1>   0.0800 
 54 H      -11.7710    -6.3560    -1.5390 H     1 <1>   0.0800 
 55 H      -13.3690    -6.5600    -0.8420 H     1 <1>   0.0800 
 56 H      -12.1270    -7.7510    -0.5510 H     1 <1>   0.0800 
@<TRIPOS>BOND
  1   1   2  1   
  2   2   3  ar  
  3   2   4  ar  
  4   3   5  ar  
  5   3  29  1   
  6   4   6  ar  
  7   4  30  1   
  8   5   7  ar  
  9   5   8  1   
 10   6   7  ar  
 11   6  31  1   
 12   7  32  1   
 13   8   9  1   
 14   8  33  1   
 15   8  34  1   
 16   9  10  2   
 17   9  11  am  
 18  11  12  1   
 19  11  13  1   
 20  12  14  1   
 21  12  35  1   
 22  12  36  1   
 23  13  15  1   
 24  13  37  1   
 25  13  38  1   
 26  14  16  1   
 27  14  17  1   
 28  14  39  1   
 29  15  18  1   
 30  15  19  1   
 31  15  40  1   
 32  16  19  1   
 33  16  20  1   
 34  16  41  1   
 35  17  21  1   
 36  17  42  1   
 37  17  43  1   
 38  18  21  1   
 39  18  44  1   
 40  18  45  1   
 41  19  46  1   
 42  19  47  1   
 43  20  22  1   
 44  20  48  1   
 45  20  49  1   
 46  22  23  1   
 47  22  24  2   
 48  23  25  2   
 49  23  50  1   
 50  24  26  1   
 51  24  51  1   
 52  25  26  1   
 53  26  27  1   
 54  27  28  1   
 55  27  52  1   
 56  27  53  1   
 57  28  54  1   
 58  28  55  1   
 59  28  56  1   
@<TRIPOS>SUBSTRUCTURE
  1 ****  11 GROUP 4 **** **** 0

# MOE 2024.06 (io_trps.svl 2023.06)
