@<TRIPOS>MOLECULE
NONAME
49 50 1 0 0 
SMALL
USER_CHARGES


@<TRIPOS>ATOM
  1 S       -0.1630    -0.2370    -1.1540 S.o2  1 <1>   1.4470 
  2 O        0.3670    -1.3250    -1.9500 O.2   1 <1>  -0.6500 
  3 O       -1.1840     0.5960    -1.7580 O.2   1 <1>  -0.6500 
  4 N       -0.7750    -0.8990     0.2880 N.am  1 <1>  -0.8490 
  5 C        1.2580     0.7410    -0.5860 C.ar  1 <1>  -0.0090 
  6 C       -1.2210    -2.3010     0.2150 C.3   1 <1>   0.1960 
  7 C       -1.6870    -0.0300     1.0550 C.3   1 <1>   0.1960 
  8 C        1.1410     2.0440    -0.1200 C.ar  1 <1>   0.0820 
  9 C        2.5300     0.1820    -0.5790 C.ar  1 <1>  -0.1500 
 10 C       -2.5880    -2.4580    -0.4640 C.3   1 <1>  -0.1860 
 11 C       -3.1440    -0.5140     1.0550 C.3   1 <1>  -0.1600 
 12 O       -0.0540     2.6630    -0.0650 O.3   1 <1>  -0.3620 
 13 C        2.2510     2.7400     0.3260 C.ar  1 <1>  -0.1500 
 14 C        3.6640     0.8610    -0.1470 C.ar  1 <1>  -0.1440 
 15 C       -3.1410    -3.7730     0.0490 C.2   1 <1>   0.9060 
 16 C       -3.4830    -1.2180    -0.2540 C.3   1 <1>   0.2000 
 17 C       -0.3410     3.5710    -1.1060 C.3   1 <1>   0.0400 
 18 C        3.5120     2.1700     0.3200 C.ar  1 <1>  -0.1440 
 19 C        4.9860     0.0750    -0.2240 C.3   1 <1>   0.0630 
 20 O       -2.5990    -4.8140    -0.3270 O.co2 1 <1>  -0.9000 
 21 O       -4.0750    -3.7800     0.8640 O.co2 1 <1>  -0.9000 
 22 O       -4.8150    -1.5660    -0.2170 O.3   1 <1>  -0.6800 
 23 C        4.6520     3.0380     0.8370 C.3   1 <1>  -0.0970 
 24 C        5.3970    -0.4650     1.1500 C.3   1 <1>  -0.2400 
 25 C        6.1370     0.8240    -0.9080 C.3   1 <1>  -0.2400 
 26 H       -0.4920    -2.9140    -0.2890 H     1 <1>   0.0800 
 27 H       -1.2920    -2.6750     1.2230 H     1 <1>   0.0800 
 28 H       -1.3390     0.0220     2.0720 H     1 <1>   0.0800 
 29 H       -1.6620     0.9700     0.6600 H     1 <1>   0.0800 
 30 H        2.6240    -0.8330    -0.9280 H     1 <1>   0.1500 
 31 H       -2.4290    -2.5790    -1.5180 H     1 <1>   0.0800 
 32 H       -3.7970     0.3270     1.2000 H     1 <1>   0.0800 
 33 H       -3.2880    -1.1990     1.8730 H     1 <1>   0.0800 
 34 H        2.1090     3.7430     0.6870 H     1 <1>   0.1500 
 35 H       -3.3570    -0.5300    -1.0720 H     1 <1>   0.0800 
 36 H       -1.3420     3.9360    -0.9660 H     1 <1>   0.0800 
 37 H       -0.2690     3.0560    -2.0480 H     1 <1>   0.0800 
 38 H        0.3610     4.3850    -1.0670 H     1 <1>   0.0800 
 39 H        4.8100    -0.7880    -0.8430 H     1 <1>   0.0800 
 40 H       -4.8480    -2.4390     0.2820 H     1 <1>   0.4000 
 41 H        4.2750     3.8700     1.4040 H     1 <1>   0.0800 
 42 H        5.2170     3.4280     0.0100 H     1 <1>   0.0800 
 43 H        5.3020     2.4810     1.4820 H     1 <1>   0.0800 
 44 H        5.6300     0.3300     1.8310 H     1 <1>   0.0800 
 45 H        6.2590    -1.1000     1.0560 H     1 <1>   0.0800 
 46 H        4.5910    -1.0430     1.5680 H     1 <1>   0.0800 
 47 H        6.5850     1.5470    -0.2550 H     1 <1>   0.0800 
 48 H        5.7780     1.3190    -1.7920 H     1 <1>   0.0800 
 49 H        6.9020     0.1260    -1.1960 H     1 <1>   0.0800 
@<TRIPOS>BOND
  1   1   2  2   
  2   1   3  2   
  3   1   4  am  
  4   1   5  1   
  5   4   6  1   
  6   4   7  1   
  7   5   8  ar  
  8   5   9  ar  
  9   6  10  1   
 10   6  26  1   
 11   6  27  1   
 12   7  11  1   
 13   7  28  1   
 14   7  29  1   
 15   8  12  1   
 16   8  13  ar  
 17   9  14  ar  
 18   9  30  1   
 19  10  15  1   
 20  10  16  1   
 21  10  31  1   
 22  11  16  1   
 23  11  32  1   
 24  11  33  1   
 25  12  17  1   
 26  13  18  ar  
 27  13  34  1   
 28  14  18  ar  
 29  14  19  1   
 30  15  20  ar  
 31  15  21  ar  
 32  16  22  1   
 33  16  35  1   
 34  17  36  1   
 35  17  37  1   
 36  17  38  1   
 37  18  23  1   
 38  19  24  1   
 39  19  25  1   
 40  19  39  1   
 41  22  40  1   
 42  23  41  1   
 43  23  42  1   
 44  23  43  1   
 45  24  44  1   
 46  24  45  1   
 47  24  46  1   
 48  25  47  1   
 49  25  48  1   
 50  25  49  1   
@<TRIPOS>SUBSTRUCTURE
  1 ****   1 GROUP 4 **** **** 0

# MOE 2024.06 (io_trps.svl 2023.06)
