@<TRIPOS>MOLECULE
NONAME
50 52 1 0 0 
SMALL
USER_CHARGES


@<TRIPOS>ATOM
  1 S        0.4360    -0.9410     0.6350 S.3   1 <1>  -0.0800 
  2 C       -1.0110     0.0350     0.8440 C.2   1 <1>  -0.1400 
  3 C        1.2020     0.3150    -0.3180 C.2   1 <1>  -0.1100 
  4 C       -0.8770     1.2200     0.2130 C.2   1 <1>  -0.1810 
  5 C       -2.1270    -0.5820     1.6630 C.3   1 <1>   0.3200 
  6 C        0.3850     1.3750    -0.4460 C.2   1 <1>  -0.1500 
  7 C       -1.9040     2.3360     0.1440 C.3   1 <1>  -0.0590 
  8 N       -2.7410    -1.6600     0.8730 N.am  1 <1>  -0.7300 
  9 C       -4.0700    -1.8870     0.7290 C.2   1 <1>   0.5690 
 10 O       -4.8810    -1.2370     1.3470 O.2   1 <1>  -0.5700 
 11 C       -4.5400    -2.9870    -0.2330 C.3   1 <1>   0.2610 
 12 O       -3.4230    -3.7060    -0.7350 O.3   1 <1>  -0.5600 
 13 C       -5.5900    -3.8940     0.4720 C.3   1 <1>   0.3640 
 14 C       -3.7640    -4.7980    -1.5480 C.3   1 <1>   0.1810 
 15 N       -5.4800    -5.3630     0.1720 N.am  1 <1>  -0.6600 
 16 C       -7.0000    -3.4150     0.1160 C.ar  1 <1>  -0.1430 
 17 C       -4.6170    -5.8140    -0.7950 C.2   1 <1>   0.5690 
 18 C       -6.3000    -6.2410     1.0530 C.3   1 <1>   0.2200 
 19 C       -7.5880    -3.7450    -1.0990 C.ar  1 <1>  -0.1500 
 20 C       -7.7110    -2.6280     1.0120 C.ar  1 <1>  -0.1500 
 21 O       -4.4950    -6.9770    -1.0990 O.2   1 <1>  -0.5700 
 22 C       -5.3910    -7.0970     1.9340 C.3   1 <1>  -0.2400 
 23 C       -7.2780    -7.0920     0.2420 C.3   1 <1>  -0.2400 
 24 C       -8.8620    -3.3010    -1.4100 C.ar  1 <1>  -0.1500 
 25 C       -8.9840    -2.1830     0.7030 C.ar  1 <1>  -0.1500 
 26 C       -9.5610    -2.5200    -0.5080 C.ar  1 <1>  -0.1500 
 27 H        2.1940     0.1230    -0.6860 H     1 <1>   0.1500 
 28 H       -2.8660     0.1600     1.9090 H     1 <1>   0.0800 
 29 H       -1.7300    -0.9850     2.5780 H     1 <1>   0.0800 
 30 H        0.6210     2.2760    -0.9850 H     1 <1>   0.1500 
 31 H       -2.1380     2.5520    -0.8830 H     1 <1>   0.0800 
 32 H       -1.5100     3.2240     0.6050 H     1 <1>   0.0800 
 33 H       -2.8120     2.0600     0.6480 H     1 <1>   0.0800 
 34 H       -2.0910    -2.2170     0.3100 H     1 <1>   0.3700 
 35 H       -5.0030    -2.5010    -1.0720 H     1 <1>   0.0800 
 36 H       -5.4540    -3.7810     1.5340 H     1 <1>   0.0800 
 37 H       -4.2930    -4.4390    -2.4110 H     1 <1>   0.0800 
 38 H       -2.8510    -5.2670    -1.8650 H     1 <1>   0.0800 
 39 H       -6.8900    -5.6180     1.7060 H     1 <1>   0.0800 
 40 H       -7.0610    -4.3570    -1.8100 H     1 <1>   0.1500 
 41 H       -7.2740    -2.3470     1.9560 H     1 <1>   0.1500 
 42 H       -4.8280    -7.7930     1.3400 H     1 <1>   0.0800 
 43 H       -5.9850    -7.6570     2.6340 H     1 <1>   0.0800 
 44 H       -4.7140    -6.4720     2.4860 H     1 <1>   0.0800 
 45 H       -6.7590    -7.8030    -0.3740 H     1 <1>   0.0800 
 46 H       -7.8920    -6.4660    -0.3770 H     1 <1>   0.0800 
 47 H       -7.9200    -7.6380     0.9090 H     1 <1>   0.0800 
 48 H       -9.3090    -3.5650    -2.3520 H     1 <1>   0.1500 
 49 H       -9.5240    -1.5720     1.4050 H     1 <1>   0.1500 
 50 H      -10.5520    -2.1740    -0.7480 H     1 <1>   0.1500 
@<TRIPOS>BOND
  1   1   2  1   
  2   1   3  1   
  3   2   4  2   
  4   2   5  1   
  5   3   6  2   
  6   3  27  1   
  7   4   6  1   
  8   4   7  1   
  9   5   8  1   
 10   5  28  1   
 11   5  29  1   
 12   6  30  1   
 13   7  31  1   
 14   7  32  1   
 15   7  33  1   
 16   8   9  am  
 17   8  34  1   
 18   9  10  2   
 19   9  11  1   
 20  11  12  1   
 21  11  13  1   
 22  11  35  1   
 23  12  14  1   
 24  13  15  1   
 25  13  16  1   
 26  13  36  1   
 27  14  17  1   
 28  14  37  1   
 29  14  38  1   
 30  15  17  am  
 31  15  18  1   
 32  16  19  ar  
 33  16  20  ar  
 34  17  21  2   
 35  18  22  1   
 36  18  23  1   
 37  18  39  1   
 38  19  24  ar  
 39  19  40  1   
 40  20  25  ar  
 41  20  41  1   
 42  22  42  1   
 43  22  43  1   
 44  22  44  1   
 45  23  45  1   
 46  23  46  1   
 47  23  47  1   
 48  24  26  ar  
 49  24  48  1   
 50  25  26  ar  
 51  25  49  1   
 52  26  50  1   
@<TRIPOS>SUBSTRUCTURE
  1 ****  11 GROUP 4 **** **** 0

# MOE 2024.06 (io_trps.svl 2023.06)
