@<TRIPOS>MOLECULE
NONAME
37 38 1 0 0 
SMALL
USER_CHARGES


@<TRIPOS>ATOM
  1 CL       0.4670     1.5210    -2.5090 Cl    1 <1>  -0.1770 
  2 C        1.6090     1.5470    -1.1890 C.ar  1 <1>   0.1770 
  3 C        2.2010     0.3680    -0.7730 C.ar  1 <1>  -0.1440 
  4 C        1.8920     2.7550    -0.5770 C.ar  1 <1>  -0.1500 
  5 C        3.0890     0.4450     0.2870 C.ar  1 <1>   0.1900 
  6 C        1.9040    -0.9550    -1.4460 C.3   1 <1>   0.4870 
  7 C        2.7870     2.7990     0.4820 C.ar  1 <1>  -0.1500 
  8 F        3.6490    -0.6640     0.6990 F     1 <1>  -0.1900 
  9 C        3.3990     1.6360     0.9280 C.ar  1 <1>  -0.1440 
 10 N        1.0880    -1.7960    -0.5390 N.4   1 <1>  -0.9590 
 11 C        4.3820     1.6790     2.0900 C.3   1 <1>  -0.0970 
 12 C        1.0580    -3.2350    -1.0120 C.3   1 <1>   0.3430 
 13 C       -0.2880    -1.2460    -0.3470 C.3   1 <1>   0.3430 
 14 C       -0.2000    -4.0120    -0.5750 C.3   1 <1>   0.2000 
 15 C       -0.9830    -1.9980     0.7920 C.3   1 <1>  -0.1600 
 16 O       -1.1970    -3.7810    -1.5070 O.3   1 <1>  -0.6800 
 17 C       -0.6940    -3.5230     0.7900 C.3   1 <1>  -0.1860 
 18 C       -1.8930    -4.3390     1.2140 C.2   1 <1>   0.9060 
 19 O       -1.8520    -4.9120     2.3000 O.co2 1 <1>  -0.9000 
 20 O       -2.8460    -4.4140     0.4280 O.co2 1 <1>  -0.9000 
 21 H        1.4170     3.6570    -0.9250 H     1 <1>   0.1500 
 22 H        2.8370    -1.4510    -1.6610 H     1 <1>   0.0800 
 23 H        1.3810    -0.8010    -2.3750 H     1 <1>   0.0800 
 24 H        3.0030     3.7440     0.9530 H     1 <1>   0.1500 
 25 H        1.5330    -1.7850     0.3870 H     1 <1>   0.4500 
 26 H        4.4950     2.6810     2.4650 H     1 <1>   0.0800 
 27 H        5.3470     1.3270     1.7700 H     1 <1>   0.0800 
 28 H        4.0350     1.0530     2.8930 H     1 <1>   0.0800 
 29 H        1.1060    -3.2770    -2.0870 H     1 <1>   0.0800 
 30 H        1.9230    -3.7440    -0.6210 H     1 <1>   0.0800 
 31 H       -0.2560    -0.1930    -0.1170 H     1 <1>   0.0800 
 32 H       -0.8550    -1.3790    -1.2550 H     1 <1>   0.0800 
 33 H       -0.0130    -5.0730    -0.5600 H     1 <1>   0.0800 
 34 H       -0.7020    -1.5800     1.7420 H     1 <1>   0.0800 
 35 H       -2.0430    -1.8380     0.6830 H     1 <1>   0.0800 
 36 H       -2.0560    -4.0600    -1.0580 H     1 <1>   0.4000 
 37 H        0.0790    -3.7230     1.5080 H     1 <1>   0.0800 
@<TRIPOS>BOND
  1   1   2  1   
  2   2   3  ar  
  3   2   4  ar  
  4   3   5  ar  
  5   3   6  1   
  6   4   7  ar  
  7   4  21  1   
  8   5   8  1   
  9   5   9  ar  
 10   6  10  1   
 11   6  22  1   
 12   6  23  1   
 13   7   9  ar  
 14   7  24  1   
 15   9  11  1   
 16  10  12  1   
 17  10  13  1   
 18  10  25  1   
 19  11  26  1   
 20  11  27  1   
 21  11  28  1   
 22  12  14  1   
 23  12  29  1   
 24  12  30  1   
 25  13  15  1   
 26  13  31  1   
 27  13  32  1   
 28  14  16  1   
 29  14  17  1   
 30  14  33  1   
 31  15  17  1   
 32  15  34  1   
 33  15  35  1   
 34  16  36  1   
 35  17  18  1   
 36  17  37  1   
 37  18  19  ar  
 38  18  20  ar  
@<TRIPOS>SUBSTRUCTURE
  1 ****  10 GROUP 4 **** **** 0

# MOE 2024.06 (io_trps.svl 2023.06)
