@<TRIPOS>MOLECULE
NONAME
55 57 1 0 0 
SMALL
USER_CHARGES


@<TRIPOS>ATOM
  1 O       -0.3130    -0.9220     1.7270 O.2   1 <1>  -0.5700 
  2 C       -0.3770    -1.6310     0.7430 C.2   1 <1>   0.7800 
  3 O        0.7290    -2.1700     0.2300 O.3   1 <1>  -0.4300 
  4 N       -1.5720    -1.9290     0.1320 N.am  1 <1>  -0.6600 
  5 C        2.0070    -1.9160     0.7660 C.3   1 <1>   0.2000 
  6 C       -1.6830    -2.8350    -1.0340 C.3   1 <1>   0.1400 
  7 C       -2.8520    -1.3780     0.6310 C.3   1 <1>   0.1400 
  8 C        2.5360    -0.6130     0.1660 C.3   1 <1>  -0.2400 
  9 C        2.8940    -3.1010     0.3930 C.3   1 <1>  -0.2400 
 10 C       -2.5590    -4.0250    -0.6370 C.3   1 <1>  -0.1600 
 11 C       -3.7380    -2.5460     1.0610 C.3   1 <1>  -0.1600 
 12 C       -3.9090    -3.5570    -0.0770 C.3   1 <1>   0.4230 
 13 N       -4.6870    -4.6970     0.4580 N.4   1 <1>  -0.9060 
 14 C       -5.1690    -5.7130    -0.5190 C.3   1 <1>   0.4230 
 15 C       -6.4540    -6.3300     0.0300 C.3   1 <1>  -0.0800 
 16 C       -4.2420    -6.9240    -0.4680 C.3   1 <1>   0.1200 
 17 C       -5.9330    -7.4540     0.9480 C.3   1 <1>   0.1200 
 18 C       -7.3540    -6.8750    -1.0970 C.3   1 <1>  -0.0170 
 19 O       -4.5500    -7.4960     0.7570 O.3   1 <1>  -0.5600 
 20 C       -8.6380    -7.4590    -0.5300 C.ar  1 <1>  -0.1430 
 21 C       -8.8330    -8.8210    -0.4070 C.ar  1 <1>  -0.1500 
 22 C       -9.6800    -6.6550    -0.1110 C.ar  1 <1>  -0.1500 
 23 C      -10.0190    -9.2980     0.1270 C.ar  1 <1>   0.1600 
 24 C      -10.8270    -7.2340     0.4080 C.ar  1 <1>   0.1600 
 25 N      -11.0160    -8.5350     0.5410 N.ar  1 <1>  -0.6200 
 26 H        1.9330    -1.8430     1.8390 H     1 <1>   0.0800 
 27 H       -2.1220    -2.2960    -1.8580 H     1 <1>   0.0800 
 28 H       -0.7140    -3.1850    -1.3500 H     1 <1>   0.0800 
 29 H       -2.6850    -0.7170     1.4670 H     1 <1>   0.0800 
 30 H       -3.3210    -0.8060    -0.1520 H     1 <1>   0.0800 
 31 H        2.5730    -0.6790    -0.9070 H     1 <1>   0.0800 
 32 H        3.5260    -0.4170     0.5340 H     1 <1>   0.0800 
 33 H        1.9050     0.2090     0.4530 H     1 <1>   0.0800 
 34 H        2.9590    -3.2020    -0.6760 H     1 <1>   0.0800 
 35 H        2.4950    -4.0060     0.8150 H     1 <1>   0.0800 
 36 H        3.8840    -2.9540     0.7850 H     1 <1>   0.0800 
 37 H       -2.0240    -4.5980     0.1000 H     1 <1>   0.0800 
 38 H       -2.7040    -4.6300    -1.5130 H     1 <1>   0.0800 
 39 H       -4.6940    -2.1530     1.3580 H     1 <1>   0.0800 
 40 H       -3.2780    -3.0120     1.9150 H     1 <1>   0.0800 
 41 H       -4.4650    -3.0810    -0.8700 H     1 <1>   0.0800 
 42 H       -5.4870    -4.3310     0.9820 H     1 <1>   0.4500 
 43 H       -4.1220    -5.2170     1.1480 H     1 <1>   0.4500 
 44 H       -5.2880    -5.2990    -1.5080 H     1 <1>   0.0800 
 45 H       -7.0280    -5.6190     0.5970 H     1 <1>   0.0800 
 46 H       -3.1950    -6.6850    -0.4990 H     1 <1>   0.0800 
 47 H       -4.4720    -7.6370    -1.2420 H     1 <1>   0.0800 
 48 H       -6.3370    -8.4200     0.6940 H     1 <1>   0.0800 
 49 H       -6.1270    -7.2520     1.9880 H     1 <1>   0.0800 
 50 H       -6.8400    -7.6320    -1.6650 H     1 <1>   0.0800 
 51 H       -7.6140    -6.0820    -1.7770 H     1 <1>   0.0800 
 52 H       -8.0820    -9.5230    -0.7190 H     1 <1>   0.1500 
 53 H       -9.6230    -5.5850    -0.1820 H     1 <1>   0.1500 
 54 H      -10.1540   -10.3620     0.2170 H     1 <1>   0.1500 
 55 H      -11.6310    -6.5940     0.7300 H     1 <1>   0.1500 
@<TRIPOS>BOND
  1   1   2  2   
  2   2   3  1   
  3   2   4  am  
  4   3   5  1   
  5   4   6  1   
  6   4   7  1   
  7   5   8  1   
  8   5   9  1   
  9   5  26  1   
 10   6  10  1   
 11   6  27  1   
 12   6  28  1   
 13   7  11  1   
 14   7  29  1   
 15   7  30  1   
 16   8  31  1   
 17   8  32  1   
 18   8  33  1   
 19   9  34  1   
 20   9  35  1   
 21   9  36  1   
 22  10  12  1   
 23  10  37  1   
 24  10  38  1   
 25  11  12  1   
 26  11  39  1   
 27  11  40  1   
 28  12  13  1   
 29  12  41  1   
 30  13  14  1   
 31  13  42  1   
 32  13  43  1   
 33  14  15  1   
 34  14  16  1   
 35  14  44  1   
 36  15  17  1   
 37  15  18  1   
 38  15  45  1   
 39  16  19  1   
 40  16  46  1   
 41  16  47  1   
 42  17  19  1   
 43  17  48  1   
 44  17  49  1   
 45  18  20  1   
 46  18  50  1   
 47  18  51  1   
 48  20  21  ar  
 49  20  22  ar  
 50  21  23  ar  
 51  21  52  1   
 52  22  24  ar  
 53  22  53  1   
 54  23  25  ar  
 55  23  54  1   
 56  24  25  ar  
 57  24  55  1   
@<TRIPOS>SUBSTRUCTURE
  1 ****  13 GROUP 4 **** **** 0

# MOE 2024.06 (io_trps.svl 2023.06)
