@<TRIPOS>MOLECULE
NONAME
25 26 1 0 0 
SMALL
USER_CHARGES


@<TRIPOS>ATOM
  1 F       -1.2990    -0.2850     0.7730 F     1 <1>  -0.3400 
  2 C       -0.9730    -0.6410    -0.4640 C.3   1 <1>   0.8800 
  3 F       -1.9870    -0.2480    -1.2260 F     1 <1>  -0.3400 
  4 O       -0.9270    -2.0520    -0.5150 O.3   1 <1>  -0.3630 
  5 C        0.2260    -2.7100    -0.2420 C.ar  1 <1>   0.0820 
  6 C        1.4100    -2.0690     0.1020 C.ar  1 <1>  -0.1500 
  7 C        0.2090    -4.0940    -0.3300 C.ar  1 <1>  -0.1500 
  8 C        2.5650    -2.7950     0.3230 C.ar  1 <1>  -0.0320 
  9 C        1.3610    -4.8270    -0.0920 C.ar  1 <1>  -0.1500 
 10 C        2.5410    -4.1760     0.2310 C.ar  1 <1>  -0.1500 
 11 C        3.8210    -2.0140     0.6460 C.3   1 <1>  -0.0680 
 12 C        4.2450    -1.1050    -0.4730 C.3   1 <1>  -0.2470 
 13 C        5.1830    -2.1590     0.0420 C.3   1 <1>  -0.2000 
 14 C        4.1840     0.3760    -0.1580 C.2   1 <1>   0.9470 
 15 O        3.0820     0.9320    -0.2520 O.co2 1 <1>  -0.9000 
 16 O        5.2110     0.9690     0.1850 O.co2 1 <1>  -0.9000 
 17 H       -0.0670    -0.1540    -0.7790 H     1 <1>   0.0800 
 18 H        1.4820    -1.0000     0.2020 H     1 <1>   0.1500 
 19 H       -0.7080    -4.5920    -0.5890 H     1 <1>   0.1500 
 20 H        1.3410    -5.9000    -0.1620 H     1 <1>   0.1500 
 21 H        3.4420    -4.7350     0.4090 H     1 <1>   0.1500 
 22 H        3.7860    -1.5880     1.6350 H     1 <1>   0.1000 
 23 H        3.8430    -1.2790    -1.4510 H     1 <1>   0.1000 
 24 H        5.3900    -3.0140    -0.5760 H     1 <1>   0.1000 
 25 H        6.0470    -1.8150     0.5840 H     1 <1>   0.1000 
@<TRIPOS>BOND
  1   1   2  1   
  2   2   3  1   
  3   2   4  1   
  4   2  17  1   
  5   4   5  1   
  6   5   6  ar  
  7   5   7  ar  
  8   6   8  ar  
  9   6  18  1   
 10   7   9  ar  
 11   7  19  1   
 12   8  10  ar  
 13   8  11  1   
 14   9  10  ar  
 15   9  20  1   
 16  10  21  1   
 17  11  12  1   
 18  11  13  1   
 19  11  22  1   
 20  12  13  1   
 21  12  14  1   
 22  12  23  1   
 23  13  24  1   
 24  13  25  1   
 25  14  15  ar  
 26  14  16  ar  
@<TRIPOS>SUBSTRUCTURE
  1 ****   6 GROUP 4 **** **** 0

# MOE 2024.06 (io_trps.svl 2023.06)
