@<TRIPOS>MOLECULE
NONAME
49 51 1 0 0 
SMALL
USER_CHARGES


@<TRIPOS>ATOM
  1 S       -0.9510    -0.4430     1.1290 S.3   1 <1>  -0.0800 
  2 C       -1.4720    -1.7270     0.0820 C.2   1 <1>   0.4420 
  3 C       -0.1030     0.2210    -0.2270 C.2   1 <1>   0.1980 
  4 N       -1.0180    -1.5960    -1.1100 N.2   1 <1>  -0.3380 
  5 N       -2.2760    -2.7490     0.5300 N.am  1 <1>  -0.4940 
  6 N       -0.2370    -0.4870    -1.2790 N.2   1 <1>  -0.3380 
  7 C        0.6930     1.5050    -0.0030 C.3   1 <1>   0.3800 
  8 C       -2.8320    -3.0420     1.7390 C.2   1 <1>   0.5690 
  9 O       -0.1240     2.5280     0.4930 O.3   1 <1>  -0.5600 
 10 C        1.3400     2.0850    -1.2560 C.3   1 <1>  -0.1600 
 11 O       -2.7000    -2.3700     2.7310 O.2   1 <1>  -0.5700 
 12 C       -3.6630    -4.3250     1.8050 C.3   1 <1>   0.1710 
 13 C        0.2300     3.7770    -0.0180 C.3   1 <1>   0.1200 
 14 C        1.4380     3.5590    -0.9210 C.3   1 <1>  -0.1600 
 15 N       -4.1080    -4.8170     0.4620 N.3   1 <1>  -0.8100 
 16 C       -4.4250    -6.2590     0.5160 C.3   1 <1>   0.1100 
 17 C       -5.2580    -4.0280    -0.0180 C.3   1 <1>   0.0300 
 18 C       -4.4910    -6.8770    -0.8830 C.3   1 <1>   0.0210 
 19 C       -4.5860    -8.3890    -0.7730 C.2   1 <1>  -0.1810 
 20 C       -3.5170    -9.2810    -0.6950 C.2   1 <1>   0.1080 
 21 C       -5.6890    -9.1680    -0.7220 C.2   1 <1>  -0.3320 
 22 N       -3.9100   -10.5110    -0.6040 N.2   1 <1>  -0.7070 
 23 C       -2.0500    -8.9130    -0.7170 C.3   1 <1>  -0.0590 
 24 N       -5.2520   -10.4420    -0.6230 N.pl3 1 <1>   0.3000 
 25 C       -7.1630    -8.8000    -0.7580 C.3   1 <1>  -0.0600 
 26 H       -2.5480    -3.4260    -0.1870 H     1 <1>   0.3700 
 27 H        1.4490     1.3250     0.7410 H     1 <1>   0.0800 
 28 H        0.6890     1.9410    -2.1010 H     1 <1>   0.0800 
 29 H        2.2940     1.6340    -1.4620 H     1 <1>   0.0800 
 30 H       -4.5150    -4.1610     2.4420 H     1 <1>   0.0800 
 31 H       -3.0420    -5.0660     2.2740 H     1 <1>   0.0800 
 32 H        0.4460     4.4440     0.7990 H     1 <1>   0.0800 
 33 H       -0.6110     4.1470    -0.5800 H     1 <1>   0.0800 
 34 H        1.4080     4.1860    -1.7940 H     1 <1>   0.0800 
 35 H        2.3390     3.7630    -0.3680 H     1 <1>   0.0800 
 36 H       -5.3550    -6.4230     1.0340 H     1 <1>   0.0800 
 37 H       -3.6510    -6.7720     1.0610 H     1 <1>   0.0800 
 38 H       -5.0250    -2.9760    -0.0060 H     1 <1>   0.0800 
 39 H       -6.1200    -4.1970     0.6060 H     1 <1>   0.0800 
 40 H       -5.5020    -4.2970    -1.0310 H     1 <1>   0.0800 
 41 H       -3.6090    -6.6150    -1.4380 H     1 <1>   0.0800 
 42 H       -5.3470    -6.5100    -1.4150 H     1 <1>   0.0800 
 43 H       -1.8650    -8.0820    -0.0630 H     1 <1>   0.0800 
 44 H       -1.7600    -8.6530    -1.7170 H     1 <1>   0.0800 
 45 H       -1.4610    -9.7500    -0.3900 H     1 <1>   0.0800 
 46 H       -5.8400   -11.2820    -0.5680 H     1 <1>   0.2700 
 47 H       -7.2880    -7.7340    -0.8080 H     1 <1>   0.0800 
 48 H       -7.6550    -9.1590     0.1280 H     1 <1>   0.0800 
 49 H       -7.6310    -9.2390    -1.6210 H     1 <1>   0.0800 
@<TRIPOS>BOND
  1   1   2  1   
  2   1   3  1   
  3   2   4  2   
  4   2   5  1   
  5   3   6  2   
  6   3   7  1   
  7   4   6  1   
  8   5   8  am  
  9   5  26  1   
 10   7   9  1   
 11   7  10  1   
 12   7  27  1   
 13   8  11  2   
 14   8  12  1   
 15   9  13  1   
 16  10  14  1   
 17  10  28  1   
 18  10  29  1   
 19  12  15  1   
 20  12  30  1   
 21  12  31  1   
 22  13  14  1   
 23  13  32  1   
 24  13  33  1   
 25  14  34  1   
 26  14  35  1   
 27  15  16  1   
 28  15  17  1   
 29  16  18  1   
 30  16  36  1   
 31  16  37  1   
 32  17  38  1   
 33  17  39  1   
 34  17  40  1   
 35  18  19  1   
 36  18  41  1   
 37  18  42  1   
 38  19  20  1   
 39  19  21  2   
 40  20  22  2   
 41  20  23  1   
 42  21  24  1   
 43  21  25  1   
 44  22  24  1   
 45  23  43  1   
 46  23  44  1   
 47  23  45  1   
 48  24  46  1   
 49  25  47  1   
 50  25  48  1   
 51  25  49  1   
@<TRIPOS>SUBSTRUCTURE
  1 ****   5 GROUP 4 **** **** 0

# MOE 2024.06 (io_trps.svl 2023.06)
