@<TRIPOS>MOLECULE
NONAME
44 46 1 0 0 
SMALL
USER_CHARGES


@<TRIPOS>ATOM
  1 S       -0.1050    -0.4350    -0.2750 S.3   1 <1>  -0.4600 
  2 C       -1.5910     0.4140     0.2080 C.3   1 <1>   0.9230 
  3 C        1.2030     0.5330     0.5300 C.3   1 <1>   0.2140 
  4 N       -2.6510    -0.2530    -0.4860 N.4   1 <1>  -0.9590 
  5 N       -1.4430     1.7040    -0.3460 N.3   1 <1>  -0.9000 
  6 C        2.5060    -0.2400     0.4060 C.ar  1 <1>  -0.1430 
  7 C       -3.9640     0.4460    -0.5210 C.3   1 <1>   0.4230 
  8 C       -2.8420    -1.7150    -0.0920 C.3   1 <1>   0.2370 
  9 C       -2.6030     2.4930    -0.1470 C.3   1 <1>   0.4700 
 10 C        3.0600    -0.8630     1.5180 C.ar  1 <1>  -0.1500 
 11 C        3.1480    -0.3200    -0.8250 C.ar  1 <1>  -0.1500 
 12 C       -3.8230     1.9190    -0.8650 C.3   1 <1>  -0.0800 
 13 C       -4.7200     0.4100     0.8140 C.3   1 <1>  -0.1600 
 14 C       -3.8390    -2.4450    -0.9930 C.2   1 <1>   0.9060 
 15 O       -2.2510     3.6580    -0.7270 O.3   1 <1>  -0.6800 
 16 C        4.2520    -1.5610     1.4070 C.ar  1 <1>  -0.1500 
 17 C        4.3400    -1.0140    -0.9480 C.ar  1 <1>  -0.1500 
 18 C       -5.1250     2.5360    -0.3420 C.3   1 <1>  -0.1600 
 19 C       -5.4670     1.7480     0.9260 C.3   1 <1>  -0.1600 
 20 O       -4.6140    -3.2550    -0.4880 O.co2 1 <1>  -0.9000 
 21 O       -3.8930    -2.0720    -2.1710 O.co2 1 <1>  -0.9000 
 22 C        4.8700    -1.6220     0.1730 C.ar  1 <1>   0.1900 
 23 F        5.9940    -2.2780     0.0630 F     1 <1>  -0.1900 
 24 H       -1.6930     0.4080     1.2820 H     1 <1>   0.0800 
 25 H        0.9230     0.6760     1.5580 H     1 <1>   0.0800 
 26 H        1.2640     1.4820     0.0280 H     1 <1>   0.0800 
 27 H       -2.3550    -0.3340    -1.4670 H     1 <1>   0.4500 
 28 H       -1.3450     1.5740    -1.3540 H     1 <1>   0.3600 
 29 H       -4.5930    -0.0100    -1.2710 H     1 <1>   0.0800 
 30 H       -3.2050    -1.7920     0.9170 H     1 <1>   0.0800 
 31 H       -1.9120    -2.2490    -0.1610 H     1 <1>   0.0800 
 32 H       -2.7850     2.6660     0.9030 H     1 <1>   0.0800 
 33 H        2.5710    -0.8110     2.4750 H     1 <1>   0.1500 
 34 H        2.7200     0.1550    -1.6910 H     1 <1>   0.1500 
 35 H       -3.7350     2.0510    -1.9290 H     1 <1>   0.0800 
 36 H       -4.0560     0.3010     1.6510 H     1 <1>   0.0800 
 37 H       -5.4200    -0.4100     0.8080 H     1 <1>   0.0800 
 38 H       -1.3520     3.8810    -0.4260 H     1 <1>   0.4000 
 39 H        4.6970    -2.0490     2.2550 H     1 <1>   0.1500 
 40 H        4.8500    -1.0860    -1.8920 H     1 <1>   0.1500 
 41 H       -5.9030     2.3840    -1.0720 H     1 <1>   0.0800 
 42 H       -5.0360     3.5930    -0.1550 H     1 <1>   0.0800 
 43 H       -5.1330     2.2850     1.7980 H     1 <1>   0.0800 
 44 H       -6.5310     1.5970     1.0050 H     1 <1>   0.0800 
@<TRIPOS>BOND
  1   1   2  1   
  2   1   3  1   
  3   2   4  1   
  4   2   5  1   
  5   2  24  1   
  6   3   6  1   
  7   3  25  1   
  8   3  26  1   
  9   4   7  1   
 10   4   8  1   
 11   4  27  1   
 12   5   9  1   
 13   5  28  1   
 14   6  10  ar  
 15   6  11  ar  
 16   7  12  1   
 17   7  13  1   
 18   7  29  1   
 19   8  14  1   
 20   8  30  1   
 21   8  31  1   
 22   9  12  1   
 23   9  15  1   
 24   9  32  1   
 25  10  16  ar  
 26  10  33  1   
 27  11  17  ar  
 28  11  34  1   
 29  12  18  1   
 30  12  35  1   
 31  13  19  1   
 32  13  36  1   
 33  13  37  1   
 34  14  20  ar  
 35  14  21  ar  
 36  15  38  1   
 37  16  22  ar  
 38  16  39  1   
 39  17  22  ar  
 40  17  40  1   
 41  18  19  1   
 42  18  41  1   
 43  18  42  1   
 44  19  43  1   
 45  19  44  1   
 46  22  23  1   
@<TRIPOS>SUBSTRUCTURE
  1 ****   1 GROUP 4 **** **** 0

# MOE 2024.06 (io_trps.svl 2023.06)
