@<TRIPOS>MOLECULE
NONAME
38 40 1 0 0 
SMALL
USER_CHARGES


@<TRIPOS>ATOM
  1 F      -12.7630    -1.2370    -0.8610 F     1 <1>  -0.1900 
  2 C      -11.6250    -0.5920    -0.7300 C.ar  1 <1>   0.1900 
  3 C      -11.6390     0.7630    -0.3590 C.ar  1 <1>   0.1000 
  4 C      -10.4690    -1.2940    -0.9500 C.ar  1 <1>  -0.1500 
  5 N      -12.7900     1.5310    -0.1250 N.pl3 1 <1>  -0.8690 
  6 C      -10.4010     1.3650    -0.2110 C.ar  1 <1>  -0.1500 
  7 C       -9.2220    -0.6720    -0.8070 C.ar  1 <1>   0.0860 
  8 C      -13.9180     1.5060    -1.1190 C.3   1 <1>   0.2090 
  9 C       -9.1950     0.6880    -0.4370 C.ar  1 <1>   0.1000 
 10 C       -7.9940    -1.3900    -1.0270 C.2   1 <1>   0.4690 
 11 C      -15.2070     0.9840    -0.4510 C.3   1 <1>   0.3430 
 12 N       -7.9480     1.3210    -0.3010 N.pl3 1 <1>  -0.3690 
 13 O       -8.0420    -2.5180    -1.5040 O.2   1 <1>  -0.5700 
 14 C       -6.7740    -0.7350    -0.7210 C.2   1 <1>  -0.2360 
 15 N      -14.8450    -0.0070     0.5960 N.4   1 <1>  -0.8530 
 16 C       -6.7930     0.5890    -0.3940 C.2   1 <1>  -0.0500 
 17 C       -7.8290     2.7730    -0.0200 C.3   1 <1>   0.0690 
 18 C       -5.5460    -1.4670    -0.7610 C.2   1 <1>   1.0500 
 19 C       -8.2790     3.7510    -1.0640 C.3   1 <1>  -0.2000 
 20 C       -6.8220     3.5880    -0.7760 C.3   1 <1>  -0.2000 
 21 O       -4.6260    -1.0780    -1.5030 O.co2 1 <1>  -0.9000 
 22 O       -5.3260    -2.3940     0.0360 O.co2 1 <1>  -0.9000 
 23 H      -10.5070    -2.3330    -1.2320 H     1 <1>   0.1500 
 24 H      -12.5510     2.5030     0.1340 H     1 <1>   0.4000 
 25 H      -10.3690     2.3930     0.0890 H     1 <1>   0.1500 
 26 H      -13.6620     0.8740    -1.9530 H     1 <1>   0.0800 
 27 H      -14.0860     2.4960    -1.5090 H     1 <1>   0.0800 
 28 H      -15.8670     0.5520    -1.1860 H     1 <1>   0.0800 
 29 H      -15.7130     1.8190     0.0070 H     1 <1>   0.0800 
 30 H      -14.5830    -0.9070     0.1770 H     1 <1>   0.4500 
 31 H      -15.5480    -0.1350     1.3290 H     1 <1>   0.4500 
 32 H      -13.9620     0.3550     1.0010 H     1 <1>   0.4500 
 33 H       -5.8590     1.0920    -0.1960 H     1 <1>   0.1500 
 34 H       -7.9820     3.0030     1.0200 H     1 <1>   0.1000 
 35 H       -8.7500     4.6680    -0.7610 H     1 <1>   0.1000 
 36 H       -8.6550     3.3740    -1.9990 H     1 <1>   0.1000 
 37 H       -6.2060     3.1070    -1.5160 H     1 <1>   0.1000 
 38 H       -6.3090     4.3810    -0.2610 H     1 <1>   0.1000 
@<TRIPOS>BOND
  1   1   2  1   
  2   2   3  ar  
  3   2   4  ar  
  4   3   5  1   
  5   3   6  ar  
  6   4   7  ar  
  7   4  23  1   
  8   5   8  1   
  9   5  24  1   
 10   6   9  ar  
 11   6  25  1   
 12   7   9  ar  
 13   7  10  1   
 14   8  11  1   
 15   8  26  1   
 16   8  27  1   
 17   9  12  1   
 18  10  13  2   
 19  10  14  1   
 20  11  15  1   
 21  11  28  1   
 22  11  29  1   
 23  12  16  1   
 24  12  17  1   
 25  14  16  2   
 26  14  18  1   
 27  15  30  1   
 28  15  31  1   
 29  15  32  1   
 30  16  33  1   
 31  17  19  1   
 32  17  20  1   
 33  17  34  1   
 34  18  21  ar  
 35  18  22  ar  
 36  19  20  1   
 37  19  35  1   
 38  19  36  1   
 39  20  37  1   
 40  20  38  1   
@<TRIPOS>SUBSTRUCTURE
  1 ****   9 GROUP 4 **** **** 0

# MOE 2024.06 (io_trps.svl 2023.06)
