@<TRIPOS>MOLECULE
NONAME
42 43 1 0 0 
SMALL
USER_CHARGES


@<TRIPOS>ATOM
  1 S       -0.0980     0.3340    -0.5930 S.o2  1 <1>   1.3330 
  2 O       -0.6670    -0.9920    -0.6740 O.2   1 <1>  -0.6500 
  3 O       -0.0490     1.1450    -1.7900 O.2   1 <1>  -0.6500 
  4 N        1.4710     0.1830     0.0430 N.am  1 <1>  -0.8490 
  5 C       -0.9940     1.2120     0.6990 C.3   1 <1>  -0.0550 
  6 C        1.8350    -1.1830     0.4300 C.3   1 <1>   0.1160 
  7 C        2.5130     0.7760    -0.8030 C.3   1 <1>   0.1160 
  8 C       -0.7650     2.7310     0.8880 C.3   1 <1>  -0.0800 
  9 C       -1.0800     3.5720    -0.3600 C.3   1 <1>   0.2000 
 10 C        0.6470     3.1480     1.3350 C.3   1 <1>   0.2090 
 11 O       -1.8960     4.6220     0.0340 O.3   1 <1>  -0.6800 
 12 C        0.2620     4.1530    -0.8050 C.3   1 <1>   0.2090 
 13 N        1.0360     4.2780     0.4530 N.pl3 1 <1>  -0.8380 
 14 C        2.3450     4.7260     0.3950 C.ar  1 <1>   0.4100 
 15 N        3.2840     3.7850     0.4120 N.ar  1 <1>  -0.6200 
 16 C        2.6270     6.0980     0.3220 C.ar  1 <1>   0.0730 
 17 C        4.5370     4.1910     0.3560 C.ar  1 <1>   0.1670 
 18 C        1.5710     7.0610     0.3210 C.1   1 <1>   0.4840 
 19 C        3.9480     6.4990     0.2610 C.ar  1 <1>  -0.1500 
 20 C        4.9180     5.5200     0.2790 C.ar  1 <1>  -0.1500 
 21 C        5.5870     3.1000     0.3800 C.3   1 <1>  -0.0970 
 22 N        0.7440     7.8480     0.3070 N.1   1 <1>  -0.5570 
 23 H       -2.0400     1.0810     0.5030 H     1 <1>   0.0800 
 24 H       -0.7970     0.7230     1.6330 H     1 <1>   0.0800 
 25 H        2.8040    -1.1920     0.8970 H     1 <1>   0.0800 
 26 H        1.8530    -1.8240    -0.4360 H     1 <1>   0.0800 
 27 H        1.1160    -1.5720     1.1310 H     1 <1>   0.0800 
 28 H        3.4640     0.7430    -0.3010 H     1 <1>   0.0800 
 29 H        2.2820     1.8060    -1.0100 H     1 <1>   0.0800 
 30 H        2.5830     0.2460    -1.7380 H     1 <1>   0.0800 
 31 H       -1.4370     3.0240     1.6760 H     1 <1>   0.0800 
 32 H       -1.5850     3.0350    -1.1450 H     1 <1>   0.0800 
 33 H        1.3530     2.3450     1.2460 H     1 <1>   0.0800 
 34 H        0.6390     3.4800     2.3600 H     1 <1>   0.0800 
 35 H       -1.3560     5.2500     0.5610 H     1 <1>   0.4000 
 36 H        0.1380     5.1010    -1.2990 H     1 <1>   0.0800 
 37 H        0.7670     3.4730    -1.4670 H     1 <1>   0.0800 
 38 H        4.2140     7.5420     0.2040 H     1 <1>   0.1500 
 39 H        5.9580     5.7900     0.2340 H     1 <1>   0.1500 
 40 H        6.5780     3.5140     0.3960 H     1 <1>   0.0800 
 41 H        5.4820     2.4820    -0.4930 H     1 <1>   0.0800 
 42 H        5.4510     2.4910     1.2550 H     1 <1>   0.0800 
@<TRIPOS>BOND
  1   1   2  2   
  2   1   3  2   
  3   1   4  am  
  4   1   5  1   
  5   4   6  1   
  6   4   7  1   
  7   5   8  1   
  8   5  23  1   
  9   5  24  1   
 10   6  25  1   
 11   6  26  1   
 12   6  27  1   
 13   7  28  1   
 14   7  29  1   
 15   7  30  1   
 16   8   9  1   
 17   8  10  1   
 18   8  31  1   
 19   9  11  1   
 20   9  12  1   
 21   9  32  1   
 22  10  13  1   
 23  10  33  1   
 24  10  34  1   
 25  11  35  1   
 26  12  13  1   
 27  12  36  1   
 28  12  37  1   
 29  13  14  1   
 30  14  15  ar  
 31  14  16  ar  
 32  15  17  ar  
 33  16  18  1   
 34  16  19  ar  
 35  17  20  ar  
 36  17  21  1   
 37  18  22  3   
 38  19  20  ar  
 39  19  38  1   
 40  20  39  1   
 41  21  40  1   
 42  21  41  1   
 43  21  42  1   
@<TRIPOS>SUBSTRUCTURE
  1 ****  13 GROUP 4 **** **** 0

# MOE 2024.06 (io_trps.svl 2023.06)
