@<TRIPOS>MOLECULE
NONAME
62 64 1 0 0 
SMALL
USER_CHARGES


@<TRIPOS>ATOM
  1 O       -1.1780    -1.7700     0.1500 O.2   1 <1>  -0.5700 
  2 C       -0.2130    -2.4600    -0.0750 C.2   1 <1>   0.5690 
  3 N       -0.1880    -3.4290    -1.0400 N.am  1 <1>  -0.6600 
  4 C        1.0430    -2.2570     0.7470 C.3   1 <1>  -0.0990 
  5 C        1.0280    -4.2570    -1.2410 C.3   1 <1>   0.1400 
  6 C       -1.3680    -3.7490    -1.8870 C.3   1 <1>   0.0600 
  7 C        2.2830    -2.2400    -0.1640 C.3   1 <1>  -0.0800 
  8 C        2.2880    -3.3680    -1.2230 C.3   1 <1>  -0.0800 
  9 C        3.6020    -2.3560     0.6110 C.3   1 <1>  -0.1600 
 10 C        3.5760    -4.1660    -0.9810 C.3   1 <1>  -0.1600 
 11 C        4.5130    -3.1690    -0.3010 C.3   1 <1>   0.2200 
 12 N        5.6540    -3.7880     0.4430 N.am  1 <1>  -0.6600 
 13 C        6.9470    -3.3200     0.3710 C.2   1 <1>   0.5690 
 14 C        5.3620    -4.9820     1.2980 C.3   1 <1>   0.0600 
 15 O        7.8600    -3.9170     0.8930 O.2   1 <1>  -0.5700 
 16 C        7.2680    -2.0280    -0.3780 C.3   1 <1>  -0.0990 
 17 C        8.6840    -1.4740    -0.1250 C.3   1 <1>  -0.1600 
 18 C        8.9260    -0.1660    -0.8880 C.3   1 <1>  -0.0170 
 19 C       10.3240     0.3650    -0.6160 C.ar  1 <1>  -0.1440 
 20 C       11.3870    -0.0160    -1.4200 C.ar  1 <1>  -0.1500 
 21 C       10.5490     1.2330     0.4390 C.ar  1 <1>  -0.1500 
 22 C       12.6650     0.4640    -1.1840 C.ar  1 <1>  -0.1440 
 23 C       11.8200     1.7200     0.6860 C.ar  1 <1>  -0.1500 
 24 C       12.8880     1.3400    -0.1250 C.ar  1 <1>   0.0820 
 25 C       13.8140     0.0300    -2.0820 C.3   1 <1>  -0.0970 
 26 O       14.1580     1.7870     0.0680 O.3   1 <1>  -0.3630 
 27 C       14.4830     2.6580     1.1240 C.3   1 <1>   0.1200 
 28 C       15.9800     2.9450     1.0550 C.3   1 <1>  -0.2400 
 29 H        0.9710    -1.3330     1.2910 H     1 <1>   0.0800 
 30 H        1.1030    -3.0620     1.4560 H     1 <1>   0.0800 
 31 H        1.0730    -4.9830    -0.4480 H     1 <1>   0.0800 
 32 H        0.9700    -4.7840    -2.1780 H     1 <1>   0.0800 
 33 H       -1.6630    -4.7720    -1.7300 H     1 <1>   0.0800 
 34 H       -1.1220    -3.6020    -2.9230 H     1 <1>   0.0800 
 35 H       -2.1970    -3.1100    -1.6360 H     1 <1>   0.0800 
 36 H        2.2810    -1.3030    -0.6970 H     1 <1>   0.0800 
 37 H        2.3660    -2.9010    -2.1910 H     1 <1>   0.0800 
 38 H        3.4430    -2.8820     1.5350 H     1 <1>   0.0800 
 39 H        4.0210    -1.3880     0.8230 H     1 <1>   0.0800 
 40 H        3.9950    -4.5340    -1.9000 H     1 <1>   0.0800 
 41 H        3.3580    -4.9930    -0.3310 H     1 <1>   0.0800 
 42 H        4.8820    -2.5160    -1.0720 H     1 <1>   0.0800 
 43 H        4.4090    -4.8790     1.7840 H     1 <1>   0.0800 
 44 H        6.1130    -5.0950     2.0610 H     1 <1>   0.0800 
 45 H        5.3590    -5.8690     0.6900 H     1 <1>   0.0800 
 46 H        7.1510    -2.2160    -1.4290 H     1 <1>   0.0800 
 47 H        6.5570    -1.2800    -0.0800 H     1 <1>   0.0800 
 48 H        8.8190    -1.3030     0.9290 H     1 <1>   0.0800 
 49 H        9.4150    -2.2030    -0.4320 H     1 <1>   0.0800 
 50 H        8.2010     0.5710    -0.5900 H     1 <1>   0.0800 
 51 H        8.8080    -0.3330    -1.9450 H     1 <1>   0.0800 
 52 H       11.2140    -0.6950    -2.2350 H     1 <1>   0.1500 
 53 H        9.7340     1.5320     1.0740 H     1 <1>   0.1500 
 54 H       11.9560     2.3900     1.5110 H     1 <1>   0.1500 
 55 H       13.4800    -0.6550    -2.8390 H     1 <1>   0.0800 
 56 H       14.5730    -0.4520    -1.4920 H     1 <1>   0.0800 
 57 H       14.2450     0.8910    -2.5600 H     1 <1>   0.0800 
 58 H       13.9150     3.5650     1.0040 H     1 <1>   0.0800 
 59 H       14.2300     2.1760     2.0530 H     1 <1>   0.0800 
 60 H       16.2220     3.4090     0.1160 H     1 <1>   0.0800 
 61 H       16.5350     2.0300     1.1570 H     1 <1>   0.0800 
 62 H       16.2610     3.6100     1.8510 H     1 <1>   0.0800 
@<TRIPOS>BOND
  1   1   2  2   
  2   2   3  am  
  3   2   4  1   
  4   3   5  1   
  5   3   6  1   
  6   4   7  1   
  7   4  29  1   
  8   4  30  1   
  9   5   8  1   
 10   5  31  1   
 11   5  32  1   
 12   6  33  1   
 13   6  34  1   
 14   6  35  1   
 15   7   8  1   
 16   7   9  1   
 17   7  36  1   
 18   8  10  1   
 19   8  37  1   
 20   9  11  1   
 21   9  38  1   
 22   9  39  1   
 23  10  11  1   
 24  10  40  1   
 25  10  41  1   
 26  11  12  1   
 27  11  42  1   
 28  12  13  am  
 29  12  14  1   
 30  13  15  2   
 31  13  16  1   
 32  14  43  1   
 33  14  44  1   
 34  14  45  1   
 35  16  17  1   
 36  16  46  1   
 37  16  47  1   
 38  17  18  1   
 39  17  48  1   
 40  17  49  1   
 41  18  19  1   
 42  18  50  1   
 43  18  51  1   
 44  19  20  ar  
 45  19  21  ar  
 46  20  22  ar  
 47  20  52  1   
 48  21  23  ar  
 49  21  53  1   
 50  22  24  ar  
 51  22  25  1   
 52  23  24  ar  
 53  23  54  1   
 54  24  26  1   
 55  25  55  1   
 56  25  56  1   
 57  25  57  1   
 58  26  27  1   
 59  27  28  1   
 60  27  58  1   
 61  27  59  1   
 62  28  60  1   
 63  28  61  1   
 64  28  62  1   
@<TRIPOS>SUBSTRUCTURE
  1 ****  16 GROUP 4 **** **** 0

# MOE 2024.06 (io_trps.svl 2023.06)
