@<TRIPOS>MOLECULE
NONAME
45 47 1 0 0 
SMALL
USER_CHARGES


@<TRIPOS>ATOM
  1 S       -0.8190    -0.6040     1.4900 S.o2  1 <1>   1.0900 
  2 O       -0.9560     0.8310     1.5590 O.2   1 <1>  -0.6500 
  3 O       -0.0240    -1.3440     2.4420 O.2   1 <1>  -0.6500 
  4 C       -2.4060    -1.3820     1.4080 C.3   1 <1>  -0.0550 
  5 C       -0.3270    -1.1140    -0.1500 C.3   1 <1>  -0.0550 
  6 C       -2.1600    -2.6400     0.5790 C.3   1 <1>   0.1760 
  7 C       -1.2760    -2.2320    -0.6190 C.3   1 <1>  -0.1600 
  8 N       -3.4330    -3.2590     0.1330 N.pl3 1 <1>   0.3140 
  9 N       -4.3980    -2.5210    -0.4430 N.2   1 <1>  -0.7070 
 10 C       -3.7810    -4.5700     0.1970 C.2   1 <1>  -0.3320 
 11 C       -5.3360    -3.3650    -0.7410 C.2   1 <1>   0.1080 
 12 C       -5.0050    -4.6720    -0.3670 C.2   1 <1>   0.0630 
 13 C       -2.9080    -5.6690     0.7890 C.3   1 <1>  -0.0600 
 14 C       -6.6190    -2.9130    -1.4020 C.3   1 <1>  -0.0590 
 15 N       -5.7410    -5.8760    -0.4960 N.am  1 <1>  -0.4930 
 16 C       -6.5030    -6.3410    -1.5260 C.2   1 <1>   0.5690 
 17 O       -6.7320    -5.7080    -2.5290 O.2   1 <1>  -0.5700 
 18 C       -7.0880    -7.7390    -1.4140 C.3   1 <1>   0.0440 
 19 C       -6.4120    -8.5740    -0.3280 C.ar  1 <1>  -0.1440 
 20 C       -5.1980    -9.1960    -0.5940 C.ar  1 <1>  -0.1500 
 21 C       -6.9950    -8.6960     0.9280 C.ar  1 <1>  -0.1500 
 22 C       -4.5620    -9.9360     0.3890 C.ar  1 <1>  -0.1500 
 23 C       -6.3680    -9.4330     1.9190 C.ar  1 <1>  -0.1500 
 24 C       -5.1610   -10.0390     1.6290 C.ar  1 <1>   0.1900 
 25 F       -4.5630   -10.7310     2.5610 F     1 <1>  -0.1900 
 26 H       -3.0970    -0.7360     0.9000 H     1 <1>   0.0800 
 27 H       -2.7800    -1.6190     2.3850 H     1 <1>   0.0800 
 28 H        0.6890    -1.4620    -0.1350 H     1 <1>   0.0800 
 29 H       -0.3910    -0.2840    -0.8290 H     1 <1>   0.0800 
 30 H       -1.6220    -3.3450     1.1870 H     1 <1>   0.0800 
 31 H       -0.7250    -3.0770    -0.9910 H     1 <1>   0.0800 
 32 H       -1.8980    -1.8460    -1.4100 H     1 <1>   0.0800 
 33 H       -1.9620    -5.7080     0.2780 H     1 <1>   0.0800 
 34 H       -3.3810    -6.6290     0.6890 H     1 <1>   0.0800 
 35 H       -2.7350    -5.4850     1.8350 H     1 <1>   0.0800 
 36 H       -6.8070    -1.8810    -1.1700 H     1 <1>   0.0800 
 37 H       -7.4450    -3.5040    -1.0540 H     1 <1>   0.0800 
 38 H       -6.5310    -3.0210    -2.4670 H     1 <1>   0.0800 
 39 H       -5.5570    -6.5570     0.2410 H     1 <1>   0.3700 
 40 H       -6.9810    -8.2300    -2.3640 H     1 <1>   0.0800 
 41 H       -8.1400    -7.6490    -1.2150 H     1 <1>   0.0800 
 42 H       -4.7410    -9.1060    -1.5660 H     1 <1>   0.1500 
 43 H       -7.9370    -8.2200     1.1430 H     1 <1>   0.1500 
 44 H       -3.6230   -10.4250     0.2010 H     1 <1>   0.1500 
 45 H       -6.8030    -9.5400     2.8960 H     1 <1>   0.1500 
@<TRIPOS>BOND
  1   1   2  2   
  2   1   3  2   
  3   1   4  1   
  4   1   5  1   
  5   4   6  1   
  6   4  26  1   
  7   4  27  1   
  8   5   7  1   
  9   5  28  1   
 10   5  29  1   
 11   6   7  1   
 12   6   8  1   
 13   6  30  1   
 14   7  31  1   
 15   7  32  1   
 16   8   9  1   
 17   8  10  1   
 18   9  11  2   
 19  10  12  2   
 20  10  13  1   
 21  11  12  1   
 22  11  14  1   
 23  12  15  1   
 24  13  33  1   
 25  13  34  1   
 26  13  35  1   
 27  14  36  1   
 28  14  37  1   
 29  14  38  1   
 30  15  16  am  
 31  15  39  1   
 32  16  17  2   
 33  16  18  1   
 34  18  19  1   
 35  18  40  1   
 36  18  41  1   
 37  19  20  ar  
 38  19  21  ar  
 39  20  22  ar  
 40  20  42  1   
 41  21  23  ar  
 42  21  43  1   
 43  22  24  ar  
 44  22  44  1   
 45  23  24  ar  
 46  23  45  1   
 47  24  25  1   
@<TRIPOS>SUBSTRUCTURE
  1 ****  10 GROUP 4 **** **** 0

# MOE 2024.06 (io_trps.svl 2023.06)
