@<TRIPOS>MOLECULE
NONAME
44 45 1 0 0 
SMALL
USER_CHARGES


@<TRIPOS>ATOM
  1 S        1.3210     1.5960     0.6090 S.o2  1 <1>   1.3330 
  2 O        0.8780     2.7490     1.3620 O.2   1 <1>  -0.6500 
  3 O        0.3560     0.8040    -0.1190 O.2   1 <1>  -0.6500 
  4 N        2.1170     0.5640     1.6990 N.am  1 <1>  -0.8490 
  5 C        2.6040     2.0970    -0.5380 C.3   1 <1>  -0.0550 
  6 C        2.9490     1.2810     2.6720 C.3   1 <1>   0.1160 
  7 C        1.1760    -0.3120     2.4030 C.3   1 <1>   0.1160 
  8 C        3.1540     0.9690    -1.4400 C.3   1 <1>  -0.0800 
  9 C        4.1120     1.4380    -2.5280 C.3   1 <1>   0.2200 
 10 C        3.9700    -0.1010    -0.7020 C.3   1 <1>   0.1200 
 11 N        5.0170     2.4840    -1.9990 N.am  1 <1>  -0.7300 
 12 C        4.9130     0.1680    -2.7710 C.3   1 <1>   0.1200 
 13 O        5.0720    -0.4020    -1.5090 O.3   1 <1>  -0.5600 
 14 C        4.8810     3.8150    -2.2180 C.2   1 <1>   0.5690 
 15 O        4.0870     4.2480    -3.0180 O.2   1 <1>  -0.5700 
 16 C        5.7120     4.7780    -1.3930 C.3   1 <1>   0.0440 
 17 C        5.3880     4.6330     0.0910 C.ar  1 <1>  -0.1440 
 18 C        4.1510     5.0430     0.5650 C.ar  1 <1>  -0.1500 
 19 C        6.3070     4.0850     0.9730 C.ar  1 <1>  -0.1500 
 20 C        3.8310     4.9000     1.9040 C.ar  1 <1>  -0.1500 
 21 C        5.9900     3.9480     2.3140 C.ar  1 <1>  -0.1500 
 22 C        4.7530     4.3560     2.7810 C.ar  1 <1>  -0.1500 
 23 H        2.2030     2.8630    -1.1740 H     1 <1>   0.0800 
 24 H        3.4090     2.5330     0.0170 H     1 <1>   0.0800 
 25 H        3.4700     0.5800     3.3010 H     1 <1>   0.0800 
 26 H        2.3420     1.9230     3.2900 H     1 <1>   0.0800 
 27 H        3.6800     1.8830     2.1630 H     1 <1>   0.0800 
 28 H        1.7060    -0.9680     3.0720 H     1 <1>   0.0800 
 29 H        0.6370    -0.9190     1.6950 H     1 <1>   0.0800 
 30 H        0.4680     0.2740     2.9650 H     1 <1>   0.0800 
 31 H        2.3240     0.4760    -1.9170 H     1 <1>   0.0800 
 32 H        3.6060     1.7820    -3.4150 H     1 <1>   0.0800 
 33 H        3.3970    -0.9990    -0.5400 H     1 <1>   0.0800 
 34 H        4.3510     0.2590     0.2380 H     1 <1>   0.0800 
 35 H        5.6610     2.1440    -1.2800 H     1 <1>   0.3700 
 36 H        5.8760     0.3580    -3.2100 H     1 <1>   0.0800 
 37 H        4.3580    -0.5250    -3.3810 H     1 <1>   0.0800 
 38 H        6.7520     4.5860    -1.5770 H     1 <1>   0.0800 
 39 H        5.5010     5.7840    -1.7080 H     1 <1>   0.0800 
 40 H        3.4270     5.4720    -0.1080 H     1 <1>   0.1500 
 41 H        7.2740     3.7640     0.6270 H     1 <1>   0.1500 
 42 H        2.8640     5.2140     2.2600 H     1 <1>   0.1500 
 43 H        6.7090     3.5270     2.9960 H     1 <1>   0.1500 
 44 H        4.5070     4.2560     3.8240 H     1 <1>   0.1500 
@<TRIPOS>BOND
  1   1   2  2   
  2   1   3  2   
  3   1   4  am  
  4   1   5  1   
  5   4   6  1   
  6   4   7  1   
  7   5   8  1   
  8   5  23  1   
  9   5  24  1   
 10   6  25  1   
 11   6  26  1   
 12   6  27  1   
 13   7  28  1   
 14   7  29  1   
 15   7  30  1   
 16   8   9  1   
 17   8  10  1   
 18   8  31  1   
 19   9  11  1   
 20   9  12  1   
 21   9  32  1   
 22  10  13  1   
 23  10  33  1   
 24  10  34  1   
 25  11  14  am  
 26  11  35  1   
 27  12  13  1   
 28  12  36  1   
 29  12  37  1   
 30  14  15  2   
 31  14  16  1   
 32  16  17  1   
 33  16  38  1   
 34  16  39  1   
 35  17  18  ar  
 36  17  19  ar  
 37  18  20  ar  
 38  18  40  1   
 39  19  21  ar  
 40  19  41  1   
 41  20  22  ar  
 42  20  42  1   
 43  21  22  ar  
 44  21  43  1   
 45  22  44  1   
@<TRIPOS>SUBSTRUCTURE
  1 ****   5 GROUP 4 **** **** 0

# MOE 2024.06 (io_trps.svl 2023.06)
