@<TRIPOS>MOLECULE
NONAME
52 54 1 0 0 
SMALL
USER_CHARGES


@<TRIPOS>ATOM
  1 S       -0.2630     0.0170    -1.4810 S.o2  1 <1>   1.4470 
  2 O       -0.0360    -1.4070    -1.6610 O.2   1 <1>  -0.6500 
  3 O       -0.4440     0.8240    -2.6680 O.2   1 <1>  -0.6500 
  4 N       -1.6900     0.1010    -0.5640 N.am  1 <1>  -0.8490 
  5 C        1.0290     0.6950    -0.4080 C.ar  1 <1>  -0.0090 
  6 C       -1.7940    -0.9790     0.4430 C.3   1 <1>   0.1960 
  7 C       -2.8900     0.2630    -1.4170 C.3   1 <1>   0.1960 
  8 C        0.9380     1.9850     0.1080 C.ar  1 <1>   0.0830 
  9 C        2.1410    -0.0720    -0.0750 C.ar  1 <1>  -0.1500 
 10 C       -2.5690    -2.1660    -0.1700 C.3   1 <1>   0.4230 
 11 C       -4.1650    -0.2780    -0.7490 C.3   1 <1>  -0.1600 
 12 O       -0.1440     2.7260    -0.2380 O.3   1 <1>  -0.3630 
 13 C        1.9350     2.4750     0.9480 C.ar  1 <1>  -0.1500 
 14 C        3.1360     0.4100     0.7570 C.ar  1 <1>  -0.1440 
 15 N       -2.4330    -3.4960     0.5110 N.4   1 <1>  -0.9590 
 16 C       -4.0480    -1.7730    -0.3170 C.3   1 <1>  -0.1060 
 17 C       -0.3590     4.0300     0.2530 C.3   1 <1>   0.0400 
 18 C        3.0240     1.6890     1.2710 C.ar  1 <1>  -0.1500 
 19 C        4.3400    -0.4460     1.1070 C.3   1 <1>  -0.0970 
 20 C       -3.4240    -4.5090     0.0170 C.3   1 <1>   0.3430 
 21 C       -1.0360    -4.0000     0.5520 C.3   1 <1>   0.2630 
 22 C       -4.7560    -1.9390     1.0420 C.2   1 <1>   0.9060 
 23 C       -4.6380    -2.7270    -1.3950 C.3   1 <1>  -0.1600 
 24 C       -3.9990    -4.1370    -1.3600 C.3   1 <1>  -0.1600 
 25 O       -4.0800    -2.1560     2.0620 O.co2 1 <1>  -0.9000 
 26 O       -5.9830    -1.9210     1.0790 O.co2 1 <1>  -0.9000 
 27 H       -0.8140    -1.2770     0.7660 H     1 <1>   0.0800 
 28 H       -2.3200    -0.6010     1.3030 H     1 <1>   0.0800 
 29 H       -3.0100     1.3080    -1.6540 H     1 <1>   0.0800 
 30 H       -2.7500    -0.2650    -2.3470 H     1 <1>   0.0800 
 31 H        2.2300    -1.0670    -0.4780 H     1 <1>   0.1500 
 32 H       -2.1720    -2.2870    -1.1630 H     1 <1>   0.0800 
 33 H       -4.3590     0.3350     0.1160 H     1 <1>   0.0800 
 34 H       -5.0090    -0.1470    -1.4030 H     1 <1>   0.0800 
 35 H        1.8830     3.4650     1.3600 H     1 <1>   0.1500 
 36 H       -2.7890    -3.2500     1.4720 H     1 <1>   0.4500 
 37 H       -1.2840     4.3910    -0.1580 H     1 <1>   0.0800 
 38 H        0.4520     4.6610    -0.0660 H     1 <1>   0.0800 
 39 H       -0.4260     3.9940     1.3260 H     1 <1>   0.0800 
 40 H        3.7880     2.0780     1.9220 H     1 <1>   0.1500 
 41 H        5.2350     0.1510     1.1010 H     1 <1>   0.0800 
 42 H        4.4630    -1.2430     0.3950 H     1 <1>   0.0800 
 43 H        4.2140    -0.8710     2.0860 H     1 <1>   0.0800 
 44 H       -2.9710    -5.4850    -0.0230 H     1 <1>   0.0800 
 45 H       -4.2440    -4.5530     0.7190 H     1 <1>   0.0800 
 46 H       -0.6680    -4.1500    -0.4500 H     1 <1>   0.0800 
 47 H       -0.9950    -4.9350     1.0860 H     1 <1>   0.0800 
 48 H       -0.3970    -3.2920     1.0530 H     1 <1>   0.0800 
 49 H       -5.7040    -2.8090    -1.2500 H     1 <1>   0.0800 
 50 H       -4.4880    -2.3150    -2.3770 H     1 <1>   0.0800 
 51 H       -3.2060    -4.1930    -2.0850 H     1 <1>   0.0800 
 52 H       -4.7390    -4.8660    -1.6410 H     1 <1>   0.0800 
@<TRIPOS>BOND
  1   1   2  2   
  2   1   3  2   
  3   1   4  am  
  4   1   5  1   
  5   4   6  1   
  6   4   7  1   
  7   5   8  ar  
  8   5   9  ar  
  9   6  10  1   
 10   6  27  1   
 11   6  28  1   
 12   7  11  1   
 13   7  29  1   
 14   7  30  1   
 15   8  12  1   
 16   8  13  ar  
 17   9  14  ar  
 18   9  31  1   
 19  10  15  1   
 20  10  16  1   
 21  10  32  1   
 22  11  16  1   
 23  11  33  1   
 24  11  34  1   
 25  12  17  1   
 26  13  18  ar  
 27  13  35  1   
 28  14  18  ar  
 29  14  19  1   
 30  15  20  1   
 31  15  21  1   
 32  15  36  1   
 33  16  22  1   
 34  16  23  1   
 35  17  37  1   
 36  17  38  1   
 37  17  39  1   
 38  18  40  1   
 39  19  41  1   
 40  19  42  1   
 41  19  43  1   
 42  20  24  1   
 43  20  44  1   
 44  20  45  1   
 45  21  46  1   
 46  21  47  1   
 47  21  48  1   
 48  22  25  ar  
 49  22  26  ar  
 50  23  24  1   
 51  23  49  1   
 52  23  50  1   
 53  24  51  1   
 54  24  52  1   
@<TRIPOS>SUBSTRUCTURE
  1 ****   6 GROUP 4 **** **** 0

# MOE 2024.06 (io_trps.svl 2023.06)
