@<TRIPOS>MOLECULE
NONAME
61 63 1 0 0 
SMALL
USER_CHARGES


@<TRIPOS>ATOM
  1 S       -1.2610    -1.6230    -0.5830 S.3   1 <1>  -0.3320 
  2 C       -0.6160    -3.0220     0.3510 C.ar  1 <1>   0.1020 
  3 C        0.1400    -0.4410    -0.8070 C.3   1 <1>  -0.0100 
  4 C       -1.5040    -4.0370     0.6580 C.ar  1 <1>  -0.1500 
  5 C        0.7090    -3.0950     0.7490 C.ar  1 <1>  -0.1500 
  6 C       -1.0720    -5.1480     1.3660 C.ar  1 <1>  -0.1430 
  7 C        1.1410    -4.2010     1.4620 C.ar  1 <1>  -0.1500 
  8 C        0.2540    -5.2200     1.7690 C.ar  1 <1>  -0.1500 
  9 C       -2.0510    -6.2670     1.6960 C.3   1 <1>   0.2840 
 10 N       -2.6660    -6.8470     0.4540 N.am  1 <1>  -0.6600 
 11 C       -4.0050    -6.6400     0.2220 C.2   1 <1>   0.5690 
 12 C       -1.8120    -7.6750    -0.4540 C.3   1 <1>   0.2200 
 13 O       -4.7380    -6.2220     1.0880 O.2   1 <1>  -0.5700 
 14 C       -4.6610    -6.9120    -1.1170 C.3   1 <1>  -0.0990 
 15 C       -0.8420    -8.5760     0.3130 C.3   1 <1>  -0.2400 
 16 C       -1.0650    -6.7870    -1.4500 C.3   1 <1>  -0.2400 
 17 C       -5.7230    -8.0230    -1.0580 C.3   1 <1>   0.2510 
 18 N       -5.0580    -9.3760    -0.9040 N.3   1 <1>  -0.8100 
 19 C       -6.6380    -7.8710    -2.3040 C.2   1 <1>   0.5690 
 20 C       -5.8220   -10.4510    -1.5850 C.3   1 <1>   0.1100 
 21 C       -4.8640    -9.7280     0.5230 C.3   1 <1>   0.2530 
 22 O       -7.3190    -6.8840    -2.4410 O.2   1 <1>  -0.5700 
 23 N       -6.6890    -8.8450    -3.2430 N.am  1 <1>  -0.7300 
 24 C       -6.0310   -10.1560    -3.0780 C.3   1 <1>   0.1400 
 25 C       -4.0590   -11.0130     0.7100 C.ar  1 <1>  -0.1430 
 26 C       -2.9740   -11.3080    -0.1100 C.ar  1 <1>  -0.1500 
 27 C       -4.4100   -11.8960     1.7250 C.ar  1 <1>  -0.1500 
 28 C       -2.2430   -12.4680     0.0780 C.ar  1 <1>  -0.1500 
 29 C       -3.6890   -13.0610     1.9240 C.ar  1 <1>  -0.1500 
 30 C       -2.6160   -13.3240     1.0950 C.ar  1 <1>   0.1900 
 31 F       -1.9310   -14.4210     1.2800 F     1 <1>  -0.1900 
 32 H       -0.2350     0.4050    -1.3530 H     1 <1>   0.0800 
 33 H        0.9120    -0.9430    -1.3620 H     1 <1>   0.0800 
 34 H        0.4830    -0.1450     0.1680 H     1 <1>   0.0800 
 35 H       -2.5290    -3.9580     0.3390 H     1 <1>   0.1500 
 36 H        1.4060    -2.3150     0.5170 H     1 <1>   0.1500 
 37 H        2.1670    -4.2680     1.7790 H     1 <1>   0.1500 
 38 H        0.6060    -6.0720     2.3250 H     1 <1>   0.1500 
 39 H       -2.8100    -5.8550     2.3390 H     1 <1>   0.0800 
 40 H       -1.5650    -7.0400     2.2610 H     1 <1>   0.0800 
 41 H       -2.4540    -8.3330    -1.0120 H     1 <1>   0.0800 
 42 H       -3.9600    -7.1200    -1.8990 H     1 <1>   0.0800 
 43 H       -5.1470    -5.9920    -1.3880 H     1 <1>   0.0800 
 44 H       -0.0670    -8.0030     0.7860 H     1 <1>   0.0800 
 45 H       -0.3730    -9.2600    -0.3700 H     1 <1>   0.0800 
 46 H       -1.3730    -9.1520     1.0500 H     1 <1>   0.0800 
 47 H       -0.2990    -6.2150    -0.9610 H     1 <1>   0.0800 
 48 H       -1.7440    -6.1130    -1.9380 H     1 <1>   0.0800 
 49 H       -0.5960    -7.3980    -2.1990 H     1 <1>   0.0800 
 50 H       -6.3600    -7.8450    -0.2090 H     1 <1>   0.0800 
 51 H       -6.7830   -10.5730    -1.1120 H     1 <1>   0.0800 
 52 H       -5.2970   -11.3870    -1.5040 H     1 <1>   0.0800 
 53 H       -5.8260    -9.8300     0.9970 H     1 <1>   0.0800 
 54 H       -4.3370    -8.9470     1.0360 H     1 <1>   0.0800 
 55 H       -7.2800    -8.6850    -4.0610 H     1 <1>   0.3700 
 56 H       -6.6480   -10.9250    -3.5110 H     1 <1>   0.0800 
 57 H       -5.0810   -10.1510    -3.5830 H     1 <1>   0.0800 
 58 H       -2.7020   -10.6310    -0.9000 H     1 <1>   0.1500 
 59 H       -5.2460   -11.6790     2.3680 H     1 <1>   0.1500 
 60 H       -1.4030   -12.7070    -0.5480 H     1 <1>   0.1500 
 61 H       -3.9480   -13.7530     2.7050 H     1 <1>   0.1500 
@<TRIPOS>BOND
  1   1   2  1   
  2   1   3  1   
  3   2   4  ar  
  4   2   5  ar  
  5   3  32  1   
  6   3  33  1   
  7   3  34  1   
  8   4   6  ar  
  9   4  35  1   
 10   5   7  ar  
 11   5  36  1   
 12   6   8  ar  
 13   6   9  1   
 14   7   8  ar  
 15   7  37  1   
 16   8  38  1   
 17   9  10  1   
 18   9  39  1   
 19   9  40  1   
 20  10  11  am  
 21  10  12  1   
 22  11  13  2   
 23  11  14  1   
 24  12  15  1   
 25  12  16  1   
 26  12  41  1   
 27  14  17  1   
 28  14  42  1   
 29  14  43  1   
 30  15  44  1   
 31  15  45  1   
 32  15  46  1   
 33  16  47  1   
 34  16  48  1   
 35  16  49  1   
 36  17  18  1   
 37  17  19  1   
 38  17  50  1   
 39  18  20  1   
 40  18  21  1   
 41  19  22  2   
 42  19  23  am  
 43  20  24  1   
 44  20  51  1   
 45  20  52  1   
 46  21  25  1   
 47  21  53  1   
 48  21  54  1   
 49  23  24  1   
 50  23  55  1   
 51  24  56  1   
 52  24  57  1   
 53  25  26  ar  
 54  25  27  ar  
 55  26  28  ar  
 56  26  58  1   
 57  27  29  ar  
 58  27  59  1   
 59  28  30  ar  
 60  28  60  1   
 61  29  30  ar  
 62  29  61  1   
 63  30  31  1   
@<TRIPOS>SUBSTRUCTURE
  1 ****  10 GROUP 4 **** **** 0

# MOE 2024.06 (io_trps.svl 2023.06)
