@<TRIPOS>MOLECULE
NONAME
54 56 1 0 0 
SMALL
USER_CHARGES


@<TRIPOS>ATOM
  1 O       -0.0850    -0.8850     0.3580 O.3   1 <1>  -0.6800 
  2 C        0.9430    -1.1980    -0.5210 C.3   1 <1>   0.2000 
  3 C        1.7570    -2.3300     0.1000 C.3   1 <1>  -0.0800 
  4 C        1.9160    -0.0080    -0.5500 C.3   1 <1>   0.3430 
  5 C        2.6090    -1.5780     1.1230 C.3   1 <1>   0.3430 
  6 C        2.6110    -3.0720    -0.9510 C.3   1 <1>  -0.0160 
  7 N        2.9810    -0.2990     0.4630 N.4   1 <1>  -0.9590 
  8 C        3.7470    -3.8410    -0.2960 C.ar  1 <1>  -0.1430 
  9 C        3.2240     0.7950     1.4230 C.3   1 <1>   0.4810 
 10 C        5.0710    -3.5310    -0.5410 C.ar  1 <1>  -0.1500 
 11 C        3.5160    -4.8790     0.5860 C.ar  1 <1>  -0.1500 
 12 C        4.3710     1.6120     0.8540 C.2   1 <1>  -0.2760 
 13 C        6.0700    -4.2360     0.1090 C.ar  1 <1>   0.1600 
 14 C        4.5880    -5.5190     1.1840 C.ar  1 <1>   0.1600 
 15 C        5.6220     1.1240     0.7260 C.2   1 <1>  -0.2760 
 16 C        3.9920     3.0660     0.4970 C.3   1 <1>   0.1380 
 17 N        5.8570    -5.2110     0.9750 N.ar  1 <1>  -0.6200 
 18 C        6.7910     1.9460     0.1860 C.3   1 <1>  -0.0220 
 19 C        6.0970    -0.2780     1.1110 C.3   1 <1>  -0.1020 
 20 C        5.1100     3.7360    -0.3320 C.3   1 <1>  -0.1600 
 21 C        2.7060     3.1700    -0.3380 C.3   1 <1>  -0.2400 
 22 C        3.7800     3.8420     1.8070 C.3   1 <1>  -0.2400 
 23 C        6.5100     3.4480     0.2130 C.3   1 <1>  -0.1600 
 24 H       -0.8310    -1.5170     0.2790 H     1 <1>   0.4000 
 25 H        0.5200    -1.4210    -1.4870 H     1 <1>   0.0800 
 26 H        1.1260    -3.0450     0.5990 H     1 <1>   0.0800 
 27 H        1.3810     0.8970    -0.3200 H     1 <1>   0.0800 
 28 H        2.3630     0.0800    -1.5260 H     1 <1>   0.0800 
 29 H        3.4760    -2.1410     1.4290 H     1 <1>   0.0800 
 30 H        1.9990    -1.3700     1.9880 H     1 <1>   0.0800 
 31 H        3.0240    -2.3790    -1.6630 H     1 <1>   0.0800 
 32 H        1.9910    -3.7600    -1.5010 H     1 <1>   0.0800 
 33 H        3.8860    -0.4010    -0.0160 H     1 <1>   0.4500 
 34 H        2.3370     1.3870     1.5750 H     1 <1>   0.0800 
 35 H        3.5320     0.3900     2.3730 H     1 <1>   0.0800 
 36 H        5.3450    -2.7560    -1.2330 H     1 <1>   0.1500 
 37 H        2.5170    -5.2030     0.8160 H     1 <1>   0.1500 
 38 H        7.0990    -3.9870    -0.0930 H     1 <1>   0.1500 
 39 H        4.3940    -6.3270     1.8700 H     1 <1>   0.1500 
 40 H        7.6780     1.7680     0.7700 H     1 <1>   0.0800 
 41 H        6.9980     1.6370    -0.8240 H     1 <1>   0.0800 
 42 H        6.9220    -0.2050     1.8000 H     1 <1>   0.0800 
 43 H        6.4400    -0.8050     0.2390 H     1 <1>   0.0800 
 44 H        5.3420    -0.8640     1.5960 H     1 <1>   0.0800 
 45 H        5.0710     3.3710    -1.3440 H     1 <1>   0.0800 
 46 H        4.9550     4.8000    -0.3710 H     1 <1>   0.0800 
 47 H        2.5430     4.1930    -0.6300 H     1 <1>   0.0800 
 48 H        1.8400     2.8610     0.2180 H     1 <1>   0.0800 
 49 H        2.7910     2.5830    -1.2340 H     1 <1>   0.0800 
 50 H        3.6090     4.8850     1.6050 H     1 <1>   0.0800 
 51 H        4.6450     3.7600     2.4400 H     1 <1>   0.0800 
 52 H        2.9330     3.4670     2.3510 H     1 <1>   0.0800 
 53 H        7.2460     3.9610    -0.3810 H     1 <1>   0.0800 
 54 H        6.5940     3.8100     1.2220 H     1 <1>   0.0800 
@<TRIPOS>BOND
  1   1   2  1   
  2   1  24  1   
  3   2   3  1   
  4   2   4  1   
  5   2  25  1   
  6   3   5  1   
  7   3   6  1   
  8   3  26  1   
  9   4   7  1   
 10   4  27  1   
 11   4  28  1   
 12   5   7  1   
 13   5  29  1   
 14   5  30  1   
 15   6   8  1   
 16   6  31  1   
 17   6  32  1   
 18   7   9  1   
 19   7  33  1   
 20   8  10  ar  
 21   8  11  ar  
 22   9  12  1   
 23   9  34  1   
 24   9  35  1   
 25  10  13  ar  
 26  10  36  1   
 27  11  14  ar  
 28  11  37  1   
 29  12  15  2   
 30  12  16  1   
 31  13  17  ar  
 32  13  38  1   
 33  14  17  ar  
 34  14  39  1   
 35  15  18  1   
 36  15  19  1   
 37  16  20  1   
 38  16  21  1   
 39  16  22  1   
 40  18  23  1   
 41  18  40  1   
 42  18  41  1   
 43  19  42  1   
 44  19  43  1   
 45  19  44  1   
 46  20  23  1   
 47  20  45  1   
 48  20  46  1   
 49  21  47  1   
 50  21  48  1   
 51  21  49  1   
 52  22  50  1   
 53  22  51  1   
 54  22  52  1   
 55  23  53  1   
 56  23  54  1   
@<TRIPOS>SUBSTRUCTURE
  1 ****   7 GROUP 4 **** **** 0

# MOE 2024.06 (io_trps.svl 2023.06)
