@<TRIPOS>MOLECULE
NONAME
47 49 1 0 0 
SMALL
USER_CHARGES


@<TRIPOS>ATOM
  1 O        2.2050     0.5090    -1.6850 O.3   1 <1>  -0.6800 
  2 C        1.7000     0.3700    -0.4060 C.3   1 <1>   0.2800 
  3 C        2.8820     0.3720     0.5990 C.3   1 <1>  -0.0800 
  4 C        0.9620    -0.9780    -0.3420 C.3   1 <1>  -0.1600 
  5 C        0.7030     1.5280    -0.1780 C.3   1 <1>  -0.1600 
  6 C        3.5470    -0.9990     0.8500 C.3   1 <1>  -0.0800 
  7 C        4.0340     1.2770     0.1840 C.3   1 <1>   0.3430 
  8 C        1.8510    -2.2070    -0.6260 C.3   1 <1>  -0.1600 
  9 C        1.2740     2.9530    -0.2800 C.3   1 <1>  -0.2400 
 10 C        3.3400    -1.9800    -0.3170 C.3   1 <1>  -0.1600 
 11 C        5.0380    -0.7150     1.0580 C.3   1 <1>   0.3430 
 12 N        5.2080     0.7530     0.9190 N.4   1 <1>  -0.9590 
 13 C        6.4950     1.2050     0.3350 C.3   1 <1>   0.5230 
 14 C        6.7050     2.6500     0.7540 C.2   1 <1>   0.0060 
 15 N        6.2100     3.1680     1.8260 N.2   1 <1>  -0.5650 
 16 N        7.4210     3.5470     0.0600 N.pl3 1 <1>   0.3140 
 17 C        6.6660     4.4260     1.7480 C.2   1 <1>   0.3660 
 18 N        7.3870     4.6950     0.7130 N.2   1 <1>  -0.7070 
 19 C        8.1550     3.4080    -1.2190 C.3   1 <1>   0.0960 
 20 C        7.2000     3.4540    -2.4200 C.3   1 <1>  -0.2400 
 21 H        1.4730     0.4250    -2.3280 H     1 <1>   0.4000 
 22 H        2.5130     0.7230     1.5470 H     1 <1>   0.0800 
 23 H        0.5600    -1.0840     0.6510 H     1 <1>   0.0800 
 24 H        0.1210    -0.9810    -1.0140 H     1 <1>   0.0800 
 25 H       -0.0990     1.4350    -0.8910 H     1 <1>   0.0800 
 26 H        0.2570     1.4140     0.7950 H     1 <1>   0.0800 
 27 H        3.1390    -1.4440     1.7420 H     1 <1>   0.0800 
 28 H        3.8450     2.3100     0.4260 H     1 <1>   0.0800 
 29 H        4.2000     1.1850    -0.8770 H     1 <1>   0.0800 
 30 H        1.4840    -3.0370    -0.0470 H     1 <1>   0.0800 
 31 H        1.7580    -2.4800    -1.6640 H     1 <1>   0.0800 
 32 H        1.7920     3.0970    -1.2120 H     1 <1>   0.0800 
 33 H        1.9400     3.1650     0.5360 H     1 <1>   0.0800 
 34 H        0.4690     3.6660    -0.2350 H     1 <1>   0.0800 
 35 H        3.8130    -1.5840    -1.2000 H     1 <1>   0.0800 
 36 H        3.8040    -2.9280    -0.1010 H     1 <1>   0.0800 
 37 H        5.6090    -1.2300     0.3020 H     1 <1>   0.0800 
 38 H        5.3610    -1.0470     2.0320 H     1 <1>   0.0800 
 39 H        5.1850     1.2060     1.8500 H     1 <1>   0.4500 
 40 H        7.3050     0.6100     0.7220 H     1 <1>   0.0800 
 41 H        6.4700     1.1140    -0.7380 H     1 <1>   0.0800 
 42 H        6.4330     5.1520     2.5120 H     1 <1>   0.1500 
 43 H        8.8570     4.2210    -1.2890 H     1 <1>   0.0800 
 44 H        8.7100     2.4880    -1.2110 H     1 <1>   0.0800 
 45 H        6.6630     4.3880    -2.4260 H     1 <1>   0.0800 
 46 H        6.4990     2.6410    -2.3990 H     1 <1>   0.0800 
 47 H        7.7660     3.3900    -3.3330 H     1 <1>   0.0800 
@<TRIPOS>BOND
  1   1   2  1   
  2   1  21  1   
  3   2   3  1   
  4   2   4  1   
  5   2   5  1   
  6   3   6  1   
  7   3   7  1   
  8   3  22  1   
  9   4   8  1   
 10   4  23  1   
 11   4  24  1   
 12   5   9  1   
 13   5  25  1   
 14   5  26  1   
 15   6  10  1   
 16   6  11  1   
 17   6  27  1   
 18   7  12  1   
 19   7  28  1   
 20   7  29  1   
 21   8  10  1   
 22   8  30  1   
 23   8  31  1   
 24   9  32  1   
 25   9  33  1   
 26   9  34  1   
 27  10  35  1   
 28  10  36  1   
 29  11  12  1   
 30  11  37  1   
 31  11  38  1   
 32  12  13  1   
 33  12  39  1   
 34  13  14  1   
 35  13  40  1   
 36  13  41  1   
 37  14  15  2   
 38  14  16  1   
 39  15  17  1   
 40  16  18  1   
 41  16  19  1   
 42  17  18  2   
 43  17  42  1   
 44  19  20  1   
 45  19  43  1   
 46  19  44  1   
 47  20  45  1   
 48  20  46  1   
 49  20  47  1   
@<TRIPOS>SUBSTRUCTURE
  1 ****   7 GROUP 4 **** **** 0

# MOE 2024.06 (io_trps.svl 2023.06)
