@<TRIPOS>MOLECULE
NONAME
44 46 1 0 0 
SMALL
USER_CHARGES


@<TRIPOS>ATOM
  1 O        1.2220     1.8030    -1.0000 O.co2 1 <1>  -0.9030 
  2 C        1.5370     0.6090    -0.8920 C.2   1 <1>   0.9770 
  3 O        0.6690    -0.2720    -0.9560 O.co2 1 <1>  -0.9030 
  4 C        2.9220     0.2530    -0.6880 C.ar  1 <1>  -0.1870 
  5 C        3.2910    -1.0970    -0.5600 C.ar  1 <1>   0.1510 
  6 C        3.9150     1.2210    -0.6140 C.ar  1 <1>  -0.1180 
  7 N        4.5190    -1.5520    -0.3730 N.ar  1 <1>  -0.5840 
  8 C        5.1970     0.7630    -0.4170 C.ar  1 <1>   0.3020 
  9 C        5.4330    -0.5930    -0.3130 C.ar  1 <1>   0.6140 
 10 N        6.4190     1.3780    -0.2880 N.pl3 1 <1>  -0.7050 
 11 N        6.7870    -0.7730    -0.1310 N.pl3 1 <1>  -0.7680 
 12 C        7.3510     0.4500    -0.1420 C.cat 1 <1>   1.0680 
 13 C        7.3280    -2.0900     0.2740 C.3   1 <1>   0.3470 
 14 N        8.6620     0.7510    -0.0090 N.pl3 1 <1>  -0.5970 
 15 C        7.5970    -2.0840     1.7750 C.3   1 <1>  -0.2480 
 16 C        9.1240     1.8530     0.9070 C.3   1 <1>   0.1590 
 17 C        9.7340    -0.1370    -0.5520 C.3   1 <1>   0.1590 
 18 C        9.4050     3.2080     0.2310 C.3   1 <1>   0.0870 
 19 C       10.7890     0.6410    -1.3360 C.3   1 <1>  -0.2480 
 20 N        8.1680     3.9760     0.0200 N.pl3 1 <1>   0.3070 
 21 N        7.4420     3.8750    -1.1090 N.2   1 <1>  -0.7110 
 22 C        7.5920     4.8250     0.8920 C.2   1 <1>  -0.3090 
 23 C        6.4410     4.6890    -0.9410 C.2   1 <1>   0.1300 
 24 C        6.4770     5.3050     0.3020 C.2   1 <1>  -0.1590 
 25 H        2.4970    -1.8290    -0.6200 H     1 <1>   0.1410 
 26 H        3.6850     2.2700    -0.7060 H     1 <1>   0.1410 
 27 H        6.6250     2.3640    -0.5070 H     1 <1>   0.4440 
 28 H        8.2280    -2.3190    -0.2650 H     1 <1>   0.0710 
 29 H        6.6190    -2.8690     0.0450 H     1 <1>   0.0710 
 30 H        8.3380    -1.3500     2.0340 H     1 <1>   0.0710 
 31 H        7.9600    -3.0500     2.0760 H     1 <1>   0.0710 
 32 H        6.6870    -1.8860     2.3150 H     1 <1>   0.0710 
 33 H       10.0330     1.5270     1.3840 H     1 <1>   0.0710 
 34 H        8.4010     1.9970     1.6930 H     1 <1>   0.0710 
 35 H        9.2990    -0.8460    -1.2350 H     1 <1>   0.0710 
 36 H       10.2020    -0.6780     0.2540 H     1 <1>   0.0710 
 37 H        9.9020     3.0860    -0.7110 H     1 <1>   0.0710 
 38 H       10.0410     3.7940     0.8690 H     1 <1>   0.0710 
 39 H       10.3300     1.2320    -2.1090 H     1 <1>   0.0710 
 40 H       11.4620    -0.0540    -1.8070 H     1 <1>   0.0710 
 41 H       11.3760     1.2680    -0.6900 H     1 <1>   0.0710 
 42 H        7.9970     5.0490     1.8620 H     1 <1>   0.1410 
 43 H        5.6740     4.8590    -1.6810 H     1 <1>   0.1410 
 44 H        5.7580     6.0120     0.6810 H     1 <1>   0.1410 
@<TRIPOS>BOND
  1   1   2  ar  
  2   2   3  ar  
  3   2   4  1   
  4   4   5  ar  
  5   4   6  ar  
  6   5   7  ar  
  7   5  25  1   
  8   6   8  ar  
  9   6  26  1   
 10   7   9  ar  
 11   8   9  ar  
 12   8  10  1   
 13   9  11  1   
 14  10  12  ar  
 15  10  27  1   
 16  11  12  ar  
 17  11  13  1   
 18  12  14  ar  
 19  13  15  1   
 20  13  28  1   
 21  13  29  1   
 22  14  16  1   
 23  14  17  1   
 24  15  30  1   
 25  15  31  1   
 26  15  32  1   
 27  16  18  1   
 28  16  33  1   
 29  16  34  1   
 30  17  19  1   
 31  17  35  1   
 32  17  36  1   
 33  18  20  1   
 34  18  37  1   
 35  18  38  1   
 36  19  39  1   
 37  19  40  1   
 38  19  41  1   
 39  20  21  1   
 40  20  22  1   
 41  21  23  2   
 42  22  24  2   
 43  22  42  1   
 44  23  24  1   
 45  23  43  1   
 46  24  44  1   
@<TRIPOS>SUBSTRUCTURE
  1 ****  10 GROUP 4 **** **** 0

# MOE 2024.06 (io_trps.svl 2023.06)
