@<TRIPOS>MOLECULE
NONAME
42 44 1 0 0 
SMALL
USER_CHARGES


@<TRIPOS>ATOM
  1 S        0.0050     0.0080    -0.2170 S.3   1 <1>  -0.0800 
  2 C       -1.2620    -0.9170     0.5840 C.2   1 <1>  -0.0450 
  3 C       -0.5610     1.5510     0.4170 C.2   1 <1>  -0.0450 
  4 C       -1.2970    -2.3470     0.3940 C.2   1 <1>   0.7150 
  5 C       -2.0350    -0.0480     1.2890 C.2   1 <1>  -0.1500 
  6 C        0.1150     2.7710     0.0840 C.2   1 <1>   0.5940 
  7 C       -1.6500     1.3120     1.1930 C.2   1 <1>  -0.1500 
  8 O       -0.2740    -2.9610     0.1480 O.2   1 <1>  -0.5700 
  9 N       -2.4760    -3.0560     0.4780 N.am  1 <1>  -0.6600 
 10 O       -0.2560     3.8460     0.4810 O.2   1 <1>  -0.5700 
 11 C        1.3450     2.7470    -0.8000 C.3   1 <1>  -0.1790 
 12 C       -3.8220    -2.4760     0.2420 C.3   1 <1>   0.1400 
 13 C       -2.5170    -4.5330     0.3180 C.3   1 <1>   0.1400 
 14 C       -4.6370    -3.6150    -0.3660 C.3   1 <1>   0.2000 
 15 C       -3.9980    -4.8890     0.1750 C.3   1 <1>  -0.0800 
 16 O       -5.9680    -3.5440     0.0080 O.3   1 <1>  -0.6800 
 17 C       -4.2510    -6.1190    -0.7100 C.3   1 <1>   0.0210 
 18 C       -3.5160    -7.3320    -0.1750 C.2   1 <1>   0.1080 
 19 N       -3.7320    -7.8200     1.0070 N.2   1 <1>  -0.7070 
 20 C       -2.5390    -8.0410    -0.8660 C.2   1 <1>  -0.1500 
 21 N       -2.8920    -8.8680     1.1010 N.pl3 1 <1>   0.3000 
 22 C       -2.1560    -9.0200    -0.0200 C.2   1 <1>  -0.3320 
 23 C       -1.1180   -10.1090    -0.2170 C.3   1 <1>  -0.0600 
 24 H       -2.8770    -0.3350     1.8930 H     1 <1>   0.1500 
 25 H       -2.1940     2.0870     1.7080 H     1 <1>   0.1500 
 26 H        2.1090     2.1420    -0.3470 H     1 <1>   0.0800 
 27 H        1.7240     3.7440    -0.9260 H     1 <1>   0.0800 
 28 H        1.0950     2.3470    -1.7640 H     1 <1>   0.0800 
 29 H       -4.2450    -2.1730     1.1840 H     1 <1>   0.0800 
 30 H       -3.7720    -1.6410    -0.4350 H     1 <1>   0.0800 
 31 H       -1.9670    -4.8090    -0.5670 H     1 <1>   0.0800 
 32 H       -2.0780    -5.0230     1.1720 H     1 <1>   0.0800 
 33 H       -4.5810    -3.5680    -1.4400 H     1 <1>   0.0800 
 34 H       -4.3690    -5.0880     1.1650 H     1 <1>   0.0800 
 35 H       -6.0740    -3.8100     0.9420 H     1 <1>   0.4000 
 36 H       -3.9310    -5.9230    -1.7170 H     1 <1>   0.0800 
 37 H       -5.3040    -6.3370    -0.7300 H     1 <1>   0.0800 
 38 H       -2.1830    -7.8310    -1.8590 H     1 <1>   0.1500 
 39 H       -2.8440    -9.4570     1.9410 H     1 <1>   0.2700 
 40 H       -0.6690   -10.0200    -1.1910 H     1 <1>   0.0800 
 41 H       -1.5760   -11.0790    -0.1390 H     1 <1>   0.0800 
 42 H       -0.3440   -10.0240     0.5250 H     1 <1>   0.0800 
@<TRIPOS>BOND
  1   1   2  1   
  2   1   3  1   
  3   2   4  1   
  4   2   5  2   
  5   3   6  1   
  6   3   7  2   
  7   4   8  2   
  8   4   9  am  
  9   5   7  1   
 10   5  24  1   
 11   6  10  2   
 12   6  11  1   
 13   7  25  1   
 14   9  12  1   
 15   9  13  1   
 16  11  26  1   
 17  11  27  1   
 18  11  28  1   
 19  12  14  1   
 20  12  29  1   
 21  12  30  1   
 22  13  15  1   
 23  13  31  1   
 24  13  32  1   
 25  14  15  1   
 26  14  16  1   
 27  14  33  1   
 28  15  17  1   
 29  15  34  1   
 30  16  35  1   
 31  17  18  1   
 32  17  36  1   
 33  17  37  1   
 34  18  19  2   
 35  18  20  1   
 36  19  21  1   
 37  20  22  2   
 38  20  38  1   
 39  21  22  1   
 40  21  39  1   
 41  22  23  1   
 42  23  40  1   
 43  23  41  1   
 44  23  42  1   
@<TRIPOS>SUBSTRUCTURE
  1 ****   9 GROUP 4 **** **** 0

# MOE 2024.06 (io_trps.svl 2023.06)
