@<TRIPOS>MOLECULE
NONAME
44 47 1 0 0 
SMALL
USER_CHARGES


@<TRIPOS>ATOM
  1 O        0.1590     2.2030     1.9730 O.2   1 <1>  -0.5700 
  2 C        0.5470     2.4680     0.8550 C.2   1 <1>   0.5440 
  3 N       -0.2610     2.5160    -0.2510 N.am  1 <1>  -0.4200 
  4 C        1.8930     2.7700     0.4550 C.ar  1 <1>   0.0860 
  5 C        0.5100     2.8220    -1.3430 C.2   1 <1>   0.5440 
  6 C       -1.7190     2.2780    -0.2650 C.3   1 <1>   0.1400 
  7 C        1.8700     2.9910    -0.9130 C.ar  1 <1>   0.0860 
  8 C        3.0860     2.8630     1.1610 C.ar  1 <1>  -0.1500 
  9 O        0.0840     2.9200    -2.4740 O.2   1 <1>  -0.5700 
 10 C       -2.4650     3.5950    -0.0400 C.3   1 <1>  -0.1600 
 11 C        3.0400     3.3060    -1.5930 C.ar  1 <1>  -0.1500 
 12 C        4.2530     3.1770     0.4820 C.ar  1 <1>  -0.1500 
 13 C       -3.9930     3.3780    -0.0480 C.3   1 <1>  -0.1600 
 14 C        4.2290     3.3980    -0.8900 C.ar  1 <1>  -0.1500 
 15 C       -4.8220     4.6490     0.1700 C.3   1 <1>   0.7040 
 16 O       -4.4480     5.2500     1.3680 O.3   1 <1>  -0.5600 
 17 O       -4.4860     5.5960    -0.7920 O.3   1 <1>  -0.5600 
 18 C       -6.3340     4.3630     0.1510 C.ar  1 <1>  -0.1430 
 19 C       -4.6620     6.6100     1.2510 C.3   1 <1>   0.1200 
 20 C       -4.6890     6.8500    -0.2480 C.3   1 <1>   0.1200 
 21 C       -7.0110     4.0350     1.3210 C.ar  1 <1>  -0.1500 
 22 C       -7.0530     4.4140    -1.0380 C.ar  1 <1>  -0.1500 
 23 C       -8.3700     3.7730     1.3050 C.ar  1 <1>  -0.1500 
 24 C       -8.4110     4.1510    -1.0580 C.ar  1 <1>  -0.1500 
 25 C       -9.0720     3.8310     0.1150 C.ar  1 <1>  -0.1500 
 26 H       -1.9690     1.5760     0.5120 H     1 <1>   0.0800 
 27 H       -1.9980     1.8540    -1.2140 H     1 <1>   0.0800 
 28 H        3.0900     2.6890     2.2240 H     1 <1>   0.1500 
 29 H       -2.2010     4.2900    -0.8190 H     1 <1>   0.0800 
 30 H       -2.1700     4.0120     0.9080 H     1 <1>   0.0800 
 31 H        3.0070     3.4750    -2.6560 H     1 <1>   0.1500 
 32 H        5.1840     3.2510     1.0200 H     1 <1>   0.1500 
 33 H       -4.2600     2.6770     0.7210 H     1 <1>   0.0800 
 34 H       -4.2900     2.9510    -0.9880 H     1 <1>   0.0800 
 35 H        5.1420     3.6420    -1.4070 H     1 <1>   0.1500 
 36 H       -3.8590     7.1360     1.7350 H     1 <1>   0.0800 
 37 H       -5.6050     6.8580     1.7060 H     1 <1>   0.0800 
 38 H       -5.6460     7.2230    -0.5700 H     1 <1>   0.0800 
 39 H       -3.9000     7.5060    -0.5710 H     1 <1>   0.0800 
 40 H       -6.4750     3.9840     2.2540 H     1 <1>   0.1500 
 41 H       -6.5500     4.6590    -1.9590 H     1 <1>   0.1500 
 42 H       -8.8790     3.5220     2.2190 H     1 <1>   0.1500 
 43 H       -8.9540     4.1960    -1.9860 H     1 <1>   0.1500 
 44 H      -10.1280     3.6270     0.1010 H     1 <1>   0.1500 
@<TRIPOS>BOND
  1   1   2  2   
  2   2   3  am  
  3   2   4  1   
  4   3   5  am  
  5   3   6  1   
  6   4   7  ar  
  7   4   8  ar  
  8   5   7  1   
  9   5   9  2   
 10   6  10  1   
 11   6  26  1   
 12   6  27  1   
 13   7  11  ar  
 14   8  12  ar  
 15   8  28  1   
 16  10  13  1   
 17  10  29  1   
 18  10  30  1   
 19  11  14  ar  
 20  11  31  1   
 21  12  14  ar  
 22  12  32  1   
 23  13  15  1   
 24  13  33  1   
 25  13  34  1   
 26  14  35  1   
 27  15  16  1   
 28  15  17  1   
 29  15  18  1   
 30  16  19  1   
 31  17  20  1   
 32  18  21  ar  
 33  18  22  ar  
 34  19  20  1   
 35  19  36  1   
 36  19  37  1   
 37  20  38  1   
 38  20  39  1   
 39  21  23  ar  
 40  21  40  1   
 41  22  24  ar  
 42  22  41  1   
 43  23  25  ar  
 44  23  42  1   
 45  24  25  ar  
 46  24  43  1   
 47  25  44  1   
@<TRIPOS>SUBSTRUCTURE
  1 ****  10 GROUP 4 **** **** 0

# MOE 2024.06 (io_trps.svl 2023.06)
