@<TRIPOS>MOLECULE
NONAME
47 50 1 0 0 
SMALL
USER_CHARGES


@<TRIPOS>ATOM
  1 S        0.5810    -0.5760     0.3460 S.3   1 <1>  -0.0800 
  2 C        0.0250    -2.2390     0.5330 C.ar  1 <1>   0.2970 
  3 C       -0.7620    -0.1960    -0.7340 C.2   1 <1>  -0.1100 
  4 N        0.6510    -3.1340     1.2630 N.ar  1 <1>  -0.5670 
  5 C       -1.1260    -2.4430    -0.1850 C.ar  1 <1>   0.0000 
  6 C       -1.5500    -1.2720    -0.9090 C.2   1 <1>  -0.1500 
  7 C        0.0610    -4.3110     1.2510 C.ar  1 <1>   0.4770 
  8 C       -1.6540    -3.7300    -0.0910 C.ar  1 <1>   0.4100 
  9 N       -1.0540    -4.6680     0.6230 N.ar  1 <1>  -0.6200 
 10 C        0.7350    -5.3980     2.0550 C.3   1 <1>  -0.0960 
 11 N       -2.8330    -4.0900    -0.7120 N.pl3 1 <1>  -0.8380 
 12 C       -2.9120    -5.3510    -1.5060 C.3   1 <1>   0.2090 
 13 C       -4.0920    -3.3750    -0.3980 C.3   1 <1>   0.2090 
 14 C       -3.0450    -6.5990    -0.6080 C.3   1 <1>   0.3430 
 15 C       -5.1130    -4.3120     0.2540 C.3   1 <1>  -0.1600 
 16 N       -4.2720    -6.6460     0.2730 N.4   1 <1>  -0.9590 
 17 C       -4.4720    -5.4170     1.0970 C.3   1 <1>   0.3430 
 18 C       -4.2320    -7.8480     1.1450 C.3   1 <1>   0.4860 
 19 C       -4.2420    -9.0940     0.2820 C.ar  1 <1>  -0.1430 
 20 C       -5.3390    -9.3930    -0.5100 C.ar  1 <1>   0.1900 
 21 C       -3.1600    -9.9630     0.2570 C.ar  1 <1>  -0.1500 
 22 F       -6.3610    -8.5780    -0.5080 F     1 <1>  -0.1900 
 23 C       -5.3910   -10.5130    -1.3170 C.ar  1 <1>  -0.1500 
 24 C       -3.1940   -11.0920    -0.5480 C.ar  1 <1>  -0.1500 
 25 C       -4.3030   -11.3680    -1.3330 C.ar  1 <1>  -0.1500 
 26 H       -0.8060     0.8060    -1.1260 H     1 <1>   0.1500 
 27 H       -2.4270    -1.3050    -1.5300 H     1 <1>   0.1500 
 28 H        1.6240    -5.0210     2.5280 H     1 <1>   0.0800 
 29 H        1.0060    -6.2100     1.4070 H     1 <1>   0.0800 
 30 H        0.0640    -5.7540     2.8140 H     1 <1>   0.0800 
 31 H       -2.0080    -5.4450    -2.0840 H     1 <1>   0.0800 
 32 H       -3.7340    -5.3020    -2.1990 H     1 <1>   0.0800 
 33 H       -4.5010    -2.9440    -1.2970 H     1 <1>   0.0800 
 34 H       -3.8740    -2.5690     0.2840 H     1 <1>   0.0800 
 35 H       -2.1640    -6.6550     0.0090 H     1 <1>   0.0800 
 36 H       -3.0370    -7.4680    -1.2460 H     1 <1>   0.0800 
 37 H       -5.7630    -4.7290    -0.4940 H     1 <1>   0.0800 
 38 H       -5.7300    -3.7080     0.8960 H     1 <1>   0.0800 
 39 H       -5.0970    -6.7650    -0.3310 H     1 <1>   0.4500 
 40 H       -5.1370    -5.6430     1.9150 H     1 <1>   0.0800 
 41 H       -3.5330    -5.0780     1.5070 H     1 <1>   0.0800 
 42 H       -5.0940    -7.8630     1.7920 H     1 <1>   0.0800 
 43 H       -3.3450    -7.8300     1.7590 H     1 <1>   0.0800 
 44 H       -2.2850    -9.7800     0.8600 H     1 <1>   0.1500 
 45 H       -6.2620   -10.7130    -1.9180 H     1 <1>   0.1500 
 46 H       -2.3530   -11.7670    -0.5640 H     1 <1>   0.1500 
 47 H       -4.3180   -12.2490    -1.9530 H     1 <1>   0.1500 
@<TRIPOS>BOND
  1   1   2  1   
  2   1   3  1   
  3   2   4  ar  
  4   2   5  ar  
  5   3   6  2   
  6   3  26  1   
  7   4   7  ar  
  8   5   6  1   
  9   5   8  ar  
 10   6  27  1   
 11   7   9  ar  
 12   7  10  1   
 13   8   9  ar  
 14   8  11  1   
 15  10  28  1   
 16  10  29  1   
 17  10  30  1   
 18  11  12  1   
 19  11  13  1   
 20  12  14  1   
 21  12  31  1   
 22  12  32  1   
 23  13  15  1   
 24  13  33  1   
 25  13  34  1   
 26  14  16  1   
 27  14  35  1   
 28  14  36  1   
 29  15  17  1   
 30  15  37  1   
 31  15  38  1   
 32  16  17  1   
 33  16  18  1   
 34  16  39  1   
 35  17  40  1   
 36  17  41  1   
 37  18  19  1   
 38  18  42  1   
 39  18  43  1   
 40  19  20  ar  
 41  19  21  ar  
 42  20  22  1   
 43  20  23  ar  
 44  21  24  ar  
 45  21  44  1   
 46  23  25  ar  
 47  23  45  1   
 48  24  25  ar  
 49  24  46  1   
 50  25  47  1   
@<TRIPOS>SUBSTRUCTURE
  1 ****  14 GROUP 4 **** **** 0

# MOE 2024.06 (io_trps.svl 2023.06)
