@<TRIPOS>MOLECULE
NONAME
50 53 1 0 0 
SMALL
USER_CHARGES


@<TRIPOS>ATOM
  1 O        4.9550    -2.0730    -0.8960 O.2   1 <1>  -0.5700 
  2 C        3.9110    -2.0630    -0.2730 C.2   1 <1>   0.5440 
  3 N        3.6420    -0.9260     0.4460 N.am  1 <1>  -0.6600 
  4 C        2.9830    -3.1640    -0.3460 C.ar  1 <1>   0.0860 
  5 C        4.7170    -0.3690     1.3520 C.3   1 <1>   0.2200 
  6 C        2.5700    -0.0130    -0.0530 C.3   1 <1>   0.1400 
  7 C        3.0930    -4.1630    -1.2980 C.ar  1 <1>   0.1600 
  8 C        1.9160    -3.3100     0.5240 C.ar  1 <1>   0.1600 
  9 C        4.1490     0.5090     2.4800 C.3   1 <1>   0.1200 
 10 C        5.8050     0.4080     0.5660 C.3   1 <1>   0.3430 
 11 C        2.9680     1.4740    -0.0960 C.3   1 <1>  -0.0800 
 12 N        2.2510    -5.1640    -1.3950 N.ar  1 <1>  -0.6200 
 13 N        1.0560    -4.2940     0.4530 N.ar  1 <1>  -0.6200 
 14 O        4.0250     1.8330     2.0520 O.3   1 <1>  -0.5600 
 15 N        5.3560     0.7810    -0.8170 N.4   1 <1>  -0.9590 
 16 C        2.9010     2.1280     1.2940 C.3   1 <1>   0.1200 
 17 C        4.2720     1.8180    -0.8550 C.3   1 <1>   0.3430 
 18 C        1.2590    -5.1870    -0.5130 C.ar  1 <1>   0.7200 
 19 C        6.5160     1.1590    -1.6720 C.3   1 <1>   0.2630 
 20 N        0.4240    -6.2500    -0.6470 N.pl3 1 <1>  -0.6000 
 21 C       -0.7300    -6.6520     0.0360 C.ar  1 <1>   0.1000 
 22 C       -0.9810    -8.0110     0.1860 C.ar  1 <1>  -0.1500 
 23 C       -1.6530    -5.7490     0.5540 C.ar  1 <1>  -0.1500 
 24 C       -2.1150    -8.4580     0.8390 C.ar  1 <1>  -0.1500 
 25 C       -2.7880    -6.1910     1.2100 C.ar  1 <1>  -0.1500 
 26 C       -3.0210    -7.5470     1.3540 C.ar  1 <1>  -0.1500 
 27 H        5.1980    -1.2050     1.8310 H     1 <1>   0.0800 
 28 H        2.2890    -0.3200    -1.0480 H     1 <1>   0.0800 
 29 H        1.6990    -0.1300     0.5700 H     1 <1>   0.0800 
 30 H        3.9080    -4.1260    -2.0030 H     1 <1>   0.1500 
 31 H        1.7710    -2.5890     1.3090 H     1 <1>   0.1500 
 32 H        4.8440     0.5200     3.3020 H     1 <1>   0.0800 
 33 H        3.2040     0.1420     2.8430 H     1 <1>   0.0800 
 34 H        6.6680    -0.2320     0.4910 H     1 <1>   0.0800 
 35 H        6.0980     1.2870     1.1160 H     1 <1>   0.0800 
 36 H        2.1820     1.9600    -0.6470 H     1 <1>   0.0800 
 37 H        4.9680    -0.1170    -1.1730 H     1 <1>   0.4500 
 38 H        2.0220     1.8230     1.8380 H     1 <1>   0.0800 
 39 H        2.8710     3.2000     1.1920 H     1 <1>   0.0800 
 40 H        4.6570     2.7470    -0.4660 H     1 <1>   0.0800 
 41 H        4.0140     1.9880    -1.8870 H     1 <1>   0.0800 
 42 H        6.9830     2.0540    -1.2950 H     1 <1>   0.0800 
 43 H        6.1920     1.3360    -2.6840 H     1 <1>   0.0800 
 44 H        7.2450     0.3640    -1.6810 H     1 <1>   0.0800 
 45 H        0.7820    -6.8970    -1.3430 H     1 <1>   0.4000 
 46 H       -0.2810    -8.7250    -0.2080 H     1 <1>   0.1500 
 47 H       -1.4860    -4.6940     0.4410 H     1 <1>   0.1500 
 48 H       -2.2940    -9.5140     0.9500 H     1 <1>   0.1500 
 49 H       -3.4910    -5.4790     1.6070 H     1 <1>   0.1500 
 50 H       -3.9040    -7.8920     1.8640 H     1 <1>   0.1500 
@<TRIPOS>BOND
  1   1   2  2   
  2   2   3  am  
  3   2   4  1   
  4   3   5  1   
  5   3   6  1   
  6   4   7  ar  
  7   4   8  ar  
  8   5   9  1   
  9   5  10  1   
 10   5  27  1   
 11   6  11  1   
 12   6  28  1   
 13   6  29  1   
 14   7  12  ar  
 15   7  30  1   
 16   8  13  ar  
 17   8  31  1   
 18   9  14  1   
 19   9  32  1   
 20   9  33  1   
 21  10  15  1   
 22  10  34  1   
 23  10  35  1   
 24  11  16  1   
 25  11  17  1   
 26  11  36  1   
 27  12  18  ar  
 28  13  18  ar  
 29  14  16  1   
 30  15  17  1   
 31  15  19  1   
 32  15  37  1   
 33  16  38  1   
 34  16  39  1   
 35  17  40  1   
 36  17  41  1   
 37  18  20  1   
 38  19  42  1   
 39  19  43  1   
 40  19  44  1   
 41  20  21  1   
 42  20  45  1   
 43  21  22  ar  
 44  21  23  ar  
 45  22  24  ar  
 46  22  46  1   
 47  23  25  ar  
 48  23  47  1   
 49  24  26  ar  
 50  24  48  1   
 51  25  26  ar  
 52  25  49  1   
 53  26  50  1   
@<TRIPOS>SUBSTRUCTURE
  1 ****   8 GROUP 4 **** **** 0

# MOE 2024.06 (io_trps.svl 2023.06)
