@<TRIPOS>MOLECULE
NONAME
49 52 1 0 0 
SMALL
USER_CHARGES


@<TRIPOS>ATOM
  1 F       -2.9180    -2.6840     1.6380 F     1 <1>  -0.1900 
  2 C       -3.0050    -1.5230     1.0230 C.ar  1 <1>   0.1900 
  3 C       -1.9210    -1.0620     0.2500 C.ar  1 <1>  -0.1710 
  4 C       -4.1660    -0.8100     1.1650 C.ar  1 <1>  -0.1500 
  5 O       -0.8540    -1.6990     0.0810 O.3   1 <1>  -0.8290 
  6 C       -2.0720     0.1910    -0.3550 C.ar  1 <1>  -0.1500 
  7 C       -4.3290     0.4270     0.5220 C.ar  1 <1>   0.0860 
  8 C       -3.2370     0.9100    -0.2180 C.ar  1 <1>  -0.1500 
  9 C       -5.5610     1.1600     0.6020 C.2   1 <1>   0.5440 
 10 O       -5.5500     2.3710     0.7860 O.2   1 <1>  -0.5700 
 11 N       -6.7900     0.5380     0.4530 N.am  1 <1>  -0.6600 
 12 C       -8.0690     1.2420     0.7720 C.3   1 <1>   0.1400 
 13 C       -6.9390    -0.7420    -0.3090 C.3   1 <1>   0.1400 
 14 C       -8.8420     1.6190    -0.5130 C.3   1 <1>   0.1430 
 15 C       -8.2750    -0.8090    -1.0690 C.3   1 <1>  -0.1600 
 16 C      -10.2980     1.8050    -0.1200 C.ar  1 <1>   0.1670 
 17 C       -8.6610     0.5650    -1.6380 C.3   1 <1>  -0.1600 
 18 C       -8.4620     3.0370    -1.0140 C.3   1 <1>  -0.1600 
 19 N      -11.1430     0.8390     0.1430 N.ar  1 <1>  -0.6200 
 20 C      -10.6330     3.1230    -0.0500 C.ar  1 <1>  -0.1430 
 21 C       -9.4660     4.0170    -0.3860 C.3   1 <1>  -0.0170 
 22 C      -12.3740     1.2340     0.4780 C.ar  1 <1>   0.7200 
 23 C      -11.9200     3.4360     0.3040 C.ar  1 <1>   0.1600 
 24 N      -12.8000     2.4990     0.5690 N.ar  1 <1>  -0.6200 
 25 N      -13.2930     0.2410     0.7570 N.pl3 1 <1>  -0.8380 
 26 C      -12.8880    -1.1760     0.9680 C.3   1 <1>   0.1290 
 27 C      -14.7530     0.5200     0.8520 C.3   1 <1>   0.1290 
 28 H       -4.9560    -1.2020     1.7740 H     1 <1>   0.1500 
 29 H       -1.2400     0.5570    -0.9270 H     1 <1>   0.1500 
 30 H       -3.3270     1.8700    -0.6920 H     1 <1>   0.1500 
 31 H       -7.8860     2.1180     1.3690 H     1 <1>   0.0800 
 32 H       -8.6710     0.5750     1.3650 H     1 <1>   0.0800 
 33 H       -6.8680    -1.5750     0.3690 H     1 <1>   0.0800 
 34 H       -6.1320    -0.8200    -1.0190 H     1 <1>   0.0800 
 35 H       -9.0490    -1.1530    -0.4050 H     1 <1>   0.0800 
 36 H       -8.1920    -1.5280    -1.8650 H     1 <1>   0.0800 
 37 H       -7.8710     0.8770    -2.2980 H     1 <1>   0.0800 
 38 H       -9.5640     0.4870    -2.2180 H     1 <1>   0.0800 
 39 H       -8.5820     3.0830    -2.0820 H     1 <1>   0.0800 
 40 H       -7.4450     3.2940    -0.7770 H     1 <1>   0.0800 
 41 H       -9.7410     4.7980    -1.0740 H     1 <1>   0.0800 
 42 H       -9.0640     4.4450     0.5160 H     1 <1>   0.0800 
 43 H      -12.2320     4.4630     0.3730 H     1 <1>   0.1500 
 44 H      -11.9000    -1.2260     1.3910 H     1 <1>   0.0800 
 45 H      -12.8920    -1.6940     0.0250 H     1 <1>   0.0800 
 46 H      -13.5700    -1.6600     1.6440 H     1 <1>   0.0800 
 47 H      -15.0200     1.3520     0.2240 H     1 <1>   0.0800 
 48 H      -15.0080     0.7540     1.8700 H     1 <1>   0.0800 
 49 H      -15.3160    -0.3390     0.5300 H     1 <1>   0.0800 
@<TRIPOS>BOND
  1   1   2  1   
  2   2   3  ar  
  3   2   4  ar  
  4   3   5  1   
  5   3   6  ar  
  6   4   7  ar  
  7   4  28  1   
  8   6   8  ar  
  9   6  29  1   
 10   7   8  ar  
 11   7   9  1   
 12   8  30  1   
 13   9  10  2   
 14   9  11  am  
 15  11  12  1   
 16  11  13  1   
 17  12  14  1   
 18  12  31  1   
 19  12  32  1   
 20  13  15  1   
 21  13  33  1   
 22  13  34  1   
 23  14  16  1   
 24  14  17  1   
 25  14  18  1   
 26  15  17  1   
 27  15  35  1   
 28  15  36  1   
 29  16  19  ar  
 30  16  20  ar  
 31  17  37  1   
 32  17  38  1   
 33  18  21  1   
 34  18  39  1   
 35  18  40  1   
 36  19  22  ar  
 37  20  21  1   
 38  20  23  ar  
 39  21  41  1   
 40  21  42  1   
 41  22  24  ar  
 42  22  25  1   
 43  23  24  ar  
 44  23  43  1   
 45  25  26  1   
 46  25  27  1   
 47  26  44  1   
 48  26  45  1   
 49  26  46  1   
 50  27  47  1   
 51  27  48  1   
 52  27  49  1   
@<TRIPOS>SUBSTRUCTURE
  1 ****  12 GROUP 4 **** **** 0

# MOE 2024.06 (io_trps.svl 2023.06)
