@<TRIPOS>MOLECULE
NONAME
52 55 1 0 0 
SMALL
USER_CHARGES


@<TRIPOS>ATOM
  1 O       -2.9020     1.1170    -3.0280 O.2   1 <1>  -0.5700 
  2 C       -2.8150     1.5200    -1.8830 C.2   1 <1>   0.5440 
  3 N       -3.3690     0.7850    -0.8600 N.am  1 <1>  -0.6600 
  4 C       -2.1320     2.7700    -1.6110 C.ar  1 <1>   0.0860 
  5 C       -3.4610    -0.7070    -0.9220 C.3   1 <1>   0.1400 
  6 C       -3.9980     1.4080     0.3430 C.3   1 <1>   0.1400 
  7 C       -1.1720     2.8490    -0.6060 C.ar  1 <1>  -0.1500 
  8 C       -2.4060     3.9270    -2.3350 C.ar  1 <1>  -0.1500 
  9 C       -2.7740    -1.3910     0.2930 C.3   1 <1>  -0.1060 
 10 C       -3.8270     0.5340     1.5930 C.3   1 <1>  -0.1600 
 11 C       -0.5160     4.0300    -0.2870 C.ar  1 <1>   0.0000 
 12 C       -1.7640     5.1170    -2.0440 C.ar  1 <1>  -0.1500 
 13 C       -3.6970    -2.5590     0.6770 C.2   1 <1>   0.9060 
 14 C       -2.6000    -0.3620     1.4490 C.3   1 <1>   0.2000 
 15 C       -1.4040    -2.0100    -0.1010 C.3   1 <1>  -0.0650 
 16 C        0.4610     4.0620     0.7790 C.ar  1 <1>   0.0000 
 17 C       -0.8310     5.1670    -1.0250 C.ar  1 <1>  -0.1500 
 18 O       -4.0440    -2.7350     1.8560 O.co2 1 <1>  -0.9000 
 19 O       -4.0790    -3.3280    -0.2120 O.co2 1 <1>  -0.9000 
 20 O       -2.3680    -0.9850     2.6560 O.3   1 <1>  -0.6800 
 21 C       -0.3050    -1.0310    -0.5540 C.3   1 <1>  -0.1950 
 22 C        0.1690     3.5370     2.0360 C.ar  1 <1>  -0.1500 
 23 C        1.7260     4.6110     0.5820 C.ar  1 <1>  -0.1500 
 24 C       -0.1790    -0.5670    -1.9700 C.3   1 <1>  -0.2000 
 25 C        0.8170    -1.5360    -1.4040 C.3   1 <1>  -0.2000 
 26 C        1.1010     3.5580     3.0570 C.ar  1 <1>  -0.1500 
 27 C        2.6620     4.6370     1.5990 C.ar  1 <1>  -0.1500 
 28 C        2.3510     4.1110     2.8400 C.ar  1 <1>  -0.1500 
 29 H       -4.5080    -0.9610    -0.9410 H     1 <1>   0.0800 
 30 H       -3.0410    -1.0770    -1.8410 H     1 <1>   0.0800 
 31 H       -3.5580     2.3710     0.5270 H     1 <1>   0.0800 
 32 H       -5.0470     1.5560     0.1520 H     1 <1>   0.0800 
 33 H       -0.9300     1.9550    -0.0610 H     1 <1>   0.1500 
 34 H       -3.1300     3.8800    -3.1310 H     1 <1>   0.1500 
 35 H       -4.7040    -0.0760     1.7220 H     1 <1>   0.0800 
 36 H       -3.7270     1.1650     2.4570 H     1 <1>   0.0800 
 37 H       -1.9910     6.0030    -2.6110 H     1 <1>   0.1500 
 38 H       -1.7540     0.2720     1.2670 H     1 <1>   0.0800 
 39 H       -1.0310    -2.5590     0.7460 H     1 <1>   0.0800 
 40 H       -1.5710    -2.7310    -0.8840 H     1 <1>   0.0800 
 41 H       -0.3410     6.0970    -0.7950 H     1 <1>   0.1500 
 42 H       -3.0110    -1.7600     2.6700 H     1 <1>   0.4000 
 43 H       -0.0040    -0.3580     0.2290 H     1 <1>   0.1000 
 44 H       -0.8000     3.1050     2.2170 H     1 <1>   0.1500 
 45 H        1.9790     5.0150    -0.3820 H     1 <1>   0.1500 
 46 H       -0.8880    -0.9190    -2.7000 H     1 <1>   0.1000 
 47 H        0.1210     0.4500    -2.1520 H     1 <1>   0.1000 
 48 H        1.8150    -1.1920    -1.1990 H     1 <1>   0.1000 
 49 H        0.7930    -2.5550    -1.7510 H     1 <1>   0.1000 
 50 H        0.8550     3.1450     4.0190 H     1 <1>   0.1500 
 51 H        3.6340     5.0650     1.4260 H     1 <1>   0.1500 
 52 H        3.0780     4.1290     3.6340 H     1 <1>   0.1500 
@<TRIPOS>BOND
  1   1   2  2   
  2   2   3  am  
  3   2   4  1   
  4   3   5  1   
  5   3   6  1   
  6   4   7  ar  
  7   4   8  ar  
  8   5   9  1   
  9   5  29  1   
 10   5  30  1   
 11   6  10  1   
 12   6  31  1   
 13   6  32  1   
 14   7  11  ar  
 15   7  33  1   
 16   8  12  ar  
 17   8  34  1   
 18   9  13  1   
 19   9  14  1   
 20   9  15  1   
 21  10  14  1   
 22  10  35  1   
 23  10  36  1   
 24  11  16  1   
 25  11  17  ar  
 26  12  17  ar  
 27  12  37  1   
 28  13  18  ar  
 29  13  19  ar  
 30  14  20  1   
 31  14  38  1   
 32  15  21  1   
 33  15  39  1   
 34  15  40  1   
 35  16  22  ar  
 36  16  23  ar  
 37  17  41  1   
 38  20  42  1   
 39  21  24  1   
 40  21  25  1   
 41  21  43  1   
 42  22  26  ar  
 43  22  44  1   
 44  23  27  ar  
 45  23  45  1   
 46  24  25  1   
 47  24  46  1   
 48  24  47  1   
 49  25  48  1   
 50  25  49  1   
 51  26  28  ar  
 52  26  50  1   
 53  27  28  ar  
 54  27  51  1   
 55  28  52  1   
@<TRIPOS>SUBSTRUCTURE
  1 ****   7 GROUP 4 **** **** 0

# MOE 2024.06 (io_trps.svl 2023.06)
