@<TRIPOS>MOLECULE
NONAME
42 43 1 0 0 
SMALL
USER_CHARGES


@<TRIPOS>ATOM
  1 F       -0.7380    -1.6540     1.1200 F     1 <1>  -0.3400 
  2 C       -1.4580    -2.5820     0.4980 C.3   1 <1>   1.1640 
  3 F       -1.4430    -2.2620    -0.7890 F     1 <1>  -0.3400 
  4 F       -2.7100    -2.4130     0.9090 F     1 <1>  -0.3400 
  5 C       -0.9500    -4.0110     0.7420 C.ar  1 <1>  -0.1440 
  6 C       -1.7560    -5.0990     0.4210 C.ar  1 <1>  -0.1500 
  7 C        0.3140    -4.2560     1.2720 C.ar  1 <1>  -0.1500 
  8 C       -1.3230    -6.4010     0.6220 C.ar  1 <1>  -0.1440 
  9 C        0.7530    -5.5520     1.4760 C.ar  1 <1>  -0.1500 
 10 C       -0.0610    -6.6210     1.1520 C.ar  1 <1>  -0.1500 
 11 C       -2.2280    -7.5740     0.2610 C.3   1 <1>   0.3530 
 12 N       -2.6190    -7.5210    -1.1770 N.pl3 1 <1>  -0.8380 
 13 C       -3.7570    -8.1960    -1.5760 C.ar  1 <1>   0.4100 
 14 C       -1.4720    -7.4610    -2.1270 C.3   1 <1>   0.1290 
 15 N       -4.1170    -9.2510    -0.8630 N.ar  1 <1>  -0.6200 
 16 C       -4.4570    -7.7530    -2.6940 C.ar  1 <1>  -0.1500 
 17 C       -5.2090    -9.9280    -1.2620 C.ar  1 <1>   0.3960 
 18 C       -5.5730    -8.4280    -3.1200 C.ar  1 <1>  -0.1500 
 19 C       -5.6590   -11.1160    -0.5270 C.2   1 <1>   0.5440 
 20 C       -5.9390    -9.5330    -2.3830 C.ar  1 <1>  -0.1500 
 21 O       -6.0950   -12.0670    -1.1580 O.2   1 <1>  -0.5700 
 22 N       -5.6520   -11.2180     0.8610 N.am  1 <1>  -0.6600 
 23 C       -5.9170   -12.5060     1.5600 C.3   1 <1>   0.0600 
 24 C       -5.4060   -10.0620     1.7650 C.3   1 <1>   0.0600 
 25 H       -2.7370    -4.9410     0.0010 H     1 <1>   0.1500 
 26 H        0.9690    -3.4410     1.5310 H     1 <1>   0.1500 
 27 H        1.7330    -5.7290     1.8870 H     1 <1>   0.1500 
 28 H        0.2930    -7.6250     1.3140 H     1 <1>   0.1500 
 29 H       -3.1130    -7.5330     0.8730 H     1 <1>   0.0800 
 30 H       -1.7320    -8.5090     0.4560 H     1 <1>   0.0800 
 31 H       -1.1050    -6.4510    -2.1890 H     1 <1>   0.0800 
 32 H       -1.7740    -7.7820    -3.1090 H     1 <1>   0.0800 
 33 H       -0.6780    -8.1030    -1.7870 H     1 <1>   0.0800 
 34 H       -4.1110    -6.8780    -3.2100 H     1 <1>   0.1500 
 35 H       -6.1340    -8.1130    -3.9830 H     1 <1>   0.1500 
 36 H       -6.8010   -10.1080    -2.6730 H     1 <1>   0.1500 
 37 H       -5.8710   -13.3320     0.8720 H     1 <1>   0.0800 
 38 H       -6.8960   -12.4810     2.0050 H     1 <1>   0.0800 
 39 H       -5.1800   -12.6630     2.3270 H     1 <1>   0.0800 
 40 H       -5.6770    -9.1400     1.2820 H     1 <1>   0.0800 
 41 H       -4.3630   -10.0280     2.0270 H     1 <1>   0.0800 
 42 H       -5.9950   -10.1620     2.6600 H     1 <1>   0.0800 
@<TRIPOS>BOND
  1   1   2  1   
  2   2   3  1   
  3   2   4  1   
  4   2   5  1   
  5   5   6  ar  
  6   5   7  ar  
  7   6   8  ar  
  8   6  25  1   
  9   7   9  ar  
 10   7  26  1   
 11   8  10  ar  
 12   8  11  1   
 13   9  10  ar  
 14   9  27  1   
 15  10  28  1   
 16  11  12  1   
 17  11  29  1   
 18  11  30  1   
 19  12  13  1   
 20  12  14  1   
 21  13  15  ar  
 22  13  16  ar  
 23  14  31  1   
 24  14  32  1   
 25  14  33  1   
 26  15  17  ar  
 27  16  18  ar  
 28  16  34  1   
 29  17  19  1   
 30  17  20  ar  
 31  18  20  ar  
 32  18  35  1   
 33  19  21  2   
 34  19  22  am  
 35  20  36  1   
 36  22  23  1   
 37  22  24  1   
 38  23  37  1   
 39  23  38  1   
 40  23  39  1   
 41  24  40  1   
 42  24  41  1   
 43  24  42  1   
@<TRIPOS>SUBSTRUCTURE
  1 ****  11 GROUP 4 **** **** 0

# MOE 2024.06 (io_trps.svl 2023.06)
