@<TRIPOS>MOLECULE
NONAME
52 55 1 0 0 
SMALL
USER_CHARGES


@<TRIPOS>ATOM
  1 S       -0.4200     0.2270     0.0120 S.3   1 <1>  -0.3320 
  2 C        1.2370     0.9400     0.0200 C.ar  1 <1>   0.1020 
  3 C       -0.2050    -1.6010    -0.1380 C.3   1 <1>   0.0700 
  4 C        1.3240     2.3170     0.1200 C.ar  1 <1>  -0.1500 
  5 C        2.3780     0.1540    -0.0680 C.ar  1 <1>  -0.1500 
  6 C       -1.5960    -2.2380    -0.1550 C.3   1 <1>  -0.0990 
  7 C        2.5690     2.9200     0.1330 C.ar  1 <1>   0.0820 
  8 C        3.6240     0.7600    -0.0610 C.ar  1 <1>  -0.1500 
  9 C       -1.5430    -3.7510    -0.2820 C.2   1 <1>   0.5690 
 10 O        2.6430     4.2710     0.2490 O.3   1 <1>  -0.3630 
 11 C        3.7240     2.1380     0.0330 C.ar  1 <1>   0.0820 
 12 O       -0.4680    -4.3010    -0.3030 O.2   1 <1>  -0.5700 
 13 N       -2.7100    -4.4550    -0.3670 N.am  1 <1>  -0.6600 
 14 C        3.9060     4.8160     0.5780 C.3   1 <1>   0.1200 
 15 O        4.9570     2.7070     0.0200 O.3   1 <1>  -0.3630 
 16 C       -4.0840    -3.8990    -0.3060 C.3   1 <1>   0.1400 
 17 C       -2.7490    -5.9340    -0.4800 C.3   1 <1>   0.1400 
 18 C        5.0150     4.1030    -0.2080 C.3   1 <1>   0.1200 
 19 C       -5.0120    -5.1120    -0.4000 C.3   1 <1>   0.2000 
 20 C       -4.1580    -6.3240    -0.0310 C.3   1 <1>  -0.0800 
 21 O       -6.0810    -5.0030     0.4760 O.3   1 <1>  -0.6800 
 22 C       -4.6800    -7.6280    -0.6580 C.3   1 <1>  -0.0160 
 23 C       -3.8290    -8.8240    -0.2640 C.ar  1 <1>   0.1670 
 24 N       -2.7390    -9.0310    -0.9860 N.ar  1 <1>  -0.6200 
 25 C       -4.2170    -9.6210     0.8030 C.ar  1 <1>  -0.1500 
 26 C       -2.0040   -10.0720    -0.6290 C.ar  1 <1>   0.1600 
 27 C       -3.4420   -10.7030     1.1630 C.ar  1 <1>  -0.1500 
 28 C       -2.3040   -10.9250     0.4190 C.ar  1 <1>  -0.1500 
 29 H        0.3260    -1.7940    -1.0540 H     1 <1>   0.0800 
 30 H        0.3690    -1.9340     0.7080 H     1 <1>   0.0800 
 31 H        0.4350     2.9150     0.1910 H     1 <1>   0.1500 
 32 H        2.3190    -0.9140    -0.1430 H     1 <1>   0.1500 
 33 H       -2.1060    -1.9870     0.7560 H     1 <1>   0.0800 
 34 H       -2.1490    -1.8420    -0.9860 H     1 <1>   0.0800 
 35 H        4.5200     0.1700    -0.1310 H     1 <1>   0.1500 
 36 H        3.8850     5.8650     0.3440 H     1 <1>   0.0800 
 37 H        4.0590     4.6920     1.6360 H     1 <1>   0.0800 
 38 H       -4.2210    -3.3810     0.6280 H     1 <1>   0.0800 
 39 H       -4.2540    -3.2310    -1.1320 H     1 <1>   0.0800 
 40 H       -2.5800    -6.2120    -1.5070 H     1 <1>   0.0800 
 41 H       -1.9940    -6.3930     0.1370 H     1 <1>   0.0800 
 42 H        5.9850     4.4490     0.0980 H     1 <1>   0.0800 
 43 H        4.8940     4.2740    -1.2630 H     1 <1>   0.0800 
 44 H       -5.4000    -5.1950    -1.4010 H     1 <1>   0.0800 
 45 H       -4.1280    -6.4330     1.0390 H     1 <1>   0.0800 
 46 H       -5.7630    -4.9780     1.3990 H     1 <1>   0.4000 
 47 H       -4.6880    -7.5450    -1.7310 H     1 <1>   0.0800 
 48 H       -5.6950    -7.7920    -0.3410 H     1 <1>   0.0800 
 49 H       -5.1150    -9.3990     1.3490 H     1 <1>   0.1500 
 50 H       -1.1120   -10.2560    -1.2040 H     1 <1>   0.1500 
 51 H       -3.7130   -11.3420     1.9860 H     1 <1>   0.1500 
 52 H       -1.6540   -11.7500     0.6460 H     1 <1>   0.1500 
@<TRIPOS>BOND
  1   1   2  1   
  2   1   3  1   
  3   2   4  ar  
  4   2   5  ar  
  5   3   6  1   
  6   3  29  1   
  7   3  30  1   
  8   4   7  ar  
  9   4  31  1   
 10   5   8  ar  
 11   5  32  1   
 12   6   9  1   
 13   6  33  1   
 14   6  34  1   
 15   7  10  1   
 16   7  11  ar  
 17   8  11  ar  
 18   8  35  1   
 19   9  12  2   
 20   9  13  am  
 21  10  14  1   
 22  11  15  1   
 23  13  16  1   
 24  13  17  1   
 25  14  18  1   
 26  14  36  1   
 27  14  37  1   
 28  15  18  1   
 29  16  19  1   
 30  16  38  1   
 31  16  39  1   
 32  17  20  1   
 33  17  40  1   
 34  17  41  1   
 35  18  42  1   
 36  18  43  1   
 37  19  20  1   
 38  19  21  1   
 39  19  44  1   
 40  20  22  1   
 41  20  45  1   
 42  21  46  1   
 43  22  23  1   
 44  22  47  1   
 45  22  48  1   
 46  23  24  ar  
 47  23  25  ar  
 48  24  26  ar  
 49  25  27  ar  
 50  25  49  1   
 51  26  28  ar  
 52  26  50  1   
 53  27  28  ar  
 54  27  51  1   
 55  28  52  1   
@<TRIPOS>SUBSTRUCTURE
  1 ****   9 GROUP 4 **** **** 0

# MOE 2024.06 (io_trps.svl 2023.06)
