@<TRIPOS>MOLECULE
NONAME
51 54 1 0 0 
SMALL
USER_CHARGES


@<TRIPOS>ATOM
  1 O       -0.6540     1.0960    -1.9530 O.co2 1 <1>  -0.9000 
  2 C       -1.1570     1.2540    -0.8370 C.2   1 <1>   0.9060 
  3 O       -2.0720     0.5440    -0.4110 O.co2 1 <1>  -0.9000 
  4 C       -0.6850     2.4130     0.0210 C.3   1 <1>  -0.1060 
  5 C       -1.9480     3.2330     0.3440 C.3   1 <1>   0.2000 
  6 C        0.2230     3.2590    -0.8890 C.3   1 <1>   0.3430 
  7 C        0.0080     1.8480     1.3020 C.3   1 <1>  -0.0170 
  8 O       -2.7060     2.5760     1.2850 O.3   1 <1>  -0.6800 
  9 C       -1.6440     4.6300     0.8740 C.3   1 <1>  -0.1600 
 10 N        0.4940     4.6650    -0.4060 N.4   1 <1>  -0.9590 
 11 C        1.4970     1.5090     1.2050 C.ar  1 <1>  -0.1440 
 12 C       -0.7970     5.3750    -0.1500 C.3   1 <1>   0.3430 
 13 C        1.5410     4.7140     0.6760 C.3   1 <1>   0.4230 
 14 C        2.0220     0.7950     0.1360 C.ar  1 <1>  -0.1500 
 15 C        2.3480     1.8990     2.2300 C.ar  1 <1>  -0.1500 
 16 C        1.7580     6.1530     1.1960 C.3   1 <1>  -0.0170 
 17 C        2.9080     4.3900     0.0320 C.3   1 <1>  -0.0170 
 18 C        3.3760     0.5200     0.0710 C.ar  1 <1>  -0.1500 
 19 C        3.7030     1.6200     2.1700 C.ar  1 <1>  -0.1500 
 20 C        2.6630     6.7390     0.1410 C.ar  1 <1>  -0.1440 
 21 C        3.3190     5.7320    -0.5230 C.ar  1 <1>  -0.1440 
 22 C        4.2200     0.9370     1.0840 C.ar  1 <1>  -0.1500 
 23 C        2.8720     8.0630    -0.1950 C.ar  1 <1>  -0.1500 
 24 C        4.2030     6.0140    -1.5470 C.ar  1 <1>  -0.1500 
 25 C        3.7560     8.3570    -1.2210 C.ar  1 <1>  -0.1500 
 26 C        4.4170     7.3380    -1.8940 C.ar  1 <1>  -0.1500 
 27 H       -2.5570     3.3140    -0.5440 H     1 <1>   0.0800 
 28 H       -0.2670     3.3270    -1.8480 H     1 <1>   0.0800 
 29 H        1.1400     2.7260    -1.0630 H     1 <1>   0.0800 
 30 H       -0.1240     2.5470     2.1060 H     1 <1>   0.0800 
 31 H       -0.5080     0.9550     1.6140 H     1 <1>   0.0800 
 32 H       -2.8310     1.6470     0.9400 H     1 <1>   0.4000 
 33 H       -2.5710     5.1590     1.0070 H     1 <1>   0.0800 
 34 H       -1.1410     4.5890     1.8210 H     1 <1>   0.0800 
 35 H        0.9510     5.1560    -1.1890 H     1 <1>   0.4500 
 36 H       -0.6230     6.3850     0.1760 H     1 <1>   0.0800 
 37 H       -1.3530     5.4280    -1.0730 H     1 <1>   0.0800 
 38 H        1.2940     4.0410     1.4770 H     1 <1>   0.0800 
 39 H        1.3860     0.4330    -0.6550 H     1 <1>   0.1500 
 40 H        1.9630     2.4150     3.0920 H     1 <1>   0.1500 
 41 H        0.8660     6.7250     1.3580 H     1 <1>   0.0800 
 42 H        2.3020     6.1140     2.1230 H     1 <1>   0.0800 
 43 H        3.6120     4.1040     0.7930 H     1 <1>   0.0800 
 44 H        2.8810     3.6210    -0.7170 H     1 <1>   0.0800 
 45 H        3.7670    -0.0290    -0.7680 H     1 <1>   0.1500 
 46 H        4.3550     1.9260     2.9700 H     1 <1>   0.1500 
 47 H        5.2720     0.7180     1.0330 H     1 <1>   0.1500 
 48 H        2.3660     8.8560     0.3280 H     1 <1>   0.1500 
 49 H        4.7180     5.2230    -2.0650 H     1 <1>   0.1500 
 50 H        3.9360     9.3820    -1.4970 H     1 <1>   0.1500 
 51 H        5.1040     7.5790    -2.6880 H     1 <1>   0.1500 
@<TRIPOS>BOND
  1   1   2  ar  
  2   2   3  ar  
  3   2   4  1   
  4   4   5  1   
  5   4   6  1   
  6   4   7  1   
  7   5   8  1   
  8   5   9  1   
  9   5  27  1   
 10   6  10  1   
 11   6  28  1   
 12   6  29  1   
 13   7  11  1   
 14   7  30  1   
 15   7  31  1   
 16   8  32  1   
 17   9  12  1   
 18   9  33  1   
 19   9  34  1   
 20  10  12  1   
 21  10  13  1   
 22  10  35  1   
 23  11  14  ar  
 24  11  15  ar  
 25  12  36  1   
 26  12  37  1   
 27  13  16  1   
 28  13  17  1   
 29  13  38  1   
 30  14  18  ar  
 31  14  39  1   
 32  15  19  ar  
 33  15  40  1   
 34  16  20  1   
 35  16  41  1   
 36  16  42  1   
 37  17  21  1   
 38  17  43  1   
 39  17  44  1   
 40  18  22  ar  
 41  18  45  1   
 42  19  22  ar  
 43  19  46  1   
 44  20  21  ar  
 45  20  23  ar  
 46  21  24  ar  
 47  22  47  1   
 48  23  25  ar  
 49  23  48  1   
 50  24  26  ar  
 51  24  49  1   
 52  25  26  ar  
 53  25  50  1   
 54  26  51  1   
@<TRIPOS>SUBSTRUCTURE
  1 ****  13 GROUP 4 **** **** 0

# MOE 2024.06 (io_trps.svl 2023.06)
