@<TRIPOS>MOLECULE
NONAME
49 51 1 0 0 
SMALL
USER_CHARGES


@<TRIPOS>ATOM
  1 S       -0.2260    -0.3700     0.0400 S.3   1 <1>  -0.0800 
  2 C        0.5640    -1.5440     1.0730 C.2   1 <1>   0.1980 
  3 C        0.8260     0.8590     0.6790 C.2   1 <1>  -0.1100 
  4 N        1.4950    -1.0660     1.7960 N.2   1 <1>  -0.5650 
  5 C        0.0820    -2.9760     1.0040 C.3   1 <1>   0.0200 
  6 C        1.6470     0.2960     1.5780 C.2   1 <1>   0.0770 
  7 C        0.6720    -3.6700    -0.2220 C.3   1 <1>   0.1400 
  8 N        0.2730    -5.0990    -0.2450 N.am  1 <1>  -0.7300 
  9 C       -0.9080    -5.5670    -0.7510 C.2   1 <1>   0.5440 
 10 O       -1.7090    -4.7590    -1.1800 O.2   1 <1>  -0.5700 
 11 C       -1.1990    -6.9880    -0.7820 C.ar  1 <1>   0.0860 
 12 C       -0.6390    -7.8820     0.1330 C.ar  1 <1>  -0.1500 
 13 C       -2.0640    -7.5150    -1.7430 C.ar  1 <1>  -0.1500 
 14 C       -0.9230    -9.2340     0.0840 C.ar  1 <1>  -0.1500 
 15 C       -2.3550    -8.8650    -1.7990 C.ar  1 <1>  -0.1500 
 16 C       -1.7830    -9.7370    -0.8780 C.ar  1 <1>   0.0830 
 17 O       -2.0170   -11.0650    -0.8530 O.3   1 <1>  -0.3630 
 18 C       -2.9550   -11.6710    -1.7310 C.3   1 <1>   0.1810 
 19 C       -3.1250   -13.1560    -1.4260 C.2   1 <1>   0.5690 
 20 O       -2.8150   -13.9290    -2.3040 O.2   1 <1>  -0.5700 
 21 N       -3.6370   -13.5930    -0.2250 N.am  1 <1>  -0.6600 
 22 C       -3.8030   -15.0460     0.0600 C.3   1 <1>   0.1400 
 23 C       -4.0250   -12.7080     0.9110 C.3   1 <1>   0.1400 
 24 C       -5.2580   -15.3360     0.4430 C.3   1 <1>  -0.1600 
 25 C       -5.4820   -12.9750     1.3020 C.3   1 <1>  -0.1600 
 26 C       -5.7210   -14.4590     1.6150 C.3   1 <1>  -0.1600 
 27 H        0.7150     1.8630     0.3150 H     1 <1>   0.1500 
 28 H       -0.9920    -2.9900     0.9540 H     1 <1>   0.0800 
 29 H        0.3970    -3.4880     1.8950 H     1 <1>   0.0800 
 30 H        2.4090     0.8090     2.1410 H     1 <1>   0.1500 
 31 H        1.7460    -3.5980    -0.2020 H     1 <1>   0.0800 
 32 H        0.3170    -3.1850    -1.1170 H     1 <1>   0.0800 
 33 H        0.9950    -5.7650     0.0360 H     1 <1>   0.3700 
 34 H        0.0210    -7.5180     0.8990 H     1 <1>   0.1500 
 35 H       -2.5140    -6.8450    -2.4560 H     1 <1>   0.1500 
 36 H       -0.4830    -9.9120     0.7930 H     1 <1>   0.1500 
 37 H       -3.0240    -9.2140    -2.5640 H     1 <1>   0.1500 
 38 H       -2.5940   -11.5530    -2.7360 H     1 <1>   0.0800 
 39 H       -3.9010   -11.1760    -1.6220 H     1 <1>   0.0800 
 40 H       -3.1490   -15.3200     0.8700 H     1 <1>   0.0800 
 41 H       -3.5340   -15.6380    -0.7980 H     1 <1>   0.0800 
 42 H       -3.9120   -11.6690     0.6600 H     1 <1>   0.0800 
 43 H       -3.3800   -12.9160     1.7480 H     1 <1>   0.0800 
 44 H       -5.3550   -16.3740     0.7070 H     1 <1>   0.0800 
 45 H       -5.8820   -15.1580    -0.4150 H     1 <1>   0.0800 
 46 H       -6.1220   -12.6690     0.4920 H     1 <1>   0.0800 
 47 H       -5.7350   -12.3810     2.1620 H     1 <1>   0.0800 
 48 H       -5.1730   -14.7300     2.5010 H     1 <1>   0.0800 
 49 H       -6.7670   -14.6280     1.8060 H     1 <1>   0.0800 
@<TRIPOS>BOND
  1   1   2  1   
  2   1   3  1   
  3   2   4  2   
  4   2   5  1   
  5   3   6  2   
  6   3  27  1   
  7   4   6  1   
  8   5   7  1   
  9   5  28  1   
 10   5  29  1   
 11   6  30  1   
 12   7   8  1   
 13   7  31  1   
 14   7  32  1   
 15   8   9  am  
 16   8  33  1   
 17   9  10  2   
 18   9  11  1   
 19  11  12  ar  
 20  11  13  ar  
 21  12  14  ar  
 22  12  34  1   
 23  13  15  ar  
 24  13  35  1   
 25  14  16  ar  
 26  14  36  1   
 27  15  16  ar  
 28  15  37  1   
 29  16  17  1   
 30  17  18  1   
 31  18  19  1   
 32  18  38  1   
 33  18  39  1   
 34  19  20  2   
 35  19  21  am  
 36  21  22  1   
 37  21  23  1   
 38  22  24  1   
 39  22  40  1   
 40  22  41  1   
 41  23  25  1   
 42  23  42  1   
 43  23  43  1   
 44  24  26  1   
 45  24  44  1   
 46  24  45  1   
 47  25  26  1   
 48  25  46  1   
 49  25  47  1   
 50  26  48  1   
 51  26  49  1   
@<TRIPOS>SUBSTRUCTURE
  1 ****  12 GROUP 4 **** **** 0

# MOE 2024.06 (io_trps.svl 2023.06)
