@<TRIPOS>MOLECULE
NONAME
51 54 1 0 0 
SMALL
USER_CHARGES


@<TRIPOS>ATOM
  1 O       -1.4270     0.2580    -2.3960 O.2   1 <1>  -0.5700 
  2 C       -1.6900     0.8540    -1.3690 C.2   1 <1>   0.5440 
  3 N       -2.1430     0.1360    -0.2870 N.am  1 <1>  -0.6600 
  4 C       -1.5600     2.2920    -1.3160 C.ar  1 <1>   0.0860 
  5 C       -2.8250     0.7190     0.8970 C.3   1 <1>   0.1400 
  6 C       -2.2870    -1.3400    -0.3050 C.3   1 <1>   0.1400 
  7 C       -0.6830     2.9430    -0.4150 C.ar  1 <1>   0.0000 
  8 C       -2.3060     3.0930    -2.1400 C.ar  1 <1>  -0.1500 
  9 C       -3.6160    -0.4430     1.4960 C.3   1 <1>   0.2000 
 10 C       -2.8670    -1.7010     1.0630 C.3   1 <1>  -0.0800 
 11 C       -0.7010     4.3540    -0.3790 C.ar  1 <1>   0.3100 
 12 C        0.2140     2.2660     0.4410 C.ar  1 <1>  -0.1500 
 13 C       -2.2360     4.4840    -2.0440 C.ar  1 <1>   0.1660 
 14 O       -3.6720    -0.3660     2.8780 O.3   1 <1>  -0.6800 
 15 C       -3.7480    -2.9590     1.0450 C.3   1 <1>   0.0210 
 16 N       -1.4820     5.1040    -1.1930 N.ar  1 <1>  -0.6200 
 17 C        0.1330     5.0180     0.5350 C.ar  1 <1>  -0.1500 
 18 C        1.0190     2.9450     1.3150 C.ar  1 <1>  -0.1500 
 19 C       -3.0800     5.3420    -2.9640 C.3   1 <1>  -0.0970 
 20 C       -2.9830    -4.1500     0.5030 C.2   1 <1>   0.1080 
 21 C        0.9790     4.3410     1.3730 C.ar  1 <1>  -0.1430 
 22 N       -1.8880    -4.5880     1.0430 N.2   1 <1>  -0.7070 
 23 C       -3.3490    -4.8890    -0.6170 C.2   1 <1>  -0.1500 
 24 C        1.8790     5.0690     2.3560 C.3   1 <1>  -0.0970 
 25 N       -1.5230    -5.6310     0.2730 N.pl3 1 <1>   0.3000 
 26 C       -2.3920    -5.8320    -0.7400 C.2   1 <1>  -0.3320 
 27 C       -2.2500    -6.9280    -1.7790 C.3   1 <1>  -0.0600 
 28 H       -2.0860     1.0740     1.5930 H     1 <1>   0.0800 
 29 H       -3.4810     1.5210     0.6060 H     1 <1>   0.0800 
 30 H       -2.9600    -1.6170    -1.0990 H     1 <1>   0.0800 
 31 H       -1.3340    -1.8160    -0.4660 H     1 <1>   0.0800 
 32 H       -2.9600     2.6440    -2.8660 H     1 <1>   0.1500 
 33 H       -4.6220    -0.4310     1.1130 H     1 <1>   0.0800 
 34 H       -2.0330    -1.8680     1.7220 H     1 <1>   0.0800 
 35 H        0.2670     1.1920     0.4020 H     1 <1>   0.1500 
 36 H       -2.7890    -0.5310     3.2610 H     1 <1>   0.4000 
 37 H       -4.6210    -2.7910     0.4400 H     1 <1>   0.0800 
 38 H       -4.0720    -3.1840     2.0450 H     1 <1>   0.0800 
 39 H        0.0830     6.0910     0.5460 H     1 <1>   0.1500 
 40 H        1.6940     2.4110     1.9630 H     1 <1>   0.1500 
 41 H       -3.6410     4.7410    -3.6550 H     1 <1>   0.0800 
 42 H       -2.4420     6.0050    -3.5190 H     1 <1>   0.0800 
 43 H       -3.7620     5.9310    -2.3780 H     1 <1>   0.0800 
 44 H       -4.2130    -4.7220    -1.2350 H     1 <1>   0.1500 
 45 H        1.6530     4.7580     3.3600 H     1 <1>   0.0800 
 46 H        1.7390     6.1330     2.2870 H     1 <1>   0.0800 
 47 H        2.9090     4.8450     2.1440 H     1 <1>   0.0800 
 48 H       -0.6780    -6.1820     0.4650 H     1 <1>   0.2700 
 49 H       -3.0660    -6.8810    -2.4790 H     1 <1>   0.0800 
 50 H       -2.2610    -7.8940    -1.3050 H     1 <1>   0.0800 
 51 H       -1.3280    -6.8120    -2.3200 H     1 <1>   0.0800 
@<TRIPOS>BOND
  1   1   2  2   
  2   2   3  am  
  3   2   4  1   
  4   3   5  1   
  5   3   6  1   
  6   4   7  ar  
  7   4   8  ar  
  8   5   9  1   
  9   5  28  1   
 10   5  29  1   
 11   6  10  1   
 12   6  30  1   
 13   6  31  1   
 14   7  11  ar  
 15   7  12  ar  
 16   8  13  ar  
 17   8  32  1   
 18   9  10  1   
 19   9  14  1   
 20   9  33  1   
 21  10  15  1   
 22  10  34  1   
 23  11  16  ar  
 24  11  17  ar  
 25  12  18  ar  
 26  12  35  1   
 27  13  16  ar  
 28  13  19  1   
 29  14  36  1   
 30  15  20  1   
 31  15  37  1   
 32  15  38  1   
 33  17  21  ar  
 34  17  39  1   
 35  18  21  ar  
 36  18  40  1   
 37  19  41  1   
 38  19  42  1   
 39  19  43  1   
 40  20  22  2   
 41  20  23  1   
 42  21  24  1   
 43  22  25  1   
 44  23  26  2   
 45  23  44  1   
 46  24  45  1   
 47  24  46  1   
 48  24  47  1   
 49  25  26  1   
 50  25  48  1   
 51  26  27  1   
 52  27  49  1   
 53  27  50  1   
 54  27  51  1   
@<TRIPOS>SUBSTRUCTURE
  1 ****   3 GROUP 4 **** **** 0

# MOE 2024.06 (io_trps.svl 2023.06)
