@<TRIPOS>MOLECULE
NONAME
47 50 1 0 0 
SMALL
USER_CHARGES


@<TRIPOS>ATOM
  1 O        0.7540    -0.4160    -1.0890 O.3   1 <1>  -0.5600 
  2 C        1.8000    -1.0510    -0.3890 C.3   1 <1>   0.4240 
  3 C       -0.5530    -0.7080    -0.7120 C.3   1 <1>   0.1200 
  4 C        1.4590    -2.5280    -0.0470 C.ar  1 <1>  -0.1440 
  5 C        2.0720    -0.1930     0.8630 C.3   1 <1>  -0.1600 
  6 C        2.9830    -0.9700    -1.3690 C.3   1 <1>  -0.1600 
  7 C       -0.8290    -2.1650    -1.0520 C.3   1 <1>  -0.0160 
  8 C        2.3720    -3.3750     0.5960 C.ar  1 <1>   0.0820 
  9 C        0.2070    -3.0430    -0.3820 C.ar  1 <1>  -0.1440 
 10 C        2.4810     1.2340     0.4970 C.3   1 <1>   0.2090 
 11 C        3.3550     0.4790    -1.6780 C.3   1 <1>   0.2090 
 12 O        3.5900    -2.8870     0.9560 O.3   1 <1>  -0.3630 
 13 C        2.0280    -4.7000     0.8630 C.ar  1 <1>  -0.1500 
 14 C       -0.1220    -4.3600    -0.1100 C.ar  1 <1>  -0.1500 
 15 N        3.6860     1.1750    -0.3960 N.pl3 1 <1>  -0.8380 
 16 C        4.4420    -3.5820     1.8430 C.3   1 <1>   0.0400 
 17 C        0.7880    -5.1900     0.5100 C.ar  1 <1>  -0.1500 
 18 C        4.8900     1.6760    -0.0130 C.ar  1 <1>   0.7710 
 19 N        4.9860     2.3880     1.1040 N.ar  1 <1>  -0.6200 
 20 N        5.9680     1.4260    -0.7810 N.ar  1 <1>  -0.1790 
 21 C        6.1630     2.8570     1.4370 C.ar  1 <1>   0.4100 
 22 C        7.2000     1.8970    -0.4630 C.ar  1 <1>   0.2110 
 23 N        6.2130     3.5700     2.5630 N.pl3 1 <1>  -0.9000 
 24 C        7.3150     2.6320     0.6680 C.ar  1 <1>  -0.1500 
 25 H       -1.2110    -0.0600    -1.2640 H     1 <1>   0.0800 
 26 H       -0.6730    -0.5240     0.3410 H     1 <1>   0.0800 
 27 H        2.8630    -0.6190     1.4470 H     1 <1>   0.0800 
 28 H        1.2020    -0.1770     1.4910 H     1 <1>   0.0800 
 29 H        2.7110    -1.4810    -2.2750 H     1 <1>   0.0800 
 30 H        3.8460    -1.4650    -0.9730 H     1 <1>   0.0800 
 31 H       -0.7910    -2.3010    -2.1180 H     1 <1>   0.0800 
 32 H       -1.8160    -2.4240    -0.7120 H     1 <1>   0.0800 
 33 H        2.6690     1.7880     1.4000 H     1 <1>   0.0800 
 34 H        1.6740     1.7270    -0.0210 H     1 <1>   0.0800 
 35 H        2.5190     0.9770    -2.1460 H     1 <1>   0.0800 
 36 H        4.1690     0.5040    -2.3780 H     1 <1>   0.0800 
 37 H        2.7120    -5.3730     1.3420 H     1 <1>   0.1500 
 38 H       -1.0900    -4.7470    -0.3810 H     1 <1>   0.1500 
 39 H        5.2750    -2.9440     2.0780 H     1 <1>   0.0800 
 40 H        4.7930    -4.4770     1.3620 H     1 <1>   0.0800 
 41 H        3.8970    -3.8150     2.7410 H     1 <1>   0.0800 
 42 H        0.5300    -6.2140     0.7180 H     1 <1>   0.1500 
 43 H        5.7920     0.8450    -1.5910 H     1 <1>   0.4570 
 44 H        8.0350     1.6750    -1.1080 H     1 <1>   0.1500 
 45 H        7.0490     4.0070     2.9560 H     1 <1>   0.4000 
 46 H        5.3570     3.7250     3.1040 H     1 <1>   0.4000 
 47 H        8.2510     3.0460     0.9970 H     1 <1>   0.1500 
@<TRIPOS>BOND
  1   1   2  1   
  2   1   3  1   
  3   2   4  1   
  4   2   5  1   
  5   2   6  1   
  6   3   7  1   
  7   3  25  1   
  8   3  26  1   
  9   4   8  ar  
 10   4   9  ar  
 11   5  10  1   
 12   5  27  1   
 13   5  28  1   
 14   6  11  1   
 15   6  29  1   
 16   6  30  1   
 17   7   9  1   
 18   7  31  1   
 19   7  32  1   
 20   8  12  1   
 21   8  13  ar  
 22   9  14  ar  
 23  10  15  1   
 24  10  33  1   
 25  10  34  1   
 26  11  15  1   
 27  11  35  1   
 28  11  36  1   
 29  12  16  1   
 30  13  17  ar  
 31  13  37  1   
 32  14  17  ar  
 33  14  38  1   
 34  15  18  1   
 35  16  39  1   
 36  16  40  1   
 37  16  41  1   
 38  17  42  1   
 39  18  19  ar  
 40  18  20  ar  
 41  19  21  ar  
 42  20  22  ar  
 43  20  43  1   
 44  21  23  1   
 45  21  24  ar  
 46  22  24  ar  
 47  22  44  1   
 48  23  45  1   
 49  23  46  1   
 50  24  47  1   
@<TRIPOS>SUBSTRUCTURE
  1 ****   5 GROUP 4 **** **** 0

# MOE 2024.06 (io_trps.svl 2023.06)
