@<TRIPOS>MOLECULE
NONAME
42 44 1 0 0 
SMALL
USER_CHARGES


@<TRIPOS>ATOM
  1 O       -0.3890     0.2460     0.2980 O.2   1 <1>  -0.5700 
  2 C       -1.4440     0.8520     0.3160 C.2   1 <1>   0.7160 
  3 N       -2.6150     0.1290     0.2860 N.am  1 <1>  -0.6600 
  4 C       -1.4550     2.2970     0.3490 C.2   1 <1>  -0.0860 
  5 C       -3.9100     0.6630    -0.2050 C.3   1 <1>   0.1400 
  6 C       -2.6220    -1.3550     0.2670 C.3   1 <1>   0.1400 
  7 C       -0.6460     3.1890    -0.2900 C.2   1 <1>  -0.0400 
  8 C       -2.3390     3.1130     1.0900 C.2   1 <1>  -0.1500 
  9 C       -4.6330    -0.5490    -0.7900 C.3   1 <1>   0.2000 
 10 C       -4.0670    -1.7520    -0.0410 C.3   1 <1>  -0.0800 
 11 O       -0.9830     4.4230    -0.0060 O.3   1 <1>  -0.2800 
 12 C        0.5210     2.9720    -1.2320 C.3   1 <1>  -0.0600 
 13 C       -1.9990     4.3890     0.8260 C.2   1 <1>  -0.0400 
 14 O       -6.0030    -0.4690    -0.6050 O.3   1 <1>  -0.6800 
 15 C       -4.1890    -3.0640    -0.8310 C.3   1 <1>   0.0200 
 16 C       -2.5740     5.6980     1.3210 C.3   1 <1>  -0.0600 
 17 C       -3.5400    -4.2110    -0.0800 C.2   1 <1>  -0.0400 
 18 O       -3.9930    -4.5620     1.0940 O.3   1 <1>  -0.0190 
 19 C       -2.5070    -5.0110    -0.3800 C.2   1 <1>  -0.1500 
 20 N       -3.3140    -5.5520     1.5980 N.2   1 <1>  -0.4100 
 21 C       -2.4130    -5.8440     0.7310 C.2   1 <1>   0.1080 
 22 C       -1.3910    -6.9460     0.9050 C.3   1 <1>  -0.0590 
 23 H       -4.4610     1.0690     0.6250 H     1 <1>   0.0800 
 24 H       -3.7560     1.4180    -0.9570 H     1 <1>   0.0800 
 25 H       -1.9540    -1.7000    -0.5040 H     1 <1>   0.0800 
 26 H       -2.2990    -1.7490     1.2170 H     1 <1>   0.0800 
 27 H       -3.1140     2.7490     1.7380 H     1 <1>   0.1500 
 28 H       -4.4350    -0.6130    -1.8470 H     1 <1>   0.0800 
 29 H       -4.5730    -1.8570     0.9030 H     1 <1>   0.0800 
 30 H        0.6840     1.9240    -1.4050 H     1 <1>   0.0800 
 31 H        1.4110     3.3940    -0.8030 H     1 <1>   0.0800 
 32 H        0.3230     3.4540    -2.1710 H     1 <1>   0.0800 
 33 H       -6.2240    -0.5000     0.3470 H     1 <1>   0.4000 
 34 H       -3.7190    -2.9610    -1.7920 H     1 <1>   0.0800 
 35 H       -5.2280    -3.2930    -0.9900 H     1 <1>   0.0800 
 36 H       -3.3920     5.5160     1.9930 H     1 <1>   0.0800 
 37 H       -2.9250     6.2770     0.4860 H     1 <1>   0.0800 
 38 H       -1.8120     6.2540     1.8360 H     1 <1>   0.0800 
 39 H       -1.8780    -5.0330    -1.2510 H     1 <1>   0.1500 
 40 H       -1.4830    -7.6580     0.1060 H     1 <1>   0.0800 
 41 H       -1.5510    -7.4500     1.8410 H     1 <1>   0.0800 
 42 H       -0.4010    -6.5290     0.8990 H     1 <1>   0.0800 
@<TRIPOS>BOND
  1   1   2  2   
  2   2   3  am  
  3   2   4  1   
  4   3   5  1   
  5   3   6  1   
  6   4   7  2   
  7   4   8  1   
  8   5   9  1   
  9   5  23  1   
 10   5  24  1   
 11   6  10  1   
 12   6  25  1   
 13   6  26  1   
 14   7  11  1   
 15   7  12  1   
 16   8  13  2   
 17   8  27  1   
 18   9  10  1   
 19   9  14  1   
 20   9  28  1   
 21  10  15  1   
 22  10  29  1   
 23  11  13  1   
 24  12  30  1   
 25  12  31  1   
 26  12  32  1   
 27  13  16  1   
 28  14  33  1   
 29  15  17  1   
 30  15  34  1   
 31  15  35  1   
 32  16  36  1   
 33  16  37  1   
 34  16  38  1   
 35  17  18  1   
 36  17  19  2   
 37  18  20  1   
 38  19  21  1   
 39  19  39  1   
 40  20  21  2   
 41  21  22  1   
 42  22  40  1   
 43  22  41  1   
 44  22  42  1   
@<TRIPOS>SUBSTRUCTURE
  1 ****   3 GROUP 4 **** **** 0

# MOE 2024.06 (io_trps.svl 2023.06)
