@<TRIPOS>MOLECULE
NONAME
55 57 1 0 0 
SMALL
USER_CHARGES


@<TRIPOS>ATOM
  1 O       -1.4020     0.0510     0.3380 O.2   1 <1>  -0.5700 
  2 C       -2.0810     0.8880    -0.2340 C.2   1 <1>   0.5440 
  3 N       -3.2980     0.4780    -0.7320 N.am  1 <1>  -0.6600 
  4 C       -1.6300     2.2520    -0.3360 C.ar  1 <1>   0.0860 
  5 C       -3.5230    -0.9550    -1.0070 C.3   1 <1>   0.1400 
  6 C       -4.5590     1.1510    -0.3200 C.3   1 <1>   0.1400 
  7 C       -2.0880     3.1270    -1.3050 C.ar  1 <1>   0.1600 
  8 C       -0.6970     2.7860     0.5360 C.ar  1 <1>   0.1600 
  9 C       -4.1250    -1.5180     0.2940 C.3   1 <1>   0.4230 
 10 C       -5.2690     0.3440     0.7990 C.3   1 <1>  -0.1600 
 11 N       -1.7050     4.3770    -1.3890 N.ar  1 <1>  -0.6200 
 12 N       -0.2890     4.0300     0.4810 N.ar  1 <1>  -0.6200 
 13 N       -3.6430    -2.8990     0.6680 N.4   1 <1>  -0.9590 
 14 C       -5.6870    -1.1670     0.3690 C.3   1 <1>   0.0000 
 15 C       -0.8210     4.7740    -0.4840 C.ar  1 <1>   0.7200 
 16 C       -3.9150    -3.8950    -0.3820 C.3   1 <1>   0.3430 
 17 C       -2.1910    -2.8720     1.0460 C.3   1 <1>   0.2630 
 18 C       -6.1460    -2.6380    -0.1290 C.3   1 <1>  -0.1600 
 19 C       -7.2330    -0.7790     0.5260 C.3   1 <1>   0.1200 
 20 N       -0.4540     6.0620    -0.5910 N.pl3 1 <1>  -0.8690 
 21 C       -5.2610    -3.5650    -1.0010 C.3   1 <1>  -0.1600 
 22 O       -7.6430    -0.0720    -0.6020 O.3   1 <1>  -0.6800 
 23 C        0.5310     6.7870     0.2110 C.3   1 <1>   0.2890 
 24 C       -0.1700     7.9810     0.8460 C.3   1 <1>  -0.2400 
 25 C        1.6550     7.2320    -0.7170 C.3   1 <1>  -0.2400 
 26 H       -4.2050    -1.0540    -1.8320 H     1 <1>   0.0800 
 27 H       -2.5910    -1.4290    -1.2580 H     1 <1>   0.0800 
 28 H       -4.3500     2.1470     0.0350 H     1 <1>   0.0800 
 29 H       -5.2120     1.2360    -1.1740 H     1 <1>   0.0800 
 30 H       -2.7960     2.7770    -2.0360 H     1 <1>   0.1500 
 31 H       -0.2800     2.1570     1.3040 H     1 <1>   0.1500 
 32 H       -3.6250    -0.9380     1.0480 H     1 <1>   0.0800 
 33 H       -4.6740     0.3630     1.6990 H     1 <1>   0.0800 
 34 H       -6.0460     1.0410     1.0700 H     1 <1>   0.0800 
 35 H       -4.1870    -3.1690     1.4970 H     1 <1>   0.4500 
 36 H       -3.1500    -3.8670    -1.1420 H     1 <1>   0.0800 
 37 H       -3.9360    -4.8840     0.0500 H     1 <1>   0.0800 
 38 H       -1.5850    -2.5870     0.2020 H     1 <1>   0.0800 
 39 H       -1.8720    -3.8430     1.3910 H     1 <1>   0.0800 
 40 H       -2.0220    -2.1540     1.8330 H     1 <1>   0.0800 
 41 H       -6.4410    -3.2090     0.7370 H     1 <1>   0.0800 
 42 H       -7.0100    -2.5910    -0.7800 H     1 <1>   0.0800 
 43 H       -7.4600    -0.1960     1.4040 H     1 <1>   0.0800 
 44 H       -7.9340    -1.5920     0.6540 H     1 <1>   0.0800 
 45 H       -0.8760     6.5680    -1.3660 H     1 <1>   0.4000 
 46 H       -5.1040    -3.1140    -1.9660 H     1 <1>   0.0800 
 47 H       -5.7820    -4.4880    -1.1870 H     1 <1>   0.0800 
 48 H       -8.5970     0.1500    -0.5540 H     1 <1>   0.4000 
 49 H        0.9320     6.1520     0.9840 H     1 <1>   0.0800 
 50 H       -0.5750     8.6310     0.0910 H     1 <1>   0.0800 
 51 H        0.5270     8.5380     1.4450 H     1 <1>   0.0800 
 52 H       -0.9640     7.6370     1.4830 H     1 <1>   0.0800 
 53 H        1.2780     7.8700    -1.4950 H     1 <1>   0.0800 
 54 H        2.1210     6.3690    -1.1590 H     1 <1>   0.0800 
 55 H        2.3990     7.7690    -0.1580 H     1 <1>   0.0800 
@<TRIPOS>BOND
  1   1   2  2   
  2   2   3  am  
  3   2   4  1   
  4   3   5  1   
  5   3   6  1   
  6   4   7  ar  
  7   4   8  ar  
  8   5   9  1   
  9   5  26  1   
 10   5  27  1   
 11   6  10  1   
 12   6  28  1   
 13   6  29  1   
 14   7  11  ar  
 15   7  30  1   
 16   8  12  ar  
 17   8  31  1   
 18   9  13  1   
 19   9  14  1   
 20   9  32  1   
 21  10  14  1   
 22  10  33  1   
 23  10  34  1   
 24  11  15  ar  
 25  12  15  ar  
 26  13  16  1   
 27  13  17  1   
 28  13  35  1   
 29  14  18  1   
 30  14  19  1   
 31  15  20  1   
 32  16  21  1   
 33  16  36  1   
 34  16  37  1   
 35  17  38  1   
 36  17  39  1   
 37  17  40  1   
 38  18  21  1   
 39  18  41  1   
 40  18  42  1   
 41  19  22  1   
 42  19  43  1   
 43  19  44  1   
 44  20  23  1   
 45  20  45  1   
 46  21  46  1   
 47  21  47  1   
 48  22  48  1   
 49  23  24  1   
 50  23  25  1   
 51  23  49  1   
 52  24  50  1   
 53  24  51  1   
 54  24  52  1   
 55  25  53  1   
 56  25  54  1   
 57  25  55  1   
@<TRIPOS>SUBSTRUCTURE
  1 ****   2 GROUP 4 **** **** 0

# MOE 2024.06 (io_trps.svl 2023.06)
