@<TRIPOS>MOLECULE
NONAME
52 55 1 0 0 
SMALL
USER_CHARGES


@<TRIPOS>ATOM
  1 O        2.2040     0.1640     1.6950 O.co2 1 <1>  -0.9000 
  2 C        2.4080     0.2620     0.4800 C.2   1 <1>   0.9060 
  3 O        2.7440    -0.7290    -0.1880 O.co2 1 <1>  -0.9000 
  4 C        2.2750     1.6180    -0.2410 C.3   1 <1>  -0.1060 
  5 C        3.5500     1.8570    -1.0900 C.3   1 <1>   0.2000 
  6 C        2.1650     2.8060     0.7620 C.3   1 <1>  -0.1600 
  7 C        1.0400     1.5840    -1.1810 C.3   1 <1>  -0.0160 
  8 O        3.7470     0.8190    -1.9850 O.3   1 <1>  -0.6800 
  9 C        4.8000     2.0070    -0.2130 C.3   1 <1>   0.1400 
 10 C        3.4380     3.0080     1.6010 C.3   1 <1>   0.1400 
 11 C       -0.3100     1.7560    -0.4880 C.ar  1 <1>  -0.1440 
 12 N        4.6130     3.1730     0.6990 N.am  1 <1>  -0.6600 
 13 C       -1.0490     2.9160    -0.6690 C.ar  1 <1>  -0.1500 
 14 C       -0.8170     0.7540     0.3260 C.ar  1 <1>  -0.1500 
 15 C        5.3850     4.3090     0.7030 C.2   1 <1>   0.6300 
 16 C       -2.2770     3.0720    -0.0470 C.ar  1 <1>  -0.1500 
 17 C       -2.0430     0.9080     0.9500 C.ar  1 <1>  -0.1500 
 18 O        5.1930     5.2070     1.4940 O.2   1 <1>  -0.5700 
 19 C        6.5150     4.5040    -0.3200 C.3   1 <1>   0.0320 
 20 C       -2.7750     2.0670     0.7630 C.ar  1 <1>  -0.1500 
 21 C        7.8430     3.9160     0.1450 C.ar  1 <1>  -0.0320 
 22 C        6.1990     4.6090    -1.7910 C.3   1 <1>  -0.2000 
 23 C        6.6030     5.8280    -1.0330 C.3   1 <1>  -0.2000 
 24 C        8.4020     2.8050    -0.4700 C.ar  1 <1>  -0.1500 
 25 C        8.5090     4.5050     1.2080 C.ar  1 <1>  -0.1500 
 26 C        9.6120     2.2950    -0.0310 C.ar  1 <1>  -0.1500 
 27 C        9.7200     3.9980     1.6490 C.ar  1 <1>  -0.1500 
 28 C       10.2730     2.8920     1.0280 C.ar  1 <1>  -0.1500 
 29 H        3.4410     2.7520    -1.6750 H     1 <1>   0.0800 
 30 H        1.3470     2.6300     1.4390 H     1 <1>   0.0800 
 31 H        1.9560     3.7180     0.2330 H     1 <1>   0.0800 
 32 H        1.1430     2.3590    -1.9190 H     1 <1>   0.0800 
 33 H        1.0300     0.6510    -1.7190 H     1 <1>   0.0800 
 34 H        3.4690    -0.0140    -1.4910 H     1 <1>   0.4000 
 35 H        5.6580     2.1370    -0.8410 H     1 <1>   0.0800 
 36 H        4.9440     1.1180     0.3780 H     1 <1>   0.0800 
 37 H        3.5990     2.1560     2.2390 H     1 <1>   0.0800 
 38 H        3.3180     3.8710     2.2330 H     1 <1>   0.0800 
 39 H       -0.6700     3.7030    -1.2950 H     1 <1>   0.1500 
 40 H       -0.2510    -0.1500     0.4840 H     1 <1>   0.1500 
 41 H       -2.8420     3.9750    -0.1930 H     1 <1>   0.1500 
 42 H       -2.4160     0.1230     1.5820 H     1 <1>   0.1500 
 43 H       -3.7260     2.1860     1.2490 H     1 <1>   0.1500 
 44 H        6.8890     4.2030    -2.5100 H     1 <1>   0.1000 
 45 H        5.1740     4.5140    -2.1040 H     1 <1>   0.1000 
 46 H        5.8620     6.5750    -0.8060 H     1 <1>   0.1000 
 47 H        7.5770     6.2510    -1.2050 H     1 <1>   0.1000 
 48 H        7.8990     2.3320    -1.2940 H     1 <1>   0.1500 
 49 H        8.0770     5.3620     1.6960 H     1 <1>   0.1500 
 50 H       10.0380     1.4320    -0.5140 H     1 <1>   0.1500 
 51 H       10.2280     4.4650     2.4750 H     1 <1>   0.1500 
 52 H       11.2140     2.4970     1.3690 H     1 <1>   0.1500 
@<TRIPOS>BOND
  1   1   2  ar  
  2   2   3  ar  
  3   2   4  1   
  4   4   5  1   
  5   4   6  1   
  6   4   7  1   
  7   5   8  1   
  8   5   9  1   
  9   5  29  1   
 10   6  10  1   
 11   6  30  1   
 12   6  31  1   
 13   7  11  1   
 14   7  32  1   
 15   7  33  1   
 16   8  34  1   
 17   9  12  1   
 18   9  35  1   
 19   9  36  1   
 20  10  12  1   
 21  10  37  1   
 22  10  38  1   
 23  11  13  ar  
 24  11  14  ar  
 25  12  15  am  
 26  13  16  ar  
 27  13  39  1   
 28  14  17  ar  
 29  14  40  1   
 30  15  18  2   
 31  15  19  1   
 32  16  20  ar  
 33  16  41  1   
 34  17  20  ar  
 35  17  42  1   
 36  19  21  1   
 37  19  22  1   
 38  19  23  1   
 39  20  43  1   
 40  21  24  ar  
 41  21  25  ar  
 42  22  23  1   
 43  22  44  1   
 44  22  45  1   
 45  23  46  1   
 46  23  47  1   
 47  24  26  ar  
 48  24  48  1   
 49  25  27  ar  
 50  25  49  1   
 51  26  28  ar  
 52  26  50  1   
 53  27  28  ar  
 54  27  51  1   
 55  28  52  1   
@<TRIPOS>SUBSTRUCTURE
  1 ****  12 GROUP 4 **** **** 0

# MOE 2024.06 (io_trps.svl 2023.06)
