@<TRIPOS>MOLECULE
NONAME
54 57 1 0 0 
SMALL
USER_CHARGES


@<TRIPOS>ATOM
  1 O        0.8640    -1.2000    -3.6150 O.2   1 <1>  -0.5700 
  2 C        0.8050    -1.9800    -2.6980 C.2   1 <1>   0.5690 
  3 N        1.1470    -1.5850    -1.4280 N.am  1 <1>  -0.6600 
  4 C        0.3460    -3.3850    -3.0590 C.3   1 <1>  -0.0990 
  5 C        1.0820    -2.4660    -0.2170 C.3   1 <1>   0.1400 
  6 C        1.3790    -0.1150    -1.1590 C.3   1 <1>   0.3200 
  7 C       -0.2010    -4.2520    -1.9230 C.3   1 <1>   0.1200 
  8 C        1.6830    -3.8920    -0.4080 C.3   1 <1>   0.2800 
  9 C        2.5580     0.1540    -0.2270 C.2   1 <1>   0.2980 
 10 O        0.8120    -4.7450    -1.0890 O.3   1 <1>  -0.5600 
 11 C        3.0220    -3.9370    -1.1620 C.3   1 <1>  -0.1600 
 12 C        1.9140    -4.5510     0.9590 C.3   1 <1>  -0.1600 
 13 O        3.7790     0.0140    -0.6820 O.3   1 <1>  -0.0190 
 14 N        2.4740     0.4780     1.0030 N.2   1 <1>  -0.5650 
 15 C        4.0990    -3.1790    -0.4110 C.3   1 <1>   0.3430 
 16 C        3.0150    -3.8510     1.7640 C.3   1 <1>   0.3430 
 17 N        4.5310     0.2580     0.3510 N.2   1 <1>  -0.4100 
 18 C        3.7550     0.5690     1.3110 C.2   1 <1>   0.3350 
 19 N        4.2640    -3.7200     0.9640 N.4   1 <1>  -0.9590 
 20 C        4.1890     1.0060     2.6910 C.3   1 <1>  -0.0590 
 21 C        5.3260    -2.9520     1.6670 C.3   1 <1>   0.5230 
 22 C        6.6520    -3.3620     1.0540 C.2   1 <1>   0.0060 
 23 N        6.8960    -4.5870     0.7040 N.2   1 <1>  -0.5650 
 24 N        7.6700    -2.5030     0.7950 N.pl3 1 <1>   0.0480 
 25 C        8.1410    -4.5320     0.1970 C.2   1 <1>   0.0770 
 26 C        8.6230    -3.2720     0.2430 C.2   1 <1>  -0.3020 
 27 C        7.7620    -1.0440     1.0050 C.3   1 <1>   0.0160 
 28 H        1.1390    -3.9050    -3.5620 H     1 <1>   0.0800 
 29 H       -0.4450    -3.2710    -3.7770 H     1 <1>   0.0800 
 30 H        0.0640    -2.5380     0.1220 H     1 <1>   0.0800 
 31 H        1.6140    -1.9880     0.5800 H     1 <1>   0.0800 
 32 H        0.4900     0.2940    -0.7120 H     1 <1>   0.0800 
 33 H        1.5520     0.4230    -2.0750 H     1 <1>   0.0800 
 34 H       -0.6870    -5.1140    -2.3480 H     1 <1>   0.0800 
 35 H       -0.9340    -3.7260    -1.3370 H     1 <1>   0.0800 
 36 H        2.9390    -3.5020    -2.1380 H     1 <1>   0.0800 
 37 H        3.3370    -4.9570    -1.2920 H     1 <1>   0.0800 
 38 H        2.1910    -5.5820     0.8210 H     1 <1>   0.0800 
 39 H        1.0010    -4.5340     1.5270 H     1 <1>   0.0800 
 40 H        3.8220    -2.1450    -0.3580 H     1 <1>   0.0800 
 41 H        5.0320    -3.2530    -0.9500 H     1 <1>   0.0800 
 42 H        3.2130    -4.4160     2.6610 H     1 <1>   0.0800 
 43 H        2.6730    -2.8720     2.0570 H     1 <1>   0.0800 
 44 H        4.7100    -4.6510     0.8460 H     1 <1>   0.4500 
 45 H        3.8060     1.9910     2.8870 H     1 <1>   0.0800 
 46 H        5.2610     1.0340     2.7560 H     1 <1>   0.0800 
 47 H        3.8020     0.3310     3.4300 H     1 <1>   0.0800 
 48 H        5.3380    -3.2020     2.7150 H     1 <1>   0.0800 
 49 H        5.1640    -1.8930     1.5550 H     1 <1>   0.0800 
 50 H        8.6360    -5.4140    -0.1810 H     1 <1>   0.1500 
 51 H        9.5770    -2.8970    -0.0840 H     1 <1>   0.1500 
 52 H        7.3240    -0.7790     1.9490 H     1 <1>   0.0800 
 53 H        7.2510    -0.5340     0.2080 H     1 <1>   0.0800 
 54 H        8.7960    -0.7480     1.0040 H     1 <1>   0.0800 
@<TRIPOS>BOND
  1   1   2  2   
  2   2   3  am  
  3   2   4  1   
  4   3   5  1   
  5   3   6  1   
  6   4   7  1   
  7   4  28  1   
  8   4  29  1   
  9   5   8  1   
 10   5  30  1   
 11   5  31  1   
 12   6   9  1   
 13   6  32  1   
 14   6  33  1   
 15   7  10  1   
 16   7  34  1   
 17   7  35  1   
 18   8  10  1   
 19   8  11  1   
 20   8  12  1   
 21   9  13  1   
 22   9  14  2   
 23  11  15  1   
 24  11  36  1   
 25  11  37  1   
 26  12  16  1   
 27  12  38  1   
 28  12  39  1   
 29  13  17  1   
 30  14  18  1   
 31  15  19  1   
 32  15  40  1   
 33  15  41  1   
 34  16  19  1   
 35  16  42  1   
 36  16  43  1   
 37  17  18  2   
 38  18  20  1   
 39  19  21  1   
 40  19  44  1   
 41  20  45  1   
 42  20  46  1   
 43  20  47  1   
 44  21  22  1   
 45  21  48  1   
 46  21  49  1   
 47  22  23  2   
 48  22  24  1   
 49  23  25  1   
 50  24  26  1   
 51  24  27  1   
 52  25  26  2   
 53  25  50  1   
 54  26  51  1   
 55  27  52  1   
 56  27  53  1   
 57  27  54  1   
@<TRIPOS>SUBSTRUCTURE
  1 ****  15 GROUP 4 **** **** 0

# MOE 2024.06 (io_trps.svl 2023.06)
