@<TRIPOS>MOLECULE
NONAME
45 47 1 0 0 
SMALL
USER_CHARGES


@<TRIPOS>ATOM
  1 N       -0.4870    -0.1860     0.2960 N.ar  1 <1>  -0.6200 
  2 C        0.6880     0.3810     0.1710 C.ar  1 <1>   0.7710 
  3 C       -1.5510     0.5920     0.2910 C.ar  1 <1>   0.4100 
  4 N        0.8540     1.7070     0.0440 N.ar  1 <1>  -0.1790 
  5 N        1.7380    -0.4340     0.1730 N.pl3 1 <1>  -0.9000 
  6 N       -2.7510    -0.0160     0.4080 N.pl3 1 <1>  -0.8690 
  7 C       -1.4590     2.0010     0.1600 C.ar  1 <1>  -0.1430 
  8 C       -0.2160     2.5390     0.0370 C.ar  1 <1>   0.2110 
  9 C       -2.9850    -1.4740     0.6210 C.3   1 <1>   0.2090 
 10 C       -2.7420     2.8410     0.1660 C.3   1 <1>  -0.0170 
 11 C       -3.0860    -2.1940    -0.7180 C.3   1 <1>  -0.0170 
 12 C       -2.5320     4.3550     0.0370 C.3   1 <1>  -0.2400 
 13 C       -3.3080    -3.6680    -0.4710 C.ar  1 <1>   0.4770 
 14 N       -2.2270    -4.4370    -0.5040 N.ar  1 <1>  -0.6200 
 15 N       -4.5610    -4.0280    -0.2330 N.ar  1 <1>  -0.6200 
 16 C       -2.4220    -5.7210    -0.2830 C.ar  1 <1>   0.1670 
 17 C       -4.7140    -5.3120    -0.0190 C.ar  1 <1>   0.1670 
 18 C       -3.6860    -6.2060    -0.0320 C.ar  1 <1>  -0.1430 
 19 C       -1.1970    -6.6100    -0.3190 C.3   1 <1>  -0.0970 
 20 C       -6.0340    -5.9740     0.2700 C.3   1 <1>  -0.0170 
 21 C       -4.1760    -7.6080     0.2520 C.3   1 <1>  -0.0170 
 22 C       -5.7100    -7.4790     0.1990 C.3   1 <1>  -0.1600 
 23 H        1.8060     2.0450    -0.0450 H     1 <1>   0.4570 
 24 H        2.7310    -0.2160     0.0870 H     1 <1>   0.4000 
 25 H        1.5420    -1.4370     0.2660 H     1 <1>   0.4000 
 26 H       -3.6150     0.5310     0.3550 H     1 <1>   0.4000 
 27 H       -0.0340     3.5960    -0.0680 H     1 <1>   0.1500 
 28 H       -3.8950    -1.6140     1.1800 H     1 <1>   0.0800 
 29 H       -2.1770    -1.8980     1.1950 H     1 <1>   0.0800 
 30 H       -3.2750     2.6520     1.0830 H     1 <1>   0.0800 
 31 H       -3.3720     2.5180    -0.6470 H     1 <1>   0.0800 
 32 H       -2.1780    -2.0580    -1.2760 H     1 <1>   0.0800 
 33 H       -3.9090    -1.8030    -1.2870 H     1 <1>   0.0800 
 34 H       -1.9480     4.7350     0.8570 H     1 <1>   0.0800 
 35 H       -3.4870     4.8530     0.0550 H     1 <1>   0.0800 
 36 H       -2.0510     4.6000    -0.8940 H     1 <1>   0.0800 
 37 H       -0.4840    -6.2650     0.4060 H     1 <1>   0.0800 
 38 H       -0.7500    -6.5610    -1.2950 H     1 <1>   0.0800 
 39 H       -1.4440    -7.6320    -0.1020 H     1 <1>   0.0800 
 40 H       -6.7720    -5.6910    -0.4600 H     1 <1>   0.0800 
 41 H       -6.3640    -5.6920     1.2530 H     1 <1>   0.0800 
 42 H       -3.8530    -7.9120     1.2320 H     1 <1>   0.0800 
 43 H       -3.8190    -8.3070    -0.4850 H     1 <1>   0.0800 
 44 H       -6.0610    -7.8660    -0.7420 H     1 <1>   0.0800 
 45 H       -6.1820    -8.0230     0.9980 H     1 <1>   0.0800 
@<TRIPOS>BOND
  1   1   2  ar  
  2   1   3  ar  
  3   2   4  ar  
  4   2   5  1   
  5   3   6  1   
  6   3   7  ar  
  7   4   8  ar  
  8   4  23  1   
  9   5  24  1   
 10   5  25  1   
 11   6   9  1   
 12   6  26  1   
 13   7   8  ar  
 14   7  10  1   
 15   8  27  1   
 16   9  11  1   
 17   9  28  1   
 18   9  29  1   
 19  10  12  1   
 20  10  30  1   
 21  10  31  1   
 22  11  13  1   
 23  11  32  1   
 24  11  33  1   
 25  12  34  1   
 26  12  35  1   
 27  12  36  1   
 28  13  14  ar  
 29  13  15  ar  
 30  14  16  ar  
 31  15  17  ar  
 32  16  18  ar  
 33  16  19  1   
 34  17  18  ar  
 35  17  20  1   
 36  18  21  1   
 37  19  37  1   
 38  19  38  1   
 39  19  39  1   
 40  20  22  1   
 41  20  40  1   
 42  20  41  1   
 43  21  22  1   
 44  21  42  1   
 45  21  43  1   
 46  22  44  1   
 47  22  45  1   
@<TRIPOS>SUBSTRUCTURE
  1 ****  11 GROUP 4 **** **** 0

# MOE 2024.06 (io_trps.svl 2023.06)
