@<TRIPOS>MOLECULE
NONAME
51 52 1 0 0 
SMALL
USER_CHARGES


@<TRIPOS>ATOM
  1 O        2.8530     2.4650     1.8250 O.co2 1 <1>  -0.9000 
  2 C        2.4530     1.2920     1.7560 C.2   1 <1>   0.9060 
  3 O        2.4090     0.5740     2.7530 O.co2 1 <1>  -0.9000 
  4 C        2.3170     0.6290     0.3720 C.3   1 <1>  -0.1060 
  5 C        3.4520    -0.4240     0.3590 C.3   1 <1>   0.2000 
  6 C        2.5910     1.6420    -0.7910 C.3   1 <1>  -0.1600 
  7 C        0.9230    -0.0360     0.2080 C.3   1 <1>  -0.1600 
  8 O        3.4990    -1.0510    -0.8870 O.3   1 <1>  -0.6800 
  9 C        4.8250     0.2470     0.6310 C.3   1 <1>   0.3430 
 10 C        4.0850     1.9190    -1.0460 C.3   1 <1>   0.3430 
 11 C       -0.2480     0.9560     0.3030 C.3   1 <1>  -0.1600 
 12 N        4.8540     1.6940     0.2050 N.4   1 <1>  -0.9590 
 13 C       -1.5900     0.2330     0.1610 C.3   1 <1>  -0.2400 
 14 C        6.1950     2.3250     0.2600 C.3   1 <1>   0.3430 
 15 C        6.0660     3.8150     0.5820 C.3   1 <1>   0.1200 
 16 O        7.3440     4.3980     0.4690 O.3   1 <1>  -0.3630 
 17 C        7.5230     5.7270     0.6760 C.ar  1 <1>   0.0830 
 18 C        8.7780     6.2400     0.3970 C.ar  1 <1>  -0.1500 
 19 C        6.5240     6.5780     1.1460 C.ar  1 <1>  -0.1500 
 20 C        9.0510     7.5850     0.5730 C.ar  1 <1>   0.0830 
 21 C        6.7920     7.9250     1.3240 C.ar  1 <1>  -0.1500 
 22 O       10.3080     7.9990     0.2710 O.3   1 <1>  -0.3630 
 23 C        8.0480     8.4310     1.0390 C.ar  1 <1>  -0.1500 
 24 C       10.6920     9.3480     0.4200 C.3   1 <1>   0.0400 
 25 H        3.2760    -1.1870     1.1000 H     1 <1>   0.0800 
 26 H        2.0940     2.5740    -0.5820 H     1 <1>   0.0800 
 27 H        2.1720     1.2700    -1.7080 H     1 <1>   0.0800 
 28 H        0.8650    -0.5470    -0.7360 H     1 <1>   0.0800 
 29 H        0.8040    -0.7730     0.9860 H     1 <1>   0.0800 
 30 H        2.6540    -1.5200    -1.0420 H     1 <1>   0.4000 
 31 H        5.5930    -0.3150     0.1300 H     1 <1>   0.0800 
 32 H        5.0080     0.2060     1.6930 H     1 <1>   0.0800 
 33 H        4.2080     2.9310    -1.3930 H     1 <1>   0.0800 
 34 H        4.4470     1.2450    -1.8060 H     1 <1>   0.0800 
 35 H       -0.2230     1.4580     1.2570 H     1 <1>   0.0800 
 36 H       -0.1720     1.7020    -0.4670 H     1 <1>   0.0800 
 37 H        4.2620     2.1730     0.9360 H     1 <1>   0.4500 
 38 H       -1.7050    -0.4980     0.9430 H     1 <1>   0.0800 
 39 H       -1.6550    -0.2620    -0.7920 H     1 <1>   0.0800 
 40 H       -2.3970     0.9400     0.2370 H     1 <1>   0.0800 
 41 H        6.7790     1.8610     1.0380 H     1 <1>   0.0800 
 42 H        6.6990     2.1950    -0.6830 H     1 <1>   0.0800 
 43 H        5.7150     3.9480     1.5910 H     1 <1>   0.0800 
 44 H        5.4130     4.3070    -0.1150 H     1 <1>   0.0800 
 45 H        9.5540     5.5900     0.0380 H     1 <1>   0.1500 
 46 H        5.5400     6.2190     1.3810 H     1 <1>   0.1500 
 47 H        6.0190     8.5810     1.6870 H     1 <1>   0.1500 
 48 H        8.2260     9.4790     1.1870 H     1 <1>   0.1500 
 49 H       11.7220     9.4350     0.1260 H     1 <1>   0.0800 
 50 H       10.5810     9.6300     1.4520 H     1 <1>   0.0800 
 51 H       10.0770     9.9580    -0.2170 H     1 <1>   0.0800 
@<TRIPOS>BOND
  1   1   2  ar  
  2   2   3  ar  
  3   2   4  1   
  4   4   5  1   
  5   4   6  1   
  6   4   7  1   
  7   5   8  1   
  8   5   9  1   
  9   5  25  1   
 10   6  10  1   
 11   6  26  1   
 12   6  27  1   
 13   7  11  1   
 14   7  28  1   
 15   7  29  1   
 16   8  30  1   
 17   9  12  1   
 18   9  31  1   
 19   9  32  1   
 20  10  12  1   
 21  10  33  1   
 22  10  34  1   
 23  11  13  1   
 24  11  35  1   
 25  11  36  1   
 26  12  14  1   
 27  12  37  1   
 28  13  38  1   
 29  13  39  1   
 30  13  40  1   
 31  14  15  1   
 32  14  41  1   
 33  14  42  1   
 34  15  16  1   
 35  15  43  1   
 36  15  44  1   
 37  16  17  1   
 38  17  18  ar  
 39  17  19  ar  
 40  18  20  ar  
 41  18  45  1   
 42  19  21  ar  
 43  19  46  1   
 44  20  22  1   
 45  20  23  ar  
 46  21  23  ar  
 47  21  47  1   
 48  22  24  1   
 49  23  48  1   
 50  24  49  1   
 51  24  50  1   
 52  24  51  1   
@<TRIPOS>SUBSTRUCTURE
  1 ****  15 GROUP 4 **** **** 0

# MOE 2024.06 (io_trps.svl 2023.06)
