@<TRIPOS>MOLECULE
NONAME
52 55 1 0 0 
SMALL
USER_CHARGES


@<TRIPOS>ATOM
  1 O       -0.8490    -1.5270    -2.1730 O.2   1 <1>  -0.5700 
  2 C        0.2360    -1.7300    -1.6700 C.2   1 <1>   0.6900 
  3 N        0.4750    -2.4430    -0.5320 N.am  1 <1>  -0.4770 
  4 N        1.3810    -1.2990    -2.2210 N.am  1 <1>  -0.7300 
  5 C       -0.4550    -3.1210     0.2640 C.ar  1 <1>   0.1170 
  6 C        1.9350    -2.5670    -0.3170 C.3   1 <1>   0.1400 
  7 C        2.5590    -1.8170    -1.5080 C.3   1 <1>   0.1400 
  8 C       -1.3410    -2.4440     1.1040 C.ar  1 <1>  -0.1430 
  9 C       -0.4980    -4.5060     0.2150 C.ar  1 <1>  -0.1500 
 10 C       -2.2380    -3.1650     1.8740 C.ar  1 <1>  -0.1500 
 11 C       -1.3410    -0.9230     1.1840 C.3   1 <1>  -0.0970 
 12 C       -1.4020    -5.2430     0.9680 C.ar  1 <1>   0.0860 
 13 C       -2.2670    -4.5460     1.8080 C.ar  1 <1>  -0.1500 
 14 C       -1.4470    -6.6860     0.8570 C.2   1 <1>   0.5440 
 15 O       -0.4750    -7.3540     1.1530 O.2   1 <1>  -0.5700 
 16 N       -2.5730    -7.3240     0.3950 N.am  1 <1>  -0.6600 
 17 C       -3.6990    -6.6450    -0.2950 C.3   1 <1>   0.1400 
 18 C       -2.6190    -8.7860     0.1690 C.3   1 <1>   0.1400 
 19 C       -4.3910    -7.7520    -1.0910 C.3   1 <1>   0.2000 
 20 C       -4.0170    -9.0590    -0.3920 C.3   1 <1>  -0.0800 
 21 O       -5.7680    -7.5910    -1.0970 O.3   1 <1>  -0.6800 
 22 C       -4.0800   -10.2690    -1.3370 C.3   1 <1>   0.0200 
 23 C       -3.7490   -11.5850    -0.6530 C.2   1 <1>  -0.0400 
 24 O       -3.6020   -12.6530    -1.3910 O.3   1 <1>  -0.0190 
 25 C       -3.5590   -11.9450     0.6270 C.2   1 <1>  -0.1500 
 26 N       -3.3200   -13.7040    -0.6770 N.2   1 <1>  -0.4100 
 27 C       -3.2880   -13.3080     0.5430 C.2   1 <1>   0.1080 
 28 C       -2.9920   -14.2080     1.7220 C.3   1 <1>  -0.0590 
 29 H        1.3940    -0.9520    -3.1810 H     1 <1>   0.3700 
 30 H        2.2100    -2.1060     0.6150 H     1 <1>   0.0800 
 31 H        2.2320    -3.6010    -0.3130 H     1 <1>   0.0800 
 32 H        3.1180    -2.4880    -2.1370 H     1 <1>   0.0800 
 33 H        3.1880    -1.0100    -1.1740 H     1 <1>   0.0800 
 34 H        0.1790    -5.0310    -0.4340 H     1 <1>   0.1500 
 35 H       -2.9230    -2.6530     2.5270 H     1 <1>   0.1500 
 36 H       -1.9670    -0.5760     1.9860 H     1 <1>   0.0800 
 37 H       -1.7100    -0.5120     0.2610 H     1 <1>   0.0800 
 38 H       -0.3440    -0.5590     1.3500 H     1 <1>   0.0800 
 39 H       -2.9660    -5.0970     2.4130 H     1 <1>   0.1500 
 40 H       -4.3630    -6.2250     0.4400 H     1 <1>   0.0800 
 41 H       -3.3350    -5.8740    -0.9520 H     1 <1>   0.0800 
 42 H       -1.8560    -9.0520    -0.5440 H     1 <1>   0.0800 
 43 H       -2.4420    -9.3130     1.0900 H     1 <1>   0.0800 
 44 H       -4.0430    -7.7360    -2.1100 H     1 <1>   0.0800 
 45 H       -4.6760    -9.2170     0.4430 H     1 <1>   0.0800 
 46 H       -6.1210    -7.6130    -0.1870 H     1 <1>   0.4000 
 47 H       -3.3930   -10.1240    -2.1520 H     1 <1>   0.0800 
 48 H       -5.0690   -10.3450    -1.7540 H     1 <1>   0.0800 
 49 H       -3.5980   -11.3660     1.5300 H     1 <1>   0.1500 
 50 H       -2.1050   -13.8700     2.2260 H     1 <1>   0.0800 
 51 H       -2.8370   -15.2160     1.3840 H     1 <1>   0.0800 
 52 H       -3.8190   -14.1940     2.4080 H     1 <1>   0.0800 
@<TRIPOS>BOND
  1   1   2  2   
  2   2   3  am  
  3   2   4  am  
  4   3   5  1   
  5   3   6  1   
  6   4   7  1   
  7   4  29  1   
  8   5   8  ar  
  9   5   9  ar  
 10   6   7  1   
 11   6  30  1   
 12   6  31  1   
 13   7  32  1   
 14   7  33  1   
 15   8  10  ar  
 16   8  11  1   
 17   9  12  ar  
 18   9  34  1   
 19  10  13  ar  
 20  10  35  1   
 21  11  36  1   
 22  11  37  1   
 23  11  38  1   
 24  12  13  ar  
 25  12  14  1   
 26  13  39  1   
 27  14  15  2   
 28  14  16  am  
 29  16  17  1   
 30  16  18  1   
 31  17  19  1   
 32  17  40  1   
 33  17  41  1   
 34  18  20  1   
 35  18  42  1   
 36  18  43  1   
 37  19  20  1   
 38  19  21  1   
 39  19  44  1   
 40  20  22  1   
 41  20  45  1   
 42  21  46  1   
 43  22  23  1   
 44  22  47  1   
 45  22  48  1   
 46  23  24  1   
 47  23  25  2   
 48  24  26  1   
 49  25  27  1   
 50  25  49  1   
 51  26  27  2   
 52  27  28  1   
 53  28  50  1   
 54  28  51  1   
 55  28  52  1   
@<TRIPOS>SUBSTRUCTURE
  1 ****  14 GROUP 4 **** **** 0

# MOE 2024.06 (io_trps.svl 2023.06)
