@<TRIPOS>MOLECULE
NONAME
40 42 1 0 0 
SMALL
USER_CHARGES


@<TRIPOS>ATOM
  1 F        1.7770    -0.0580     1.0230 F     1 <1>  -0.1900 
  2 C        2.9470     0.5250     1.0550 C.ar  1 <1>   0.1900 
  3 C        3.6780     0.6140    -0.1050 C.ar  1 <1>  -0.1500 
  4 C        3.3920     1.0300     2.2810 C.ar  1 <1>  -0.1500 
  5 C        4.9190     1.2430    -0.0340 C.ar  1 <1>   0.2270 
  6 C        4.6210     1.6510     2.3470 C.ar  1 <1>  -0.1500 
  7 N        5.8300     1.4700    -1.0210 N.2   1 <1>  -0.5650 
  8 C        5.3750     1.7480     1.1730 C.ar  1 <1>  -0.1520 
  9 C        6.7950     2.0860    -0.4290 C.2   1 <1>   0.0060 
 10 N        6.5890     2.2870     0.8970 N.pl3 1 <1>   0.0330 
 11 C        8.0560     2.5810    -1.1170 C.3   1 <1>   0.3000 
 12 O        8.2980     3.9100    -0.7570 O.3   1 <1>  -0.5600 
 13 C        7.4180     4.8370    -1.3660 C.3   1 <1>   0.1810 
 14 C        7.6600     6.2630    -0.8750 C.2   1 <1>   0.5690 
 15 O        6.9680     7.1560    -1.3020 O.2   1 <1>  -0.5700 
 16 N        8.6490     6.4880     0.0280 N.am  1 <1>  -0.7300 
 17 C        9.0120     7.7950     0.6180 C.3   1 <1>   0.1400 
 18 C       10.2500     8.3730    -0.0820 C.3   1 <1>  -0.0800 
 19 C       11.4900     7.5240     0.1650 C.3   1 <1>   0.1200 
 20 C       10.6710     9.6930     0.5520 C.3   1 <1>  -0.1600 
 21 O       11.9490     7.9270     1.4120 O.3   1 <1>  -0.5600 
 22 C       11.7130     9.2880     1.5960 C.3   1 <1>   0.1200 
 23 H        3.3250     0.2240    -1.0390 H     1 <1>   0.1500 
 24 H        2.7670     0.9260     3.1490 H     1 <1>   0.1500 
 25 H        4.9960     2.0520     3.2730 H     1 <1>   0.1500 
 26 H        7.2070     2.7900     1.5380 H     1 <1>   0.2700 
 27 H        7.9650     2.5090    -2.1880 H     1 <1>   0.0800 
 28 H        8.8990     1.9940    -0.7990 H     1 <1>   0.0800 
 29 H        6.4020     4.5650    -1.1410 H     1 <1>   0.0800 
 30 H        7.5650     4.8040    -2.4300 H     1 <1>   0.0800 
 31 H        9.2060     5.6790     0.3170 H     1 <1>   0.3700 
 32 H        9.2030     7.6690     1.6700 H     1 <1>   0.0800 
 33 H        8.1850     8.4770     0.5050 H     1 <1>   0.0800 
 34 H       10.0480     8.4890    -1.1330 H     1 <1>   0.0800 
 35 H       12.2570     7.7430    -0.5570 H     1 <1>   0.0800 
 36 H       11.2950     6.4660     0.1810 H     1 <1>   0.0800 
 37 H        9.8520    10.2320     0.9930 H     1 <1>   0.0800 
 38 H       11.1410    10.3240    -0.1820 H     1 <1>   0.0800 
 39 H       11.3510     9.4300     2.6000 H     1 <1>   0.0800 
 40 H       12.6390     9.8180     1.4590 H     1 <1>   0.0800 
@<TRIPOS>BOND
  1   1   2  1   
  2   2   3  ar  
  3   2   4  ar  
  4   3   5  ar  
  5   3  23  1   
  6   4   6  ar  
  7   4  24  1   
  8   5   7  1   
  9   5   8  ar  
 10   6   8  ar  
 11   6  25  1   
 12   7   9  2   
 13   8  10  1   
 14   9  10  1   
 15   9  11  1   
 16  10  26  1   
 17  11  12  1   
 18  11  27  1   
 19  11  28  1   
 20  12  13  1   
 21  13  14  1   
 22  13  29  1   
 23  13  30  1   
 24  14  15  2   
 25  14  16  am  
 26  16  17  1   
 27  16  31  1   
 28  17  18  1   
 29  17  32  1   
 30  17  33  1   
 31  18  19  1   
 32  18  20  1   
 33  18  34  1   
 34  19  21  1   
 35  19  35  1   
 36  19  36  1   
 37  20  22  1   
 38  20  37  1   
 39  20  38  1   
 40  21  22  1   
 41  22  39  1   
 42  22  40  1   
@<TRIPOS>SUBSTRUCTURE
  1 ****  12 GROUP 4 **** **** 0

# MOE 2024.06 (io_trps.svl 2023.06)
