@<TRIPOS>MOLECULE
NONAME
41 42 1 0 0 
SMALL
USER_CHARGES


@<TRIPOS>ATOM
  1 O        1.1070    -0.9860     1.7100 O.co2 1 <1>  -0.9000 
  2 C        1.6920    -0.6040     0.7000 C.2   1 <1>   0.9060 
  3 O        1.3870    -0.9470    -0.4490 O.co2 1 <1>  -0.9000 
  4 C        2.8780     0.3190     0.8680 C.3   1 <1>  -0.1860 
  5 C        4.0960    -0.2710     0.1510 C.3   1 <1>   0.2000 
  6 C        2.5770     1.7660     0.3950 C.3   1 <1>  -0.1600 
  7 O        3.8170    -0.3190    -1.2040 O.3   1 <1>  -0.6800 
  8 C        5.3380     0.6220     0.3580 C.3   1 <1>   0.3430 
  9 C        3.7850     2.4570    -0.2470 C.3   1 <1>   0.3430 
 10 N        5.0230     2.0990     0.5120 N.4   1 <1>  -0.9590 
 11 C        6.2120     2.9140     0.1120 C.3   1 <1>   0.3430 
 12 C        6.0770     4.3980     0.4770 C.3   1 <1>   0.1200 
 13 O        7.2930     4.9980     0.1840 O.3   1 <1>  -0.5600 
 14 C        7.3700     6.3640     0.4670 C.3   1 <1>   0.2630 
 15 C        8.7740     6.8420     0.1390 C.ar  1 <1>  -0.1430 
 16 C        9.6200     7.2920     1.1430 C.ar  1 <1>  -0.1500 
 17 C        9.2220     6.8380    -1.1730 C.ar  1 <1>  -0.1500 
 18 C       10.8950     7.7350     0.8370 C.ar  1 <1>  -0.1500 
 19 C       10.4970     7.2810    -1.4800 C.ar  1 <1>  -0.1500 
 20 C       11.3340     7.7300    -0.4750 C.ar  1 <1>  -0.1500 
 21 H        3.0970     0.3420     1.9190 H     1 <1>   0.0800 
 22 H        4.2860    -1.2810     0.4760 H     1 <1>   0.0800 
 23 H        2.2060     2.3440     1.2220 H     1 <1>   0.0800 
 24 H        1.7920     1.7400    -0.3430 H     1 <1>   0.0800 
 25 H        2.8750    -0.6740    -1.2740 H     1 <1>   0.4000 
 26 H        5.9920     0.4660    -0.4840 H     1 <1>   0.0800 
 27 H        5.8530     0.2850     1.2420 H     1 <1>   0.0800 
 28 H        3.6270     3.5220    -0.2560 H     1 <1>   0.0800 
 29 H        3.8830     2.1170    -1.2670 H     1 <1>   0.0800 
 30 H        4.8060     2.2510     1.5050 H     1 <1>   0.4500 
 31 H        7.0870     2.5300     0.6100 H     1 <1>   0.0800 
 32 H        6.3660     2.8270    -0.9510 H     1 <1>   0.0800 
 33 H        5.8850     4.5170     1.5290 H     1 <1>   0.0800 
 34 H        5.3130     4.8760    -0.1110 H     1 <1>   0.0800 
 35 H        6.6510     6.8880    -0.1380 H     1 <1>   0.0800 
 36 H        7.1520     6.5180     1.5100 H     1 <1>   0.0800 
 37 H        9.2940     7.3000     2.1680 H     1 <1>   0.1500 
 38 H        8.5790     6.4850    -1.9600 H     1 <1>   0.1500 
 39 H       11.5460     8.0820     1.6200 H     1 <1>   0.1500 
 40 H       10.8380     7.2740    -2.5010 H     1 <1>   0.1500 
 41 H       12.3260     8.0740    -0.7130 H     1 <1>   0.1500 
@<TRIPOS>BOND
  1   1   2  ar  
  2   2   3  ar  
  3   2   4  1   
  4   4   5  1   
  5   4   6  1   
  6   4  21  1   
  7   5   7  1   
  8   5   8  1   
  9   5  22  1   
 10   6   9  1   
 11   6  23  1   
 12   6  24  1   
 13   7  25  1   
 14   8  10  1   
 15   8  26  1   
 16   8  27  1   
 17   9  10  1   
 18   9  28  1   
 19   9  29  1   
 20  10  11  1   
 21  10  30  1   
 22  11  12  1   
 23  11  31  1   
 24  11  32  1   
 25  12  13  1   
 26  12  33  1   
 27  12  34  1   
 28  13  14  1   
 29  14  15  1   
 30  14  35  1   
 31  14  36  1   
 32  15  16  ar  
 33  15  17  ar  
 34  16  18  ar  
 35  16  37  1   
 36  17  19  ar  
 37  17  38  1   
 38  18  20  ar  
 39  18  39  1   
 40  19  20  ar  
 41  19  40  1   
 42  20  41  1   
@<TRIPOS>SUBSTRUCTURE
  1 ****  11 GROUP 4 **** **** 0

# MOE 2024.06 (io_trps.svl 2023.06)
