@<TRIPOS>MOLECULE
NONAME
43 44 1 0 0 
SMALL
USER_CHARGES


@<TRIPOS>ATOM
  1 S        0.8320     0.7470    -1.5210 S.o2  1 <1>   1.3330 
  2 O        0.1460     1.8280    -2.1900 O.2   1 <1>  -0.6500 
  3 O        1.0960    -0.4840    -2.2330 O.2   1 <1>  -0.6500 
  4 N       -0.0710     0.3620    -0.1340 N.am  1 <1>  -0.8490 
  5 C        2.3900     1.3530    -0.8670 C.3   1 <1>  -0.0550 
  6 C       -0.6930     1.5320     0.4970 C.3   1 <1>   0.1160 
  7 C       -1.0920    -0.6540    -0.4070 C.3   1 <1>   0.1160 
  8 C        3.2550     0.2720    -0.1820 C.3   1 <1>  -0.0800 
  9 C        4.6460     0.7310     0.2270 C.3   1 <1>   0.2200 
 10 C        2.6840    -0.2840     1.1280 C.3   1 <1>   0.1200 
 11 N        4.5960     2.0840     0.8280 N.am  1 <1>  -0.7300 
 12 C        4.9710    -0.2840     1.3130 C.3   1 <1>   0.1200 
 13 O        3.7680    -0.5000     1.9850 O.3   1 <1>  -0.5600 
 14 C        5.0310     3.2460     0.2660 C.2   1 <1>   0.7160 
 15 O        5.4700     3.2060    -0.8680 O.2   1 <1>  -0.5700 
 16 C        4.9400     4.4830     1.0260 C.2   1 <1>   0.1410 
 17 N        4.3240     4.5510     2.2490 N.2   1 <1>  -0.5650 
 18 C        5.3930     5.7280     0.7320 C.2   1 <1>  -0.0400 
 19 C        4.4490     5.7810     2.5850 C.2   1 <1>   0.3280 
 20 O        5.0800     6.5230     1.7120 O.3   1 <1>  -0.2800 
 21 C        6.1530     6.2990    -0.4550 C.3   1 <1>   0.0200 
 22 C        5.2930     7.3040    -1.2270 C.3   1 <1>  -0.2400 
 23 H        2.9580     1.7610    -1.6820 H     1 <1>   0.0800 
 24 H        2.1980     2.1540    -0.1830 H     1 <1>   0.0800 
 25 H       -1.1800     1.2430     1.4130 H     1 <1>   0.0800 
 26 H       -1.4230     1.9730    -0.1630 H     1 <1>   0.0800 
 27 H        0.0530     2.2720     0.7290 H     1 <1>   0.0800 
 28 H       -1.6370    -0.8860     0.4920 H     1 <1>   0.0800 
 29 H       -0.6260    -1.5590    -0.7610 H     1 <1>   0.0800 
 30 H       -1.7780    -0.3020    -1.1590 H     1 <1>   0.0800 
 31 H        3.3690    -0.5550    -0.8620 H     1 <1>   0.0800 
 32 H        5.3520     0.6990    -0.5860 H     1 <1>   0.0800 
 33 H        2.1640    -1.2150     0.9770 H     1 <1>   0.0800 
 34 H        2.0290     0.4220     1.6100 H     1 <1>   0.0800 
 35 H        4.2330     2.1320     1.7860 H     1 <1>   0.3700 
 36 H        5.7170     0.0660     2.0050 H     1 <1>   0.0800 
 37 H        5.2790    -1.2200     0.8810 H     1 <1>   0.0800 
 38 H        4.0930     6.2410     3.4910 H     1 <1>   0.1500 
 39 H        7.0430     6.7870    -0.0970 H     1 <1>   0.0800 
 40 H        6.4570     5.5100    -1.1190 H     1 <1>   0.0800 
 41 H        5.0090     8.1200    -0.5870 H     1 <1>   0.0800 
 42 H        4.4030     6.8230    -1.5940 H     1 <1>   0.0800 
 43 H        5.8450     7.6960    -2.0630 H     1 <1>   0.0800 
@<TRIPOS>BOND
  1   1   2  2   
  2   1   3  2   
  3   1   4  am  
  4   1   5  1   
  5   4   6  1   
  6   4   7  1   
  7   5   8  1   
  8   5  23  1   
  9   5  24  1   
 10   6  25  1   
 11   6  26  1   
 12   6  27  1   
 13   7  28  1   
 14   7  29  1   
 15   7  30  1   
 16   8   9  1   
 17   8  10  1   
 18   8  31  1   
 19   9  11  1   
 20   9  12  1   
 21   9  32  1   
 22  10  13  1   
 23  10  33  1   
 24  10  34  1   
 25  11  14  am  
 26  11  35  1   
 27  12  13  1   
 28  12  36  1   
 29  12  37  1   
 30  14  15  2   
 31  14  16  1   
 32  16  17  1   
 33  16  18  2   
 34  17  19  2   
 35  18  20  1   
 36  18  21  1   
 37  19  20  1   
 38  19  38  1   
 39  21  22  1   
 40  21  39  1   
 41  21  40  1   
 42  22  41  1   
 43  22  42  1   
 44  22  43  1   
@<TRIPOS>SUBSTRUCTURE
  1 ****  11 GROUP 4 **** **** 0

# MOE 2024.06 (io_trps.svl 2023.06)
