@<TRIPOS>MOLECULE
NONAME
37 38 1 0 0 
SMALL
USER_CHARGES


@<TRIPOS>ATOM
  1 S       -1.0540     0.5800     1.3920 S.o2  1 <1>   1.4470 
  2 O       -1.6110     1.8570     1.7890 O.2   1 <1>  -0.6500 
  3 O       -1.0700    -0.5030     2.3510 O.2   1 <1>  -0.6500 
  4 N       -1.8820     0.1060    -0.0130 N.am  1 <1>  -0.8490 
  5 C        0.6440     0.8530     0.8100 C.ar  1 <1>  -0.0090 
  6 C       -1.3900    -1.1140    -0.6850 C.3   1 <1>   0.1960 
  7 C       -3.3430     0.1550     0.0880 C.3   1 <1>   0.1960 
  8 C        0.9960     2.0250     0.1540 C.ar  1 <1>  -0.1500 
  9 C        1.6270    -0.1170     0.9780 C.ar  1 <1>  -0.1500 
 10 C       -1.9300    -2.4080    -0.0650 C.3   1 <1>  -0.1860 
 11 C       -3.9170    -1.0970     0.7570 C.3   1 <1>  -0.1600 
 12 C        2.2810     2.2370    -0.3180 C.ar  1 <1>   0.0820 
 13 C        2.9160     0.0780     0.5120 C.ar  1 <1>  -0.1500 
 14 C       -1.4880    -3.6030    -0.8820 C.2   1 <1>   0.9060 
 15 C       -3.4530    -2.3420     0.0100 C.3   1 <1>   0.2000 
 16 O        2.5130     3.4170    -0.9430 O.3   1 <1>  -0.3630 
 17 C        3.2480     1.2530    -0.1360 C.ar  1 <1>  -0.1500 
 18 O       -0.6490    -3.4510    -1.7750 O.co2 1 <1>  -0.9000 
 19 O       -1.9920    -4.7050    -0.6330 O.co2 1 <1>  -0.9000 
 20 O       -3.9170    -3.4520     0.6760 O.3   1 <1>  -0.6800 
 21 C        3.7810     3.7290    -1.4740 C.3   1 <1>   0.0400 
 22 H       -1.7000    -1.0800    -1.7170 H     1 <1>   0.0800 
 23 H       -0.3140    -1.1380    -0.6890 H     1 <1>   0.0800 
 24 H       -3.6500     1.0340     0.6300 H     1 <1>   0.0800 
 25 H       -3.7490     0.2320    -0.9070 H     1 <1>   0.0800 
 26 H        0.2550     2.7900     0.0040 H     1 <1>   0.1500 
 27 H        1.3770    -1.0410     1.4750 H     1 <1>   0.1500 
 28 H       -1.5220    -2.5320     0.9170 H     1 <1>   0.0800 
 29 H       -4.9900    -1.0490     0.7380 H     1 <1>   0.0800 
 30 H       -3.5960    -1.1410     1.7820 H     1 <1>   0.0800 
 31 H        3.6570    -0.6910     0.6510 H     1 <1>   0.1500 
 32 H       -3.8680    -2.3630    -0.9840 H     1 <1>   0.0800 
 33 H        4.2520     1.3830    -0.4900 H     1 <1>   0.1500 
 34 H       -3.3720    -4.2170     0.3280 H     1 <1>   0.4000 
 35 H        3.7250     4.7070    -1.9180 H     1 <1>   0.0800 
 36 H        4.0350     3.0010    -2.2240 H     1 <1>   0.0800 
 37 H        4.5030     3.7320    -0.6770 H     1 <1>   0.0800 
@<TRIPOS>BOND
  1   1   2  2   
  2   1   3  2   
  3   1   4  am  
  4   1   5  1   
  5   4   6  1   
  6   4   7  1   
  7   5   8  ar  
  8   5   9  ar  
  9   6  10  1   
 10   6  22  1   
 11   6  23  1   
 12   7  11  1   
 13   7  24  1   
 14   7  25  1   
 15   8  12  ar  
 16   8  26  1   
 17   9  13  ar  
 18   9  27  1   
 19  10  14  1   
 20  10  15  1   
 21  10  28  1   
 22  11  15  1   
 23  11  29  1   
 24  11  30  1   
 25  12  16  1   
 26  12  17  ar  
 27  13  17  ar  
 28  13  31  1   
 29  14  18  ar  
 30  14  19  ar  
 31  15  20  1   
 32  15  32  1   
 33  16  21  1   
 34  17  33  1   
 35  20  34  1   
 36  21  35  1   
 37  21  36  1   
 38  21  37  1   
@<TRIPOS>SUBSTRUCTURE
  1 ****   6 GROUP 4 **** **** 0

# MOE 2024.06 (io_trps.svl 2023.06)
