@<TRIPOS>MOLECULE
NONAME
48 51 1 0 0 
SMALL
USER_CHARGES


@<TRIPOS>ATOM
  1 O        0.2980    -0.5470    -0.0520 O.co2 1 <1>  -0.9000 
  2 C        1.1610    -0.1340     0.7490 C.2   1 <1>   0.9790 
  3 O        0.8640    -0.1650     1.9630 O.co2 1 <1>  -0.9000 
  4 C        2.4810     0.3590     0.3300 C.ar  1 <1>   0.1310 
  5 N        2.8200     0.5700    -0.9660 N.ar  1 <1>  -0.6200 
  6 C        3.4100     0.6120     1.3460 C.ar  1 <1>   0.1600 
  7 C        4.0450     1.0150    -1.1230 C.ar  1 <1>   0.1600 
  8 N        4.6480     1.0580     1.1880 N.ar  1 <1>  -0.6200 
  9 C        4.9510     1.2620    -0.0840 C.ar  1 <1>   0.4100 
 10 N        6.2270     1.7300    -0.3400 N.pl3 1 <1>  -0.8380 
 11 C        6.5230     3.0970     0.2120 C.3   1 <1>   0.2890 
 12 C        7.2540     0.6650    -0.2060 C.3   1 <1>   0.2090 
 13 C        7.9810     3.5590    -0.0460 C.3   1 <1>  -0.0800 
 14 C        5.4900     4.0890    -0.3760 C.3   1 <1>  -0.1600 
 15 C        8.6410     1.1790    -0.5670 C.3   1 <1>  -0.1600 
 16 C        9.0020     2.4370     0.2270 C.3   1 <1>   0.4240 
 17 C        8.0940     4.2120    -1.4440 C.3   1 <1>  -0.1600 
 18 C        6.0470     5.5050    -0.5710 C.3   1 <1>  -0.1600 
 19 O        8.8830     2.0940     1.5660 O.3   1 <1>  -0.6800 
 20 C       10.4520     2.9210     0.0020 C.ar  1 <1>  -0.1440 
 21 C        7.2460     5.4950    -1.5350 C.3   1 <1>  -0.1600 
 22 C       11.0560     3.7440     0.9480 C.ar  1 <1>  -0.1500 
 23 C       11.1890     2.5850    -1.1310 C.ar  1 <1>  -0.1500 
 24 C       12.3460     4.2140     0.7750 C.ar  1 <1>  -0.1500 
 25 C       12.4800     3.0530    -1.3090 C.ar  1 <1>  -0.1500 
 26 C       13.0610     3.8680    -0.3560 C.ar  1 <1>  -0.1500 
 27 H        3.0980     0.4300     2.3610 H     1 <1>   0.1500 
 28 H        4.3830     1.2070    -2.1220 H     1 <1>   0.1500 
 29 H        6.3800     3.0660     1.2800 H     1 <1>   0.0800 
 30 H        7.2440     0.2830     0.8010 H     1 <1>   0.0800 
 31 H        6.9970    -0.1510    -0.8610 H     1 <1>   0.0800 
 32 H        8.2050     4.3380     0.6600 H     1 <1>   0.0800 
 33 H        5.1620     3.7380    -1.3390 H     1 <1>   0.0800 
 34 H        4.6310     4.1230     0.2720 H     1 <1>   0.0800 
 35 H        8.6520     1.3880    -1.6190 H     1 <1>   0.0800 
 36 H        9.3700     0.4130    -0.3750 H     1 <1>   0.0800 
 37 H        9.1150     4.4600    -1.6760 H     1 <1>   0.0800 
 38 H        7.7500     3.5110    -2.1860 H     1 <1>   0.0800 
 39 H        5.2780     6.1530    -0.9560 H     1 <1>   0.0800 
 40 H        6.3530     5.8960     0.3850 H     1 <1>   0.0800 
 41 H        7.9650     1.8040     1.7270 H     1 <1>   0.4000 
 42 H        7.8650     6.3500    -1.3180 H     1 <1>   0.0800 
 43 H        6.8950     5.6020    -2.5470 H     1 <1>   0.0800 
 44 H       10.5180     4.0230     1.8370 H     1 <1>   0.1500 
 45 H       10.7770     1.9590    -1.9000 H     1 <1>   0.1500 
 46 H       12.7910     4.8470     1.5220 H     1 <1>   0.1500 
 47 H       13.0340     2.7810    -2.1900 H     1 <1>   0.1500 
 48 H       14.0640     4.2310    -0.4930 H     1 <1>   0.1500 
@<TRIPOS>BOND
  1   1   2  ar  
  2   2   3  ar  
  3   2   4  1   
  4   4   5  ar  
  5   4   6  ar  
  6   5   7  ar  
  7   6   8  ar  
  8   6  27  1   
  9   7   9  ar  
 10   7  28  1   
 11   8   9  ar  
 12   9  10  1   
 13  10  11  1   
 14  10  12  1   
 15  11  13  1   
 16  11  14  1   
 17  11  29  1   
 18  12  15  1   
 19  12  30  1   
 20  12  31  1   
 21  13  16  1   
 22  13  17  1   
 23  13  32  1   
 24  14  18  1   
 25  14  33  1   
 26  14  34  1   
 27  15  16  1   
 28  15  35  1   
 29  15  36  1   
 30  16  19  1   
 31  16  20  1   
 32  17  21  1   
 33  17  37  1   
 34  17  38  1   
 35  18  21  1   
 36  18  39  1   
 37  18  40  1   
 38  19  41  1   
 39  20  22  ar  
 40  20  23  ar  
 41  21  42  1   
 42  21  43  1   
 43  22  24  ar  
 44  22  44  1   
 45  23  25  ar  
 46  23  45  1   
 47  24  26  ar  
 48  24  46  1   
 49  25  26  ar  
 50  25  47  1   
 51  26  48  1   
@<TRIPOS>SUBSTRUCTURE
  1 ****  10 GROUP 4 **** **** 0

# MOE 2024.06 (io_trps.svl 2023.06)
