@<TRIPOS>MOLECULE
NONAME
42 43 1 0 0 
SMALL
USER_CHARGES


@<TRIPOS>ATOM
  1 CL      -2.3430    -1.1020     1.3400 Cl    1 <1>  -0.1770 
  2 C       -2.5880     0.3010     0.3100 C.ar  1 <1>   0.1770 
  3 C       -2.3780     1.5670     0.8410 C.ar  1 <1>   0.0820 
  4 C       -2.9710     0.1240    -1.0140 C.ar  1 <1>  -0.1440 
  5 O       -2.0200     1.6830     2.1480 O.3   1 <1>  -0.3630 
  6 C       -2.5610     2.6920     0.0320 C.ar  1 <1>   0.0830 
  7 C       -3.1380     1.2450    -1.8130 C.ar  1 <1>  -0.1500 
  8 C       -3.2040    -1.2670    -1.5850 C.3   1 <1>   0.2540 
  9 C       -0.6890     2.0700     2.4050 C.3   1 <1>   0.0400 
 10 O       -2.3710     3.9270     0.5800 O.3   1 <1>  -0.3620 
 11 C       -2.9360     2.5150    -1.2980 C.ar  1 <1>  -0.1500 
 12 N       -4.4430    -1.8370    -1.0330 N.3   1 <1>  -0.8100 
 13 C       -2.6990     5.1080    -0.1180 C.3   1 <1>   0.0400 
 14 C       -4.4580    -3.3120    -1.1350 C.3   1 <1>   0.2900 
 15 C       -5.6550    -1.1940    -1.6040 C.3   1 <1>   0.1100 
 16 C       -5.0670    -3.8920     0.1290 C.2   1 <1>   0.0060 
 17 C       -6.9690    -1.5050    -0.8640 C.3   1 <1>   0.1200 
 18 N       -5.9300    -4.8570     0.1660 N.2   1 <1>  -0.5650 
 19 N       -4.7540    -3.3980     1.3450 N.pl3 1 <1>   0.0330 
 20 O       -7.4610    -2.7580    -1.2060 O.3   1 <1>  -0.6800 
 21 C       -6.1880    -5.0040     1.4800 C.2   1 <1>   0.0770 
 22 C       -5.4800    -4.1200     2.2160 C.2   1 <1>  -0.3020 
 23 H       -3.4310     1.1360    -2.8430 H     1 <1>   0.1500 
 24 H       -2.3610    -1.8800    -1.3150 H     1 <1>   0.0800 
 25 H       -3.2600    -1.2360    -2.6600 H     1 <1>   0.0800 
 26 H       -0.5330     2.0440     3.4690 H     1 <1>   0.0800 
 27 H       -0.5300     3.0670     2.0370 H     1 <1>   0.0800 
 28 H       -0.0260     1.3780     1.9180 H     1 <1>   0.0800 
 29 H       -3.0780     3.3550    -1.9510 H     1 <1>   0.1500 
 30 H       -2.5300     5.9410     0.5410 H     1 <1>   0.0800 
 31 H       -3.7360     5.0710    -0.4010 H     1 <1>   0.0800 
 32 H       -2.0630     5.1930    -0.9820 H     1 <1>   0.0800 
 33 H       -3.4590    -3.7020    -1.2200 H     1 <1>   0.0800 
 34 H       -5.0150    -3.6300    -2.0000 H     1 <1>   0.0800 
 35 H       -5.7630    -1.4510    -2.6440 H     1 <1>   0.0800 
 36 H       -5.5270    -0.1280    -1.5490 H     1 <1>   0.0800 
 37 H       -7.7180    -0.7890    -1.1510 H     1 <1>   0.0800 
 38 H       -6.8340    -1.4610     0.2030 H     1 <1>   0.0800 
 39 H       -4.1220    -2.6050     1.5140 H     1 <1>   0.2700 
 40 H       -6.9520    -3.4650    -0.7290 H     1 <1>   0.4000 
 41 H       -6.8820    -5.7490     1.8330 H     1 <1>   0.1500 
 42 H       -5.4530    -3.9660     3.2790 H     1 <1>   0.1500 
@<TRIPOS>BOND
  1   1   2  1   
  2   2   3  ar  
  3   2   4  ar  
  4   3   5  1   
  5   3   6  ar  
  6   4   7  ar  
  7   4   8  1   
  8   5   9  1   
  9   6  10  1   
 10   6  11  ar  
 11   7  11  ar  
 12   7  23  1   
 13   8  12  1   
 14   8  24  1   
 15   8  25  1   
 16   9  26  1   
 17   9  27  1   
 18   9  28  1   
 19  10  13  1   
 20  11  29  1   
 21  12  14  1   
 22  12  15  1   
 23  13  30  1   
 24  13  31  1   
 25  13  32  1   
 26  14  16  1   
 27  14  33  1   
 28  14  34  1   
 29  15  17  1   
 30  15  35  1   
 31  15  36  1   
 32  16  18  2   
 33  16  19  1   
 34  17  20  1   
 35  17  37  1   
 36  17  38  1   
 37  18  21  1   
 38  19  22  1   
 39  19  39  1   
 40  20  40  1   
 41  21  22  2   
 42  21  41  1   
 43  22  42  1   
@<TRIPOS>SUBSTRUCTURE
  1 ****   4 GROUP 4 **** **** 0

# MOE 2024.06 (io_trps.svl 2023.06)
