@<TRIPOS>MOLECULE
NONAME
51 54 1 0 0 
SMALL
USER_CHARGES


@<TRIPOS>ATOM
  1 O       -0.0590     0.7860    -1.0760 O.3   1 <1>  -0.3630 
  2 C       -0.8780    -0.0310    -0.3660 C.ar  1 <1>   0.0830 
  3 C        0.1820     2.0740    -0.5400 C.3   1 <1>   0.2000 
  4 C       -1.6900     0.4700     0.6540 C.ar  1 <1>   0.0830 
  5 C       -0.8980    -1.3830    -0.6640 C.ar  1 <1>  -0.1500 
  6 C       -1.1270     2.6710     0.0030 C.3   1 <1>   0.1200 
  7 C        0.8150     2.9300    -1.6440 C.3   1 <1>   0.2090 
  8 O       -1.7080     1.7940     0.9510 O.3   1 <1>  -0.3630 
  9 C       -2.4970    -0.3890     1.3790 C.ar  1 <1>  -0.1500 
 10 C       -1.7120    -2.2380     0.0610 C.ar  1 <1>  -0.1500 
 11 N        1.2010     4.2810    -1.1410 N.pl3 1 <1>  -0.8690 
 12 C       -2.5080    -1.7420     1.0820 C.ar  1 <1>  -0.1500 
 13 C        2.3300     4.6750    -0.5310 C.ar  1 <1>   0.4100 
 14 N        2.4050     5.9610    -0.2890 N.ar  1 <1>  -0.6200 
 15 C        3.3550     3.7820    -0.1700 C.ar  1 <1>  -0.1500 
 16 C        3.4980     6.4270     0.3050 C.ar  1 <1>   0.7710 
 17 C        4.4590     4.2690     0.4460 C.ar  1 <1>   0.2180 
 18 N        4.4990     5.6050     0.6720 N.ar  1 <1>  -0.1790 
 19 N        3.6080     7.7600     0.5550 N.pl3 1 <1>  -0.8380 
 20 C        5.6320     3.4040     0.8890 C.3   1 <1>  -0.0170 
 21 C        2.4690     8.7170     0.2870 C.3   1 <1>   0.2090 
 22 C        4.8030     8.4990     1.1010 C.3   1 <1>   0.2090 
 23 C        6.9270     3.7630     0.1490 C.3   1 <1>  -0.2400 
 24 C        2.9380     9.9380    -0.5250 C.3   1 <1>   0.1200 
 25 C        5.1450     9.7260     0.2340 C.3   1 <1>   0.1200 
 26 O        4.0290    10.5520     0.0980 O.3   1 <1>  -0.5600 
 27 H        0.8820     1.9560     0.2670 H     1 <1>   0.0800 
 28 H       -0.2760    -1.7600    -1.4560 H     1 <1>   0.1500 
 29 H       -1.8350     2.8180    -0.7920 H     1 <1>   0.0800 
 30 H       -0.9450     3.6100     0.4940 H     1 <1>   0.0800 
 31 H        0.1140     3.0450    -2.4530 H     1 <1>   0.0800 
 32 H        1.6860     2.4270    -2.0280 H     1 <1>   0.0800 
 33 H       -3.1130     0.0050     2.1670 H     1 <1>   0.1500 
 34 H       -1.7260    -3.2890    -0.1690 H     1 <1>   0.1500 
 35 H        0.5400     5.0320    -1.3730 H     1 <1>   0.4000 
 36 H       -3.1380    -2.4090     1.6450 H     1 <1>   0.1500 
 37 H        3.2430     2.7370    -0.3880 H     1 <1>   0.1500 
 38 H        5.2820     6.0390     1.1380 H     1 <1>   0.4570 
 39 H        5.4030     2.3680     0.6980 H     1 <1>   0.0800 
 40 H        5.7800     3.5060     1.9510 H     1 <1>   0.0800 
 41 H        2.0690     9.0630     1.2250 H     1 <1>   0.0800 
 42 H        1.6620     8.2480    -0.2490 H     1 <1>   0.0800 
 43 H        5.6720     7.8710     1.1500 H     1 <1>   0.0800 
 44 H        4.5820     8.8410     2.0990 H     1 <1>   0.0800 
 45 H        6.7950     3.6620    -0.9150 H     1 <1>   0.0800 
 46 H        7.7150     3.0920     0.4500 H     1 <1>   0.0800 
 47 H        7.2440     4.7670     0.3660 H     1 <1>   0.0800 
 48 H        2.1470    10.6650    -0.5910 H     1 <1>   0.0800 
 49 H        3.2230     9.6480    -1.5210 H     1 <1>   0.0800 
 50 H        5.4750     9.4280    -0.7460 H     1 <1>   0.0800 
 51 H        5.9230    10.3070     0.6980 H     1 <1>   0.0800 
@<TRIPOS>BOND
  1   1   2  1   
  2   1   3  1   
  3   2   4  ar  
  4   2   5  ar  
  5   3   6  1   
  6   3   7  1   
  7   3  27  1   
  8   4   8  1   
  9   4   9  ar  
 10   5  10  ar  
 11   5  28  1   
 12   6   8  1   
 13   6  29  1   
 14   6  30  1   
 15   7  11  1   
 16   7  31  1   
 17   7  32  1   
 18   9  12  ar  
 19   9  33  1   
 20  10  12  ar  
 21  10  34  1   
 22  11  13  1   
 23  11  35  1   
 24  12  36  1   
 25  13  14  ar  
 26  13  15  ar  
 27  14  16  ar  
 28  15  17  ar  
 29  15  37  1   
 30  16  18  ar  
 31  16  19  1   
 32  17  18  ar  
 33  17  20  1   
 34  18  38  1   
 35  19  21  1   
 36  19  22  1   
 37  20  23  1   
 38  20  39  1   
 39  20  40  1   
 40  21  24  1   
 41  21  41  1   
 42  21  42  1   
 43  22  25  1   
 44  22  43  1   
 45  22  44  1   
 46  23  45  1   
 47  23  46  1   
 48  23  47  1   
 49  24  26  1   
 50  24  48  1   
 51  24  49  1   
 52  25  26  1   
 53  25  50  1   
 54  25  51  1   
@<TRIPOS>SUBSTRUCTURE
  1 ****  13 GROUP 4 **** **** 0

# MOE 2024.06 (io_trps.svl 2023.06)
