@<TRIPOS>MOLECULE
NONAME
40 43 1 0 0 
SMALL
USER_CHARGES


@<TRIPOS>ATOM
  1 S       -0.6670    -0.6190    -1.8890 S.3   1 <1>  -0.0800 
  2 C       -1.5160     0.1310    -0.5370 C.2   1 <1>   0.3250 
  3 C        0.2080     0.8430    -2.1720 C.2   1 <1>  -0.1100 
  4 N       -1.1370     1.3590    -0.3640 N.2   1 <1>  -0.5650 
  5 C       -2.4960    -0.6650     0.1960 C.ar  1 <1>   0.6730 
  6 C       -0.1630     1.7800    -1.2760 C.2   1 <1>   0.1410 
  7 N       -3.1490    -0.0740     1.2090 N.ar  1 <1>  -0.6200 
  8 N       -2.6910    -1.9390    -0.1780 N.ar  1 <1>  -0.6200 
  9 C        0.3580     3.1350    -1.2030 C.2   1 <1>   0.7160 
 10 C       -4.0270    -0.7940     1.8640 C.ar  1 <1>   0.1600 
 11 C       -3.5750    -2.6370     0.4930 C.ar  1 <1>   0.1600 
 12 O        1.1960     3.5320    -1.9930 O.2   1 <1>  -0.5700 
 13 N       -0.1200     3.9650    -0.2200 N.am  1 <1>  -0.4940 
 14 C       -4.2810    -2.1030     1.5400 C.ar  1 <1>  -0.1500 
 15 C        0.0900     5.3440     0.0180 C.2   1 <1>  -0.0880 
 16 N        1.2760     6.0230     0.0360 N.pl3 1 <1>   0.3140 
 17 C       -0.8760     6.2520     0.2890 C.2   1 <1>  -0.1500 
 18 N        1.0690     7.3420     0.3000 N.2   1 <1>  -0.7070 
 19 C        2.6520     5.4530    -0.0990 C.3   1 <1>   0.1760 
 20 C       -0.2120     7.4600     0.4460 C.2   1 <1>   0.1390 
 21 C        3.5640     5.7860     1.0880 C.3   1 <1>  -0.1600 
 22 C        3.3920     5.9660    -1.3450 C.3   1 <1>  -0.1600 
 23 C        4.9720     5.7310     0.5050 C.3   1 <1>  -0.1600 
 24 C        4.8190     6.3110    -0.9000 C.3   1 <1>  -0.1600 
 25 H        0.9180     0.8720    -2.9790 H     1 <1>   0.1500 
 26 H       -4.5570    -0.3290     2.6790 H     1 <1>   0.1500 
 27 H       -3.7390    -3.6620     0.2010 H     1 <1>   0.1500 
 28 H       -0.8840     3.5220     0.3010 H     1 <1>   0.3700 
 29 H       -5.0030    -2.6840     2.0840 H     1 <1>   0.1500 
 30 H       -1.9360     6.1000     0.3650 H     1 <1>   0.1500 
 31 H        2.5810     4.3850    -0.1590 H     1 <1>   0.0800 
 32 H       -0.6970     8.3970     0.6660 H     1 <1>   0.1500 
 33 H        3.4370     5.0890     1.8970 H     1 <1>   0.0800 
 34 H        3.3730     6.7860     1.4380 H     1 <1>   0.0800 
 35 H        2.9130     6.8400    -1.7520 H     1 <1>   0.0800 
 36 H        3.4090     5.1950    -2.0950 H     1 <1>   0.0800 
 37 H        5.2960     4.7060     0.4370 H     1 <1>   0.0800 
 38 H        5.6780     6.2880     1.0970 H     1 <1>   0.0800 
 39 H        4.9220     7.3820    -0.8520 H     1 <1>   0.0800 
 40 H        5.5580     5.9190    -1.5770 H     1 <1>   0.0800 
@<TRIPOS>BOND
  1   1   2  1   
  2   1   3  1   
  3   2   4  2   
  4   2   5  1   
  5   3   6  2   
  6   3  25  1   
  7   4   6  1   
  8   5   7  ar  
  9   5   8  ar  
 10   6   9  1   
 11   7  10  ar  
 12   8  11  ar  
 13   9  12  2   
 14   9  13  am  
 15  10  14  ar  
 16  10  26  1   
 17  11  14  ar  
 18  11  27  1   
 19  13  15  1   
 20  13  28  1   
 21  14  29  1   
 22  15  16  1   
 23  15  17  2   
 24  16  18  1   
 25  16  19  1   
 26  17  20  1   
 27  17  30  1   
 28  18  20  2   
 29  19  21  1   
 30  19  22  1   
 31  19  31  1   
 32  20  32  1   
 33  21  23  1   
 34  21  33  1   
 35  21  34  1   
 36  22  24  1   
 37  22  35  1   
 38  22  36  1   
 39  23  24  1   
 40  23  37  1   
 41  23  38  1   
 42  24  39  1   
 43  24  40  1   
@<TRIPOS>SUBSTRUCTURE
  1 ****  13 GROUP 4 **** **** 0

# MOE 2024.06 (io_trps.svl 2023.06)
