@<TRIPOS>MOLECULE
NONAME
51 52 1 0 0 
SMALL
USER_CHARGES


@<TRIPOS>ATOM
  1 O        1.1690     3.3770    -1.4200 O.2   1 <1>  -0.5700 
  2 C        0.3120     2.5850    -1.0760 C.2   1 <1>   0.5440 
  3 N        0.6700     1.2800    -1.1200 N.am  1 <1>  -0.8000 
  4 C       -1.0070     2.9890    -0.6460 C.ar  1 <1>   0.0860 
  5 C       -1.2270     4.1160     0.1710 C.ar  1 <1>   0.4100 
  6 C       -2.1250     2.2720    -1.0520 C.ar  1 <1>  -0.1500 
  7 N       -2.4290     4.5350     0.5410 N.ar  1 <1>  -0.6200 
  8 N       -0.2080     4.9080     0.6590 N.pl3 1 <1>  -0.8380 
  9 C       -3.3740     2.6930    -0.6520 C.ar  1 <1>  -0.1430 
 10 C       -3.4680     3.8310     0.1420 C.ar  1 <1>   0.1670 
 11 C       -0.1540     6.3550     0.3000 C.3   1 <1>   0.2090 
 12 C        0.8900     4.4100     1.5410 C.3   1 <1>   0.2090 
 13 C       -4.6040     1.9110    -1.0990 C.3   1 <1>  -0.0970 
 14 C       -4.8160     4.3490     0.6090 C.3   1 <1>  -0.0970 
 15 C        1.1940     6.7350    -0.3830 C.3   1 <1>   0.4230 
 16 C        2.2380     5.1010     1.2180 C.3   1 <1>   0.3430 
 17 N        2.2550     5.6730    -0.1750 N.4   1 <1>  -0.9590 
 18 C        1.6690     8.1320     0.0690 C.3   1 <1>  -0.1600 
 19 C        3.5850     5.9490    -0.7720 C.3   1 <1>   0.4230 
 20 C        0.6480     9.2440    -0.2260 C.3   1 <1>  -0.2400 
 21 C        4.0880     4.6710    -1.4300 C.3   1 <1>  -0.2400 
 22 C        4.6010     6.4420     0.2620 C.3   1 <1>  -0.2400 
 23 H        1.5750     1.0120    -1.5100 H     1 <1>   0.3700 
 24 H        0.0490     0.5130    -0.8570 H     1 <1>   0.3700 
 25 H       -2.0140     1.4070    -1.6810 H     1 <1>   0.1500 
 26 H       -0.2890     6.9260     1.2020 H     1 <1>   0.0800 
 27 H       -0.9690     6.6040    -0.3580 H     1 <1>   0.0800 
 28 H        0.9970     3.3460     1.4210 H     1 <1>   0.0800 
 29 H        0.6300     4.5920     2.5700 H     1 <1>   0.0800 
 30 H       -4.3360     1.1190    -1.7750 H     1 <1>   0.0800 
 31 H       -5.2940     2.5620    -1.6050 H     1 <1>   0.0800 
 32 H       -5.0940     1.4760    -0.2470 H     1 <1>   0.0800 
 33 H       -4.6870     5.1390     1.3280 H     1 <1>   0.0800 
 34 H       -5.3790     3.5620     1.0750 H     1 <1>   0.0800 
 35 H       -5.3670     4.7380    -0.2270 H     1 <1>   0.0800 
 36 H        0.9980     6.7930    -1.4410 H     1 <1>   0.0800 
 37 H        3.0290     4.3800     1.3330 H     1 <1>   0.0800 
 38 H        2.4060     5.8910     1.9300 H     1 <1>   0.0800 
 39 H        1.8670     4.8810    -0.7330 H     1 <1>   0.4500 
 40 H        2.5690     8.3960    -0.4550 H     1 <1>   0.0800 
 41 H        1.8770     8.1230     1.1240 H     1 <1>   0.0800 
 42 H        3.4750     6.6990    -1.5400 H     1 <1>   0.0800 
 43 H        0.3970     9.2650    -1.2730 H     1 <1>   0.0800 
 44 H        1.0680    10.2010     0.0340 H     1 <1>   0.0800 
 45 H       -0.2560     9.1190     0.3440 H     1 <1>   0.0800 
 46 H        4.1580     3.8660    -0.7210 H     1 <1>   0.0800 
 47 H        5.0640     4.8380    -1.8510 H     1 <1>   0.0800 
 48 H        3.4350     4.3830    -2.2340 H     1 <1>   0.0800 
 49 H        4.8750     5.6640     0.9510 H     1 <1>   0.0800 
 50 H        4.2330     7.2900     0.8070 H     1 <1>   0.0800 
 51 H        5.4980     6.7500    -0.2470 H     1 <1>   0.0800 
@<TRIPOS>BOND
  1   1   2  2   
  2   2   3  am  
  3   2   4  1   
  4   3  23  1   
  5   3  24  1   
  6   4   5  ar  
  7   4   6  ar  
  8   5   7  ar  
  9   5   8  1   
 10   6   9  ar  
 11   6  25  1   
 12   7  10  ar  
 13   8  11  1   
 14   8  12  1   
 15   9  10  ar  
 16   9  13  1   
 17  10  14  1   
 18  11  15  1   
 19  11  26  1   
 20  11  27  1   
 21  12  16  1   
 22  12  28  1   
 23  12  29  1   
 24  13  30  1   
 25  13  31  1   
 26  13  32  1   
 27  14  33  1   
 28  14  34  1   
 29  14  35  1   
 30  15  17  1   
 31  15  18  1   
 32  15  36  1   
 33  16  17  1   
 34  16  37  1   
 35  16  38  1   
 36  17  19  1   
 37  17  39  1   
 38  18  20  1   
 39  18  40  1   
 40  18  41  1   
 41  19  21  1   
 42  19  22  1   
 43  19  42  1   
 44  20  43  1   
 45  20  44  1   
 46  20  45  1   
 47  21  46  1   
 48  21  47  1   
 49  21  48  1   
 50  22  49  1   
 51  22  50  1   
 52  22  51  1   
@<TRIPOS>SUBSTRUCTURE
  1 ****   8 GROUP 4 **** **** 0

# MOE 2024.06 (io_trps.svl 2023.06)
