@<TRIPOS>MOLECULE
NONAME
42 43 1 0 0 
SMALL
USER_CHARGES


@<TRIPOS>ATOM
  1 S       -1.1150     0.6700     1.6090 S.o2  1 <1>   1.5000 
  2 O       -2.0560     1.7510     1.8180 O.2   1 <1>  -0.6500 
  3 O       -0.9340    -0.3190     2.6510 O.2   1 <1>  -0.6500 
  4 N       -1.5620    -0.1350     0.1840 N.am  1 <1>  -0.8490 
  5 C        0.4840     1.3780     1.1430 C.2   1 <1>  -0.0220 
  6 C       -0.8490    -1.4060    -0.0920 C.3   1 <1>   0.1960 
  7 C       -2.9950    -0.2140    -0.0880 C.3   1 <1>   0.1960 
  8 S        1.6200     1.7930     2.4250 S.3   1 <1>  -0.0800 
  9 C        1.0250     1.7000    -0.0510 C.2   1 <1>  -0.1500 
 10 C       -1.7020    -2.7020     0.0240 C.3   1 <1>  -0.1060 
 11 C       -3.6760    -1.2480     0.8150 C.3   1 <1>  -0.1600 
 12 C        2.8020     2.3840     1.2720 C.2   1 <1>  -0.1100 
 13 C        2.3390     2.2660     0.0160 C.2   1 <1>  -0.1810 
 14 C       -2.3660    -3.0340    -1.3260 C.2   1 <1>   0.9060 
 15 C       -2.7830    -2.4630     1.1070 C.3   1 <1>   0.2000 
 16 C       -0.7850    -3.8820     0.4640 C.3   1 <1>  -0.1600 
 17 C        3.0720     2.6690    -1.2480 C.3   1 <1>  -0.0590 
 18 O       -3.3600    -3.7770    -1.3450 O.co2 1 <1>  -0.9000 
 19 O       -1.9100    -2.5660    -2.3770 O.co2 1 <1>  -0.9000 
 20 O       -3.6010    -3.5700     1.2250 O.3   1 <1>  -0.6800 
 21 C        0.3760    -4.1830    -0.5010 C.3   1 <1>  -0.1600 
 22 C        1.2130    -5.3620     0.0030 C.3   1 <1>  -0.2400 
 23 H       -0.4130    -1.3410    -1.0740 H     1 <1>   0.0800 
 24 H       -0.0200    -1.4840     0.5890 H     1 <1>   0.0800 
 25 H       -3.4590     0.7500     0.0340 H     1 <1>   0.0800 
 26 H       -3.1300    -0.5010    -1.1180 H     1 <1>   0.0800 
 27 H        0.5300     1.5530    -0.9960 H     1 <1>   0.1500 
 28 H       -4.5820    -1.5610     0.3250 H     1 <1>   0.0800 
 29 H       -3.9460    -0.7850     1.7460 H     1 <1>   0.0800 
 30 H        3.7300     2.7610     1.6660 H     1 <1>   0.1500 
 31 H       -2.3060    -2.3250     2.0620 H     1 <1>   0.0800 
 32 H       -0.3880    -3.6740     1.4420 H     1 <1>   0.0800 
 33 H       -1.3890    -4.7700     0.5470 H     1 <1>   0.0800 
 34 H        3.1940     1.8140    -1.8900 H     1 <1>   0.0800 
 35 H        4.0430     3.0630    -1.0090 H     1 <1>   0.0800 
 36 H        2.5130     3.4220    -1.7730 H     1 <1>   0.0800 
 37 H       -3.7580    -3.8780     0.2810 H     1 <1>   0.4000 
 38 H       -0.0170    -4.4230    -1.4760 H     1 <1>   0.0800 
 39 H        1.0140    -3.3230    -0.6070 H     1 <1>   0.0800 
 40 H        0.6000    -6.2430     0.0850 H     1 <1>   0.0800 
 41 H        1.6340    -5.1390     0.9670 H     1 <1>   0.0800 
 42 H        2.0130    -5.5640    -0.6860 H     1 <1>   0.0800 
@<TRIPOS>BOND
  1   1   2  2   
  2   1   3  2   
  3   1   4  am  
  4   1   5  1   
  5   4   6  1   
  6   4   7  1   
  7   5   8  1   
  8   5   9  2   
  9   6  10  1   
 10   6  23  1   
 11   6  24  1   
 12   7  11  1   
 13   7  25  1   
 14   7  26  1   
 15   8  12  1   
 16   9  13  1   
 17   9  27  1   
 18  10  14  1   
 19  10  15  1   
 20  10  16  1   
 21  11  15  1   
 22  11  28  1   
 23  11  29  1   
 24  12  13  2   
 25  12  30  1   
 26  13  17  1   
 27  14  18  ar  
 28  14  19  ar  
 29  15  20  1   
 30  15  31  1   
 31  16  21  1   
 32  16  32  1   
 33  16  33  1   
 34  17  34  1   
 35  17  35  1   
 36  17  36  1   
 37  20  37  1   
 38  21  22  1   
 39  21  38  1   
 40  21  39  1   
 41  22  40  1   
 42  22  41  1   
 43  22  42  1   
@<TRIPOS>SUBSTRUCTURE
  1 ****   6 GROUP 4 **** **** 0

# MOE 2024.06 (io_trps.svl 2023.06)
