@<TRIPOS>MOLECULE
NONAME
56 59 1 0 0 
SMALL
USER_CHARGES


@<TRIPOS>ATOM
  1 O       -0.5910     0.2370    -0.3970 O.2   1 <1>  -0.5700 
  2 C       -1.5390     0.9090    -0.0400 C.2   1 <1>   0.5440 
  3 N       -2.6890     0.2690     0.3640 N.am  1 <1>  -0.6600 
  4 C       -1.4350     2.3570    -0.0700 C.ar  1 <1>   0.0860 
  5 C       -2.7100    -1.1990     0.6580 C.3   1 <1>   0.1400 
  6 C       -4.0580     0.8180     0.1210 C.3   1 <1>   0.1400 
  7 C       -0.8340     3.0080    -1.1450 C.ar  1 <1>  -0.1500 
  8 C       -1.9140     3.1510     0.9720 C.ar  1 <1>  -0.1500 
  9 C       -3.5360    -1.9600    -0.3940 C.3   1 <1>   0.3440 
 10 C       -4.8230    -0.0490    -0.9070 C.3   1 <1>   0.2950 
 11 C       -0.7160     4.3850    -1.1840 C.ar  1 <1>  -0.1500 
 12 C       -1.8000     4.5300     0.9420 C.ar  1 <1>  -0.1500 
 13 O       -4.8150    -1.3880    -0.5050 O.3   1 <1>  -0.5600 
 14 C       -3.6620    -3.4330    -0.0150 C.ar  1 <1>  -0.1440 
 15 C       -6.2960     0.3460    -1.1110 C.3   1 <1>  -0.1950 
 16 C       -1.1910     5.1570    -0.1350 C.ar  1 <1>  -0.1430 
 17 C       -2.6950    -4.3310    -0.4440 C.ar  1 <1>  -0.1500 
 18 C       -4.7140    -3.8980     0.7630 C.ar  1 <1>  -0.1500 
 19 C       -6.8090     1.7500    -0.9830 C.3   1 <1>  -0.2000 
 20 C       -7.2280     0.6980     0.0070 C.3   1 <1>  -0.2000 
 21 C       -1.0350     6.6670    -0.1630 C.3   1 <1>   0.4860 
 22 C       -2.7770    -5.6700    -0.1020 C.ar  1 <1>  -0.1500 
 23 C       -4.7980    -5.2360     1.1060 C.ar  1 <1>  -0.1500 
 24 N        0.0810     7.0520     0.7490 N.4   1 <1>  -0.9590 
 25 C       -3.8280    -6.1240     0.6740 C.ar  1 <1>  -0.1500 
 26 C        0.1440     8.5320     0.9410 C.3   1 <1>   0.2630 
 27 C        1.3960     6.5120     0.2780 C.3   1 <1>   0.2630 
 28 H       -1.7110    -1.5990     0.6800 H     1 <1>   0.0800 
 29 H       -3.1440    -1.3620     1.6290 H     1 <1>   0.0800 
 30 H       -4.5970     0.8360     1.0500 H     1 <1>   0.0800 
 31 H       -3.9980     1.8230    -0.2530 H     1 <1>   0.0800 
 32 H       -0.4530     2.4110    -1.9580 H     1 <1>   0.1500 
 33 H       -2.3770     2.6700     1.8170 H     1 <1>   0.1500 
 34 H       -3.0540    -1.8820    -1.3530 H     1 <1>   0.0800 
 35 H       -4.3210     0.0150    -1.8580 H     1 <1>   0.0800 
 36 H       -0.2470     4.8400    -2.0420 H     1 <1>   0.1500 
 37 H       -2.1900     5.1000     1.7690 H     1 <1>   0.1500 
 38 H       -6.7210    -0.2340    -1.9130 H     1 <1>   0.1000 
 39 H       -1.8700    -3.9930    -1.0470 H     1 <1>   0.1500 
 40 H       -5.4750    -3.2160     1.1020 H     1 <1>   0.1500 
 41 H       -6.1760     2.5450    -0.6320 H     1 <1>   0.1000 
 42 H       -7.5360     2.0970    -1.6980 H     1 <1>   0.1000 
 43 H       -8.2330     0.3140    -0.0330 H     1 <1>   0.1000 
 44 H       -6.8550     0.7440     1.0150 H     1 <1>   0.1000 
 45 H       -1.9560     7.1240     0.1630 H     1 <1>   0.0800 
 46 H       -0.8280     6.9980    -1.1680 H     1 <1>   0.0800 
 47 H       -2.0230    -6.3590    -0.4400 H     1 <1>   0.1500 
 48 H       -5.6180    -5.5850     1.7080 H     1 <1>   0.1500 
 49 H       -0.1240     6.6040     1.6550 H     1 <1>   0.4500 
 50 H       -3.8940    -7.1640     0.9400 H     1 <1>   0.1500 
 51 H        0.3520     9.0250     0.0050 H     1 <1>   0.0800 
 52 H        0.9240     8.7850     1.6420 H     1 <1>   0.0800 
 53 H       -0.7930     8.9030     1.3260 H     1 <1>   0.0800 
 54 H        1.6440     6.9150    -0.6910 H     1 <1>   0.0800 
 55 H        1.3560     5.4360     0.2040 H     1 <1>   0.0800 
 56 H        2.1790     6.7740     0.9710 H     1 <1>   0.0800 
@<TRIPOS>BOND
  1   1   2  2   
  2   2   3  am  
  3   2   4  1   
  4   3   5  1   
  5   3   6  1   
  6   4   7  ar  
  7   4   8  ar  
  8   5   9  1   
  9   5  28  1   
 10   5  29  1   
 11   6  10  1   
 12   6  30  1   
 13   6  31  1   
 14   7  11  ar  
 15   7  32  1   
 16   8  12  ar  
 17   8  33  1   
 18   9  13  1   
 19   9  14  1   
 20   9  34  1   
 21  10  13  1   
 22  10  15  1   
 23  10  35  1   
 24  11  16  ar  
 25  11  36  1   
 26  12  16  ar  
 27  12  37  1   
 28  14  17  ar  
 29  14  18  ar  
 30  15  19  1   
 31  15  20  1   
 32  15  38  1   
 33  16  21  1   
 34  17  22  ar  
 35  17  39  1   
 36  18  23  ar  
 37  18  40  1   
 38  19  20  1   
 39  19  41  1   
 40  19  42  1   
 41  20  43  1   
 42  20  44  1   
 43  21  24  1   
 44  21  45  1   
 45  21  46  1   
 46  22  25  ar  
 47  22  47  1   
 48  23  25  ar  
 49  23  48  1   
 50  24  26  1   
 51  24  27  1   
 52  24  49  1   
 53  25  50  1   
 54  26  51  1   
 55  26  52  1   
 56  26  53  1   
 57  27  54  1   
 58  27  55  1   
 59  27  56  1   
@<TRIPOS>SUBSTRUCTURE
  1 ****   3 GROUP 4 **** **** 0

# MOE 2024.06 (io_trps.svl 2023.06)
