@<TRIPOS>MOLECULE
NONAME
43 45 1 0 0 
SMALL
USER_CHARGES


@<TRIPOS>ATOM
  1 O       -0.4000     0.1040    -0.7110 O.2   1 <1>  -0.5700 
  2 C       -1.3590     0.7790    -0.3780 C.2   1 <1>   0.7150 
  3 N       -2.5700     0.1320    -0.2120 N.am  1 <1>  -0.6600 
  4 C       -1.1630     2.1970    -0.1780 C.2   1 <1>   0.0550 
  5 C       -3.8590     0.7410     0.2040 C.3   1 <1>   0.1400 
  6 C       -2.7260    -1.3320    -0.3970 C.3   1 <1>   0.1400 
  7 O       -2.1220     3.0180     0.1850 O.3   1 <1>  -0.0190 
  8 C       -0.0530     2.9620    -0.3000 C.2   1 <1>  -0.1500 
  9 C       -4.8560    -0.4190     0.2490 C.3   1 <1>   0.2000 
 10 C       -4.0150    -1.6890     0.3450 C.3   1 <1>  -0.0800 
 11 N       -1.7280     4.2480     0.3100 N.2   1 <1>  -0.4100 
 12 C       -0.4720     4.2450     0.0210 C.2   1 <1>   0.1080 
 13 O       -5.6970    -0.3280     1.3470 O.3   1 <1>  -0.6800 
 14 C       -4.7450    -2.9240    -0.2110 C.3   1 <1>  -0.0170 
 15 C        0.4290     5.4750     0.0290 C.3   1 <1>   0.1010 
 16 C       -3.9050    -4.1840    -0.0780 C.ar  1 <1>   0.1670 
 17 C        0.4980     6.0890     1.4330 C.3   1 <1>  -0.2400 
 18 C       -0.0590     6.5150    -0.9870 C.3   1 <1>  -0.2400 
 19 N       -3.0050    -4.3980    -1.0230 N.ar  1 <1>  -0.6200 
 20 C       -4.1050    -5.0430     1.0020 C.ar  1 <1>   0.1600 
 21 C       -2.3220    -5.5120    -0.8180 C.ar  1 <1>   0.1600 
 22 N       -3.4220    -6.1570     1.2110 N.ar  1 <1>  -0.6200 
 23 C       -2.5240    -6.3620     0.2620 C.ar  1 <1>   0.1600 
 24 H       -3.7460     1.1900     1.1760 H     1 <1>   0.0800 
 25 H       -4.1730     1.4790    -0.5130 H     1 <1>   0.0800 
 26 H       -2.8150    -1.5460    -1.4490 H     1 <1>   0.0800 
 27 H       -1.8810    -1.8700     0.0010 H     1 <1>   0.0800 
 28 H        0.9360     2.6510    -0.5810 H     1 <1>   0.1500 
 29 H       -5.4600    -0.4140    -0.6420 H     1 <1>   0.0800 
 30 H       -3.7480    -1.8650     1.3730 H     1 <1>   0.0800 
 31 H       -5.1770    -0.2790     2.1730 H     1 <1>   0.4000 
 32 H       -4.9860    -2.7730    -1.2490 H     1 <1>   0.0800 
 33 H       -5.6720    -3.0530     0.3190 H     1 <1>   0.0800 
 34 H        1.4220     5.1680    -0.2540 H     1 <1>   0.0800 
 35 H       -0.4780     6.4170     1.7440 H     1 <1>   0.0800 
 36 H        1.1670     6.9300     1.4440 H     1 <1>   0.0800 
 37 H        0.8520     5.3570     2.1370 H     1 <1>   0.0800 
 38 H       -1.0480     6.8520    -0.7280 H     1 <1>   0.0800 
 39 H       -0.0950     6.0800    -1.9700 H     1 <1>   0.0800 
 40 H        0.6030     7.3610    -1.0070 H     1 <1>   0.0800 
 41 H       -4.8600    -4.7970     1.7280 H     1 <1>   0.1500 
 42 H       -1.5660    -5.7650    -1.5400 H     1 <1>   0.1500 
 43 H       -1.9170    -7.2470     0.3440 H     1 <1>   0.1500 
@<TRIPOS>BOND
  1   1   2  2   
  2   2   3  am  
  3   2   4  1   
  4   3   5  1   
  5   3   6  1   
  6   4   7  1   
  7   4   8  2   
  8   5   9  1   
  9   5  24  1   
 10   5  25  1   
 11   6  10  1   
 12   6  26  1   
 13   6  27  1   
 14   7  11  1   
 15   8  12  1   
 16   8  28  1   
 17   9  10  1   
 18   9  13  1   
 19   9  29  1   
 20  10  14  1   
 21  10  30  1   
 22  11  12  2   
 23  12  15  1   
 24  13  31  1   
 25  14  16  1   
 26  14  32  1   
 27  14  33  1   
 28  15  17  1   
 29  15  18  1   
 30  15  34  1   
 31  16  19  ar  
 32  16  20  ar  
 33  17  35  1   
 34  17  36  1   
 35  17  37  1   
 36  18  38  1   
 37  18  39  1   
 38  18  40  1   
 39  19  21  ar  
 40  20  22  ar  
 41  20  41  1   
 42  21  23  ar  
 43  21  42  1   
 44  22  23  ar  
 45  23  43  1   
@<TRIPOS>SUBSTRUCTURE
  1 ****   3 GROUP 4 **** **** 0

# MOE 2024.06 (io_trps.svl 2023.06)
