@<TRIPOS>MOLECULE
NONAME
40 41 1 0 0 
SMALL
USER_CHARGES


@<TRIPOS>ATOM
  1 O       -0.2220     0.8710     2.0490 O.co2 1 <1>  -0.9000 
  2 C       -1.0020     1.8450     2.0670 C.2   1 <1>   0.9790 
  3 O       -1.9920     1.7640     2.8290 O.co2 1 <1>  -0.9000 
  4 C       -0.8180     3.0470     1.2300 C.ar  1 <1>   0.1310 
  5 N        0.2920     3.2940     0.5230 N.ar  1 <1>  -0.6200 
  6 C       -1.8430     3.9780     1.1630 C.ar  1 <1>  -0.1500 
  7 C        0.3450     4.4010    -0.2050 C.ar  1 <1>   0.7200 
  8 C       -1.6960     5.0970     0.3850 C.ar  1 <1>   0.1660 
  9 N       -0.6110     5.3230    -0.3070 N.ar  1 <1>  -0.6200 
 10 N        1.5040     4.6200    -0.9250 N.pl3 1 <1>  -0.8380 
 11 C       -2.7960     6.1310     0.2890 C.3   1 <1>  -0.0970 
 12 C        1.8500     5.9670    -1.4870 C.3   1 <1>   0.2090 
 13 C        2.3130     3.4720    -1.4090 C.3   1 <1>   0.2090 
 14 C        2.0110     7.0580    -0.4100 C.3   1 <1>   0.2000 
 15 C        3.5890     3.3640    -0.5820 C.3   1 <1>  -0.2400 
 16 O        2.4650     8.2270    -1.0410 O.3   1 <1>  -0.5600 
 17 C        3.0060     6.6850     0.7040 C.3   1 <1>  -0.1600 
 18 C        2.5030     9.3540    -0.2190 C.3   1 <1>   0.1200 
 19 C        3.1940     7.8470     1.6860 C.3   1 <1>  -0.1600 
 20 C        3.5160     9.1290     0.9100 C.3   1 <1>  -0.1600 
 21 H       -2.7440     3.8080     1.7240 H     1 <1>   0.1500 
 22 H       -3.6390     5.8500     0.8920 H     1 <1>   0.0800 
 23 H       -3.1120     6.2230    -0.7330 H     1 <1>   0.0800 
 24 H       -2.4240     7.0800     0.6270 H     1 <1>   0.0800 
 25 H        1.0750     6.2660    -2.1710 H     1 <1>   0.0800 
 26 H        2.7730     5.8960    -2.0320 H     1 <1>   0.0800 
 27 H        2.5530     3.6110    -2.4490 H     1 <1>   0.0800 
 28 H        1.7520     2.5550    -1.3250 H     1 <1>   0.0800 
 29 H        1.0460     7.2700     0.0160 H     1 <1>   0.0800 
 30 H        4.2000     4.2360    -0.7130 H     1 <1>   0.0800 
 31 H        4.1460     2.4990    -0.8910 H     1 <1>   0.0800 
 32 H        3.3320     3.2510     0.4570 H     1 <1>   0.0800 
 33 H        3.9490     6.4260     0.2590 H     1 <1>   0.0800 
 34 H        2.6420     5.8220     1.2350 H     1 <1>   0.0800 
 35 H        1.5150     9.5280     0.1720 H     1 <1>   0.0800 
 36 H        2.7940    10.1930    -0.8260 H     1 <1>   0.0800 
 37 H        3.9830     7.6210     2.3810 H     1 <1>   0.0800 
 38 H        2.2830     7.9860     2.2430 H     1 <1>   0.0800 
 39 H        3.5070     9.9730     1.5760 H     1 <1>   0.0800 
 40 H        4.5000     9.0570     0.4800 H     1 <1>   0.0800 
@<TRIPOS>BOND
  1   1   2  ar  
  2   2   3  ar  
  3   2   4  1   
  4   4   5  ar  
  5   4   6  ar  
  6   5   7  ar  
  7   6   8  ar  
  8   6  21  1   
  9   7   9  ar  
 10   7  10  1   
 11   8   9  ar  
 12   8  11  1   
 13  10  12  1   
 14  10  13  1   
 15  11  22  1   
 16  11  23  1   
 17  11  24  1   
 18  12  14  1   
 19  12  25  1   
 20  12  26  1   
 21  13  15  1   
 22  13  27  1   
 23  13  28  1   
 24  14  16  1   
 25  14  17  1   
 26  14  29  1   
 27  15  30  1   
 28  15  31  1   
 29  15  32  1   
 30  16  18  1   
 31  17  19  1   
 32  17  33  1   
 33  17  34  1   
 34  18  20  1   
 35  18  35  1   
 36  18  36  1   
 37  19  20  1   
 38  19  37  1   
 39  19  38  1   
 40  20  39  1   
 41  20  40  1   
@<TRIPOS>SUBSTRUCTURE
  1 ****   7 GROUP 4 **** **** 0

# MOE 2024.06 (io_trps.svl 2023.06)
