@<TRIPOS>MOLECULE
NONAME
54 57 1 0 0 
SMALL
USER_CHARGES


@<TRIPOS>ATOM
  1 O        0.9270     0.2320     2.3070 O.2   1 <1>  -0.5700 
  2 C        1.8600     0.1330     1.5420 C.2   1 <1>   0.7150 
  3 N        2.2820    -1.1380     1.3200 N.am  1 <1>  -0.7300 
  4 C        2.4230     1.3120     0.9500 C.2   1 <1>  -0.2370 
  5 C        3.5290    -1.7280     0.7610 C.3   1 <1>   0.1400 
  6 N        3.2730     1.3670    -0.1030 N.pl3 1 <1>   0.3140 
  7 C        2.2080     2.6080     1.2960 C.2   1 <1>  -0.1500 
  8 C        4.5050    -0.7360     0.1120 C.3   1 <1>   0.2000 
  9 N        3.6060     2.6210    -0.4310 N.2   1 <1>  -0.7070 
 10 C        3.8340     0.2360    -0.8550 C.3   1 <1>   0.0960 
 11 C        2.9550     3.3920     0.4240 C.2   1 <1>   0.2030 
 12 O        5.4580    -1.4660    -0.5880 O.3   1 <1>  -0.6800 
 13 C        3.0200     4.8450     0.4400 C.2   1 <1>   0.7160 
 14 O        2.4450     5.5280     1.2700 O.2   1 <1>  -0.5700 
 15 N        3.7760     5.4830    -0.5030 N.am  1 <1>  -0.7300 
 16 C        3.9150     6.9600    -0.6630 C.3   1 <1>   0.1400 
 17 C        5.2730     7.5470    -0.1590 C.3   1 <1>   0.5030 
 18 N        5.3290     9.0290    -0.4440 N.4   1 <1>  -0.9590 
 19 C        5.5110     7.2760     1.3450 C.3   1 <1>  -0.1600 
 20 C        6.4590     6.8620    -0.8800 C.3   1 <1>  -0.1600 
 21 C        6.5360     9.7540     0.0380 C.3   1 <1>   0.3430 
 22 C        4.1750     9.8170     0.0740 C.3   1 <1>   0.3430 
 23 C        6.9740     6.8570     1.5010 C.3   1 <1>  -0.1600 
 24 C        7.3040     6.1590     0.1880 C.3   1 <1>  -0.1600 
 25 C        6.1640    11.2220    -0.0920 C.3   1 <1>  -0.1600 
 26 C        4.6390    11.2680     0.0270 C.3   1 <1>  -0.1600 
 27 H        1.6980    -1.8100     1.8250 H     1 <1>   0.3700 
 28 H        3.2390    -2.4600     0.0270 H     1 <1>   0.0800 
 29 H        4.0470    -2.2410     1.5540 H     1 <1>   0.0800 
 30 H        1.5800     2.9800     2.0880 H     1 <1>   0.1500 
 31 H        5.0390    -0.1890     0.8730 H     1 <1>   0.0800 
 32 H        4.5620     0.6290    -1.5410 H     1 <1>   0.0800 
 33 H        3.0430    -0.2420    -1.4030 H     1 <1>   0.0800 
 34 H        5.0650    -1.9620    -1.3330 H     1 <1>   0.4000 
 35 H        4.2260     4.8550    -1.1790 H     1 <1>   0.3700 
 36 H        3.1070     7.4270    -0.1280 H     1 <1>   0.0800 
 37 H        3.7950     7.1900    -1.7070 H     1 <1>   0.0800 
 38 H        5.3240     9.1340    -1.4640 H     1 <1>   0.4500 
 39 H        4.9140     6.4430     1.6670 H     1 <1>   0.0800 
 40 H        5.2620     8.1040     1.9830 H     1 <1>   0.0800 
 41 H        7.0740     7.5680    -1.4080 H     1 <1>   0.0800 
 42 H        6.1290     6.1320    -1.5980 H     1 <1>   0.0800 
 43 H        7.4150     9.5100    -0.5380 H     1 <1>   0.0800 
 44 H        6.7130     9.5260     1.0760 H     1 <1>   0.0800 
 45 H        3.9680     9.5400     1.0950 H     1 <1>   0.0800 
 46 H        3.2880     9.6680    -0.5210 H     1 <1>   0.0800 
 47 H        7.1120     6.1990     2.3430 H     1 <1>   0.0800 
 48 H        7.6100     7.7150     1.6300 H     1 <1>   0.0800 
 49 H        8.3580     6.1940    -0.0340 H     1 <1>   0.0800 
 50 H        7.0020     5.1260     0.2570 H     1 <1>   0.0800 
 51 H        6.4770    11.5910    -1.0530 H     1 <1>   0.0800 
 52 H        6.6460    11.8060     0.6730 H     1 <1>   0.0800 
 53 H        4.3270    11.7820     0.9210 H     1 <1>   0.0800 
 54 H        4.2070    11.7710    -0.8220 H     1 <1>   0.0800 
@<TRIPOS>BOND
  1   1   2  2   
  2   2   3  am  
  3   2   4  1   
  4   3   5  1   
  5   3  27  1   
  6   4   6  1   
  7   4   7  2   
  8   5   8  1   
  9   5  28  1   
 10   5  29  1   
 11   6   9  1   
 12   6  10  1   
 13   7  11  1   
 14   7  30  1   
 15   8  10  1   
 16   8  12  1   
 17   8  31  1   
 18   9  11  2   
 19  10  32  1   
 20  10  33  1   
 21  11  13  1   
 22  12  34  1   
 23  13  14  2   
 24  13  15  am  
 25  15  16  1   
 26  15  35  1   
 27  16  17  1   
 28  16  36  1   
 29  16  37  1   
 30  17  18  1   
 31  17  19  1   
 32  17  20  1   
 33  18  21  1   
 34  18  22  1   
 35  18  38  1   
 36  19  23  1   
 37  19  39  1   
 38  19  40  1   
 39  20  24  1   
 40  20  41  1   
 41  20  42  1   
 42  21  25  1   
 43  21  43  1   
 44  21  44  1   
 45  22  26  1   
 46  22  45  1   
 47  22  46  1   
 48  23  24  1   
 49  23  47  1   
 50  23  48  1   
 51  24  49  1   
 52  24  50  1   
 53  25  26  1   
 54  25  51  1   
 55  25  52  1   
 56  26  53  1   
 57  26  54  1   
@<TRIPOS>SUBSTRUCTURE
  1 ****  13 GROUP 4 **** **** 0

# MOE 2024.06 (io_trps.svl 2023.06)
