@<TRIPOS>MOLECULE
NONAME
48 49 1 0 0 
SMALL
USER_CHARGES


@<TRIPOS>ATOM
  1 N        0.6190    -0.5970     0.1550 N.ar  1 <1>  -0.6200 
  2 C        0.2020    -1.7270    -0.3670 C.ar  1 <1>   0.7710 
  3 C        0.9990     0.3630    -0.6690 C.ar  1 <1>   0.4100 
  4 N        0.1600    -1.9460    -1.6930 N.ar  1 <1>  -0.1790 
  5 N       -0.1830    -2.6600     0.5120 N.pl3 1 <1>  -0.8690 
  6 N        1.3720     1.5330    -0.0910 N.pl3 1 <1>  -0.8380 
  7 C        1.0170     0.1790    -2.0780 C.ar  1 <1>  -0.1430 
  8 C        0.5740    -1.0050    -2.5700 C.ar  1 <1>   0.2110 
  9 C       -0.5730    -4.0690     0.2980 C.3   1 <1>   0.4690 
 10 C        0.7230     2.8340    -0.4130 C.3   1 <1>   0.1290 
 11 C        2.1850     1.5580     1.1600 C.3   1 <1>   0.1290 
 12 C        1.5480     1.2530    -3.0260 C.3   1 <1>  -0.0970 
 13 C       -1.5900    -4.1400    -0.8430 C.2   1 <1>   0.0070 
 14 C       -1.0120    -4.6820     1.6360 C.3   1 <1>  -0.1600 
 15 N       -1.2470    -4.4290    -2.0540 N.2   1 <1>  -0.5650 
 16 N       -2.9040    -3.8660    -0.7650 N.pl3 1 <1>   0.3140 
 17 C       -1.5350    -6.1300     1.5330 C.3   1 <1>  -0.0800 
 18 C       -2.4230    -4.3670    -2.6930 C.2   1 <1>   0.3660 
 19 N       -3.4260    -4.0060    -1.9720 N.2   1 <1>  -0.7070 
 20 C       -3.7450    -3.4130     0.3570 C.3   1 <1>   0.0160 
 21 C       -1.9890    -6.6120     2.9150 C.3   1 <1>  -0.2400 
 22 C       -0.4720    -7.0890     0.9820 C.3   1 <1>  -0.2400 
 23 H       -0.2280    -2.8490    -1.9940 H     1 <1>   0.4570 
 24 H       -0.0640    -2.3910     1.4920 H     1 <1>   0.4000 
 25 H        0.5440    -1.2300    -3.6240 H     1 <1>   0.1500 
 26 H        0.3080    -4.6030    -0.0220 H     1 <1>   0.0800 
 27 H       -0.0920     2.6900    -1.0990 H     1 <1>   0.0800 
 28 H        1.4440     3.5040    -0.8500 H     1 <1>   0.0800 
 29 H        0.3310     3.2810     0.4850 H     1 <1>   0.0800 
 30 H        2.6920     0.6180     1.2950 H     1 <1>   0.0800 
 31 H        1.5450     1.7320     2.0080 H     1 <1>   0.0800 
 32 H        2.9220     2.3400     1.1030 H     1 <1>   0.0800 
 33 H        2.4600     1.6710    -2.6360 H     1 <1>   0.0800 
 34 H        0.8280     2.0440    -3.1410 H     1 <1>   0.0800 
 35 H        1.7590     0.8460    -3.9990 H     1 <1>   0.0800 
 36 H       -1.7700    -4.0680     2.0850 H     1 <1>   0.0800 
 37 H       -0.1650    -4.6770     2.3000 H     1 <1>   0.0800 
 38 H       -2.3900    -6.1660     0.8780 H     1 <1>   0.0800 
 39 H       -2.5060    -4.5970    -3.7450 H     1 <1>   0.1500 
 40 H       -3.2380    -2.6370     0.9000 H     1 <1>   0.0800 
 41 H       -3.9570    -4.2440     1.0030 H     1 <1>   0.0800 
 42 H       -4.6700    -3.0250    -0.0300 H     1 <1>   0.0800 
 43 H       -1.1660    -6.6210     3.6080 H     1 <1>   0.0800 
 44 H       -2.3870    -7.6100     2.8500 H     1 <1>   0.0800 
 45 H       -2.7610    -5.9730     3.3070 H     1 <1>   0.0800 
 46 H        0.4220    -7.0560     1.5800 H     1 <1>   0.0800 
 47 H       -0.2210    -6.8500    -0.0360 H     1 <1>   0.0800 
 48 H       -0.8450    -8.0990     0.9920 H     1 <1>   0.0800 
@<TRIPOS>BOND
  1   1   2  ar  
  2   1   3  ar  
  3   2   4  ar  
  4   2   5  1   
  5   3   6  1   
  6   3   7  ar  
  7   4   8  ar  
  8   4  23  1   
  9   5   9  1   
 10   5  24  1   
 11   6  10  1   
 12   6  11  1   
 13   7   8  ar  
 14   7  12  1   
 15   8  25  1   
 16   9  13  1   
 17   9  14  1   
 18   9  26  1   
 19  10  27  1   
 20  10  28  1   
 21  10  29  1   
 22  11  30  1   
 23  11  31  1   
 24  11  32  1   
 25  12  33  1   
 26  12  34  1   
 27  12  35  1   
 28  13  15  2   
 29  13  16  1   
 30  14  17  1   
 31  14  36  1   
 32  14  37  1   
 33  15  18  1   
 34  16  19  1   
 35  16  20  1   
 36  17  21  1   
 37  17  22  1   
 38  17  38  1   
 39  18  19  2   
 40  18  39  1   
 41  20  40  1   
 42  20  41  1   
 43  20  42  1   
 44  21  43  1   
 45  21  44  1   
 46  21  45  1   
 47  22  46  1   
 48  22  47  1   
 49  22  48  1   
@<TRIPOS>SUBSTRUCTURE
  1 ****   2 GROUP 4 **** **** 0

# MOE 2024.06 (io_trps.svl 2023.06)
