@<TRIPOS>MOLECULE
NONAME
51 54 1 0 0 
SMALL
USER_CHARGES


@<TRIPOS>ATOM
  1 O        0.4030     2.6400    -1.1480 O.2   1 <1>  -0.5700 
  2 C        1.4040     3.3080    -0.9920 C.2   1 <1>   0.6900 
  3 N        1.6860     4.4270    -1.7190 N.am  1 <1>  -0.4200 
  4 N        2.3670     3.0450    -0.0620 N.am  1 <1>  -0.6600 
  5 C        2.8560     4.9700    -1.2870 C.2   1 <1>   0.5690 
  6 C        0.8200     4.9630    -2.7930 C.3   1 <1>   0.0600 
  7 C        3.4310     4.1000    -0.1530 C.3   1 <1>   0.3610 
  8 C        2.2180     2.0230     1.0110 C.3   1 <1>   0.0600 
  9 O        3.3690     5.9730    -1.7290 O.2   1 <1>  -0.5700 
 10 C        3.5390     4.9150     1.1490 C.3   1 <1>  -0.1600 
 11 C        4.7750     3.4980    -0.6010 C.3   1 <1>  -0.1600 
 12 C        4.4030     4.2640     2.2310 C.3   1 <1>   0.2090 
 13 C        5.5570     2.8300     0.5250 C.3   1 <1>   0.2090 
 14 N        5.6830     3.7720     1.6590 N.pl3 1 <1>  -0.8380 
 15 C        6.8130     4.5720     1.7140 C.ar  1 <1>   0.4100 
 16 N        6.6680     5.8260     1.3280 N.ar  1 <1>  -0.6200 
 17 C        8.0440     4.0460     2.1320 C.ar  1 <1>   0.1600 
 18 C        7.8040     6.5440     1.3550 C.ar  1 <1>   0.3960 
 19 N        9.1750     4.7180     2.1810 N.ar  1 <1>  -0.6200 
 20 C        7.8330     7.9490     0.9350 C.2   1 <1>   0.5440 
 21 C        9.0070     5.9740     1.7850 C.ar  1 <1>   0.1600 
 22 O        8.6510     8.6980     1.4460 O.2   1 <1>  -0.5700 
 23 N        7.0090     8.4890    -0.0380 N.am  1 <1>  -0.6600 
 24 C        7.1370     9.8840    -0.5130 C.3   1 <1>   0.1400 
 25 C        6.0160     7.7500    -0.8570 C.3   1 <1>   0.1400 
 26 C        6.4930     9.8840    -1.8940 C.3   1 <1>  -0.1600 
 27 C        5.4440     8.7780    -1.8250 C.3   1 <1>  -0.1600 
 28 H        0.7200     4.2280    -3.5730 H     1 <1>   0.0800 
 29 H        1.2470     5.8610    -3.2030 H     1 <1>   0.0800 
 30 H       -0.1540     5.1830    -2.3920 H     1 <1>   0.0800 
 31 H        1.3610     1.4020     0.8070 H     1 <1>   0.0800 
 32 H        2.0640     2.5020     1.9600 H     1 <1>   0.0800 
 33 H        3.0830     1.3900     1.0550 H     1 <1>   0.0800 
 34 H        2.5590     5.1230     1.5370 H     1 <1>   0.0800 
 35 H        3.9870     5.8630     0.9190 H     1 <1>   0.0800 
 36 H        5.3910     4.2910    -0.9860 H     1 <1>   0.0800 
 37 H        4.6160     2.8000    -1.4020 H     1 <1>   0.0800 
 38 H        3.8870     3.4390     2.6860 H     1 <1>   0.0800 
 39 H        4.6100     4.9850     3.0050 H     1 <1>   0.0800 
 40 H        6.5360     2.5580     0.1670 H     1 <1>   0.0800 
 41 H        5.0710     1.9320     0.8570 H     1 <1>   0.0800 
 42 H        8.0600     3.0160     2.4340 H     1 <1>   0.1500 
 43 H        9.8830     6.5990     1.7960 H     1 <1>   0.1500 
 44 H        8.1690    10.1890    -0.5570 H     1 <1>   0.0800 
 45 H        6.5980    10.5310     0.1580 H     1 <1>   0.0800 
 46 H        5.2370     7.3420    -0.2380 H     1 <1>   0.0800 
 47 H        6.5090     6.9560    -1.3920 H     1 <1>   0.0800 
 48 H        7.2400     9.6340    -2.6270 H     1 <1>   0.0800 
 49 H        6.0670    10.8410    -2.1370 H     1 <1>   0.0800 
 50 H        4.5280     9.1650    -1.4150 H     1 <1>   0.0800 
 51 H        5.2350     8.3430    -2.7860 H     1 <1>   0.0800 
@<TRIPOS>BOND
  1   1   2  2   
  2   2   3  am  
  3   2   4  am  
  4   3   5  am  
  5   3   6  1   
  6   4   7  1   
  7   4   8  1   
  8   5   7  1   
  9   5   9  2   
 10   6  28  1   
 11   6  29  1   
 12   6  30  1   
 13   7  10  1   
 14   7  11  1   
 15   8  31  1   
 16   8  32  1   
 17   8  33  1   
 18  10  12  1   
 19  10  34  1   
 20  10  35  1   
 21  11  13  1   
 22  11  36  1   
 23  11  37  1   
 24  12  14  1   
 25  12  38  1   
 26  12  39  1   
 27  13  14  1   
 28  13  40  1   
 29  13  41  1   
 30  14  15  1   
 31  15  16  ar  
 32  15  17  ar  
 33  16  18  ar  
 34  17  19  ar  
 35  17  42  1   
 36  18  20  1   
 37  18  21  ar  
 38  19  21  ar  
 39  20  22  2   
 40  20  23  am  
 41  21  43  1   
 42  23  24  1   
 43  23  25  1   
 44  24  26  1   
 45  24  44  1   
 46  24  45  1   
 47  25  27  1   
 48  25  46  1   
 49  25  47  1   
 50  26  27  1   
 51  26  48  1   
 52  26  49  1   
 53  27  50  1   
 54  27  51  1   
@<TRIPOS>SUBSTRUCTURE
  1 ****  10 GROUP 4 **** **** 0

# MOE 2024.06 (io_trps.svl 2023.06)
