@<TRIPOS>MOLECULE
NONAME
41 43 1 0 0 
SMALL
USER_CHARGES


@<TRIPOS>ATOM
  1 O       -0.3840     0.4260    -0.0120 O.2   1 <1>  -0.5700 
  2 C       -1.4530     0.9700     0.1960 C.2   1 <1>   0.7150 
  3 N       -2.5890     0.1970     0.1850 N.am  1 <1>  -0.6600 
  4 C       -1.5110     2.3920     0.4350 C.2   1 <1>  -0.2370 
  5 C       -3.9670     0.7160    -0.0040 C.3   1 <1>   0.1400 
  6 C       -2.5420    -1.2620    -0.0750 C.3   1 <1>   0.1400 
  7 N       -0.7010     3.3060    -0.1920 N.pl3 1 <1>   0.0480 
  8 C       -2.3220     3.0930     1.2930 C.2   1 <1>  -0.1500 
  9 C       -4.7550    -0.4640    -0.5700 C.3   1 <1>   0.2000 
 10 C       -4.0040    -1.7130    -0.1120 C.3   1 <1>  -0.0800 
 11 C       -1.0230     4.5370     0.2650 C.2   1 <1>  -0.3020 
 12 C        0.3500     3.0260    -1.1910 C.3   1 <1>   0.0160 
 13 C       -2.0240     4.4530     1.1890 C.2   1 <1>   0.0190 
 14 O       -6.0560    -0.4860    -0.0940 O.3   1 <1>  -0.6800 
 15 C       -4.2570    -2.9220    -1.0270 C.3   1 <1>   0.0200 
 16 C       -2.6610     5.5100     1.9240 C.1   1 <1>   0.5380 
 17 C       -3.5480    -4.1840    -0.5650 C.2   1 <1>  -0.0400 
 18 N       -3.1770     6.3430     2.5080 N.1   1 <1>  -0.5570 
 19 O       -3.5440    -5.2240    -1.3570 O.3   1 <1>  -0.0190 
 20 C       -2.8750    -4.5180     0.5480 C.2   1 <1>  -0.1500 
 21 N       -2.9030    -6.2300    -0.8370 N.2   1 <1>  -0.4100 
 22 C       -2.4880    -5.8330     0.3120 C.2   1 <1>   0.1080 
 23 C       -1.6890    -6.6890     1.2680 C.3   1 <1>  -0.0590 
 24 H       -4.3660     1.0150     0.9490 H     1 <1>   0.0800 
 25 H       -3.9720     1.5460    -0.6900 H     1 <1>   0.0800 
 26 H       -2.0610    -1.4330    -1.0240 H     1 <1>   0.0800 
 27 H       -1.9850    -1.7630     0.6980 H     1 <1>   0.0800 
 28 H       -3.0650     2.6870     1.9570 H     1 <1>   0.1500 
 29 H       -4.7880    -0.3970    -1.6450 H     1 <1>   0.0800 
 30 H       -4.2960    -1.9550     0.8950 H     1 <1>   0.0800 
 31 H       -0.5270     5.4290    -0.0780 H     1 <1>   0.1500 
 32 H        0.7180     3.9480    -1.6030 H     1 <1>   0.0800 
 33 H       -0.0570     2.4180    -1.9780 H     1 <1>   0.0800 
 34 H        1.1570     2.4980    -0.7160 H     1 <1>   0.0800 
 35 H       -6.0700    -0.5990     0.8760 H     1 <1>   0.4000 
 36 H       -3.9310    -2.6920    -2.0260 H     1 <1>   0.0800 
 37 H       -5.3140    -3.1240    -1.0680 H     1 <1>   0.0800 
 38 H       -2.6620    -3.9490     1.4330 H     1 <1>   0.1500 
 39 H       -0.7450    -6.2190     1.4770 H     1 <1>   0.0800 
 40 H       -1.5070    -7.6550     0.8330 H     1 <1>   0.0800 
 41 H       -2.2330    -6.8180     2.1850 H     1 <1>   0.0800 
@<TRIPOS>BOND
  1   1   2  2   
  2   2   3  am  
  3   2   4  1   
  4   3   5  1   
  5   3   6  1   
  6   4   7  1   
  7   4   8  2   
  8   5   9  1   
  9   5  24  1   
 10   5  25  1   
 11   6  10  1   
 12   6  26  1   
 13   6  27  1   
 14   7  11  1   
 15   7  12  1   
 16   8  13  1   
 17   8  28  1   
 18   9  10  1   
 19   9  14  1   
 20   9  29  1   
 21  10  15  1   
 22  10  30  1   
 23  11  13  2   
 24  11  31  1   
 25  12  32  1   
 26  12  33  1   
 27  12  34  1   
 28  13  16  1   
 29  14  35  1   
 30  15  17  1   
 31  15  36  1   
 32  15  37  1   
 33  16  18  3   
 34  17  19  1   
 35  17  20  2   
 36  19  21  1   
 37  20  22  1   
 38  20  38  1   
 39  21  22  2   
 40  22  23  1   
 41  23  39  1   
 42  23  40  1   
 43  23  41  1   
@<TRIPOS>SUBSTRUCTURE
  1 ****   3 GROUP 4 **** **** 0

# MOE 2024.06 (io_trps.svl 2023.06)
