@<TRIPOS>MOLECULE
NONAME
36 37 1 0 0 
SMALL
USER_CHARGES


@<TRIPOS>ATOM
  1 S       -4.7750    -1.4200     2.8930 S.3   1 <1>  -0.0800 
  2 C       -4.7930    -2.3220     1.3900 C.2   1 <1>  -0.1100 
  3 C       -3.5160    -0.3600     2.2880 C.2   1 <1>  -0.1100 
  4 C       -3.8960    -1.8220     0.5150 C.2   1 <1>  -0.1810 
  5 C       -3.1680    -0.7020     1.0340 C.2   1 <1>  -0.1500 
  6 C       -3.6130    -2.3260    -0.8980 C.3   1 <1>   0.0820 
  7 C       -4.4850    -3.5030    -1.3220 C.2   1 <1>   0.5690 
  8 O       -3.9770    -4.6020    -1.3100 O.2   1 <1>  -0.5700 
  9 N       -5.7980    -3.3340    -1.6920 N.am  1 <1>  -0.6600 
 10 C       -6.6540    -4.5230    -1.9500 C.3   1 <1>   0.3200 
 11 C       -6.5560    -2.0430    -1.5930 C.3   1 <1>   0.1400 
 12 C       -7.0960    -5.0880    -0.6190 C.2   1 <1>  -0.3320 
 13 C       -6.4870    -1.2260    -2.8930 C.3   1 <1>   0.1200 
 14 N       -6.2270    -5.6460     0.2420 N.pl3 1 <1>   0.0330 
 15 C       -8.3100    -5.1630    -0.0320 C.2   1 <1>   0.0770 
 16 O       -6.7200    -2.0440    -3.9880 O.3   1 <1>  -0.6800 
 17 C       -6.9680    -6.0160     1.3070 C.2   1 <1>   0.0060 
 18 N       -8.2250    -5.7450     1.1790 N.2   1 <1>  -0.5650 
 19 C       -6.3670    -6.6780     2.5280 C.3   1 <1>  -0.0600 
 20 H       -5.4900    -3.1410     1.3260 H     1 <1>   0.1500 
 21 H       -3.1660     0.4160     2.9460 H     1 <1>   0.1500 
 22 H       -2.4150    -0.2030     0.4480 H     1 <1>   0.1500 
 23 H       -2.5850    -2.6350    -0.9500 H     1 <1>   0.0800 
 24 H       -3.7410    -1.5240    -1.5990 H     1 <1>   0.0800 
 25 H       -6.1000    -5.2670    -2.4980 H     1 <1>   0.0800 
 26 H       -7.5120    -4.2440    -2.5390 H     1 <1>   0.0800 
 27 H       -6.1800    -1.4440    -0.7840 H     1 <1>   0.0800 
 28 H       -7.5880    -2.2480    -1.3650 H     1 <1>   0.0800 
 29 H       -5.5160    -0.7800    -3.0100 H     1 <1>   0.0800 
 30 H       -7.2290    -0.4460    -2.8910 H     1 <1>   0.0800 
 31 H       -5.2110    -5.7310     0.1000 H     1 <1>   0.2700 
 32 H       -9.2570    -4.8220    -0.4180 H     1 <1>   0.1500 
 33 H       -6.1080    -2.8070    -3.9500 H     1 <1>   0.4000 
 34 H       -5.6390    -6.0290     2.9780 H     1 <1>   0.0800 
 35 H       -5.8980    -7.6040     2.2510 H     1 <1>   0.0800 
 36 H       -7.1390    -6.8830     3.2470 H     1 <1>   0.0800 
@<TRIPOS>BOND
  1   1   2  1   
  2   1   3  1   
  3   2   4  2   
  4   2  20  1   
  5   3   5  2   
  6   3  21  1   
  7   4   5  1   
  8   4   6  1   
  9   5  22  1   
 10   6   7  1   
 11   6  23  1   
 12   6  24  1   
 13   7   8  2   
 14   7   9  am  
 15   9  10  1   
 16   9  11  1   
 17  10  12  1   
 18  10  25  1   
 19  10  26  1   
 20  11  13  1   
 21  11  27  1   
 22  11  28  1   
 23  12  14  1   
 24  12  15  2   
 25  13  16  1   
 26  13  29  1   
 27  13  30  1   
 28  14  17  1   
 29  14  31  1   
 30  15  18  1   
 31  15  32  1   
 32  16  33  1   
 33  17  18  2   
 34  17  19  1   
 35  19  34  1   
 36  19  35  1   
 37  19  36  1   
@<TRIPOS>SUBSTRUCTURE
  1 ****   9 GROUP 4 **** **** 0

# MOE 2024.06 (io_trps.svl 2023.06)
