@<TRIPOS>MOLECULE
NONAME
58 61 1 0 0 
SMALL
USER_CHARGES


@<TRIPOS>ATOM
  1 O        0.9850    -0.1450     1.3970 O.2   1 <1>  -0.5700 
  2 C        1.9240    -0.9180     1.3760 C.2   1 <1>   0.5440 
  3 N        3.1060    -0.5590     1.9860 N.am  1 <1>  -0.6600 
  4 C        1.7560    -2.1950     0.7070 C.ar  1 <1>   0.0860 
  5 C        3.1960     0.6840     2.8180 C.3   1 <1>   0.3210 
  6 C        4.4210    -1.2100     1.7190 C.3   1 <1>   0.0600 
  7 C        2.0450    -3.4030     1.3410 C.ar  1 <1>  -0.1500 
  8 C        1.2740    -2.2570    -0.5980 C.ar  1 <1>  -0.1500 
  9 C        3.9640     1.7890     2.1040 C.2   1 <1>   0.1080 
 10 C        1.8590    -4.6170     0.7030 C.ar  1 <1>  -0.1500 
 11 C        1.0860    -3.4640    -1.2450 C.ar  1 <1>  -0.1500 
 12 N        5.1750     2.1710     2.4180 N.2   1 <1>  -0.7070 
 13 C        3.4680     2.5210     1.0340 C.2   1 <1>  -0.1810 
 14 C        1.3690    -4.6560    -0.5940 C.ar  1 <1>  -0.1430 
 15 N        5.4640     3.1630     1.5420 N.pl3 1 <1>   0.3000 
 16 C        4.4310     3.3740     0.7060 C.2   1 <1>  -0.3320 
 17 C        2.2560     2.6550     0.1570 C.3   1 <1>   0.0210 
 18 C        1.1320    -5.9840    -1.2900 C.3   1 <1>   0.4860 
 19 C        4.0870     4.2700    -0.4490 C.3   1 <1>   0.0200 
 20 C        2.6140     3.8770    -0.7280 C.3   1 <1>  -0.1600 
 21 N       -0.0540    -6.6380    -0.6760 N.4   1 <1>  -0.9590 
 22 C       -0.1990    -8.0450    -1.1220 C.3   1 <1>   0.3430 
 23 C       -1.3080    -5.8720    -0.9220 C.3   1 <1>   0.3430 
 24 C       -0.5280    -8.9470     0.0680 C.3   1 <1>  -0.1600 
 25 C       -2.3350    -6.1290     0.1840 C.3   1 <1>  -0.1600 
 26 C       -1.5540    -8.4020     1.0790 C.3   1 <1>  -0.1600 
 27 C       -2.7020    -7.6020     0.4460 C.3   1 <1>  -0.1600 
 28 H        3.6970     0.4550     3.7410 H     1 <1>   0.0800 
 29 H        2.2150     1.0490     3.0640 H     1 <1>   0.0800 
 30 H        4.3370    -1.9630     0.9570 H     1 <1>   0.0800 
 31 H        4.7930    -1.6610     2.6230 H     1 <1>   0.0800 
 32 H        5.1330    -0.4750     1.3830 H     1 <1>   0.0800 
 33 H        2.4160    -3.3780     2.3520 H     1 <1>   0.1500 
 34 H        1.0430    -1.3320    -1.1020 H     1 <1>   0.1500 
 35 H        2.1030    -5.5220     1.2330 H     1 <1>   0.1500 
 36 H        0.7150    -3.4570    -2.2560 H     1 <1>   0.1500 
 37 H        6.3600     3.6640     1.5460 H     1 <1>   0.2700 
 38 H        1.3720     2.8300     0.7460 H     1 <1>   0.0800 
 39 H        2.1320     1.7640    -0.4320 H     1 <1>   0.0800 
 40 H        2.0030    -6.6070    -1.1670 H     1 <1>   0.0800 
 41 H        0.9690    -5.8280    -2.3440 H     1 <1>   0.0800 
 42 H        4.7150     4.0490    -1.2950 H     1 <1>   0.0800 
 43 H        4.1730     5.3080    -0.1800 H     1 <1>   0.0800 
 44 H        1.9730     4.7000    -0.4670 H     1 <1>   0.0800 
 45 H        2.4710     3.6450    -1.7690 H     1 <1>   0.0800 
 46 H        0.0910    -6.6420     0.3400 H     1 <1>   0.4500 
 47 H        0.7120    -8.3940    -1.5820 H     1 <1>   0.0800 
 48 H       -0.9890    -8.1140    -1.8530 H     1 <1>   0.0800 
 49 H       -1.7250    -6.1440    -1.8780 H     1 <1>   0.0800 
 50 H       -1.0980    -4.8150    -0.9410 H     1 <1>   0.0800 
 51 H        0.3810    -9.1910     0.5900 H     1 <1>   0.0800 
 52 H       -0.9050    -9.8730    -0.3320 H     1 <1>   0.0800 
 53 H       -3.2360    -5.6060    -0.0900 H     1 <1>   0.0800 
 54 H       -1.9890    -5.6740     1.0960 H     1 <1>   0.0800 
 55 H       -1.0600    -7.7970     1.8200 H     1 <1>   0.0800 
 56 H       -1.9740    -9.2430     1.6070 H     1 <1>   0.0800 
 57 H       -3.0510    -8.0790    -0.4540 H     1 <1>   0.0800 
 58 H       -3.5270    -7.6090     1.1400 H     1 <1>   0.0800 
@<TRIPOS>BOND
  1   1   2  2   
  2   2   3  am  
  3   2   4  1   
  4   3   5  1   
  5   3   6  1   
  6   4   7  ar  
  7   4   8  ar  
  8   5   9  1   
  9   5  28  1   
 10   5  29  1   
 11   6  30  1   
 12   6  31  1   
 13   6  32  1   
 14   7  10  ar  
 15   7  33  1   
 16   8  11  ar  
 17   8  34  1   
 18   9  12  2   
 19   9  13  1   
 20  10  14  ar  
 21  10  35  1   
 22  11  14  ar  
 23  11  36  1   
 24  12  15  1   
 25  13  16  2   
 26  13  17  1   
 27  14  18  1   
 28  15  16  1   
 29  15  37  1   
 30  16  19  1   
 31  17  20  1   
 32  17  38  1   
 33  17  39  1   
 34  18  21  1   
 35  18  40  1   
 36  18  41  1   
 37  19  20  1   
 38  19  42  1   
 39  19  43  1   
 40  20  44  1   
 41  20  45  1   
 42  21  22  1   
 43  21  23  1   
 44  21  46  1   
 45  22  24  1   
 46  22  47  1   
 47  22  48  1   
 48  23  25  1   
 49  23  49  1   
 50  23  50  1   
 51  24  26  1   
 52  24  51  1   
 53  24  52  1   
 54  25  27  1   
 55  25  53  1   
 56  25  54  1   
 57  26  27  1   
 58  26  55  1   
 59  26  56  1   
 60  27  57  1   
 61  27  58  1   
@<TRIPOS>SUBSTRUCTURE
  1 ****   4 GROUP 4 **** **** 0

# MOE 2024.06 (io_trps.svl 2023.06)
