@<TRIPOS>MOLECULE
NONAME
57 60 1 0 0 
SMALL
USER_CHARGES


@<TRIPOS>ATOM
  1 O        0.8120    -1.8150     1.5270 O.2   1 <1>  -0.5700 
  2 C        1.2550    -1.4490     0.4560 C.2   1 <1>   0.5440 
  3 N        0.7450    -1.9760    -0.6960 N.am  1 <1>  -0.7300 
  4 C        2.2640    -0.4220     0.3900 C.ar  1 <1>   0.0860 
  5 C       -0.6440    -2.4820    -0.8120 C.3   1 <1>   0.1400 
  6 C        1.9880     0.9340     0.1290 C.ar  1 <1>   0.0830 
  7 C        3.5940    -0.7960     0.5700 C.ar  1 <1>  -0.1500 
  8 C       -0.6900    -4.0000    -1.0290 C.3   1 <1>  -0.0800 
  9 O        0.7510     1.4790    -0.0420 O.3   1 <1>  -0.3630 
 10 C        3.0330     1.8410     0.0260 C.ar  1 <1>  -0.1500 
 11 C        4.6300     0.1130     0.4750 C.ar  1 <1>   0.0830 
 12 C       -2.1540    -4.4230    -1.1020 C.3   1 <1>   0.1400 
 13 C       -0.1750    -4.7840     0.1820 C.3   1 <1>  -0.1600 
 14 C       -0.4220     0.9240     0.5150 C.3   1 <1>   0.1200 
 15 C        4.3460     1.4450     0.1950 C.ar  1 <1>  -0.1500 
 16 O        5.8850    -0.3690     0.6630 O.3   1 <1>  -0.3630 
 17 N       -2.5520    -4.6220     0.3120 N.am  1 <1>  -0.6600 
 18 C       -1.3480    -4.7970     1.1590 C.3   1 <1>   0.1400 
 19 C       -1.5540     1.9420     0.4190 C.3   1 <1>  -0.1600 
 20 C        7.0050     0.4880     0.6470 C.3   1 <1>   0.0400 
 21 C       -3.7870    -4.4190     0.8650 C.2   1 <1>   0.5690 
 22 C       -2.8400     1.4270     1.0920 C.3   1 <1>   0.0960 
 23 O       -3.9720    -4.5240     2.0550 O.2   1 <1>  -0.5700 
 24 C       -4.9940    -4.0760     0.0100 C.3   1 <1>  -0.0990 
 25 N       -3.3940     0.1760     0.5090 N.pl3 1 <1>   0.3140 
 26 C       -5.5730    -2.7010     0.3670 C.3   1 <1>   0.0210 
 27 N       -3.2670    -0.2080    -0.7700 N.2   1 <1>  -0.4180 
 28 C       -4.2150    -0.6660     1.1360 C.2   1 <1>  -0.3020 
 29 C       -4.5870    -1.5550     0.2050 C.2   1 <1>   0.0460 
 30 N       -3.9850    -1.2640    -0.9540 N.2   1 <1>  -0.2270 
 31 H        1.1680    -1.6860    -1.5800 H     1 <1>   0.3700 
 32 H       -1.1250    -1.9830    -1.6370 H     1 <1>   0.0800 
 33 H       -1.1970    -2.2280     0.0780 H     1 <1>   0.0800 
 34 H        3.8250    -1.8230     0.7870 H     1 <1>   0.1500 
 35 H       -0.1680    -4.2560    -1.9330 H     1 <1>   0.0800 
 36 H        2.8070     2.8700    -0.1870 H     1 <1>   0.1500 
 37 H       -2.2470    -5.3580    -1.6270 H     1 <1>   0.0800 
 38 H       -2.7500    -3.6710    -1.5900 H     1 <1>   0.0800 
 39 H        0.7050    -4.3540     0.6270 H     1 <1>   0.0800 
 40 H        0.0480    -5.7960    -0.1060 H     1 <1>   0.0800 
 41 H       -0.2230     0.6560     1.5400 H     1 <1>   0.0800 
 42 H       -0.6900     0.0580    -0.0550 H     1 <1>   0.0800 
 43 H        5.1240     2.1790     0.1080 H     1 <1>   0.1500 
 44 H       -1.2730    -3.9690     1.8450 H     1 <1>   0.0800 
 45 H       -1.4000    -5.7190     1.7130 H     1 <1>   0.0800 
 46 H       -1.7540     2.1640    -0.6150 H     1 <1>   0.0800 
 47 H       -1.2480     2.8490     0.9080 H     1 <1>   0.0800 
 48 H        7.8810    -0.1040     0.8420 H     1 <1>   0.0800 
 49 H        6.8880     1.2310     1.4170 H     1 <1>   0.0800 
 50 H        7.0820     0.9450    -0.3230 H     1 <1>   0.0800 
 51 H       -3.6010     2.1820     1.0190 H     1 <1>   0.0800 
 52 H       -2.6470     1.2490     2.1350 H     1 <1>   0.0800 
 53 H       -5.7430    -4.8230     0.1940 H     1 <1>   0.0800 
 54 H       -4.7650    -4.1080    -1.0350 H     1 <1>   0.0800 
 55 H       -5.9150    -2.7190     1.3870 H     1 <1>   0.0800 
 56 H       -6.4250    -2.5060    -0.2590 H     1 <1>   0.0800 
 57 H       -4.4940    -0.5820     2.1690 H     1 <1>   0.1500 
@<TRIPOS>BOND
  1   1   2  2   
  2   2   3  am  
  3   2   4  1   
  4   3   5  1   
  5   3  31  1   
  6   4   6  ar  
  7   4   7  ar  
  8   5   8  1   
  9   5  32  1   
 10   5  33  1   
 11   6   9  1   
 12   6  10  ar  
 13   7  11  ar  
 14   7  34  1   
 15   8  12  1   
 16   8  13  1   
 17   8  35  1   
 18   9  14  1   
 19  10  15  ar  
 20  10  36  1   
 21  11  15  ar  
 22  11  16  1   
 23  12  17  1   
 24  12  37  1   
 25  12  38  1   
 26  13  18  1   
 27  13  39  1   
 28  13  40  1   
 29  14  19  1   
 30  14  41  1   
 31  14  42  1   
 32  15  43  1   
 33  16  20  1   
 34  17  18  1   
 35  17  21  am  
 36  18  44  1   
 37  18  45  1   
 38  19  22  1   
 39  19  46  1   
 40  19  47  1   
 41  20  48  1   
 42  20  49  1   
 43  20  50  1   
 44  21  23  2   
 45  21  24  1   
 46  22  25  1   
 47  22  51  1   
 48  22  52  1   
 49  24  26  1   
 50  24  53  1   
 51  24  54  1   
 52  25  27  1   
 53  25  28  1   
 54  26  29  1   
 55  26  55  1   
 56  26  56  1   
 57  27  30  2   
 58  28  29  2   
 59  28  57  1   
 60  29  30  1   
@<TRIPOS>SUBSTRUCTURE
  1 ****   5 GROUP 4 **** **** 0

# MOE 2024.06 (io_trps.svl 2023.06)
