@<TRIPOS>MOLECULE
NONAME
52 54 1 0 0 
SMALL
USER_CHARGES


@<TRIPOS>ATOM
  1 CL      -0.9120    -0.5470    -0.7470 Cl    1 <1>  -0.1770 
  2 C       -2.0960     0.6280    -0.2220 C.ar  1 <1>   0.1770 
  3 C       -3.2160     0.2020     0.4690 C.ar  1 <1>  -0.1440 
  4 C       -1.8910     1.9590    -0.5260 C.ar  1 <1>  -0.1500 
  5 C       -4.1450     1.1500     0.8630 C.ar  1 <1>  -0.1500 
  6 C       -3.4250    -1.2640     0.7880 C.3   1 <1>   0.4870 
  7 C       -2.8290     2.9130    -0.1380 C.ar  1 <1>   0.0820 
  8 C       -3.9710     2.4940     0.5720 C.ar  1 <1>   0.0820 
  9 N       -3.7350    -1.9990    -0.4720 N.4   1 <1>  -0.9590 
 10 O       -2.6570     4.2290    -0.4510 O.3   1 <1>  -0.3620 
 11 O       -4.9830     3.2840     1.0300 O.3   1 <1>  -0.3620 
 12 C       -4.9940    -1.5120    -1.1370 C.3   1 <1>   0.3430 
 13 C       -3.8750    -3.4680    -0.2500 C.3   1 <1>   0.3430 
 14 C       -1.5150     4.7130    -1.1260 C.3   1 <1>   0.0400 
 15 C       -4.8680     4.6820     1.1650 C.3   1 <1>   0.1200 
 16 C       -5.9030    -2.7360    -1.2920 C.3   1 <1>   0.2000 
 17 C       -5.3720    -3.7590    -0.2970 C.3   1 <1>  -0.0800 
 18 C       -6.0620     5.1780     1.9750 C.3   1 <1>  -0.2400 
 19 O       -7.2270    -2.4360    -1.0160 O.3   1 <1>  -0.6800 
 20 C       -5.6920    -5.2130    -0.6770 C.3   1 <1>  -0.0170 
 21 C       -4.9410    -6.1650     0.2390 C.ar  1 <1>  -0.1440 
 22 C       -5.3300    -6.3690     1.5480 C.ar  1 <1>  -0.1500 
 23 C       -3.8300    -6.8670    -0.1850 C.ar  1 <1>  -0.1500 
 24 C       -4.5950    -7.2200     2.3550 C.ar  1 <1>   0.1600 
 25 C       -3.1650    -7.6960     0.7040 C.ar  1 <1>   0.1600 
 26 N       -3.5150    -7.8760     1.9660 N.ar  1 <1>  -0.6200 
 27 H       -1.0010     2.2210    -1.0650 H     1 <1>   0.1500 
 28 H       -5.0280     0.8700     1.4120 H     1 <1>   0.1500 
 29 H       -4.2330    -1.3740     1.4920 H     1 <1>   0.0800 
 30 H       -2.5270    -1.6610     1.2350 H     1 <1>   0.0800 
 31 H       -2.9360    -1.8260    -1.1020 H     1 <1>   0.4500 
 32 H       -5.4830    -0.7720    -0.5250 H     1 <1>   0.0800 
 33 H       -4.7760    -1.0850    -2.1020 H     1 <1>   0.0800 
 34 H       -3.3880    -4.0000    -1.0520 H     1 <1>   0.0800 
 35 H       -3.4420    -3.7840     0.6860 H     1 <1>   0.0800 
 36 H       -1.6150     5.7780    -1.2300 H     1 <1>   0.0800 
 37 H       -1.4620     4.2580    -2.0990 H     1 <1>   0.0800 
 38 H       -0.6390     4.4870    -0.5430 H     1 <1>   0.0800 
 39 H       -3.9450     4.9050     1.6720 H     1 <1>   0.0800 
 40 H       -4.8700     5.1210     0.1820 H     1 <1>   0.0800 
 41 H       -5.8490    -3.0980    -2.3060 H     1 <1>   0.0800 
 42 H       -5.7670    -3.5560     0.6830 H     1 <1>   0.0800 
 43 H       -6.0620     4.7240     2.9500 H     1 <1>   0.0800 
 44 H       -6.9790     4.9400     1.4660 H     1 <1>   0.0800 
 45 H       -6.0020     6.2440     2.0930 H     1 <1>   0.0800 
 46 H       -7.4030    -2.2990    -0.0640 H     1 <1>   0.4000 
 47 H       -5.4170    -5.4050    -1.7010 H     1 <1>   0.0800 
 48 H       -6.7520    -5.3890    -0.5900 H     1 <1>   0.0800 
 49 H       -6.1980    -5.8810     1.9520 H     1 <1>   0.1500 
 50 H       -3.4710    -6.7890    -1.1950 H     1 <1>   0.1500 
 51 H       -4.9100    -7.3720     3.3740 H     1 <1>   0.1500 
 52 H       -2.3010    -8.2400     0.3600 H     1 <1>   0.1500 
@<TRIPOS>BOND
  1   1   2  1   
  2   2   3  ar  
  3   2   4  ar  
  4   3   5  ar  
  5   3   6  1   
  6   4   7  ar  
  7   4  27  1   
  8   5   8  ar  
  9   5  28  1   
 10   6   9  1   
 11   6  29  1   
 12   6  30  1   
 13   7   8  ar  
 14   7  10  1   
 15   8  11  1   
 16   9  12  1   
 17   9  13  1   
 18   9  31  1   
 19  10  14  1   
 20  11  15  1   
 21  12  16  1   
 22  12  32  1   
 23  12  33  1   
 24  13  17  1   
 25  13  34  1   
 26  13  35  1   
 27  14  36  1   
 28  14  37  1   
 29  14  38  1   
 30  15  18  1   
 31  15  39  1   
 32  15  40  1   
 33  16  17  1   
 34  16  19  1   
 35  16  41  1   
 36  17  20  1   
 37  17  42  1   
 38  18  43  1   
 39  18  44  1   
 40  18  45  1   
 41  19  46  1   
 42  20  21  1   
 43  20  47  1   
 44  20  48  1   
 45  21  22  ar  
 46  21  23  ar  
 47  22  24  ar  
 48  22  49  1   
 49  23  25  ar  
 50  23  50  1   
 51  24  26  ar  
 52  24  51  1   
 53  25  26  ar  
 54  25  52  1   
@<TRIPOS>SUBSTRUCTURE
  1 ****   6 GROUP 4 **** **** 0

# MOE 2024.06 (io_trps.svl 2023.06)
