@<TRIPOS>MOLECULE
NONAME
54 57 1 0 0 
SMALL
USER_CHARGES


@<TRIPOS>ATOM
  1 O       -0.4090    -0.1720     0.6590 O.2   1 <1>  -0.5700 
  2 C       -1.4090     0.4290     0.3460 C.2   1 <1>   0.5690 
  3 N       -2.5010    -0.2190    -0.1550 N.am  1 <1>  -0.6600 
  4 C       -1.4420     1.9370     0.5070 C.3   1 <1>  -0.0990 
  5 C       -3.7510     0.4070    -0.6550 C.3   1 <1>   0.1400 
  6 C       -2.5390    -1.6890    -0.3310 C.3   1 <1>   0.1400 
  7 C       -0.2100     2.4720     1.2470 C.3   1 <1>   0.0960 
  8 C       -4.5200    -0.7340    -1.3220 C.3   1 <1>   0.2000 
  9 C       -3.9900    -2.0170    -0.6860 C.3   1 <1>  -0.0800 
 10 N       -0.2870     3.9430     1.3540 N.pl3 1 <1>   0.0480 
 11 O       -5.8840    -0.6230    -1.1040 O.3   1 <1>  -0.6800 
 12 C       -4.1360    -3.2430    -1.6020 C.3   1 <1>  -0.0160 
 13 C        0.2120     4.8940     0.5240 C.2   1 <1>   0.0060 
 14 C       -0.9390     4.6300     2.3090 C.2   1 <1>  -0.3020 
 15 C       -3.6340    -4.5080    -0.9130 C.ar  1 <1>  -0.1440 
 16 N       -0.0810     6.1010     0.8860 N.2   1 <1>  -0.5650 
 17 C        1.0360     4.5930    -0.7190 C.3   1 <1>   0.0200 
 18 C       -0.8010     5.9380     2.0100 C.2   1 <1>   0.0770 
 19 C       -4.4010    -5.1960     0.0570 C.ar  1 <1>   0.0000 
 20 C       -2.4040    -5.0130    -1.2190 C.ar  1 <1>  -0.1500 
 21 C        2.5050     4.3420    -0.3640 C.3   1 <1>  -0.2400 
 22 C       -3.8270    -6.3470     0.6520 C.ar  1 <1>   0.3100 
 23 C       -5.6990    -4.8140     0.4710 C.ar  1 <1>  -0.1500 
 24 C       -1.9340    -6.1640    -0.5750 C.ar  1 <1>   0.1600 
 25 N       -2.5980    -6.8170     0.3240 N.ar  1 <1>  -0.6200 
 26 C       -4.5580    -7.0430     1.6280 C.ar  1 <1>  -0.1500 
 27 C       -6.3850    -5.5170     1.4230 C.ar  1 <1>  -0.1500 
 28 C       -5.8100    -6.6440     2.0130 C.ar  1 <1>  -0.1500 
 29 H       -1.4910     2.3800    -0.4700 H     1 <1>   0.0800 
 30 H       -2.3240     2.2040     1.0590 H     1 <1>   0.0800 
 31 H       -4.3040     0.8080     0.1760 H     1 <1>   0.0800 
 32 H       -3.5300     1.1820    -1.3690 H     1 <1>   0.0800 
 33 H       -1.8720    -1.9590    -1.1330 H     1 <1>   0.0800 
 34 H       -2.2290    -2.1930     0.5700 H     1 <1>   0.0800 
 35 H        0.6870     2.2000     0.7210 H     1 <1>   0.0800 
 36 H       -0.1600     2.0540     2.2360 H     1 <1>   0.0800 
 37 H       -4.3440    -0.7190    -2.3840 H     1 <1>   0.0800 
 38 H       -4.5050    -2.1930     0.2420 H     1 <1>   0.0800 
 39 H       -6.0850    -0.6790    -0.1500 H     1 <1>   0.4000 
 40 H       -3.5790    -3.0800    -2.5080 H     1 <1>   0.0800 
 41 H       -5.1650    -3.3690    -1.8920 H     1 <1>   0.0800 
 42 H       -1.4520     4.1660     3.1310 H     1 <1>   0.1500 
 43 H        0.6280     3.7440    -1.2360 H     1 <1>   0.0800 
 44 H        0.9760     5.4390    -1.3810 H     1 <1>   0.0800 
 45 H       -1.1880     6.7860     2.5510 H     1 <1>   0.1500 
 46 H       -1.7670    -4.5480    -1.9490 H     1 <1>   0.1500 
 47 H        2.6020     3.4950     0.2890 H     1 <1>   0.0800 
 48 H        2.9080     5.2070     0.1340 H     1 <1>   0.0800 
 49 H        3.0760     4.1610    -1.2570 H     1 <1>   0.0800 
 50 H       -6.1630    -3.9540     0.0270 H     1 <1>   0.1500 
 51 H       -0.9570    -6.5270    -0.8460 H     1 <1>   0.1500 
 52 H       -4.0960    -7.9080     2.0660 H     1 <1>   0.1500 
 53 H       -7.3720    -5.2150     1.7290 H     1 <1>   0.1500 
 54 H       -6.3580    -7.1890     2.7620 H     1 <1>   0.1500 
@<TRIPOS>BOND
  1   1   2  2   
  2   2   3  am  
  3   2   4  1   
  4   3   5  1   
  5   3   6  1   
  6   4   7  1   
  7   4  29  1   
  8   4  30  1   
  9   5   8  1   
 10   5  31  1   
 11   5  32  1   
 12   6   9  1   
 13   6  33  1   
 14   6  34  1   
 15   7  10  1   
 16   7  35  1   
 17   7  36  1   
 18   8   9  1   
 19   8  11  1   
 20   8  37  1   
 21   9  12  1   
 22   9  38  1   
 23  10  13  1   
 24  10  14  1   
 25  11  39  1   
 26  12  15  1   
 27  12  40  1   
 28  12  41  1   
 29  13  16  2   
 30  13  17  1   
 31  14  18  2   
 32  14  42  1   
 33  15  19  ar  
 34  15  20  ar  
 35  16  18  1   
 36  17  21  1   
 37  17  43  1   
 38  17  44  1   
 39  18  45  1   
 40  19  22  ar  
 41  19  23  ar  
 42  20  24  ar  
 43  20  46  1   
 44  21  47  1   
 45  21  48  1   
 46  21  49  1   
 47  22  25  ar  
 48  22  26  ar  
 49  23  27  ar  
 50  23  50  1   
 51  24  25  ar  
 52  24  51  1   
 53  26  28  ar  
 54  26  52  1   
 55  27  28  ar  
 56  27  53  1   
 57  28  54  1   
@<TRIPOS>SUBSTRUCTURE
  1 ****   3 GROUP 4 **** **** 0

# MOE 2024.06 (io_trps.svl 2023.06)
