@<TRIPOS>MOLECULE
NONAME
36 38 1 0 0 
SMALL
USER_CHARGES


@<TRIPOS>ATOM
  1 S       -0.1050    -0.0860    -0.4690 S.3   1 <1>  -0.0800 
  2 C       -1.2370    -0.9380     0.5270 C.2   1 <1>   0.4420 
  3 C       -0.2120     1.2270     0.6570 C.2   1 <1>   0.1980 
  4 N       -1.5880    -0.2560     1.5550 N.2   1 <1>  -0.3380 
  5 N       -1.5860    -2.2060     0.1130 N.am  1 <1>  -0.4940 
  6 N       -1.0020     0.9780     1.6220 N.2   1 <1>  -0.3380 
  7 C        0.6000     2.4940     0.3960 C.3   1 <1>   0.3800 
  8 C       -2.5650    -3.0370     0.6020 C.2   1 <1>   0.5440 
  9 O        0.3350     3.0010    -0.8800 O.3   1 <1>  -0.5600 
 10 C        2.1050     2.2420     0.4700 C.3   1 <1>  -0.2400 
 11 O       -3.4520    -2.5910     1.2930 O.2   1 <1>  -0.5700 
 12 C       -2.5660    -4.4360     0.2540 C.ar  1 <1>   0.0860 
 13 C       -0.9290     3.5740    -1.0330 C.3   1 <1>   0.0400 
 14 C       -3.7400    -5.1590     0.1490 C.ar  1 <1>   0.1600 
 15 C       -1.4120    -5.1560     0.0040 C.ar  1 <1>   0.1600 
 16 N       -3.7770    -6.4290    -0.1920 N.ar  1 <1>  -0.6200 
 17 N       -1.4120    -6.4230    -0.3430 N.ar  1 <1>  -0.6200 
 18 C       -2.6030    -6.9980    -0.4200 C.ar  1 <1>   0.5880 
 19 C       -2.6260    -8.4670    -0.8180 C.3   1 <1>  -0.0680 
 20 C       -3.3010    -9.4950     0.0450 C.3   1 <1>  -0.2000 
 21 C       -1.8100    -9.4880    -0.0780 C.3   1 <1>  -0.2000 
 22 H       -1.0740    -2.5350    -0.7010 H     1 <1>   0.3700 
 23 H        0.3340     3.2440     1.1210 H     1 <1>   0.0800 
 24 H        2.4070     1.5390    -0.2840 H     1 <1>   0.0800 
 25 H        2.3600     1.8460     1.4360 H     1 <1>   0.0800 
 26 H        2.6360     3.1660     0.3280 H     1 <1>   0.0800 
 27 H       -1.0070     3.9460    -2.0390 H     1 <1>   0.0800 
 28 H       -1.0390     4.3890    -0.3380 H     1 <1>   0.0800 
 29 H       -1.6890     2.8300    -0.8650 H     1 <1>   0.0800 
 30 H       -4.6770    -4.6650     0.3530 H     1 <1>   0.1500 
 31 H       -0.4540    -4.6760     0.0960 H     1 <1>   0.1500 
 32 H       -2.7150    -8.5820    -1.8830 H     1 <1>   0.1000 
 33 H       -3.8630   -10.2760    -0.4360 H     1 <1>   0.1000 
 34 H       -3.7490    -9.1730     0.9690 H     1 <1>   0.1000 
 35 H       -1.2210    -9.1630     0.7630 H     1 <1>   0.1000 
 36 H       -1.3270   -10.2660    -0.6440 H     1 <1>   0.1000 
@<TRIPOS>BOND
  1   1   2  1   
  2   1   3  1   
  3   2   4  2   
  4   2   5  1   
  5   3   6  2   
  6   3   7  1   
  7   4   6  1   
  8   5   8  am  
  9   5  22  1   
 10   7   9  1   
 11   7  10  1   
 12   7  23  1   
 13   8  11  2   
 14   8  12  1   
 15   9  13  1   
 16  10  24  1   
 17  10  25  1   
 18  10  26  1   
 19  12  14  ar  
 20  12  15  ar  
 21  13  27  1   
 22  13  28  1   
 23  13  29  1   
 24  14  16  ar  
 25  14  30  1   
 26  15  17  ar  
 27  15  31  1   
 28  16  18  ar  
 29  17  18  ar  
 30  18  19  1   
 31  19  20  1   
 32  19  21  1   
 33  19  32  1   
 34  20  21  1   
 35  20  33  1   
 36  20  34  1   
 37  21  35  1   
 38  21  36  1   
@<TRIPOS>SUBSTRUCTURE
  1 ****   5 GROUP 4 **** **** 0

# MOE 2024.06 (io_trps.svl 2023.06)
