@<TRIPOS>MOLECULE
NONAME
49 51 1 0 0 
SMALL
USER_CHARGES


@<TRIPOS>ATOM
  1 S       -1.0330    -0.6530     1.3620 S.3   1 <1>  -0.0800 
  2 C       -2.1600    -1.8360     0.7150 C.2   1 <1>  -0.1400 
  3 C       -0.7390    -1.6380     2.7830 C.2   1 <1>  -0.1100 
  4 C       -2.2670    -2.8860     1.5540 C.2   1 <1>  -0.1500 
  5 C       -2.7980    -1.4980    -0.6190 C.3   1 <1>   0.3200 
  6 C       -1.4600    -2.7730     2.7310 C.2   1 <1>  -0.1500 
  7 N       -3.8870    -2.4470    -0.8980 N.am  1 <1>  -0.7300 
  8 C       -4.2970    -2.8490    -2.1230 C.2   1 <1>   0.5690 
  9 O       -3.8020    -2.4210    -3.1370 O.2   1 <1>  -0.5700 
 10 C       -5.4290    -3.8800    -2.2110 C.3   1 <1>   0.1710 
 11 N       -6.2680    -3.9950    -0.9740 N.3   1 <1>  -0.8100 
 12 C       -7.0060    -5.2680    -0.9680 C.3   1 <1>   0.1100 
 13 C       -7.1360    -2.8140    -0.8210 C.3   1 <1>   0.1100 
 14 C       -7.7430    -5.5430     0.3550 C.3   1 <1>   0.1400 
 15 C       -7.5190    -2.6420     0.6490 C.3   1 <1>  -0.1600 
 16 N       -8.9910    -4.7250     0.4980 N.am  1 <1>  -0.6600 
 17 C       -8.8210    -3.3450     1.0520 C.3   1 <1>   0.1400 
 18 C      -10.2520    -5.2910     0.5220 C.2   1 <1>   0.7030 
 19 O      -11.1290    -4.7380     1.1600 O.2   1 <1>  -0.5700 
 20 C      -10.5760    -6.5310    -0.1720 C.2   1 <1>   0.2770 
 21 N      -11.3270    -7.6010     0.3250 N.pl3 1 <1>  -0.7640 
 22 C      -10.2410    -6.8850    -1.4400 C.2   1 <1>   0.2000 
 23 C      -11.4130    -8.5250    -0.6200 C.cat 1 <1>   0.6500 
 24 C      -11.9580    -7.6150     1.6770 C.3   1 <1>   0.2740 
 25 N      -10.7570    -8.1260    -1.6990 N.pl3 1 <1>  -0.7000 
 26 H       -0.0480    -1.2580     3.5140 H     1 <1>   0.1500 
 27 H       -2.8830    -3.7540     1.3980 H     1 <1>   0.1500 
 28 H       -2.0610    -1.5420    -1.4030 H     1 <1>   0.0800 
 29 H       -3.2030    -0.5010    -0.5850 H     1 <1>   0.0800 
 30 H       -1.4600    -3.5480     3.4770 H     1 <1>   0.1500 
 31 H       -4.4010    -2.8110    -0.0930 H     1 <1>   0.3700 
 32 H       -4.9600    -4.8260    -2.4150 H     1 <1>   0.0800 
 33 H       -6.0510    -3.6350    -3.0540 H     1 <1>   0.0800 
 34 H       -6.2950    -6.0640    -1.1080 H     1 <1>   0.0800 
 35 H       -7.6960    -5.2930    -1.7920 H     1 <1>   0.0800 
 36 H       -8.0090    -2.8900    -1.4470 H     1 <1>   0.0800 
 37 H       -6.5950    -1.9320    -1.1210 H     1 <1>   0.0800 
 38 H       -7.0780    -5.3460     1.1790 H     1 <1>   0.0800 
 39 H       -7.9900    -6.5890     0.3990 H     1 <1>   0.0800 
 40 H       -7.6590    -1.5930     0.8380 H     1 <1>   0.0800 
 41 H       -6.7100    -2.9600     1.2820 H     1 <1>   0.0800 
 42 H       -9.6460    -2.7410     0.7120 H     1 <1>   0.0800 
 43 H       -8.8800    -3.3890     2.1270 H     1 <1>   0.0800 
 44 H       -9.6800    -6.3140    -2.1620 H     1 <1>   0.1500 
 45 H      -11.9450    -9.4640    -0.5290 H     1 <1>   0.1500 
 46 H      -11.2090    -7.4570     2.4360 H     1 <1>   0.0800 
 47 H      -12.4440    -8.5590     1.8600 H     1 <1>   0.0800 
 48 H      -12.6910    -6.8280     1.7480 H     1 <1>   0.0800 
 49 H      -10.6780    -8.6480    -2.5790 H     1 <1>   0.4500 
@<TRIPOS>BOND
  1   1   2  1   
  2   1   3  1   
  3   2   4  2   
  4   2   5  1   
  5   3   6  2   
  6   3  26  1   
  7   4   6  1   
  8   4  27  1   
  9   5   7  1   
 10   5  28  1   
 11   5  29  1   
 12   6  30  1   
 13   7   8  am  
 14   7  31  1   
 15   8   9  2   
 16   8  10  1   
 17  10  11  1   
 18  10  32  1   
 19  10  33  1   
 20  11  12  1   
 21  11  13  1   
 22  12  14  1   
 23  12  34  1   
 24  12  35  1   
 25  13  15  1   
 26  13  36  1   
 27  13  37  1   
 28  14  16  1   
 29  14  38  1   
 30  14  39  1   
 31  15  17  1   
 32  15  40  1   
 33  15  41  1   
 34  16  17  1   
 35  16  18  am  
 36  17  42  1   
 37  17  43  1   
 38  18  19  2   
 39  18  20  1   
 40  20  21  1   
 41  20  22  2   
 42  21  23  ar  
 43  21  24  1   
 44  22  25  1   
 45  22  44  1   
 46  23  25  ar  
 47  23  45  1   
 48  24  46  1   
 49  24  47  1   
 50  24  48  1   
 51  25  49  1   
@<TRIPOS>SUBSTRUCTURE
  1 ****  11 GROUP 4 **** **** 0

# MOE 2024.06 (io_trps.svl 2023.06)
