@<TRIPOS>MOLECULE
NONAME
47 49 1 0 0 
SMALL
USER_CHARGES


@<TRIPOS>ATOM
  1 O       -2.2130     1.9090    -1.1460 O.3   1 <1>  -0.0190 
  2 N       -1.2360     2.7520    -1.0110 N.2   1 <1>  -0.4100 
  3 C       -2.0610     1.0840    -0.1390 C.2   1 <1>   0.2980 
  4 C       -0.5780     2.4050     0.0250 C.2   1 <1>   0.3350 
  5 N       -1.0730     1.3290     0.6250 N.2   1 <1>  -0.5650 
  6 C       -3.0430    -0.0650     0.0360 C.3   1 <1>   0.1000 
  7 C        0.6670     3.1030     0.5760 C.3   1 <1>   0.1010 
  8 C       -3.0090    -1.0180    -1.1690 C.3   1 <1>  -0.1600 
  9 C       -4.4710     0.4540     0.2730 C.3   1 <1>  -0.1600 
 10 C        0.6960     4.6040     0.2420 C.3   1 <1>  -0.2400 
 11 C        1.9420     2.4250     0.0560 C.3   1 <1>  -0.2400 
 12 C       -4.0220    -2.1500    -0.9990 C.3   1 <1>   0.2090 
 13 C       -5.4570    -0.7050     0.4160 C.3   1 <1>   0.2090 
 14 N       -5.3720    -1.5710    -0.7850 N.pl3 1 <1>  -0.8380 
 15 C       -6.4180    -2.4680    -0.9220 C.ar  1 <1>   0.4100 
 16 N       -6.4430    -3.4700    -0.0560 N.ar  1 <1>  -0.6200 
 17 C       -7.3800    -2.2940    -1.9260 C.ar  1 <1>   0.1600 
 18 C       -7.4750    -4.2810    -0.2450 C.ar  1 <1>   0.4100 
 19 N       -8.4180    -3.0870    -2.1340 N.ar  1 <1>  -0.6200 
 20 N       -7.5740    -5.3760     0.6080 N.pl3 1 <1>  -0.8380 
 21 C       -8.4280    -4.0770    -1.2560 C.ar  1 <1>   0.1600 
 22 C       -7.3050    -6.7160     0.0240 C.3   1 <1>   0.1290 
 23 C       -7.1030    -5.2260     2.0120 C.3   1 <1>   0.1290 
 24 H       -2.7400    -0.6180     0.9080 H     1 <1>   0.0800 
 25 H        0.6430     3.0040     1.6470 H     1 <1>   0.0800 
 26 H       -2.0230    -1.4350    -1.2720 H     1 <1>   0.0800 
 27 H       -3.2390    -0.4820    -2.0730 H     1 <1>   0.0800 
 28 H       -4.7820     1.0720    -0.5500 H     1 <1>   0.0800 
 29 H       -4.4940     1.0540     1.1650 H     1 <1>   0.0800 
 30 H        0.7440     4.7510    -0.8220 H     1 <1>   0.0800 
 31 H        1.5490     5.0740     0.6970 H     1 <1>   0.0800 
 32 H       -0.1960     5.0780     0.6120 H     1 <1>   0.0800 
 33 H        1.9900     2.4970    -1.0160 H     1 <1>   0.0800 
 34 H        1.9390     1.3840     0.3290 H     1 <1>   0.0800 
 35 H        2.8150     2.8890     0.4780 H     1 <1>   0.0800 
 36 H       -3.7580    -2.7660    -0.1550 H     1 <1>   0.0800 
 37 H       -4.0320    -2.7700    -1.8800 H     1 <1>   0.0800 
 38 H       -6.4600    -0.3230     0.5150 H     1 <1>   0.0800 
 39 H       -5.2290    -1.2870     1.2930 H     1 <1>   0.0800 
 40 H       -7.2600    -1.4480    -2.5750 H     1 <1>   0.1500 
 41 H       -9.2320    -4.7850    -1.3170 H     1 <1>   0.1500 
 42 H       -7.5360    -6.7220    -1.0270 H     1 <1>   0.0800 
 43 H       -7.9110    -7.4550     0.5170 H     1 <1>   0.0800 
 44 H       -6.2660    -6.9670     0.1490 H     1 <1>   0.0800 
 45 H       -7.3600    -4.2470     2.3800 H     1 <1>   0.0800 
 46 H       -6.0330    -5.3410     2.0540 H     1 <1>   0.0800 
 47 H       -7.5690    -5.9650     2.6390 H     1 <1>   0.0800 
@<TRIPOS>BOND
  1   1   2  1   
  2   1   3  1   
  3   2   4  2   
  4   3   5  2   
  5   3   6  1   
  6   4   5  1   
  7   4   7  1   
  8   6   8  1   
  9   6   9  1   
 10   6  24  1   
 11   7  10  1   
 12   7  11  1   
 13   7  25  1   
 14   8  12  1   
 15   8  26  1   
 16   8  27  1   
 17   9  13  1   
 18   9  28  1   
 19   9  29  1   
 20  10  30  1   
 21  10  31  1   
 22  10  32  1   
 23  11  33  1   
 24  11  34  1   
 25  11  35  1   
 26  12  14  1   
 27  12  36  1   
 28  12  37  1   
 29  13  14  1   
 30  13  38  1   
 31  13  39  1   
 32  14  15  1   
 33  15  16  ar  
 34  15  17  ar  
 35  16  18  ar  
 36  17  19  ar  
 37  17  40  1   
 38  18  20  1   
 39  18  21  ar  
 40  19  21  ar  
 41  20  22  1   
 42  20  23  1   
 43  21  41  1   
 44  22  42  1   
 45  22  43  1   
 46  22  44  1   
 47  23  45  1   
 48  23  46  1   
 49  23  47  1   
@<TRIPOS>SUBSTRUCTURE
  1 ****  12 GROUP 4 **** **** 0

# MOE 2024.06 (io_trps.svl 2023.06)
