@<TRIPOS>MOLECULE
NONAME
33 34 1 0 0 
SMALL
USER_CHARGES


@<TRIPOS>ATOM
  1 O        0.6100    -0.4200     1.7380 O.2   1 <1>  -0.5700 
  2 C        1.3410    -0.7660     0.8310 C.2   1 <1>   0.5440 
  3 N        2.1940     0.1240     0.2360 N.am  1 <1>  -0.4930 
  4 C        1.3200    -2.1270     0.3660 C.ar  1 <1>   0.0860 
  5 C        2.3990     1.5000     0.5090 C.2   1 <1>   0.0630 
  6 C        0.4840    -2.5400    -0.6620 C.ar  1 <1>   0.1660 
  7 C        2.1560    -3.0990     0.8980 C.ar  1 <1>   0.1660 
  8 C        3.2660     2.3190    -0.1270 C.2   1 <1>  -0.3320 
  9 C        1.7810     2.3110     1.4620 C.2   1 <1>   0.1390 
 10 N        0.5050    -3.7640    -1.1390 N.ar  1 <1>  -0.6200 
 11 C       -0.5110    -1.5930    -1.3160 C.3   1 <1>  -0.0960 
 12 N        2.1910    -4.3280     0.4340 N.ar  1 <1>  -0.6200 
 13 C        3.1000    -2.8000     2.0520 C.3   1 <1>  -0.0970 
 14 N        3.1360     3.5410     0.4500 N.pl3 1 <1>   0.3140 
 15 C        4.2310     2.0230    -1.2670 C.3   1 <1>  -0.0600 
 16 N        2.2190     3.5330     1.4300 N.2   1 <1>  -0.7070 
 17 C        1.3600    -4.5900    -0.5600 C.ar  1 <1>   0.4700 
 18 C        3.8640     4.7700     0.1100 C.3   1 <1>   0.0160 
 19 H        2.7750    -0.2390    -0.5170 H     1 <1>   0.3700 
 20 H        1.0260     1.9710     2.1490 H     1 <1>   0.1500 
 21 H       -0.9160    -0.8990    -0.6010 H     1 <1>   0.0800 
 22 H       -1.3290    -2.1510    -1.7340 H     1 <1>   0.0800 
 23 H       -0.0300    -1.0460    -2.1060 H     1 <1>   0.0800 
 24 H        2.6650    -2.0950     2.7380 H     1 <1>   0.0800 
 25 H        4.0240    -2.4040     1.6750 H     1 <1>   0.0800 
 26 H        3.3110    -3.7030     2.5970 H     1 <1>   0.0800 
 27 H        4.1670     0.9930    -1.5660 H     1 <1>   0.0800 
 28 H        5.2420     2.2240    -0.9570 H     1 <1>   0.0800 
 29 H        3.9980     2.6390    -2.1180 H     1 <1>   0.0800 
 30 H        1.3800    -5.5980    -0.9430 H     1 <1>   0.1500 
 31 H        3.6650     5.0280    -0.9130 H     1 <1>   0.0800 
 32 H        4.9160     4.6100     0.2540 H     1 <1>   0.0800 
 33 H        3.5310     5.5650     0.7520 H     1 <1>   0.0800 
@<TRIPOS>BOND
  1   1   2  2   
  2   2   3  am  
  3   2   4  1   
  4   3   5  1   
  5   3  19  1   
  6   4   6  ar  
  7   4   7  ar  
  8   5   8  2   
  9   5   9  1   
 10   6  10  ar  
 11   6  11  1   
 12   7  12  ar  
 13   7  13  1   
 14   8  14  1   
 15   8  15  1   
 16   9  16  2   
 17   9  20  1   
 18  10  17  ar  
 19  11  21  1   
 20  11  22  1   
 21  11  23  1   
 22  12  17  ar  
 23  13  24  1   
 24  13  25  1   
 25  13  26  1   
 26  14  16  1   
 27  14  18  1   
 28  15  27  1   
 29  15  28  1   
 30  15  29  1   
 31  17  30  1   
 32  18  31  1   
 33  18  32  1   
 34  18  33  1   
@<TRIPOS>SUBSTRUCTURE
  1 ****   3 GROUP 4 **** **** 0

# MOE 2024.06 (io_trps.svl 2023.06)
