@<TRIPOS>MOLECULE
NONAME
60 62 1 0 0 
SMALL
USER_CHARGES


@<TRIPOS>ATOM
  1 F       -1.0050     1.4310     0.5400 F     1 <1>  -0.1900 
  2 C       -2.2830     1.4320     0.2630 C.ar  1 <1>   0.1900 
  3 C       -3.1660     2.3550     0.8330 C.ar  1 <1>   0.0830 
  4 C       -2.7190     0.4690    -0.6270 C.ar  1 <1>  -0.1500 
  5 O       -2.8590     3.3480     1.7170 O.3   1 <1>  -0.3630 
  6 C       -4.5020     2.2700     0.4780 C.ar  1 <1>  -0.1500 
  7 C       -4.0600     0.4130    -0.9610 C.ar  1 <1>  -0.1500 
  8 C       -1.5480     3.5890     2.1790 C.3   1 <1>   0.0400 
  9 C       -4.9820     1.3070    -0.4120 C.ar  1 <1>   0.0530 
 10 C       -6.3830     1.2520    -0.7450 C.2   1 <1>   0.0870 
 11 O       -7.0870     2.3540    -0.8070 O.3   1 <1>  -0.0190 
 12 C       -7.2320     0.2300    -1.0370 C.2   1 <1>  -0.0860 
 13 N       -8.3410     2.1460    -1.1100 N.2   1 <1>  -0.4100 
 14 C       -8.4560     0.8730    -1.2450 C.2   1 <1>   0.3720 
 15 C       -7.0370    -1.1810    -1.0960 C.2   1 <1>   0.7160 
 16 N       -9.6780     0.2350    -1.5290 N.pl3 1 <1>  -0.8210 
 17 O       -6.2210    -1.7490    -0.3970 O.2   1 <1>  -0.5700 
 18 N       -7.8400    -1.9390    -1.8910 N.am  1 <1>  -0.7300 
 19 C      -10.6940     0.5400    -0.4760 C.3   1 <1>   0.1290 
 20 C      -10.2080     0.6450    -2.8650 C.3   1 <1>   0.1290 
 21 C       -7.9650    -3.4290    -1.8620 C.3   1 <1>   0.1400 
 22 C       -9.2790    -3.8920    -1.1660 C.3   1 <1>   0.5030 
 23 N       -9.4960    -3.1000     0.0840 N.4   1 <1>  -0.9590 
 24 C      -10.4540    -3.6270    -2.1170 C.3   1 <1>  -0.2400 
 25 C       -9.2150    -5.3880    -0.8410 C.3   1 <1>  -0.2400 
 26 C       -8.4300    -3.2400     1.1370 C.3   1 <1>   0.3430 
 27 C      -10.8510    -3.1930     0.7350 C.3   1 <1>   0.3430 
 28 C       -8.5610    -2.1090     2.1820 C.3   1 <1>   0.1200 
 29 C      -10.9000    -2.4280     2.0770 C.3   1 <1>   0.1200 
 30 O       -9.8390    -1.5170     2.1580 O.3   1 <1>  -0.5600 
 31 H       -2.0160    -0.2260    -1.0500 H     1 <1>   0.1500 
 32 H       -5.1890     2.9760     0.9120 H     1 <1>   0.1500 
 33 H       -4.3910    -0.3350    -1.6580 H     1 <1>   0.1500 
 34 H       -1.5810     4.4250     2.8540 H     1 <1>   0.0800 
 35 H       -0.9180     3.8240     1.3400 H     1 <1>   0.0800 
 36 H       -1.1930     2.7160     2.6970 H     1 <1>   0.0800 
 37 H       -8.5980    -1.4100    -2.3470 H     1 <1>   0.3700 
 38 H      -10.2680     0.3970     0.5030 H     1 <1>   0.0800 
 39 H      -11.5480    -0.1040    -0.5850 H     1 <1>   0.0800 
 40 H      -11.0160     1.5660    -0.5530 H     1 <1>   0.0800 
 41 H       -9.4630     0.4810    -3.6250 H     1 <1>   0.0800 
 42 H      -10.4620     1.6930    -2.8610 H     1 <1>   0.0800 
 43 H      -11.0860     0.0740    -3.1100 H     1 <1>   0.0800 
 44 H       -7.1170    -3.8500    -1.3500 H     1 <1>   0.0800 
 45 H       -7.9340    -3.8050    -2.8710 H     1 <1>   0.0800 
 46 H       -9.4090    -2.1140    -0.2150 H     1 <1>   0.4500 
 47 H      -10.5900    -2.5730    -2.2790 H     1 <1>   0.0800 
 48 H      -11.3700    -4.0520    -1.7470 H     1 <1>   0.0800 
 49 H      -10.2620    -4.0850    -3.0720 H     1 <1>   0.0800 
 50 H       -8.3740    -5.6190    -0.2140 H     1 <1>   0.0800 
 51 H       -9.1020    -5.9510    -1.7510 H     1 <1>   0.0800 
 52 H      -10.1170    -5.7240    -0.3620 H     1 <1>   0.0800 
 53 H       -7.4450    -3.2150     0.7050 H     1 <1>   0.0800 
 54 H       -8.5370    -4.1900     1.6340 H     1 <1>   0.0800 
 55 H      -11.1130    -4.2230     0.9110 H     1 <1>   0.0800 
 56 H      -11.5950    -2.7760     0.0770 H     1 <1>   0.0800 
 57 H       -7.8420    -1.3340     1.9760 H     1 <1>   0.0800 
 58 H       -8.3730    -2.4850     3.1730 H     1 <1>   0.0800 
 59 H      -10.8320    -3.1070     2.9100 H     1 <1>   0.0800 
 60 H      -11.8210    -1.8790     2.1630 H     1 <1>   0.0800 
@<TRIPOS>BOND
  1   1   2  1   
  2   2   3  ar  
  3   2   4  ar  
  4   3   5  1   
  5   3   6  ar  
  6   4   7  ar  
  7   4  31  1   
  8   5   8  1   
  9   6   9  ar  
 10   6  32  1   
 11   7   9  ar  
 12   7  33  1   
 13   8  34  1   
 14   8  35  1   
 15   8  36  1   
 16   9  10  1   
 17  10  11  1   
 18  10  12  2   
 19  11  13  1   
 20  12  14  1   
 21  12  15  1   
 22  13  14  2   
 23  14  16  1   
 24  15  17  2   
 25  15  18  am  
 26  16  19  1   
 27  16  20  1   
 28  18  21  1   
 29  18  37  1   
 30  19  38  1   
 31  19  39  1   
 32  19  40  1   
 33  20  41  1   
 34  20  42  1   
 35  20  43  1   
 36  21  22  1   
 37  21  44  1   
 38  21  45  1   
 39  22  23  1   
 40  22  24  1   
 41  22  25  1   
 42  23  26  1   
 43  23  27  1   
 44  23  46  1   
 45  24  47  1   
 46  24  48  1   
 47  24  49  1   
 48  25  50  1   
 49  25  51  1   
 50  25  52  1   
 51  26  28  1   
 52  26  53  1   
 53  26  54  1   
 54  27  29  1   
 55  27  55  1   
 56  27  56  1   
 57  28  30  1   
 58  28  57  1   
 59  28  58  1   
 60  29  30  1   
 61  29  59  1   
 62  29  60  1   
@<TRIPOS>SUBSTRUCTURE
  1 ****  12 GROUP 4 **** **** 0

# MOE 2024.06 (io_trps.svl 2023.06)
