@<TRIPOS>MOLECULE
NONAME
59 60 1 0 0 
SMALL
USER_CHARGES


@<TRIPOS>ATOM
  1 O        0.1550    -0.2820     0.1120 O.2   1 <1>  -0.5700 
  2 C        0.1150    -1.4680     0.3630 C.2   1 <1>   0.7800 
  3 O       -0.9500    -2.2110     0.0600 O.3   1 <1>  -0.4300 
  4 N        1.1780    -2.1110     0.9470 N.am  1 <1>  -0.6600 
  5 C       -2.1580    -1.7730    -0.5280 C.3   1 <1>   0.2800 
  6 C        1.2510    -3.5910     1.1150 C.3   1 <1>   0.1400 
  7 C        2.4180    -1.3730     1.3270 C.3   1 <1>   0.1400 
  8 C       -1.8950    -1.2260    -1.9370 C.3   1 <1>  -0.2400 
  9 C       -2.8480    -0.7470     0.3780 C.3   1 <1>  -0.2400 
 10 C       -3.0300    -3.0240    -0.6280 C.3   1 <1>  -0.2400 
 11 C        2.4870    -4.1510     0.3850 C.3   1 <1>   0.3430 
 12 C        3.6360    -1.9570     0.5870 C.3   1 <1>   0.3430 
 13 N        3.7670    -3.4520     0.7870 N.4   1 <1>  -0.9590 
 14 C        4.9240    -4.0310     0.0470 C.3   1 <1>   0.3430 
 15 C        6.2570    -3.6280     0.6970 C.3   1 <1>  -0.1600 
 16 C        7.4570    -4.3140     0.0100 C.3   1 <1>  -0.1600 
 17 C        8.7920    -3.9170     0.6620 C.3   1 <1>   0.3430 
 18 N        9.9440    -4.5000    -0.0780 N.4   1 <1>  -0.9590 
 19 C       10.0680    -5.9950     0.1060 C.3   1 <1>   0.3430 
 20 C       11.2300    -3.8310     0.3440 C.3   1 <1>   0.3430 
 21 C       11.3060    -6.5650    -0.6210 C.3   1 <1>   0.1100 
 22 C       12.4560    -4.4220    -0.3860 C.3   1 <1>   0.1100 
 23 N       12.5340    -5.8780    -0.1970 N.3   1 <1>  -0.9000 
 24 H        0.3680    -4.0660     0.7220 H     1 <1>   0.0800 
 25 H        1.3030    -3.8260     2.1640 H     1 <1>   0.0800 
 26 H        2.5620    -1.4440     2.3900 H     1 <1>   0.0800 
 27 H        2.3280    -0.3270     1.0840 H     1 <1>   0.0800 
 28 H       -1.3430    -0.3060    -1.9010 H     1 <1>   0.0800 
 29 H       -2.8290    -1.0220    -2.4280 H     1 <1>   0.0800 
 30 H       -1.3530    -1.9440    -2.5240 H     1 <1>   0.0800 
 31 H       -2.2970     0.1740     0.4150 H     1 <1>   0.0800 
 32 H       -2.9550    -1.1370     1.3740 H     1 <1>   0.0800 
 33 H       -3.8270    -0.5220    -0.0050 H     1 <1>   0.0800 
 34 H       -2.5540    -3.7660    -1.2440 H     1 <1>   0.0800 
 35 H       -3.9810    -2.7810    -1.0680 H     1 <1>   0.0800 
 36 H       -3.2070    -3.4360     0.3490 H     1 <1>   0.0800 
 37 H        2.3300    -4.0360    -0.6750 H     1 <1>   0.0800 
 38 H        2.5640    -5.2060     0.5930 H     1 <1>   0.0800 
 39 H        4.5230    -1.4560     0.9370 H     1 <1>   0.0800 
 40 H        3.5260    -1.7390    -0.4630 H     1 <1>   0.0800 
 41 H        3.8930    -3.6200     1.7950 H     1 <1>   0.4500 
 42 H        4.9000    -3.7060    -0.9820 H     1 <1>   0.0800 
 43 H        4.8470    -5.1070     0.0560 H     1 <1>   0.0800 
 44 H        6.2420    -3.9110     1.7360 H     1 <1>   0.0800 
 45 H        6.3840    -2.5610     0.6310 H     1 <1>   0.0800 
 46 H        7.4750    -4.0300    -1.0280 H     1 <1>   0.0800 
 47 H        7.3300    -5.3810     0.0740 H     1 <1>   0.0800 
 48 H        8.8150    -4.2440     1.6900 H     1 <1>   0.0800 
 49 H        8.8750    -2.8410     0.6550 H     1 <1>   0.0800 
 50 H        9.8390    -4.3210    -1.0840 H     1 <1>   0.4500 
 51 H        9.1880    -6.4900    -0.2670 H     1 <1>   0.0800 
 52 H       10.1610    -6.2250     1.1540 H     1 <1>   0.0800 
 53 H       11.3770    -3.9620     1.4030 H     1 <1>   0.0800 
 54 H       11.1800    -2.7740     0.1440 H     1 <1>   0.0800 
 55 H       11.1810    -6.4710    -1.6870 H     1 <1>   0.0800 
 56 H       11.3960    -7.6140    -0.3920 H     1 <1>   0.0800 
 57 H       13.3510    -3.9710     0.0080 H     1 <1>   0.0800 
 58 H       12.4050    -4.1900    -1.4370 H     1 <1>   0.0800 
 59 H       13.3460    -6.2570    -0.7120 H     1 <1>   0.3600 
@<TRIPOS>BOND
  1   1   2  2   
  2   2   3  1   
  3   2   4  am  
  4   3   5  1   
  5   4   6  1   
  6   4   7  1   
  7   5   8  1   
  8   5   9  1   
  9   5  10  1   
 10   6  11  1   
 11   6  24  1   
 12   6  25  1   
 13   7  12  1   
 14   7  26  1   
 15   7  27  1   
 16   8  28  1   
 17   8  29  1   
 18   8  30  1   
 19   9  31  1   
 20   9  32  1   
 21   9  33  1   
 22  10  34  1   
 23  10  35  1   
 24  10  36  1   
 25  11  13  1   
 26  11  37  1   
 27  11  38  1   
 28  12  13  1   
 29  12  39  1   
 30  12  40  1   
 31  13  14  1   
 32  13  41  1   
 33  14  15  1   
 34  14  42  1   
 35  14  43  1   
 36  15  16  1   
 37  15  44  1   
 38  15  45  1   
 39  16  17  1   
 40  16  46  1   
 41  16  47  1   
 42  17  18  1   
 43  17  48  1   
 44  17  49  1   
 45  18  19  1   
 46  18  20  1   
 47  18  50  1   
 48  19  21  1   
 49  19  51  1   
 50  19  52  1   
 51  20  22  1   
 52  20  53  1   
 53  20  54  1   
 54  21  23  1   
 55  21  55  1   
 56  21  56  1   
 57  22  23  1   
 58  22  57  1   
 59  22  58  1   
 60  23  59  1   
@<TRIPOS>SUBSTRUCTURE
  1 ****  13 GROUP 4 **** **** 0

# MOE 2024.06 (io_trps.svl 2023.06)
