@<TRIPOS>MOLECULE
NONAME
54 58 1 0 0 
SMALL
USER_CHARGES


@<TRIPOS>ATOM
  1 S        0.7850    -0.0230     1.1500 S.o2  1 <1>   1.4470 
  2 O        1.9850    -0.1400     1.9490 O.2   1 <1>  -0.6500 
  3 O       -0.4240    -0.6980     1.5550 O.2   1 <1>  -0.6500 
  4 N        1.1300    -0.7460    -0.3260 N.am  1 <1>  -0.9140 
  5 C        0.4650     1.7100     0.7170 C.ar  1 <1>  -0.0090 
  6 C        2.0510    -1.8760    -0.2780 C.3   1 <1>   0.1960 
  7 C       -0.7780     2.1280     0.2720 C.ar  1 <1>  -0.1500 
  8 C        1.4700     2.6670     0.7960 C.ar  1 <1>  -0.1500 
  9 C        1.5080    -3.0730     0.5310 C.3   1 <1>  -0.0800 
 10 C       -1.0430     3.4520    -0.0890 C.ar  1 <1>   0.0860 
 11 C        1.2360     3.9820     0.4490 C.ar  1 <1>  -0.1500 
 12 C        0.2840    -3.7150    -0.1390 C.3   1 <1>   0.2000 
 13 C        2.4550    -4.2950     0.6190 C.3   1 <1>  -0.0800 
 14 C       -2.3450     3.8700    -0.5520 C.2   1 <1>   0.5440 
 15 C       -0.0180     4.4010     0.0000 C.ar  1 <1>   0.1170 
 16 O        0.9110    -4.6250    -0.9630 O.3   1 <1>  -0.5600 
 17 C       -0.4620    -4.6480     0.8260 C.3   1 <1>  -0.1600 
 18 C        1.5990    -5.3780    -0.0310 C.3   1 <1>   0.2800 
 19 C        3.7660    -4.3190    -0.1930 C.3   1 <1>   0.3430 
 20 O       -3.2420     3.0580    -0.6930 O.2   1 <1>  -0.5700 
 21 N       -2.5770     5.1980    -0.8420 N.am  1 <1>  -0.4200 
 22 N       -0.2900     5.7330    -0.3670 N.am  1 <1>  -0.4770 
 23 C        0.4710    -5.8630     0.8780 C.3   1 <1>  -0.1600 
 24 C        2.5720    -6.3250    -0.7200 C.3   1 <1>   0.3430 
 25 N        3.6330    -5.4030    -1.2140 N.4   1 <1>  -0.9060 
 26 C       -1.5580     6.1280    -0.7760 C.2   1 <1>   0.6900 
 27 C       -3.9360     5.6320    -1.2870 C.3   1 <1>   0.0600 
 28 C        0.8070     6.7510    -0.3260 C.3   1 <1>   0.0600 
 29 O       -1.7790     7.2870    -1.0790 O.2   1 <1>  -0.5700 
 30 H        0.2220    -1.0610    -0.6640 H     1 <1>   0.4200 
 31 H        2.2430    -2.1880    -1.2910 H     1 <1>   0.0800 
 32 H        2.9850    -1.5420     0.1450 H     1 <1>   0.0800 
 33 H       -1.5760     1.4070     0.2020 H     1 <1>   0.1500 
 34 H        2.4500     2.3730     1.1380 H     1 <1>   0.1500 
 35 H        1.2610    -2.7530     1.5290 H     1 <1>   0.0800 
 36 H        2.0500     4.6780     0.5360 H     1 <1>   0.1500 
 37 H       -0.3540    -3.0480    -0.6950 H     1 <1>   0.0800 
 38 H        2.6720    -4.5360     1.6450 H     1 <1>   0.0800 
 39 H       -0.6110    -4.1900     1.7890 H     1 <1>   0.0800 
 40 H       -1.4200    -4.9140     0.4130 H     1 <1>   0.0800 
 41 H        4.5850    -4.5440     0.4720 H     1 <1>   0.0800 
 42 H        3.9650    -3.3730    -0.6690 H     1 <1>   0.0800 
 43 H       -0.0090    -6.7310     0.4590 H     1 <1>   0.0800 
 44 H        0.8100    -6.0820     1.8750 H     1 <1>   0.0800 
 45 H        2.0910    -6.8670    -1.5170 H     1 <1>   0.0800 
 46 H        2.9800    -7.0140     0.0020 H     1 <1>   0.0800 
 47 H        4.5170    -5.8790    -1.4320 H     1 <1>   0.4500 
 48 H        3.2630    -4.9810    -2.0790 H     1 <1>   0.4500 
 49 H       -4.6940     4.9960    -0.8650 H     1 <1>   0.0800 
 50 H       -3.9930     5.5830    -2.3600 H     1 <1>   0.0800 
 51 H       -4.1320     6.6420    -0.9710 H     1 <1>   0.0800 
 52 H        1.6240     6.4270    -0.9460 H     1 <1>   0.0800 
 53 H        1.1490     6.8710     0.6870 H     1 <1>   0.0800 
 54 H        0.4780     7.7100    -0.6850 H     1 <1>   0.0800 
@<TRIPOS>BOND
  1   1   2  2   
  2   1   3  2   
  3   1   4  am  
  4   1   5  1   
  5   4   6  1   
  6   4  30  1   
  7   5   7  ar  
  8   5   8  ar  
  9   6   9  1   
 10   6  31  1   
 11   6  32  1   
 12   7  10  ar  
 13   7  33  1   
 14   8  11  ar  
 15   8  34  1   
 16   9  12  1   
 17   9  13  1   
 18   9  35  1   
 19  10  14  1   
 20  10  15  ar  
 21  11  15  ar  
 22  11  36  1   
 23  12  16  1   
 24  12  17  1   
 25  12  37  1   
 26  13  18  1   
 27  13  19  1   
 28  13  38  1   
 29  14  20  2   
 30  14  21  am  
 31  15  22  1   
 32  16  18  1   
 33  17  23  1   
 34  17  39  1   
 35  17  40  1   
 36  18  23  1   
 37  18  24  1   
 38  19  25  1   
 39  19  41  1   
 40  19  42  1   
 41  21  26  am  
 42  21  27  1   
 43  22  26  am  
 44  22  28  1   
 45  23  43  1   
 46  23  44  1   
 47  24  25  1   
 48  24  45  1   
 49  24  46  1   
 50  25  47  1   
 51  25  48  1   
 52  26  29  2   
 53  27  49  1   
 54  27  50  1   
 55  27  51  1   
 56  28  52  1   
 57  28  53  1   
 58  28  54  1   
@<TRIPOS>SUBSTRUCTURE
  1 ****   1 GROUP 4 **** **** 0

# MOE 2024.06 (io_trps.svl 2023.06)
