@<TRIPOS>MOLECULE
NONAME
39 41 1 0 0 
SMALL
USER_CHARGES


@<TRIPOS>ATOM
  1 O       -0.3830    -0.0870     0.8230 O.3   1 <1>  -0.5600 
  2 C        0.3220     0.7080    -0.0900 C.3   1 <1>   0.1200 
  3 C       -1.5090     0.5870     1.2990 C.3   1 <1>   0.1200 
  4 C       -0.4110     2.0470    -0.1900 C.3   1 <1>   0.2890 
  5 C       -1.8070     1.6920     0.2870 C.3   1 <1>  -0.0800 
  6 N        0.1760     3.0250     0.7540 N.pl3 1 <1>  -0.8690 
  7 C       -2.6950     1.2000    -0.8710 C.3   1 <1>  -0.0170 
  8 C        0.7740     4.1810     0.3910 C.ar  1 <1>   0.7200 
  9 C       -4.0960     0.8570    -0.3890 C.ar  1 <1>  -0.1440 
 10 N        1.6290     4.6490     1.2870 N.ar  1 <1>  -0.6200 
 11 N        0.4600     4.7140    -0.7840 N.ar  1 <1>  -0.6200 
 12 C       -5.0130     1.8380    -0.0720 C.ar  1 <1>  -0.1500 
 13 C       -4.5220    -0.4470    -0.2400 C.ar  1 <1>  -0.1500 
 14 C        2.2220     5.7780     0.9710 C.ar  1 <1>   0.1600 
 15 C        1.0690     5.8430    -1.0710 C.ar  1 <1>   0.1600 
 16 C       -6.2750     1.4780     0.3690 C.ar  1 <1>   0.1600 
 17 C       -5.8070    -0.7000     0.2090 C.ar  1 <1>   0.1600 
 18 C        1.9770     6.4380    -0.2210 C.ar  1 <1>   0.0820 
 19 N       -6.6940     0.2320     0.5190 N.ar  1 <1>  -0.6200 
 20 O        2.5590     7.6120    -0.6050 O.3   1 <1>  -0.3620 
 21 C        3.4750     8.2670     0.2460 C.3   1 <1>   0.0400 
 22 H        1.3380     0.8230     0.2440 H     1 <1>   0.0800 
 23 H        0.3070     0.1990    -1.0370 H     1 <1>   0.0800 
 24 H       -2.3170    -0.1130     1.4240 H     1 <1>   0.0800 
 25 H       -1.2530     1.0110     2.2550 H     1 <1>   0.0800 
 26 H       -0.4010     2.4280    -1.1970 H     1 <1>   0.0800 
 27 H       -2.2820     2.5340     0.7600 H     1 <1>   0.0800 
 28 H        0.5740     2.6300     1.6040 H     1 <1>   0.4000 
 29 H       -2.2520     0.3370    -1.3380 H     1 <1>   0.0800 
 30 H       -2.7670     1.9720    -1.6180 H     1 <1>   0.0800 
 31 H       -4.7570     2.8780    -0.1640 H     1 <1>   0.1500 
 32 H       -3.8660    -1.2680    -0.4660 H     1 <1>   0.1500 
 33 H        2.9180     6.1790     1.6840 H     1 <1>   0.1500 
 34 H        0.8480     6.3200    -2.0100 H     1 <1>   0.1500 
 35 H       -6.9770     2.2580     0.6130 H     1 <1>   0.1500 
 36 H       -6.1220    -1.7230     0.3200 H     1 <1>   0.1500 
 37 H        3.8010     9.1670    -0.2440 H     1 <1>   0.0800 
 38 H        4.3180     7.6210     0.4190 H     1 <1>   0.0800 
 39 H        2.9810     8.5150     1.1700 H     1 <1>   0.0800 
@<TRIPOS>BOND
  1   1   2  1   
  2   1   3  1   
  3   2   4  1   
  4   2  22  1   
  5   2  23  1   
  6   3   5  1   
  7   3  24  1   
  8   3  25  1   
  9   4   5  1   
 10   4   6  1   
 11   4  26  1   
 12   5   7  1   
 13   5  27  1   
 14   6   8  1   
 15   6  28  1   
 16   7   9  1   
 17   7  29  1   
 18   7  30  1   
 19   8  10  ar  
 20   8  11  ar  
 21   9  12  ar  
 22   9  13  ar  
 23  10  14  ar  
 24  11  15  ar  
 25  12  16  ar  
 26  12  31  1   
 27  13  17  ar  
 28  13  32  1   
 29  14  18  ar  
 30  14  33  1   
 31  15  18  ar  
 32  15  34  1   
 33  16  19  ar  
 34  16  35  1   
 35  17  19  ar  
 36  17  36  1   
 37  18  20  1   
 38  20  21  1   
 39  21  37  1   
 40  21  38  1   
 41  21  39  1   
@<TRIPOS>SUBSTRUCTURE
  1 ****   4 GROUP 4 **** **** 0

# MOE 2024.06 (io_trps.svl 2023.06)
