@<TRIPOS>MOLECULE
NONAME
56 58 1 0 0 
SMALL
USER_CHARGES


@<TRIPOS>ATOM
  1 O        0.0260     1.6600     2.4850 O.3   1 <1>  -0.3630 
  2 C        0.5160     1.4990     1.2320 C.ar  1 <1>   0.0830 
  3 C       -0.8050     2.7720     2.7410 C.3   1 <1>   0.1200 
  4 C        0.1220     0.3950     0.4810 C.ar  1 <1>   0.0830 
  5 C        1.4060     2.4200     0.7020 C.ar  1 <1>  -0.1500 
  6 C       -2.2810     2.4040     2.4990 C.3   1 <1>   0.3430 
  7 O       -0.7610    -0.4800     1.0260 O.3   1 <1>  -0.3630 
  8 C        0.6030     0.2360    -0.8120 C.ar  1 <1>  -0.1500 
  9 C        1.8800     2.2530    -0.5880 C.ar  1 <1>  -0.1500 
 10 N       -2.5850     1.9030     1.1170 N.4   1 <1>  -0.9590 
 11 C       -0.4740    -1.8590     0.9110 C.3   1 <1>   0.0400 
 12 C        1.4780     1.1670    -1.3500 C.ar  1 <1>  -0.1430 
 13 C       -4.0100     1.4410     1.0360 C.3   1 <1>   0.3430 
 14 C       -2.2400     2.9020     0.0610 C.3   1 <1>   0.3430 
 15 C        2.0070     0.9930    -2.7630 C.3   1 <1>  -0.0970 
 16 C       -4.4320     0.9250    -0.3580 C.3   1 <1>   0.0000 
 17 C       -2.5720     2.3620    -1.3270 C.3   1 <1>  -0.1600 
 18 C       -5.9420     0.6160    -0.3070 C.3   1 <1>   0.2000 
 19 C       -4.0480     1.9610    -1.4370 C.3   1 <1>  -0.1600 
 20 C       -3.8270    -0.4580    -0.6430 C.3   1 <1>  -0.1600 
 21 O       -6.4300     0.5210    -1.6110 O.3   1 <1>  -0.5600 
 22 C       -6.0390    -0.7650     0.3580 C.3   1 <1>  -0.1600 
 23 C       -4.6850    -1.4550     0.1380 C.3   1 <1>  -0.1600 
 24 C       -7.8050     0.7010    -1.7550 C.3   1 <1>   0.0400 
 25 H       -0.6680     3.0350     3.7750 H     1 <1>   0.0800 
 26 H       -0.4960     3.6060     2.1370 H     1 <1>   0.0800 
 27 H        1.7390     3.2540     1.2930 H     1 <1>   0.1500 
 28 H       -2.8870     3.2700     2.7030 H     1 <1>   0.0800 
 29 H       -2.5500     1.6450     3.2150 H     1 <1>   0.0800 
 30 H        0.2960    -0.6060    -1.4050 H     1 <1>   0.1500 
 31 H        2.5740     2.9700    -0.9960 H     1 <1>   0.1500 
 32 H       -1.9710     1.0750     0.9630 H     1 <1>   0.4500 
 33 H       -1.1210    -2.3960     1.5830 H     1 <1>   0.0800 
 34 H        0.5540    -2.0270     1.1840 H     1 <1>   0.0800 
 35 H       -0.6550    -2.1790    -0.0990 H     1 <1>   0.0800 
 36 H       -4.1730     0.6590     1.7590 H     1 <1>   0.0800 
 37 H       -4.6540     2.2660     1.2940 H     1 <1>   0.0800 
 38 H       -2.7940     3.8110     0.2270 H     1 <1>   0.0800 
 39 H       -1.1870     3.1330     0.1020 H     1 <1>   0.0800 
 40 H        2.1660     1.9500    -3.2270 H     1 <1>   0.0800 
 41 H        1.3100     0.4380    -3.3650 H     1 <1>   0.0800 
 42 H        2.9420     0.4620    -2.7380 H     1 <1>   0.0800 
 43 H       -2.3570     3.1230    -2.0570 H     1 <1>   0.0800 
 44 H       -1.9370     1.5220    -1.5480 H     1 <1>   0.0800 
 45 H       -6.4980     1.3760     0.2180 H     1 <1>   0.0800 
 46 H       -4.2360     1.5620    -2.4200 H     1 <1>   0.0800 
 47 H       -4.6660     2.8360    -1.3270 H     1 <1>   0.0800 
 48 H       -3.9350    -0.6780    -1.6930 H     1 <1>   0.0800 
 49 H       -2.7880    -0.5330    -0.3960 H     1 <1>   0.0800 
 50 H       -6.2110    -0.6480     1.4130 H     1 <1>   0.0800 
 51 H       -6.8440    -1.3510    -0.0520 H     1 <1>   0.0800 
 52 H       -4.2280    -1.6870     1.0850 H     1 <1>   0.0800 
 53 H       -4.8040    -2.3690    -0.4210 H     1 <1>   0.0800 
 54 H       -8.0490     0.5760    -2.7960 H     1 <1>   0.0800 
 55 H       -8.0700     1.6950    -1.4400 H     1 <1>   0.0800 
 56 H       -8.3310    -0.0350    -1.1730 H     1 <1>   0.0800 
@<TRIPOS>BOND
  1   1   2  1   
  2   1   3  1   
  3   2   4  ar  
  4   2   5  ar  
  5   3   6  1   
  6   3  25  1   
  7   3  26  1   
  8   4   7  1   
  9   4   8  ar  
 10   5   9  ar  
 11   5  27  1   
 12   6  10  1   
 13   6  28  1   
 14   6  29  1   
 15   7  11  1   
 16   8  12  ar  
 17   8  30  1   
 18   9  12  ar  
 19   9  31  1   
 20  10  13  1   
 21  10  14  1   
 22  10  32  1   
 23  11  33  1   
 24  11  34  1   
 25  11  35  1   
 26  12  15  1   
 27  13  16  1   
 28  13  36  1   
 29  13  37  1   
 30  14  17  1   
 31  14  38  1   
 32  14  39  1   
 33  15  40  1   
 34  15  41  1   
 35  15  42  1   
 36  16  18  1   
 37  16  19  1   
 38  16  20  1   
 39  17  19  1   
 40  17  43  1   
 41  17  44  1   
 42  18  21  1   
 43  18  22  1   
 44  18  45  1   
 45  19  46  1   
 46  19  47  1   
 47  20  23  1   
 48  20  48  1   
 49  20  49  1   
 50  21  24  1   
 51  22  23  1   
 52  22  50  1   
 53  22  51  1   
 54  23  52  1   
 55  23  53  1   
 56  24  54  1   
 57  24  55  1   
 58  24  56  1   
@<TRIPOS>SUBSTRUCTURE
  1 ****  10 GROUP 4 **** **** 0

# MOE 2024.06 (io_trps.svl 2023.06)
