@<TRIPOS>MOLECULE
NONAME
46 47 1 0 0 
SMALL
USER_CHARGES


@<TRIPOS>ATOM
  1 S        1.0560     0.4150    -0.2080 S.3   1 <1>  -0.3320 
  2 C        0.4430    -1.2720    -0.0490 C.ar  1 <1>   0.1020 
  3 C        1.2640     0.7380    -2.0310 C.3   1 <1>   0.1310 
  4 C        0.1930    -1.7290     1.2300 C.ar  1 <1>  -0.1500 
  5 C        0.2260    -2.0860    -1.1510 C.ar  1 <1>  -0.1500 
  6 C        1.7750     2.1450    -2.3020 C.2   1 <1>   0.5690 
  7 C       -0.2810    -3.0160     1.4250 C.ar  1 <1>   0.0830 
  8 C       -0.2480    -3.3730    -0.9570 C.ar  1 <1>  -0.1500 
  9 O        2.1080     2.4050    -3.4330 O.2   1 <1>  -0.5700 
 10 N        1.8380     3.0330    -1.2690 N.am  1 <1>  -0.4930 
 11 O       -0.5030    -3.3960     2.7080 O.3   1 <1>  -0.3630 
 12 C       -0.5010    -3.8390     0.3230 C.ar  1 <1>  -0.1500 
 13 C        2.3220     4.3640    -1.2180 C.2   1 <1>   0.0630 
 14 C       -0.9830    -4.6850     3.0200 C.3   1 <1>   0.0400 
 15 C        2.1970     5.4100    -2.1390 C.2   1 <1>   0.1080 
 16 C        3.0110     4.8970    -0.1850 C.2   1 <1>  -0.3320 
 17 N        2.7620     6.4990    -1.7200 N.2   1 <1>  -0.7070 
 18 C        1.4880     5.3590    -3.4740 C.3   1 <1>  -0.0590 
 19 N        3.2690     6.1880    -0.5160 N.pl3 1 <1>   0.3140 
 20 C        3.4550     4.2400     1.1150 C.3   1 <1>  -0.0600 
 21 C        4.0060     7.1940     0.2760 C.3   1 <1>   0.0960 
 22 C        3.0620     7.9450     1.2270 C.3   1 <1>  -0.1600 
 23 C        3.8190     8.9850     2.0610 C.3   1 <1>  -0.2400 
 24 H        0.3040     0.6020    -2.4930 H     1 <1>   0.0800 
 25 H        1.9650     0.0170    -2.4060 H     1 <1>   0.0800 
 26 H        0.3640    -1.0930     2.0780 H     1 <1>   0.1500 
 27 H        0.4160    -1.7470    -2.1500 H     1 <1>   0.1500 
 28 H       -0.4200    -4.0150    -1.8040 H     1 <1>   0.1500 
 29 H        1.5940     2.6460    -0.3560 H     1 <1>   0.3700 
 30 H       -0.8680    -4.8410     0.4420 H     1 <1>   0.1500 
 31 H       -1.0790    -4.7560     4.0880 H     1 <1>   0.0800 
 32 H       -0.2760    -5.4160     2.6680 H     1 <1>   0.0800 
 33 H       -1.9440    -4.8220     2.5560 H     1 <1>   0.0800 
 34 H        0.6280     4.7190    -3.4130 H     1 <1>   0.0800 
 35 H        2.1610     4.9810    -4.2210 H     1 <1>   0.0800 
 36 H        1.1710     6.3450    -3.7560 H     1 <1>   0.0800 
 37 H        3.1560     3.2090     1.1440 H     1 <1>   0.0800 
 38 H        3.0160     4.7460     1.9560 H     1 <1>   0.0800 
 39 H        4.5260     4.2800     1.2020 H     1 <1>   0.0800 
 40 H        4.4610     7.8860    -0.4090 H     1 <1>   0.0800 
 41 H        4.7830     6.7000     0.8270 H     1 <1>   0.0800 
 42 H        2.5810     7.2440     1.8870 H     1 <1>   0.0800 
 43 H        2.3030     8.4410     0.6460 H     1 <1>   0.0800 
 44 H        4.5740     8.5110     2.6640 H     1 <1>   0.0800 
 45 H        3.1350     9.5000     2.7130 H     1 <1>   0.0800 
 46 H        4.2900     9.7100     1.4210 H     1 <1>   0.0800 
@<TRIPOS>BOND
  1   1   2  1   
  2   1   3  1   
  3   2   4  ar  
  4   2   5  ar  
  5   3   6  1   
  6   3  24  1   
  7   3  25  1   
  8   4   7  ar  
  9   4  26  1   
 10   5   8  ar  
 11   5  27  1   
 12   6   9  2   
 13   6  10  am  
 14   7  11  1   
 15   7  12  ar  
 16   8  12  ar  
 17   8  28  1   
 18  10  13  1   
 19  10  29  1   
 20  11  14  1   
 21  12  30  1   
 22  13  15  1   
 23  13  16  2   
 24  14  31  1   
 25  14  32  1   
 26  14  33  1   
 27  15  17  2   
 28  15  18  1   
 29  16  19  1   
 30  16  20  1   
 31  17  19  1   
 32  18  34  1   
 33  18  35  1   
 34  18  36  1   
 35  19  21  1   
 36  20  37  1   
 37  20  38  1   
 38  20  39  1   
 39  21  22  1   
 40  21  40  1   
 41  21  41  1   
 42  22  23  1   
 43  22  42  1   
 44  22  43  1   
 45  23  44  1   
 46  23  45  1   
 47  23  46  1   
@<TRIPOS>SUBSTRUCTURE
  1 ****  10 GROUP 4 **** **** 0

# MOE 2024.06 (io_trps.svl 2023.06)
