@<TRIPOS>MOLECULE
NONAME
51 55 1 0 0 
SMALL
USER_CHARGES


@<TRIPOS>ATOM
  1 O        3.1600    -1.4870     1.9010 O.2   1 <1>  -0.5700 
  2 C        2.2440    -1.7680     1.1450 C.2   1 <1>   0.5440 
  3 N        1.5350    -0.7110     0.5990 N.am  1 <1>  -0.6600 
  4 C        1.9840    -3.1810     0.8490 C.ar  1 <1>   0.3960 
  5 C        0.4580    -0.8090    -0.4130 C.3   1 <1>   0.1400 
  6 C        1.8940     0.7030     0.8450 C.3   1 <1>   0.1400 
  7 N        0.7500    -3.6160     0.5380 N.ar  1 <1>  -0.6200 
  8 C        3.0680    -4.0640     0.9080 C.ar  1 <1>   0.1600 
  9 C        0.0630     0.6320    -0.7220 C.3   1 <1>  -0.1600 
 10 C        1.2740     1.4670    -0.3180 C.3   1 <1>  -0.1600 
 11 C        0.6820    -4.9140     0.2980 C.ar  1 <1>   0.4100 
 12 N        3.0240    -5.3670     0.6620 N.ar  1 <1>  -0.6200 
 13 N       -0.5700    -5.4240    -0.0040 N.pl3 1 <1>  -0.8380 
 14 C        1.8040    -5.7530     0.3540 C.ar  1 <1>   0.1600 
 15 C       -1.5230    -4.5880    -0.7820 C.3   1 <1>   0.2090 
 16 C       -1.2010    -6.3310     0.9850 C.3   1 <1>   0.2090 
 17 C       -2.5140    -5.4970    -1.5070 C.3   1 <1>  -0.1600 
 18 C       -2.1920    -7.2510     0.2700 C.3   1 <1>  -0.1600 
 19 C       -3.2290    -6.4440    -0.5280 C.3   1 <1>   0.1000 
 20 C       -4.1970    -7.3840    -1.2420 C.2   1 <1>   0.0070 
 21 N       -4.1180    -7.7310    -2.4880 N.2   1 <1>  -0.3380 
 22 N       -5.2410    -7.9600    -0.6330 N.pl3 1 <1>   0.3340 
 23 N       -5.1250    -8.5570    -2.7420 N.2   1 <1>  -0.3380 
 24 C       -5.7950    -8.6930    -1.6280 C.2   1 <1>   0.1410 
 25 C       -5.7880    -7.9520     0.6500 C.2   1 <1>  -0.1810 
 26 C       -6.9540    -9.4660    -1.3570 C.2   1 <1>  -0.1050 
 27 C       -6.8980    -8.6890     0.9210 C.2   1 <1>  -0.1500 
 28 C       -7.4970    -9.4660    -0.1070 C.2   1 <1>  -0.1500 
 29 H       -0.3830    -1.3600    -0.0260 H     1 <1>   0.0800 
 30 H        0.8400    -1.2970    -1.2940 H     1 <1>   0.0800 
 31 H        2.9620     0.8350     0.8820 H     1 <1>   0.0800 
 32 H        1.4590     1.0150     1.7800 H     1 <1>   0.0800 
 33 H        4.0310    -3.6610     1.1730 H     1 <1>   0.1500 
 34 H       -0.7820     0.8980    -0.1110 H     1 <1>   0.0800 
 35 H       -0.1980     0.7610    -1.7570 H     1 <1>   0.0800 
 36 H        1.9830     1.5010    -1.1280 H     1 <1>   0.0800 
 37 H        1.0090     2.4710    -0.0400 H     1 <1>   0.0800 
 38 H        1.6520    -6.7920     0.1250 H     1 <1>   0.1500 
 39 H       -0.9820    -3.9950    -1.5010 H     1 <1>   0.0800 
 40 H       -2.0410    -3.9220    -0.1130 H     1 <1>   0.0800 
 41 H       -1.7100    -5.7410     1.7280 H     1 <1>   0.0800 
 42 H       -0.4490    -6.9210     1.4810 H     1 <1>   0.0800 
 43 H       -1.9770    -6.0680    -2.2450 H     1 <1>   0.0800 
 44 H       -3.2400    -4.8950    -2.0250 H     1 <1>   0.0800 
 45 H       -2.6850    -7.8700     0.9960 H     1 <1>   0.0800 
 46 H       -1.6480    -7.8970    -0.3980 H     1 <1>   0.0800 
 47 H       -3.7930    -5.8360     0.1570 H     1 <1>   0.0800 
 48 H       -5.2930    -7.3470     1.3860 H     1 <1>   0.1500 
 49 H       -7.3690   -10.0360    -2.1680 H     1 <1>   0.1500 
 50 H       -7.3470    -8.7070     1.9000 H     1 <1>   0.1500 
 51 H       -8.3760   -10.0430     0.1260 H     1 <1>   0.1500 
@<TRIPOS>BOND
  1   1   2  2   
  2   2   3  am  
  3   2   4  1   
  4   3   5  1   
  5   3   6  1   
  6   4   7  ar  
  7   4   8  ar  
  8   5   9  1   
  9   5  29  1   
 10   5  30  1   
 11   6  10  1   
 12   6  31  1   
 13   6  32  1   
 14   7  11  ar  
 15   8  12  ar  
 16   8  33  1   
 17   9  10  1   
 18   9  34  1   
 19   9  35  1   
 20  10  36  1   
 21  10  37  1   
 22  11  13  1   
 23  11  14  ar  
 24  12  14  ar  
 25  13  15  1   
 26  13  16  1   
 27  14  38  1   
 28  15  17  1   
 29  15  39  1   
 30  15  40  1   
 31  16  18  1   
 32  16  41  1   
 33  16  42  1   
 34  17  19  1   
 35  17  43  1   
 36  17  44  1   
 37  18  19  1   
 38  18  45  1   
 39  18  46  1   
 40  19  20  1   
 41  19  47  1   
 42  20  21  2   
 43  20  22  1   
 44  21  23  1   
 45  22  24  1   
 46  22  25  1   
 47  23  24  2   
 48  24  26  1   
 49  25  27  2   
 50  25  48  1   
 51  26  28  2   
 52  26  49  1   
 53  27  28  1   
 54  27  50  1   
 55  28  51  1   
@<TRIPOS>SUBSTRUCTURE
  1 ****  15 GROUP 4 **** **** 0

# MOE 2024.06 (io_trps.svl 2023.06)
