@<TRIPOS>MOLECULE
NONAME
51 53 1 0 0 
SMALL
USER_CHARGES


@<TRIPOS>ATOM
  1 O        0.2700    -0.3230     1.4560 O.2   1 <1>  -0.5700 
  2 C        1.2680    -0.6460     0.8660 C.2   1 <1>   0.5690 
  3 N        2.1970     0.2280     0.3760 N.am  1 <1>  -0.4940 
  4 C        1.5000    -2.1270     0.6740 C.3   1 <1>  -0.0990 
  5 C        2.3010     1.6380     0.3880 C.2   1 <1>  -0.0880 
  6 C        0.1730    -2.8080     0.2980 C.3   1 <1>   0.4230 
  7 N        1.3450     2.5930     0.5780 N.pl3 1 <1>   0.3140 
  8 C        3.4700     2.3020     0.1610 C.2   1 <1>  -0.0540 
  9 N        0.2750    -4.3100     0.3310 N.4   1 <1>  -0.9590 
 10 C       -0.2750    -2.3650    -1.1090 C.3   1 <1>  -0.1600 
 11 N        1.8670     3.8350     0.4780 N.2   1 <1>  -0.7070 
 12 C       -0.0990     2.4530     0.8030 C.3   1 <1>   0.0160 
 13 C        4.7700     1.7410    -0.0980 C.ar  1 <1>   0.0540 
 14 C        3.1220     3.6530     0.2360 C.2   1 <1>   0.1080 
 15 C       -1.0280    -4.9570    -0.0150 C.3   1 <1>   0.3430 
 16 C        0.7300    -4.8510     1.6520 C.3   1 <1>   0.2630 
 17 C       -1.5810    -3.0350    -1.5490 C.3   1 <1>  -0.1600 
 18 C        5.3700     1.8700    -1.3470 C.ar  1 <1>  -0.1500 
 19 C        5.4550     1.0450     0.8920 C.ar  1 <1>  -0.1500 
 20 C        4.0810     4.8090     0.0610 C.3   1 <1>  -0.0590 
 21 C       -1.4630    -4.5550    -1.4220 C.3   1 <1>  -0.1600 
 22 C        6.6130     1.3190    -1.6010 C.ar  1 <1>  -0.1500 
 23 C        6.6970     0.4900     0.6450 C.ar  1 <1>  -0.1500 
 24 C        7.2780     0.6260    -0.6040 C.ar  1 <1>  -0.1500 
 25 H        3.0420    -0.2030    -0.0060 H     1 <1>   0.3700 
 26 H        1.8740    -2.4900     1.6110 H     1 <1>   0.0800 
 27 H        2.2380    -2.2920    -0.0890 H     1 <1>   0.0800 
 28 H       -0.5790    -2.4990     1.0080 H     1 <1>   0.0800 
 29 H        0.9460    -4.5870    -0.3980 H     1 <1>   0.4500 
 30 H        0.4980    -2.5840    -1.8240 H     1 <1>   0.0800 
 31 H       -0.4290    -1.2990    -1.1210 H     1 <1>   0.0800 
 32 H       -0.4980     1.7280     0.1200 H     1 <1>   0.0800 
 33 H       -0.5760     3.4010     0.6370 H     1 <1>   0.0800 
 34 H       -0.2680     2.1410     1.8160 H     1 <1>   0.0800 
 35 H       -1.7840    -4.6540     0.6920 H     1 <1>   0.0800 
 36 H       -0.9320    -6.0300     0.0330 H     1 <1>   0.0800 
 37 H        0.0790    -4.5090     2.4410 H     1 <1>   0.0800 
 38 H        1.7360    -4.5320     1.8700 H     1 <1>   0.0800 
 39 H        0.7160    -5.9290     1.6390 H     1 <1>   0.0800 
 40 H       -1.8050    -2.7670    -2.5690 H     1 <1>   0.0800 
 41 H       -2.3920    -2.6820    -0.9330 H     1 <1>   0.0800 
 42 H        4.8530     2.4080    -2.1220 H     1 <1>   0.1500 
 43 H        5.0070     0.9490     1.8660 H     1 <1>   0.1500 
 44 H        5.0590     4.5410     0.4150 H     1 <1>   0.0800 
 45 H        3.7300     5.6570     0.6200 H     1 <1>   0.0800 
 46 H        4.1380     5.0750    -0.9770 H     1 <1>   0.0800 
 47 H       -2.4180    -5.0040    -1.6360 H     1 <1>   0.0800 
 48 H       -0.7600    -4.9360    -2.1430 H     1 <1>   0.0800 
 49 H        7.0650     1.4290    -2.5720 H     1 <1>   0.1500 
 50 H        7.2170    -0.0420     1.4230 H     1 <1>   0.1500 
 51 H        8.2470     0.1980    -0.7990 H     1 <1>   0.1500 
@<TRIPOS>BOND
  1   1   2  2   
  2   2   3  am  
  3   2   4  1   
  4   3   5  1   
  5   3  25  1   
  6   4   6  1   
  7   4  26  1   
  8   4  27  1   
  9   5   7  1   
 10   5   8  2   
 11   6   9  1   
 12   6  10  1   
 13   6  28  1   
 14   7  11  1   
 15   7  12  1   
 16   8  13  1   
 17   8  14  1   
 18   9  15  1   
 19   9  16  1   
 20   9  29  1   
 21  10  17  1   
 22  10  30  1   
 23  10  31  1   
 24  11  14  2   
 25  12  32  1   
 26  12  33  1   
 27  12  34  1   
 28  13  18  ar  
 29  13  19  ar  
 30  14  20  1   
 31  15  21  1   
 32  15  35  1   
 33  15  36  1   
 34  16  37  1   
 35  16  38  1   
 36  16  39  1   
 37  17  21  1   
 38  17  40  1   
 39  17  41  1   
 40  18  22  ar  
 41  18  42  1   
 42  19  23  ar  
 43  19  43  1   
 44  20  44  1   
 45  20  45  1   
 46  20  46  1   
 47  21  47  1   
 48  21  48  1   
 49  22  24  ar  
 50  22  49  1   
 51  23  24  ar  
 52  23  50  1   
 53  24  51  1   
@<TRIPOS>SUBSTRUCTURE
  1 ****   3 GROUP 4 **** **** 0

# MOE 2024.06 (io_trps.svl 2023.06)
