@<TRIPOS>MOLECULE
NONAME
55 58 1 0 0 
SMALL
USER_CHARGES


@<TRIPOS>ATOM
  1 O       -0.9290     0.9390     1.9950 O.2   1 <1>  -0.5700 
  2 C       -1.8740     1.4000     1.3800 C.2   1 <1>   0.5440 
  3 N       -3.0960     0.7590     1.4420 N.am  1 <1>  -0.6600 
  4 C       -1.6790     2.6020     0.5940 C.ar  1 <1>   0.0860 
  5 C       -3.3460    -0.3740     2.3770 C.3   1 <1>   0.1400 
  6 C       -4.2060     0.9900     0.4760 C.3   1 <1>   0.1400 
  7 C       -2.4590     3.7410     0.7930 C.ar  1 <1>  -0.1500 
  8 C       -0.6950     2.6590    -0.3930 C.ar  1 <1>  -0.1500 
  9 C       -3.5630    -1.6600     1.5750 C.3   1 <1>  -0.1600 
 10 C       -4.4260    -0.2770    -0.3540 C.3   1 <1>  -0.1600 
 11 C       -2.2780     4.8780     0.0280 C.ar  1 <1>  -0.1500 
 12 C       -0.5060     3.7930    -1.1620 C.ar  1 <1>  -0.1500 
 13 C       -4.6850    -1.5120     0.5320 C.3   1 <1>   0.4240 
 14 C       -1.3040     4.9140    -0.9570 C.ar  1 <1>   0.0820 
 15 O       -5.8300    -1.2200     1.3070 O.3   1 <1>  -0.5600 
 16 C       -4.8720    -2.8150    -0.2980 C.ar  1 <1>  -0.1430 
 17 O       -1.1920     6.0610    -1.6640 O.3   1 <1>  -0.3630 
 18 C       -7.0770    -1.4590     0.7430 C.3   1 <1>   0.1200 
 19 C       -3.8520    -3.3420    -1.1020 C.ar  1 <1>   0.0820 
 20 C       -6.0880    -3.4980    -0.2550 C.ar  1 <1>  -0.1430 
 21 C       -0.2160     6.2230    -2.6650 C.3   1 <1>   0.1200 
 22 C       -7.2370    -2.9610     0.5740 C.3   1 <1>  -0.0170 
 23 O       -2.6660    -2.6840    -1.1780 O.3   1 <1>  -0.3620 
 24 C       -4.0570    -4.5210    -1.8170 C.ar  1 <1>  -0.1500 
 25 C       -6.2800    -4.6700    -0.9660 C.ar  1 <1>  -0.1500 
 26 C       -0.3610     7.6280    -3.2430 C.3   1 <1>  -0.2400 
 27 C       -1.5080    -3.2620    -1.7390 C.3   1 <1>   0.0400 
 28 C       -5.2650    -5.1830    -1.7470 C.ar  1 <1>  -0.1500 
 29 H       -4.2190    -0.1550     2.9670 H     1 <1>   0.0800 
 30 H       -2.5170    -0.5030     3.0510 H     1 <1>   0.0800 
 31 H       -3.9830     1.8070    -0.1860 H     1 <1>   0.0800 
 32 H       -5.1020     1.2340     1.0220 H     1 <1>   0.0800 
 33 H       -3.2130     3.7260     1.5610 H     1 <1>   0.1500 
 34 H       -0.0740     1.7930    -0.5460 H     1 <1>   0.1500 
 35 H       -3.8070    -2.4680     2.2400 H     1 <1>   0.0800 
 36 H       -2.6320    -1.9050     1.1070 H     1 <1>   0.0800 
 37 H       -3.5480    -0.4280    -0.9500 H     1 <1>   0.0800 
 38 H       -5.2420    -0.1360    -1.0360 H     1 <1>   0.0800 
 39 H       -2.8880     5.7490     0.1900 H     1 <1>   0.1500 
 40 H        0.2630     3.7860    -1.9110 H     1 <1>   0.1500 
 41 H       -7.1470    -0.9490    -0.2020 H     1 <1>   0.0800 
 42 H       -7.8230    -1.0720     1.4140 H     1 <1>   0.0800 
 43 H       -0.3800     5.4800    -3.4260 H     1 <1>   0.0800 
 44 H        0.7550     6.0940    -2.2190 H     1 <1>   0.0800 
 45 H       -8.1750    -3.1640     0.0900 H     1 <1>   0.0800 
 46 H       -7.2420    -3.4340     1.5400 H     1 <1>   0.0800 
 47 H       -3.2910    -4.9390    -2.4390 H     1 <1>   0.1500 
 48 H       -7.2210    -5.1890    -0.9170 H     1 <1>   0.1500 
 49 H       -1.3390     7.7520    -3.6720 H     1 <1>   0.0800 
 50 H        0.3730     7.7840    -4.0130 H     1 <1>   0.0800 
 51 H       -0.2110     8.3620    -2.4720 H     1 <1>   0.0800 
 52 H       -0.6850    -2.5920    -1.5660 H     1 <1>   0.0800 
 53 H       -1.6580    -3.3910    -2.7950 H     1 <1>   0.0800 
 54 H       -1.3190    -4.2040    -1.2550 H     1 <1>   0.0800 
 55 H       -5.4170    -6.0940    -2.2990 H     1 <1>   0.1500 
@<TRIPOS>BOND
  1   1   2  2   
  2   2   3  am  
  3   2   4  1   
  4   3   5  1   
  5   3   6  1   
  6   4   7  ar  
  7   4   8  ar  
  8   5   9  1   
  9   5  29  1   
 10   5  30  1   
 11   6  10  1   
 12   6  31  1   
 13   6  32  1   
 14   7  11  ar  
 15   7  33  1   
 16   8  12  ar  
 17   8  34  1   
 18   9  13  1   
 19   9  35  1   
 20   9  36  1   
 21  10  13  1   
 22  10  37  1   
 23  10  38  1   
 24  11  14  ar  
 25  11  39  1   
 26  12  14  ar  
 27  12  40  1   
 28  13  15  1   
 29  13  16  1   
 30  14  17  1   
 31  15  18  1   
 32  16  19  ar  
 33  16  20  ar  
 34  17  21  1   
 35  18  22  1   
 36  18  41  1   
 37  18  42  1   
 38  19  23  1   
 39  19  24  ar  
 40  20  22  1   
 41  20  25  ar  
 42  21  26  1   
 43  21  43  1   
 44  21  44  1   
 45  22  45  1   
 46  22  46  1   
 47  23  27  1   
 48  24  28  ar  
 49  24  47  1   
 50  25  28  ar  
 51  25  48  1   
 52  26  49  1   
 53  26  50  1   
 54  26  51  1   
 55  27  52  1   
 56  27  53  1   
 57  27  54  1   
 58  28  55  1   
@<TRIPOS>SUBSTRUCTURE
  1 ****  10 GROUP 4 **** **** 0

# MOE 2024.06 (io_trps.svl 2023.06)
