@<TRIPOS>MOLECULE
NONAME
52 56 1 0 0 
SMALL
USER_CHARGES


@<TRIPOS>ATOM
  1 O       -1.5470     0.4460    -1.5750 O.2   1 <1>  -0.5700 
  2 C       -1.9060     0.8860    -0.5000 C.2   1 <1>   0.5440 
  3 N       -2.3700     0.0090     0.4510 N.am  1 <1>  -0.6600 
  4 C       -1.8720     2.3100    -0.2600 C.ar  1 <1>   0.0860 
  5 C       -3.1560     0.3910     1.6530 C.3   1 <1>   0.1400 
  6 C       -2.4240    -1.4570     0.2330 C.3   1 <1>   0.1400 
  7 C       -1.0820     2.8910     0.7630 C.ar  1 <1>   0.0000 
  8 C       -2.6250     3.1660    -1.0190 C.ar  1 <1>  -0.1500 
  9 C       -3.9160    -0.8770     2.0350 C.3   1 <1>   0.2000 
 10 C       -3.0700    -2.0270     1.4970 C.3   1 <1>  -0.0800 
 11 C       -1.1880     4.2840     0.9680 C.ar  1 <1>   0.3100 
 12 C       -0.1900     2.1600     1.5810 C.ar  1 <1>  -0.1500 
 13 C       -2.6430     4.5360    -0.7530 C.ar  1 <1>   0.2780 
 14 O       -4.0670    -0.9900     3.4080 O.3   1 <1>  -0.6800 
 15 C       -3.8730    -3.3130     1.2510 C.3   1 <1>   0.0210 
 16 N       -1.9730     5.0850     0.2110 N.ar  1 <1>  -0.6200 
 17 C       -0.4390     4.8750     1.9980 C.ar  1 <1>  -0.1500 
 18 C        0.5310     2.7670     2.5730 C.ar  1 <1>  -0.1500 
 19 C       -3.5040     5.4390    -1.6220 C.3   1 <1>  -0.0680 
 20 C       -3.0060    -4.3830     0.6170 C.2   1 <1>   0.1080 
 21 C        0.4020     4.1410     2.7900 C.ar  1 <1>  -0.1500 
 22 C       -3.4680     5.3490    -3.1210 C.3   1 <1>  -0.2000 
 23 C       -2.8650     6.5300    -2.4280 C.3   1 <1>  -0.2000 
 24 N       -1.9270    -4.8370     1.1760 N.2   1 <1>  -0.7070 
 25 C       -3.2510    -4.9790    -0.6150 C.2   1 <1>  -0.1500 
 26 N       -1.4510    -5.7480     0.3070 N.pl3 1 <1>   0.3000 
 27 C       -2.2350    -5.8510    -0.7870 C.2   1 <1>  -0.3320 
 28 C       -1.9600    -6.7890    -1.9480 C.3   1 <1>  -0.0600 
 29 H       -2.4820     0.6820     2.4400 H     1 <1>   0.0800 
 30 H       -3.8360     1.1940     1.4280 H     1 <1>   0.0800 
 31 H       -3.0260    -1.6600    -0.6370 H     1 <1>   0.0800 
 32 H       -1.4360    -1.8590     0.0800 H     1 <1>   0.0800 
 33 H       -3.2180     2.7830    -1.8280 H     1 <1>   0.1500 
 34 H       -4.8940    -0.8620     1.5850 H     1 <1>   0.0800 
 35 H       -2.2710    -2.2410     2.1860 H     1 <1>   0.0800 
 36 H       -0.0730     1.1030     1.4160 H     1 <1>   0.1500 
 37 H       -3.2070    -1.1840     3.8280 H     1 <1>   0.4000 
 38 H       -4.7120    -3.1090     0.6100 H     1 <1>   0.0800 
 39 H       -4.2490    -3.6860     2.1870 H     1 <1>   0.0800 
 40 H       -0.5480     5.9350     2.1430 H     1 <1>   0.1500 
 41 H        1.2050     2.2000     3.1920 H     1 <1>   0.1500 
 42 H       -4.4420     5.6730    -1.1500 H     1 <1>   0.1000 
 43 H        0.9720     4.6090     3.5750 H     1 <1>   0.1500 
 44 H       -2.8010     4.6500    -3.5960 H     1 <1>   0.1000 
 45 H       -4.3840     5.4840    -3.6690 H     1 <1>   0.1000 
 46 H       -3.3630     7.4830    -2.4800 H     1 <1>   0.1000 
 47 H       -1.7940     6.6260    -2.3880 H     1 <1>   0.1000 
 48 H       -4.0780    -4.7710    -1.2700 H     1 <1>   0.1500 
 49 H       -0.5920    -6.2800     0.4880 H     1 <1>   0.2700 
 50 H       -2.7260    -6.6860    -2.6960 H     1 <1>   0.0800 
 51 H       -1.9490    -7.8090    -1.6080 H     1 <1>   0.0800 
 52 H       -1.0110    -6.5570    -2.3970 H     1 <1>   0.0800 
@<TRIPOS>BOND
  1   1   2  2   
  2   2   3  am  
  3   2   4  1   
  4   3   5  1   
  5   3   6  1   
  6   4   7  ar  
  7   4   8  ar  
  8   5   9  1   
  9   5  29  1   
 10   5  30  1   
 11   6  10  1   
 12   6  31  1   
 13   6  32  1   
 14   7  11  ar  
 15   7  12  ar  
 16   8  13  ar  
 17   8  33  1   
 18   9  10  1   
 19   9  14  1   
 20   9  34  1   
 21  10  15  1   
 22  10  35  1   
 23  11  16  ar  
 24  11  17  ar  
 25  12  18  ar  
 26  12  36  1   
 27  13  16  ar  
 28  13  19  1   
 29  14  37  1   
 30  15  20  1   
 31  15  38  1   
 32  15  39  1   
 33  17  21  ar  
 34  17  40  1   
 35  18  21  ar  
 36  18  41  1   
 37  19  22  1   
 38  19  23  1   
 39  19  42  1   
 40  20  24  2   
 41  20  25  1   
 42  21  43  1   
 43  22  23  1   
 44  22  44  1   
 45  22  45  1   
 46  23  46  1   
 47  23  47  1   
 48  24  26  1   
 49  25  27  2   
 50  25  48  1   
 51  26  27  1   
 52  26  49  1   
 53  27  28  1   
 54  28  50  1   
 55  28  51  1   
 56  28  52  1   
@<TRIPOS>SUBSTRUCTURE
  1 ****   3 GROUP 4 **** **** 0

# MOE 2024.06 (io_trps.svl 2023.06)
