@<TRIPOS>MOLECULE
NONAME
54 57 1 0 0 
SMALL
USER_CHARGES


@<TRIPOS>ATOM
  1 O        1.5680    -0.3050     4.4590 O.3   1 <1>  -0.6800 
  2 C        1.1830    -0.6830     3.1800 C.3   1 <1>   0.2000 
  3 C        1.6740    -2.1120     2.9530 C.3   1 <1>  -0.0800 
  4 C        1.9930     0.1590     2.1780 C.3   1 <1>   0.3430 
  5 C        3.1600    -1.8700     2.6580 C.3   1 <1>   0.3430 
  6 C        0.8920    -2.8280     1.8170 C.3   1 <1>  -0.0170 
  7 N        3.1920    -0.6600     1.7960 N.4   1 <1>  -0.9590 
  8 C        1.8200    -3.5280     0.8270 C.ar  1 <1>  -0.1440 
  9 C        4.4700     0.0910     1.8710 C.3   1 <1>   0.4860 
 10 C        2.2900    -2.9120    -0.3610 C.ar  1 <1>   0.0000 
 11 C        2.2740    -4.7830     1.1110 C.ar  1 <1>  -0.1500 
 12 C        4.4520     1.1620     0.8030 C.ar  1 <1>  -0.1440 
 13 C        3.2850    -3.5990    -1.1000 C.ar  1 <1>   0.3100 
 14 C        1.8540    -1.6570    -0.8510 C.ar  1 <1>  -0.1500 
 15 C        3.2170    -5.3970     0.2790 C.ar  1 <1>   0.1600 
 16 C        4.7230     0.8310    -0.5150 C.ar  1 <1>   0.1600 
 17 C        4.1660     2.4800     1.1090 C.ar  1 <1>  -0.1500 
 18 N        3.7300    -4.8330    -0.7670 N.ar  1 <1>  -0.6200 
 19 C        3.8540    -2.9730    -2.2200 C.ar  1 <1>  -0.1500 
 20 C        2.4280    -1.0770    -1.9490 C.ar  1 <1>  -0.1500 
 21 N        4.6990     1.6760    -1.5270 N.ar  1 <1>  -0.6200 
 22 C        4.1570     3.3720     0.0620 C.ar  1 <1>  -0.1500 
 23 C        3.4480    -1.7350    -2.6370 C.ar  1 <1>  -0.1500 
 24 C        4.4200     2.9410    -1.2370 C.ar  1 <1>   0.4100 
 25 N        4.4010     3.8460    -2.2850 N.pl3 1 <1>  -0.8380 
 26 C        5.2200     3.5890    -3.5020 C.3   1 <1>   0.1290 
 27 C        3.2240     4.7290    -2.5000 C.3   1 <1>   0.1290 
 28 H        0.9550    -0.6580     5.1390 H     1 <1>   0.4000 
 29 H        0.1190    -0.5460     3.0840 H     1 <1>   0.0800 
 30 H        1.5790    -2.7030     3.8480 H     1 <1>   0.0800 
 31 H        2.2770     1.0930     2.6350 H     1 <1>   0.0800 
 32 H        1.4020     0.3630     1.3010 H     1 <1>   0.0800 
 33 H        3.6330    -2.7160     2.1850 H     1 <1>   0.0800 
 34 H        3.6640    -1.6620     3.5890 H     1 <1>   0.0800 
 35 H        0.2310    -2.1560     1.3040 H     1 <1>   0.0800 
 36 H        0.2510    -3.5690     2.2650 H     1 <1>   0.0800 
 37 H        3.0700    -0.9700     0.8190 H     1 <1>   0.4500 
 38 H        4.5840     0.5390     2.8460 H     1 <1>   0.0800 
 39 H        5.3020    -0.5730     1.6990 H     1 <1>   0.0800 
 40 H        1.9400    -5.3270     1.9770 H     1 <1>   0.1500 
 41 H        1.0460    -1.1400    -0.3740 H     1 <1>   0.1500 
 42 H        3.5460    -6.3920     0.5320 H     1 <1>   0.1500 
 43 H        4.9680    -0.1880    -0.7640 H     1 <1>   0.1500 
 44 H        3.9660     2.8130     2.1140 H     1 <1>   0.1500 
 45 H        4.6240    -3.5060    -2.7480 H     1 <1>   0.1500 
 46 H        2.1050    -0.1130    -2.3120 H     1 <1>   0.1500 
 47 H        3.9590     4.4140     0.2280 H     1 <1>   0.1500 
 48 H        3.8950    -1.2620    -3.4960 H     1 <1>   0.1500 
 49 H        5.4700     4.5190    -3.9820 H     1 <1>   0.0800 
 50 H        4.6710     2.9670    -4.1870 H     1 <1>   0.0800 
 51 H        6.1330     3.0860    -3.2320 H     1 <1>   0.0800 
 52 H        3.5460     5.7550    -2.5360 H     1 <1>   0.0800 
 53 H        2.5100     4.6130    -1.7040 H     1 <1>   0.0800 
 54 H        2.7420     4.4780    -3.4290 H     1 <1>   0.0800 
@<TRIPOS>BOND
  1   1   2  1   
  2   1  28  1   
  3   2   3  1   
  4   2   4  1   
  5   2  29  1   
  6   3   5  1   
  7   3   6  1   
  8   3  30  1   
  9   4   7  1   
 10   4  31  1   
 11   4  32  1   
 12   5   7  1   
 13   5  33  1   
 14   5  34  1   
 15   6   8  1   
 16   6  35  1   
 17   6  36  1   
 18   7   9  1   
 19   7  37  1   
 20   8  10  ar  
 21   8  11  ar  
 22   9  12  1   
 23   9  38  1   
 24   9  39  1   
 25  10  13  ar  
 26  10  14  ar  
 27  11  15  ar  
 28  11  40  1   
 29  12  16  ar  
 30  12  17  ar  
 31  13  18  ar  
 32  13  19  ar  
 33  14  20  ar  
 34  14  41  1   
 35  15  18  ar  
 36  15  42  1   
 37  16  21  ar  
 38  16  43  1   
 39  17  22  ar  
 40  17  44  1   
 41  19  23  ar  
 42  19  45  1   
 43  20  23  ar  
 44  20  46  1   
 45  21  24  ar  
 46  22  24  ar  
 47  22  47  1   
 48  23  48  1   
 49  24  25  1   
 50  25  26  1   
 51  25  27  1   
 52  26  49  1   
 53  26  50  1   
 54  26  51  1   
 55  27  52  1   
 56  27  53  1   
 57  27  54  1   
@<TRIPOS>SUBSTRUCTURE
  1 ****   7 GROUP 4 **** **** 0

# MOE 2024.06 (io_trps.svl 2023.06)
