@<TRIPOS>MOLECULE
NONAME
46 48 1 0 0 
SMALL
USER_CHARGES


@<TRIPOS>ATOM
  1 O       -0.6900     0.4780     0.4040 O.3   1 <1>  -0.2800 
  2 C       -0.6570     1.4020    -0.5060 C.2   1 <1>   0.2980 
  3 C       -1.5780    -0.3510    -0.0350 C.2   1 <1>   0.2980 
  4 N       -1.4820     1.1610    -1.4570 N.2   1 <1>  -0.3380 
  5 C        0.2970     2.5880    -0.3470 C.3   1 <1>   0.1000 
  6 N       -2.0820     0.0140    -1.1510 N.2   1 <1>  -0.3380 
  7 C       -1.9410    -1.6080     0.7460 C.3   1 <1>   0.5230 
  8 C        0.0200     3.7000    -1.3710 C.3   1 <1>  -0.2400 
  9 C        1.7570     2.1280    -0.4630 C.3   1 <1>  -0.2400 
 10 N       -3.0520    -2.3520     0.0480 N.4   1 <1>  -0.9590 
 11 C       -4.3180    -2.4220     0.8400 C.3   1 <1>   0.4230 
 12 C       -2.5530    -3.6740    -0.4470 C.3   1 <1>   0.2630 
 13 C       -5.4540    -2.9920    -0.0130 C.3   1 <1>  -0.1600 
 14 C       -4.8480    -1.0170     1.1420 C.3   1 <1>  -0.1600 
 15 C       -5.9230    -1.8300    -0.9030 C.3   1 <1>  -0.0800 
 16 C       -5.5400    -0.5490    -0.1480 C.3   1 <1>  -0.0800 
 17 C       -7.4430    -1.7750    -1.1190 C.3   1 <1>  -0.1600 
 18 C       -6.8400     0.2360     0.0800 C.3   1 <1>  -0.1600 
 19 C       -7.9840    -0.7520    -0.1260 C.3   1 <1>   0.2000 
 20 O       -8.2270    -1.3910     1.0690 O.3   1 <1>  -0.6800 
 21 H        0.1450     2.9970     0.6360 H     1 <1>   0.0800 
 22 H       -2.2420    -1.3260     1.7400 H     1 <1>   0.0800 
 23 H       -1.0650    -2.2290     0.8250 H     1 <1>   0.0800 
 24 H        0.1690     3.3360    -2.3730 H     1 <1>   0.0800 
 25 H        0.6760     4.5360    -1.2060 H     1 <1>   0.0800 
 26 H       -0.9960     4.0420    -1.2800 H     1 <1>   0.0800 
 27 H        1.9390     1.7020    -1.4340 H     1 <1>   0.0800 
 28 H        1.9760     1.3870     0.2850 H     1 <1>   0.0800 
 29 H        2.4240     2.9600    -0.3210 H     1 <1>   0.0800 
 30 H       -3.2710    -1.7620    -0.7760 H     1 <1>   0.4500 
 31 H       -4.1720    -2.9970     1.7420 H     1 <1>   0.0800 
 32 H       -2.3690    -4.3420     0.3790 H     1 <1>   0.0800 
 33 H       -1.6350    -3.5430    -0.9990 H     1 <1>   0.0800 
 34 H       -3.2730    -4.1290    -1.1060 H     1 <1>   0.0800 
 35 H       -5.1970    -3.8630    -0.5850 H     1 <1>   0.0800 
 36 H       -6.2510    -3.2780     0.6510 H     1 <1>   0.0800 
 37 H       -5.5800    -1.1040     1.9260 H     1 <1>   0.0800 
 38 H       -4.1110    -0.3120     1.4780 H     1 <1>   0.0800 
 39 H       -5.4160    -1.8660    -1.8540 H     1 <1>   0.0800 
 40 H       -4.8590     0.0420    -0.7400 H     1 <1>   0.0800 
 41 H       -7.9310    -2.7310    -1.0310 H     1 <1>   0.0800 
 42 H       -7.6300    -1.3990    -2.1100 H     1 <1>   0.0800 
 43 H       -6.9180     0.9900    -0.6850 H     1 <1>   0.0800 
 44 H       -6.8900     0.7300     1.0360 H     1 <1>   0.0800 
 45 H       -8.8980    -0.2830    -0.4520 H     1 <1>   0.0800 
 46 H       -7.4140    -1.8160     1.3830 H     1 <1>   0.4000 
@<TRIPOS>BOND
  1   1   2  1   
  2   1   3  1   
  3   2   4  2   
  4   2   5  1   
  5   3   6  2   
  6   3   7  1   
  7   4   6  1   
  8   5   8  1   
  9   5   9  1   
 10   5  21  1   
 11   7  10  1   
 12   7  22  1   
 13   7  23  1   
 14   8  24  1   
 15   8  25  1   
 16   8  26  1   
 17   9  27  1   
 18   9  28  1   
 19   9  29  1   
 20  10  11  1   
 21  10  12  1   
 22  10  30  1   
 23  11  13  1   
 24  11  14  1   
 25  11  31  1   
 26  12  32  1   
 27  12  33  1   
 28  12  34  1   
 29  13  15  1   
 30  13  35  1   
 31  13  36  1   
 32  14  16  1   
 33  14  37  1   
 34  14  38  1   
 35  15  16  1   
 36  15  17  1   
 37  15  39  1   
 38  16  18  1   
 39  16  40  1   
 40  17  19  1   
 41  17  41  1   
 42  17  42  1   
 43  18  19  1   
 44  18  43  1   
 45  18  44  1   
 46  19  20  1   
 47  19  45  1   
 48  20  46  1   
@<TRIPOS>SUBSTRUCTURE
  1 ****   6 GROUP 4 **** **** 0

# MOE 2024.06 (io_trps.svl 2023.06)
