@<TRIPOS>MOLECULE
NONAME
52 54 1 0 0 
SMALL
USER_CHARGES


@<TRIPOS>ATOM
  1 O       -1.9450    -0.6240    -2.7260 O.2   1 <1>  -0.5700 
  2 C       -2.2090    -0.9590    -1.5950 C.2   1 <1>   0.5690 
  3 N       -2.1080    -0.0970    -0.5430 N.am  1 <1>  -0.6600 
  4 C       -2.6540    -2.3860    -1.3690 C.3   1 <1>  -0.0190 
  5 C       -2.5130    -0.4910     0.8370 C.3   1 <1>   0.2200 
  6 C       -1.6430     1.3100    -0.7140 C.3   1 <1>   0.0600 
  7 C       -1.6550    -3.1330    -0.4650 C.3   1 <1>   0.1200 
  8 C       -4.1470    -2.4570    -0.9940 C.3   1 <1>   0.1400 
  9 C       -1.6020    -1.6120     1.3980 C.3   1 <1>   0.1200 
 10 C       -4.0350    -0.7560     0.9080 C.3   1 <1>   0.1400 
 11 O       -1.8390    -2.9020     0.8980 O.3   1 <1>  -0.5600 
 12 N       -4.4660    -2.1110     0.4280 N.am  1 <1>  -0.6600 
 13 C       -4.9570    -3.0410     1.3280 C.2   1 <1>   0.5440 
 14 O       -5.2670    -2.6830     2.4490 O.2   1 <1>  -0.5700 
 15 C       -5.1050    -4.4360     0.9760 C.ar  1 <1>   0.0860 
 16 C       -6.2510    -4.9090     0.3450 C.ar  1 <1>  -0.1500 
 17 C       -4.0950    -5.3530     1.2500 C.ar  1 <1>  -0.1500 
 18 C       -6.3940    -6.2360    -0.0140 C.ar  1 <1>   0.0820 
 19 C       -4.2120    -6.6840     0.8950 C.ar  1 <1>  -0.1500 
 20 O       -7.5710    -6.5480    -0.6230 O.3   1 <1>  -0.3630 
 21 C       -5.3570    -7.1470     0.2510 C.ar  1 <1>   0.0820 
 22 C       -8.2150    -7.7720    -0.3500 C.3   1 <1>   0.1200 
 23 O       -5.4810    -8.4450    -0.1370 O.3   1 <1>  -0.3630 
 24 C       -9.7010    -7.6010    -0.6530 C.3   1 <1>  -0.2400 
 25 C       -4.5000    -9.4190     0.1310 C.3   1 <1>   0.1200 
 26 C       -5.0000   -10.7530    -0.4160 C.3   1 <1>  -0.2400 
 27 H       -2.5760    -2.8580    -2.3320 H     1 <1>   0.0800 
 28 H       -2.3400     0.3660     1.4640 H     1 <1>   0.0800 
 29 H       -0.7880     1.4910    -0.0870 H     1 <1>   0.0800 
 30 H       -2.4320     1.9900    -0.4480 H     1 <1>   0.0800 
 31 H       -1.3600     1.4980    -1.7360 H     1 <1>   0.0800 
 32 H       -0.6420    -2.8730    -0.7220 H     1 <1>   0.0800 
 33 H       -1.7770    -4.1920    -0.6120 H     1 <1>   0.0800 
 34 H       -4.4960    -3.4480    -1.2170 H     1 <1>   0.0800 
 35 H       -4.6960    -1.7880    -1.6350 H     1 <1>   0.0800 
 36 H       -1.7590    -1.6740     2.4600 H     1 <1>   0.0800 
 37 H       -0.5680    -1.3680     1.2300 H     1 <1>   0.0800 
 38 H       -4.5520    -0.0040     0.3380 H     1 <1>   0.0800 
 39 H       -4.3350    -0.6250     1.9320 H     1 <1>   0.0800 
 40 H       -7.0510    -4.2220     0.1330 H     1 <1>   0.1500 
 41 H       -3.2060    -5.0020     1.7480 H     1 <1>   0.1500 
 42 H       -3.3960    -7.3400     1.1290 H     1 <1>   0.1500 
 43 H       -7.7850    -8.5300    -0.9800 H     1 <1>   0.0800 
 44 H       -8.0610    -8.0200     0.6860 H     1 <1>   0.0800 
 45 H       -9.8390    -7.3420    -1.6870 H     1 <1>   0.0800 
 46 H      -10.1180    -6.8310    -0.0290 H     1 <1>   0.0800 
 47 H      -10.2190    -8.5220    -0.4560 H     1 <1>   0.0800 
 48 H       -3.5860    -9.1270    -0.3560 H     1 <1>   0.0800 
 49 H       -4.3560    -9.4760     1.1970 H     1 <1>   0.0800 
 50 H       -5.1590   -10.6800    -1.4770 H     1 <1>   0.0800 
 51 H       -5.9210   -11.0280     0.0670 H     1 <1>   0.0800 
 52 H       -4.2720   -11.5200    -0.2300 H     1 <1>   0.0800 
@<TRIPOS>BOND
  1   1   2  2   
  2   2   3  am  
  3   2   4  1   
  4   3   5  1   
  5   3   6  1   
  6   4   7  1   
  7   4   8  1   
  8   4  27  1   
  9   5   9  1   
 10   5  10  1   
 11   5  28  1   
 12   6  29  1   
 13   6  30  1   
 14   6  31  1   
 15   7  11  1   
 16   7  32  1   
 17   7  33  1   
 18   8  12  1   
 19   8  34  1   
 20   8  35  1   
 21   9  11  1   
 22   9  36  1   
 23   9  37  1   
 24  10  12  1   
 25  10  38  1   
 26  10  39  1   
 27  12  13  am  
 28  13  14  2   
 29  13  15  1   
 30  15  16  ar  
 31  15  17  ar  
 32  16  18  ar  
 33  16  40  1   
 34  17  19  ar  
 35  17  41  1   
 36  18  20  1   
 37  18  21  ar  
 38  19  21  ar  
 39  19  42  1   
 40  20  22  1   
 41  21  23  1   
 42  22  24  1   
 43  22  43  1   
 44  22  44  1   
 45  23  25  1   
 46  24  45  1   
 47  24  46  1   
 48  24  47  1   
 49  25  26  1   
 50  25  48  1   
 51  25  49  1   
 52  26  50  1   
 53  26  51  1   
 54  26  52  1   
@<TRIPOS>SUBSTRUCTURE
  1 ****  15 GROUP 4 **** **** 0

# MOE 2024.06 (io_trps.svl 2023.06)
