@<TRIPOS>MOLECULE
NONAME
42 43 1 0 0 
SMALL
USER_CHARGES


@<TRIPOS>ATOM
  1 O        0.0890    -0.0100    -1.5490 O.2   1 <1>  -0.5700 
  2 C        0.7440    -0.5960    -0.7150 C.2   1 <1>   0.5690 
  3 N        1.6130     0.0510     0.1280 N.am  1 <1>  -0.4940 
  4 C        0.5890    -2.1320    -0.5960 C.3   1 <1>   0.3170 
  5 C        2.0400     1.3950     0.2510 C.2   1 <1>  -0.0880 
  6 N        1.6520    -2.6590     0.3340 N.pl3 1 <1>   0.0480 
  7 C        0.7410    -2.8140    -1.9730 C.3   1 <1>  -0.2400 
  8 C       -0.8140    -2.4770    -0.0510 C.3   1 <1>  -0.2400 
  9 N        1.3730     2.5420    -0.0620 N.pl3 1 <1>   0.3140 
 10 C        3.2350     1.7770     0.7600 C.2   1 <1>  -0.1810 
 11 C        1.5430    -2.8920     1.6760 C.2   1 <1>  -0.3020 
 12 C        2.9780    -2.8070     0.0340 C.2   1 <1>  -0.3020 
 13 N        2.1110     3.6340     0.2380 N.2   1 <1>  -0.7070 
 14 C        0.0060     2.7130    -0.5690 C.3   1 <1>   0.0160 
 15 C        3.2150     3.1680     0.7260 C.2   1 <1>   0.1080 
 16 C        4.3580     0.8810     1.2570 C.3   1 <1>   0.0210 
 17 C        2.7600    -3.1920     2.1990 C.2   1 <1>  -0.1500 
 18 C        3.6770    -3.1370     1.1500 C.2   1 <1>  -0.1500 
 19 C        4.3270     4.0790     1.1920 C.3   1 <1>  -0.0590 
 20 C        4.1250     0.4870     2.7160 C.3   1 <1>  -0.2400 
 21 H        2.1490    -0.5900     0.7240 H     1 <1>   0.3700 
 22 H        1.6610    -2.5220    -2.4450 H     1 <1>   0.0800 
 23 H       -0.0620    -2.5160    -2.6240 H     1 <1>   0.0800 
 24 H        0.7170    -3.8850    -1.8700 H     1 <1>   0.0800 
 25 H       -1.0020    -1.9570     0.8710 H     1 <1>   0.0800 
 26 H       -0.9100    -3.5370     0.1060 H     1 <1>   0.0800 
 27 H       -1.5660    -2.1670    -0.7550 H     1 <1>   0.0800 
 28 H        0.6110    -2.8360     2.2100 H     1 <1>   0.1500 
 29 H        3.3710    -2.6670    -0.9580 H     1 <1>   0.1500 
 30 H       -0.6430     2.0090    -0.0850 H     1 <1>   0.0800 
 31 H        0.0040     2.5470    -1.6290 H     1 <1>   0.0800 
 32 H       -0.3250     3.7120    -0.3600 H     1 <1>   0.0800 
 33 H        5.3000     1.3900     1.1610 H     1 <1>   0.0800 
 34 H        4.4040    -0.0050     0.6480 H     1 <1>   0.0800 
 35 H        3.0020    -3.4290     3.2220 H     1 <1>   0.1500 
 36 H        4.7340    -3.3260     1.2390 H     1 <1>   0.1500 
 37 H        4.7080     3.7430     2.1380 H     1 <1>   0.0800 
 38 H        3.9530     5.0800     1.3050 H     1 <1>   0.0800 
 39 H        5.1180     4.0830     0.4660 H     1 <1>   0.0800 
 40 H        4.0840     1.3660     3.3350 H     1 <1>   0.0800 
 41 H        4.9220    -0.1460     3.0620 H     1 <1>   0.0800 
 42 H        3.1950    -0.0450     2.8140 H     1 <1>   0.0800 
@<TRIPOS>BOND
  1   1   2  2   
  2   2   3  am  
  3   2   4  1   
  4   3   5  1   
  5   3  21  1   
  6   4   6  1   
  7   4   7  1   
  8   4   8  1   
  9   5   9  1   
 10   5  10  2   
 11   6  11  1   
 12   6  12  1   
 13   7  22  1   
 14   7  23  1   
 15   7  24  1   
 16   8  25  1   
 17   8  26  1   
 18   8  27  1   
 19   9  13  1   
 20   9  14  1   
 21  10  15  1   
 22  10  16  1   
 23  11  17  2   
 24  11  28  1   
 25  12  18  2   
 26  12  29  1   
 27  13  15  2   
 28  14  30  1   
 29  14  31  1   
 30  14  32  1   
 31  15  19  1   
 32  16  20  1   
 33  16  33  1   
 34  16  34  1   
 35  17  18  1   
 36  17  35  1   
 37  18  36  1   
 38  19  37  1   
 39  19  38  1   
 40  19  39  1   
 41  20  40  1   
 42  20  41  1   
 43  20  42  1   
@<TRIPOS>SUBSTRUCTURE
  1 ****   3 GROUP 4 **** **** 0

# MOE 2024.06 (io_trps.svl 2023.06)
