@<TRIPOS>MOLECULE
NONAME
44 47 1 0 0 
SMALL
USER_CHARGES


@<TRIPOS>ATOM
  1 O        0.7700     0.3890     0.4810 O.3   1 <1>  -0.0190 
  2 N        1.2320    -0.8060     0.4780 N.2   1 <1>  -0.4100 
  3 C        1.6930     1.2330     0.1040 C.2   1 <1>   0.4250 
  4 C        2.4400    -0.6530     0.0930 C.2   1 <1>   0.3350 
  5 N        2.7890     0.6100    -0.1580 N.2   1 <1>  -0.5650 
  6 C        1.4220     2.6500     0.0240 C.ar  1 <1>   0.0530 
  7 C        3.4330    -1.7760    -0.0800 C.3   1 <1>  -0.0590 
  8 C        2.3770     3.5650    -0.3850 C.ar  1 <1>  -0.1500 
  9 C        0.1890     3.2050     0.3460 C.ar  1 <1>  -0.1500 
 10 C        2.0910     4.9200    -0.4520 C.ar  1 <1>   0.4100 
 11 C       -0.0070     4.5670     0.2480 C.ar  1 <1>   0.1600 
 12 N        0.9090     5.4350    -0.1400 N.ar  1 <1>  -0.6200 
 13 N        3.0620     5.7910    -0.8710 N.pl3 1 <1>  -0.8690 
 14 C        3.1010     7.1840    -0.3780 C.3   1 <1>   0.3900 
 15 C        4.5510     7.5840    -0.0900 C.2   1 <1>   0.1080 
 16 N        5.5520     6.7450    -0.1100 N.2   1 <1>  -0.7070 
 17 C        4.9680     8.8780     0.2280 C.2   1 <1>  -0.1810 
 18 N        6.6290     7.4910     0.1910 N.pl3 1 <1>   0.3000 
 19 C        6.3010     8.7820     0.4000 C.2   1 <1>  -0.3320 
 20 C        4.1230    10.1320     0.3630 C.3   1 <1>   0.0210 
 21 C        7.2980     9.8670     0.7600 C.3   1 <1>   0.0200 
 22 C        4.6430    11.2710    -0.5250 C.3   1 <1>  -0.1600 
 23 C        7.2070    11.0580    -0.2020 C.3   1 <1>  -0.1600 
 24 C        5.9450    11.9220    -0.0260 C.3   1 <1>  -0.1600 
 25 H        2.9750    -2.7160     0.1640 H     1 <1>   0.0800 
 26 H        4.2740    -1.6140     0.5680 H     1 <1>   0.0800 
 27 H        3.7730    -1.8010    -1.0990 H     1 <1>   0.0800 
 28 H        3.3590     3.2290    -0.6590 H     1 <1>   0.1500 
 29 H       -0.6200     2.5760     0.6730 H     1 <1>   0.1500 
 30 H       -0.9730     4.9700     0.5030 H     1 <1>   0.1500 
 31 H        4.0310     5.4480    -0.8150 H     1 <1>   0.4000 
 32 H        2.5280     7.2790     0.5280 H     1 <1>   0.0800 
 33 H        2.6840     7.8320    -1.1270 H     1 <1>   0.0800 
 34 H        7.5720     7.0910     0.2460 H     1 <1>   0.2700 
 35 H        4.1140    10.4440     1.3930 H     1 <1>   0.0800 
 36 H        3.1090     9.9150     0.0820 H     1 <1>   0.0800 
 37 H        8.2950     9.4630     0.7130 H     1 <1>   0.0800 
 38 H        7.1250    10.1940     1.7700 H     1 <1>   0.0800 
 39 H        3.8850    12.0340    -0.5580 H     1 <1>   0.0800 
 40 H        4.7760    10.9080    -1.5300 H     1 <1>   0.0800 
 41 H        7.2660    10.7040    -1.2170 H     1 <1>   0.0800 
 42 H        8.0640    11.6860    -0.0310 H     1 <1>   0.0800 
 43 H        5.8390    12.2080     1.0060 H     1 <1>   0.0800 
 44 H        6.0920    12.8270    -0.5900 H     1 <1>   0.0800 
@<TRIPOS>BOND
  1   1   2  1   
  2   1   3  1   
  3   2   4  2   
  4   3   5  2   
  5   3   6  1   
  6   4   5  1   
  7   4   7  1   
  8   6   8  ar  
  9   6   9  ar  
 10   7  25  1   
 11   7  26  1   
 12   7  27  1   
 13   8  10  ar  
 14   8  28  1   
 15   9  11  ar  
 16   9  29  1   
 17  10  12  ar  
 18  10  13  1   
 19  11  12  ar  
 20  11  30  1   
 21  13  14  1   
 22  13  31  1   
 23  14  15  1   
 24  14  32  1   
 25  14  33  1   
 26  15  16  2   
 27  15  17  1   
 28  16  18  1   
 29  17  19  2   
 30  17  20  1   
 31  18  19  1   
 32  18  34  1   
 33  19  21  1   
 34  20  22  1   
 35  20  35  1   
 36  20  36  1   
 37  21  23  1   
 38  21  37  1   
 39  21  38  1   
 40  22  24  1   
 41  22  39  1   
 42  22  40  1   
 43  23  24  1   
 44  23  41  1   
 45  23  42  1   
 46  24  43  1   
 47  24  44  1   
@<TRIPOS>SUBSTRUCTURE
  1 ****  13 GROUP 4 **** **** 0

# MOE 2024.06 (io_trps.svl 2023.06)
