@<TRIPOS>MOLECULE
NONAME
48 49 1 0 0 
SMALL
USER_CHARGES


@<TRIPOS>ATOM
  1 CL      -2.1060     0.9810     1.2260 Cl    1 <1>  -0.1770 
  2 C       -2.7080    -0.6550     1.0270 C.ar  1 <1>   0.1770 
  3 C       -4.0010    -0.8470     0.5540 C.ar  1 <1>  -0.1440 
  4 C       -1.8800    -1.7240     1.3510 C.ar  1 <1>  -0.1440 
  5 C       -4.4640    -2.1430     0.3960 C.ar  1 <1>  -0.1500 
  6 C       -4.9010     0.3320     0.2170 C.3   1 <1>  -0.0960 
  7 C       -2.3630    -3.0110     1.1850 C.ar  1 <1>  -0.1500 
  8 C       -0.4710    -1.5000     1.8800 C.3   1 <1>  -0.0960 
  9 C       -3.6420    -3.2200     0.6920 C.ar  1 <1>   0.0820 
 10 O       -4.1060    -4.4830     0.5490 O.3   1 <1>  -0.3630 
 11 C       -3.9940    -5.2090    -0.6820 C.3   1 <1>   0.3410 
 12 C       -4.7570    -6.5710    -0.5420 C.2   1 <1>   0.5690 
 13 C       -4.5800    -4.3860    -1.8480 C.3   1 <1>  -0.2400 
 14 C       -2.4880    -5.4210    -0.9550 C.3   1 <1>  -0.2400 
 15 O       -4.1270    -7.5840    -0.7720 O.2   1 <1>  -0.5700 
 16 N       -6.1020    -6.6660    -0.2230 N.am  1 <1>  -0.6600 
 17 C       -6.7670    -8.0160    -0.2880 C.3   1 <1>   0.1400 
 18 C       -6.9820    -5.5300     0.2070 C.3   1 <1>   0.1400 
 19 C       -8.2880    -7.8840    -0.3390 C.3   1 <1>  -0.1860 
 20 C       -7.9430    -5.9670     1.3170 C.3   1 <1>  -0.1600 
 21 C       -8.9400    -9.2250    -0.5730 C.2   1 <1>   0.9060 
 22 C       -8.8120    -7.1690     0.9140 C.3   1 <1>   0.2000 
 23 O       -9.4290    -9.4530    -1.6820 O.co2 1 <1>  -0.9000 
 24 O       -8.9820   -10.0450     0.3530 O.co2 1 <1>  -0.9000 
 25 O       -8.8140    -8.0420     1.9830 O.3   1 <1>  -0.6800 
 26 H       -5.4620    -2.3290     0.0460 H     1 <1>   0.1500 
 27 H       -5.8660    -0.0010    -0.1210 H     1 <1>   0.0800 
 28 H       -4.4530     0.9250    -0.5600 H     1 <1>   0.0800 
 29 H       -5.0390     0.9490     1.0870 H     1 <1>   0.0800 
 30 H       -1.7580    -3.8630     1.4370 H     1 <1>   0.1500 
 31 H        0.0210    -2.4360     2.0760 H     1 <1>   0.0800 
 32 H       -0.5090    -0.9360     2.7950 H     1 <1>   0.0800 
 33 H        0.1100    -0.9530     1.1590 H     1 <1>   0.0800 
 34 H       -4.5570    -4.9790    -2.7440 H     1 <1>   0.0800 
 35 H       -4.0010    -3.4980    -2.0260 H     1 <1>   0.0800 
 36 H       -5.5990    -4.1140    -1.6590 H     1 <1>   0.0800 
 37 H       -2.3590    -6.0130    -1.8440 H     1 <1>   0.0800 
 38 H       -2.0390    -5.9520    -0.1350 H     1 <1>   0.0800 
 39 H       -1.9790    -4.4880    -1.1060 H     1 <1>   0.0800 
 40 H       -6.4280    -8.5450    -1.1630 H     1 <1>   0.0800 
 41 H       -6.4850    -8.5930     0.5780 H     1 <1>   0.0800 
 42 H       -6.4060    -4.7040     0.5730 H     1 <1>   0.0800 
 43 H       -7.5480    -5.1910    -0.6430 H     1 <1>   0.0800 
 44 H       -8.5320    -7.2900    -1.1980 H     1 <1>   0.0800 
 45 H       -8.5850    -5.1440     1.5720 H     1 <1>   0.0800 
 46 H       -7.3540    -6.2060     2.1850 H     1 <1>   0.0800 
 47 H       -9.8330    -6.8690     0.7470 H     1 <1>   0.0800 
 48 H       -8.9330    -8.9650     1.5970 H     1 <1>   0.4000 
@<TRIPOS>BOND
  1   1   2  1   
  2   2   3  ar  
  3   2   4  ar  
  4   3   5  ar  
  5   3   6  1   
  6   4   7  ar  
  7   4   8  1   
  8   5   9  ar  
  9   5  26  1   
 10   6  27  1   
 11   6  28  1   
 12   6  29  1   
 13   7   9  ar  
 14   7  30  1   
 15   8  31  1   
 16   8  32  1   
 17   8  33  1   
 18   9  10  1   
 19  10  11  1   
 20  11  12  1   
 21  11  13  1   
 22  11  14  1   
 23  12  15  2   
 24  12  16  am  
 25  13  34  1   
 26  13  35  1   
 27  13  36  1   
 28  14  37  1   
 29  14  38  1   
 30  14  39  1   
 31  16  17  1   
 32  16  18  1   
 33  17  19  1   
 34  17  40  1   
 35  17  41  1   
 36  18  20  1   
 37  18  42  1   
 38  18  43  1   
 39  19  21  1   
 40  19  22  1   
 41  19  44  1   
 42  20  22  1   
 43  20  45  1   
 44  20  46  1   
 45  21  23  ar  
 46  21  24  ar  
 47  22  25  1   
 48  22  47  1   
 49  25  48  1   
@<TRIPOS>SUBSTRUCTURE
  1 ****  10 GROUP 4 **** **** 0

# MOE 2024.06 (io_trps.svl 2023.06)
