@<TRIPOS>MOLECULE
NONAME
59 61 1 0 0 
SMALL
USER_CHARGES


@<TRIPOS>ATOM
  1 F       -0.2160     0.5940     0.1820 F     1 <1>  -0.1900 
  2 C       -1.5030     0.7930     0.3160 C.ar  1 <1>   0.1900 
  3 C       -2.1470     1.8980    -0.2520 C.ar  1 <1>   0.0830 
  4 C       -2.1960    -0.1480     1.0530 C.ar  1 <1>  -0.1500 
  5 O       -1.5760     2.8900    -0.9950 O.3   1 <1>  -0.3630 
  6 C       -3.5120     2.0190    -0.0490 C.ar  1 <1>  -0.1500 
  7 C       -3.5580     0.0050     1.2360 C.ar  1 <1>  -0.1500 
  8 C       -0.2070     2.9070    -1.3320 C.3   1 <1>   0.0400 
  9 C       -4.2470     1.0870     0.6870 C.ar  1 <1>   0.0530 
 10 C       -5.6650     1.2640     0.8780 C.2   1 <1>   0.0870 
 11 O       -6.1360     2.4670     1.0910 O.3   1 <1>  -0.0190 
 12 C       -6.7300     0.4140     0.9000 C.2   1 <1>  -0.0860 
 13 N       -7.4290     2.4890     1.2620 N.2   1 <1>  -0.4100 
 14 C       -7.8130     1.2670     1.1540 C.2   1 <1>   0.3720 
 15 C       -6.8170    -1.0000     0.6950 C.2   1 <1>   0.7160 
 16 N       -9.1610     0.8820     1.2650 N.pl3 1 <1>  -0.8210 
 17 O       -5.9060    -1.6500     0.2220 O.2   1 <1>  -0.5700 
 18 N       -7.9680    -1.6610     0.9960 N.am  1 <1>  -0.7300 
 19 C       -9.9700     1.3640     0.1090 C.3   1 <1>   0.1290 
 20 C       -9.7750     1.3290     2.5500 C.3   1 <1>   0.1290 
 21 C       -8.2590    -3.1000     0.7360 C.3   1 <1>   0.1400 
 22 C       -9.1990    -3.3790    -0.4830 C.3   1 <1>   0.5030 
 23 N       -9.2780    -4.8760    -0.7280 N.4   1 <1>  -0.9590 
 24 C      -10.5970    -2.7660    -0.2690 C.3   1 <1>  -0.1600 
 25 C       -8.7020    -2.6930    -1.7740 C.3   1 <1>  -0.1600 
 26 C      -10.1290    -5.3020    -1.8880 C.3   1 <1>   0.2630 
 27 C       -9.6790    -5.6790     0.4750 C.3   1 <1>   0.2630 
 28 C      -11.1360    -2.3240    -1.6350 C.3   1 <1>  -0.1600 
 29 C       -9.9270    -2.2120    -2.5660 C.3   1 <1>  -0.1600 
 30 H       -1.6740    -0.9870     1.4770 H     1 <1>   0.1500 
 31 H       -4.0180     2.8650    -0.4790 H     1 <1>   0.1500 
 32 H       -4.0940    -0.7270     1.8150 H     1 <1>   0.1500 
 33 H       -0.0230     3.7770    -1.9360 H     1 <1>   0.0800 
 34 H        0.0280     2.0190    -1.8920 H     1 <1>   0.0800 
 35 H        0.3760     2.9610    -0.4300 H     1 <1>   0.0800 
 36 H       -8.7410    -1.0360     1.2830 H     1 <1>   0.3700 
 37 H       -9.5230     1.0340    -0.8140 H     1 <1>   0.0800 
 38 H      -10.0100     2.4410     0.1060 H     1 <1>   0.0800 
 39 H      -10.9720     0.9740     0.1680 H     1 <1>   0.0800 
 40 H       -9.1450     1.0440     3.3760 H     1 <1>   0.0800 
 41 H      -10.7410     0.8720     2.6780 H     1 <1>   0.0800 
 42 H       -9.8870     2.4000     2.5590 H     1 <1>   0.0800 
 43 H       -8.7030    -3.4970     1.6310 H     1 <1>   0.0800 
 44 H       -7.3260    -3.6120     0.5750 H     1 <1>   0.0800 
 45 H       -8.3130    -5.1480    -0.9680 H     1 <1>   0.4500 
 46 H      -10.5050    -1.8770     0.3310 H     1 <1>   0.0800 
 47 H      -11.2780    -3.4240     0.2380 H     1 <1>   0.0800 
 48 H       -8.0620    -3.3280    -2.3600 H     1 <1>   0.0800 
 49 H       -8.1310    -1.8150    -1.5370 H     1 <1>   0.0800 
 50 H      -11.1600    -5.0420    -1.7120 H     1 <1>   0.0800 
 51 H      -10.0640    -6.3690    -2.0280 H     1 <1>   0.0800 
 52 H       -9.8000    -4.8230    -2.7950 H     1 <1>   0.0800 
 53 H      -10.6700    -5.4030     0.7990 H     1 <1>   0.0800 
 54 H       -8.9910    -5.5210     1.2890 H     1 <1>   0.0800 
 55 H       -9.6800    -6.7310     0.2370 H     1 <1>   0.0800 
 56 H      -11.6480    -1.3790    -1.5550 H     1 <1>   0.0800 
 57 H      -11.8360    -3.0450    -2.0200 H     1 <1>   0.0800 
 58 H      -10.0760    -2.8090    -3.4500 H     1 <1>   0.0800 
 59 H       -9.7870    -1.1900    -2.8790 H     1 <1>   0.0800 
@<TRIPOS>BOND
  1   1   2  1   
  2   2   3  ar  
  3   2   4  ar  
  4   3   5  1   
  5   3   6  ar  
  6   4   7  ar  
  7   4  30  1   
  8   5   8  1   
  9   6   9  ar  
 10   6  31  1   
 11   7   9  ar  
 12   7  32  1   
 13   8  33  1   
 14   8  34  1   
 15   8  35  1   
 16   9  10  1   
 17  10  11  1   
 18  10  12  2   
 19  11  13  1   
 20  12  14  1   
 21  12  15  1   
 22  13  14  2   
 23  14  16  1   
 24  15  17  2   
 25  15  18  am  
 26  16  19  1   
 27  16  20  1   
 28  18  21  1   
 29  18  36  1   
 30  19  37  1   
 31  19  38  1   
 32  19  39  1   
 33  20  40  1   
 34  20  41  1   
 35  20  42  1   
 36  21  22  1   
 37  21  43  1   
 38  21  44  1   
 39  22  23  1   
 40  22  24  1   
 41  22  25  1   
 42  23  26  1   
 43  23  27  1   
 44  23  45  1   
 45  24  28  1   
 46  24  46  1   
 47  24  47  1   
 48  25  29  1   
 49  25  48  1   
 50  25  49  1   
 51  26  50  1   
 52  26  51  1   
 53  26  52  1   
 54  27  53  1   
 55  27  54  1   
 56  27  55  1   
 57  28  29  1   
 58  28  56  1   
 59  28  57  1   
 60  29  58  1   
 61  29  59  1   
@<TRIPOS>SUBSTRUCTURE
  1 ****  15 GROUP 4 **** **** 0

# MOE 2024.06 (io_trps.svl 2023.06)
