@<TRIPOS>MOLECULE
NONAME
48 51 1 0 0 
SMALL
USER_CHARGES


@<TRIPOS>ATOM
  1 S        1.7650    -1.0680     1.9750 S.3   1 <1>  -0.0800 
  2 C        1.6460    -0.4080     0.3520 C.2   1 <1>   0.3020 
  3 C        1.1230    -2.5730     1.4050 C.2   1 <1>  -0.1100 
  4 N        1.1720    -1.2550    -0.4890 N.2   1 <1>  -0.5650 
  5 N        2.0760     0.9410     0.1580 N.pl3 1 <1>   0.6460 
  6 C        0.8640    -2.5010     0.0800 C.2   1 <1>   0.1410 
  7 N        3.0070     1.5190     0.9770 N.2   1 <1>  -0.7070 
  8 C        1.7030     1.8550    -0.7760 C.2   1 <1>  -0.3320 
  9 C        0.3210    -3.5910    -0.7300 C.2   1 <1>   0.7160 
 10 C        3.1880     2.7210     0.5450 C.2   1 <1>   0.1080 
 11 C        2.3960     2.9960    -0.5570 C.2   1 <1>  -0.1500 
 12 C        0.6660     1.5510    -1.8260 C.3   1 <1>   1.2000 
 13 O       -0.0510    -3.4330    -1.8770 O.2   1 <1>  -0.5700 
 14 N        0.2070    -4.8460    -0.1990 N.am  1 <1>  -0.7300 
 15 C        4.1560     3.6840     1.1930 C.3   1 <1>  -0.0590 
 16 F        1.0790     0.6670    -2.7190 F     1 <1>  -0.3400 
 17 F        0.3490     2.6410    -2.5120 F     1 <1>  -0.3400 
 18 F       -0.4700     1.1060    -1.3090 F     1 <1>  -0.3400 
 19 C       -0.2790    -6.0440    -0.9190 C.3   1 <1>   0.2200 
 20 C       -1.6790    -6.3820    -0.4310 C.3   1 <1>  -0.0800 
 21 C        0.5080    -7.2590    -0.4500 C.3   1 <1>   0.1200 
 22 C       -1.4050    -7.2330     0.8180 C.3   1 <1>   0.1200 
 23 C       -2.4770    -7.1520    -1.5010 C.3   1 <1>  -0.0160 
 24 O       -0.0570    -7.6080     0.7760 O.3   1 <1>  -0.5600 
 25 C       -3.8820    -7.4800    -1.0200 C.ar  1 <1>  -0.1430 
 26 C       -4.8650    -6.5140    -0.9430 C.ar  1 <1>  -0.1500 
 27 C       -4.2510    -8.7550    -0.6380 C.ar  1 <1>  -0.1500 
 28 C       -6.1300    -6.8560    -0.4950 C.ar  1 <1>   0.1600 
 29 C       -5.5450    -8.9920    -0.2040 C.ar  1 <1>   0.1600 
 30 N       -6.4920    -8.0720    -0.1210 N.ar  1 <1>  -0.6200 
 31 H        1.0040    -3.3620     2.1240 H     1 <1>   0.1500 
 32 H        2.3620     3.9290    -1.0950 H     1 <1>   0.1500 
 33 H        0.5030    -5.0310     0.7600 H     1 <1>   0.3700 
 34 H        4.1550     4.6260     0.6770 H     1 <1>   0.0800 
 35 H        5.1470     3.2690     1.1680 H     1 <1>   0.0800 
 36 H        3.8730     3.8430     2.2180 H     1 <1>   0.0800 
 37 H       -0.2180    -5.9010    -1.9850 H     1 <1>   0.0800 
 38 H       -2.2250    -5.4910    -0.1740 H     1 <1>   0.0800 
 39 H        1.5570    -7.0550    -0.3230 H     1 <1>   0.0800 
 40 H        0.3760    -8.0880    -1.1240 H     1 <1>   0.0800 
 41 H       -2.0070    -8.1230     0.8590 H     1 <1>   0.0800 
 42 H       -1.5560    -6.6600     1.7160 H     1 <1>   0.0800 
 43 H       -1.9650    -8.0610    -1.7670 H     1 <1>   0.0800 
 44 H       -2.5510    -6.5510    -2.3900 H     1 <1>   0.0800 
 45 H       -4.6590    -5.4980    -1.2270 H     1 <1>   0.1500 
 46 H       -3.5480    -9.5670    -0.6730 H     1 <1>   0.1500 
 47 H       -6.8830    -6.0890    -0.4420 H     1 <1>   0.1500 
 48 H       -5.8150    -9.9920     0.0900 H     1 <1>   0.1500 
@<TRIPOS>BOND
  1   1   2  1   
  2   1   3  1   
  3   2   4  2   
  4   2   5  1   
  5   3   6  2   
  6   3  31  1   
  7   4   6  1   
  8   5   7  1   
  9   5   8  1   
 10   6   9  1   
 11   7  10  2   
 12   8  11  2   
 13   8  12  1   
 14   9  13  2   
 15   9  14  am  
 16  10  11  1   
 17  10  15  1   
 18  11  32  1   
 19  12  16  1   
 20  12  17  1   
 21  12  18  1   
 22  14  19  1   
 23  14  33  1   
 24  15  34  1   
 25  15  35  1   
 26  15  36  1   
 27  19  20  1   
 28  19  21  1   
 29  19  37  1   
 30  20  22  1   
 31  20  23  1   
 32  20  38  1   
 33  21  24  1   
 34  21  39  1   
 35  21  40  1   
 36  22  24  1   
 37  22  41  1   
 38  22  42  1   
 39  23  25  1   
 40  23  43  1   
 41  23  44  1   
 42  25  26  ar  
 43  25  27  ar  
 44  26  28  ar  
 45  26  45  1   
 46  27  29  ar  
 47  27  46  1   
 48  28  30  ar  
 49  28  47  1   
 50  29  30  ar  
 51  29  48  1   
@<TRIPOS>SUBSTRUCTURE
  1 ****   9 GROUP 4 **** **** 0

# MOE 2024.06 (io_trps.svl 2023.06)
