@<TRIPOS>MOLECULE
NONAME
46 48 1 0 0 
SMALL
USER_CHARGES


@<TRIPOS>ATOM
  1 S        0.1940     1.2560    -0.9340 S.3   1 <1>  -0.0800 
  2 C        1.4600     0.2910    -0.1880 C.2   1 <1>  -0.1400 
  3 C       -1.0550     0.2930    -0.1650 C.2   1 <1>  -0.1100 
  4 C        0.9230    -0.6790     0.5760 C.2   1 <1>  -0.1500 
  5 C        2.8990     0.6560    -0.4980 C.3   1 <1>   0.0200 
  6 C       -0.5080    -0.6780     0.5900 C.2   1 <1>  -0.1500 
  7 C        3.2920     1.9800     0.1720 C.3   1 <1>  -0.1600 
  8 C        4.7540     2.3650    -0.1310 C.3   1 <1>  -0.0990 
  9 C        5.2170     3.6440     0.5580 C.2   1 <1>   0.5690 
 10 O        4.3910     4.4190     0.9770 O.2   1 <1>  -0.5700 
 11 N        6.5530     3.9390     0.6640 N.am  1 <1>  -0.6600 
 12 C        7.0220     4.9510     1.6690 C.3   1 <1>   0.1400 
 13 C        7.6180     3.3880    -0.2250 C.3   1 <1>   0.1400 
 14 C        7.6170     6.2610     1.0800 C.3   1 <1>   0.4230 
 15 C        8.1640     4.4780    -1.1760 C.3   1 <1>  -0.0800 
 16 N        7.1030     6.6700    -0.2890 N.4   1 <1>  -0.9590 
 17 C        9.1610     6.2560     1.1200 C.3   1 <1>   0.1200 
 18 C        9.5840     4.9440    -0.8180 C.3   1 <1>   0.1200 
 19 C        7.1730     5.6380    -1.3830 C.3   1 <1>   0.3430 
 20 C        5.6910     7.1590    -0.1740 C.3   1 <1>   0.2630 
 21 O        9.7180     5.1100     0.5550 O.3   1 <1>  -0.5600 
 22 H       -2.0770     0.5600    -0.3630 H     1 <1>   0.1500 
 23 H        1.4760    -1.4080     1.1400 H     1 <1>   0.1500 
 24 H        3.5400    -0.1310    -0.1410 H     1 <1>   0.0800 
 25 H        3.0190     0.7280    -1.5650 H     1 <1>   0.0800 
 26 H       -1.0550    -1.4040     1.1660 H     1 <1>   0.1500 
 27 H        2.6380     2.7620    -0.1740 H     1 <1>   0.0800 
 28 H        3.1570     1.8890     1.2360 H     1 <1>   0.0800 
 29 H        4.8690     2.4890    -1.1910 H     1 <1>   0.0800 
 30 H        5.3910     1.5610     0.1910 H     1 <1>   0.0800 
 31 H        6.2030     5.2210     2.3120 H     1 <1>   0.0800 
 32 H        7.7540     4.4850     2.3070 H     1 <1>   0.0800 
 33 H        8.4090     2.9720     0.3780 H     1 <1>   0.0800 
 34 H        7.2230     2.5820    -0.8170 H     1 <1>   0.0800 
 35 H        7.3330     7.0430     1.7650 H     1 <1>   0.0800 
 36 H        8.2580     4.0060    -2.1380 H     1 <1>   0.0800 
 37 H        7.6830     7.4630    -0.5890 H     1 <1>   0.4500 
 38 H        9.4800     6.2690     2.1470 H     1 <1>   0.0800 
 39 H        9.5730     7.1230     0.6360 H     1 <1>   0.0800 
 40 H        9.8600     5.8550    -1.3220 H     1 <1>   0.0800 
 41 H       10.2900     4.1800    -1.0990 H     1 <1>   0.0800 
 42 H        6.1950     5.2020    -1.5120 H     1 <1>   0.0800 
 43 H        7.4170     6.1350    -2.3080 H     1 <1>   0.0800 
 44 H        5.0400     6.3580     0.1320 H     1 <1>   0.0800 
 45 H        5.3440     7.5350    -1.1220 H     1 <1>   0.0800 
 46 H        5.6220     7.9490     0.5550 H     1 <1>   0.0800 
@<TRIPOS>BOND
  1   1   2  1   
  2   1   3  1   
  3   2   4  2   
  4   2   5  1   
  5   3   6  2   
  6   3  22  1   
  7   4   6  1   
  8   4  23  1   
  9   5   7  1   
 10   5  24  1   
 11   5  25  1   
 12   6  26  1   
 13   7   8  1   
 14   7  27  1   
 15   7  28  1   
 16   8   9  1   
 17   8  29  1   
 18   8  30  1   
 19   9  10  2   
 20   9  11  am  
 21  11  12  1   
 22  11  13  1   
 23  12  14  1   
 24  12  31  1   
 25  12  32  1   
 26  13  15  1   
 27  13  33  1   
 28  13  34  1   
 29  14  16  1   
 30  14  17  1   
 31  14  35  1   
 32  15  18  1   
 33  15  19  1   
 34  15  36  1   
 35  16  19  1   
 36  16  20  1   
 37  16  37  1   
 38  17  21  1   
 39  17  38  1   
 40  17  39  1   
 41  18  21  1   
 42  18  40  1   
 43  18  41  1   
 44  19  42  1   
 45  19  43  1   
 46  20  44  1   
 47  20  45  1   
 48  20  46  1   
@<TRIPOS>SUBSTRUCTURE
  1 ****   9 GROUP 4 **** **** 0

# MOE 2024.06 (io_trps.svl 2023.06)
