@<TRIPOS>MOLECULE
NONAME
51 54 1 0 0 
SMALL
USER_CHARGES


@<TRIPOS>ATOM
  1 F       -0.5890    -0.3170    -0.4780 F     1 <1>  -0.1900 
  2 C       -0.2430    -1.5750    -0.6470 C.ar  1 <1>   0.1900 
  3 C       -1.0540    -2.6060    -0.1680 C.ar  1 <1>   0.4100 
  4 C        0.9350    -1.8770    -1.2870 C.ar  1 <1>   0.1660 
  5 N       -0.6630    -3.8620    -0.3240 N.ar  1 <1>  -0.6200 
  6 N       -2.2700    -2.4080     0.4760 N.pl3 1 <1>  -0.8380 
  7 N        1.3110    -3.1360    -1.4470 N.ar  1 <1>  -0.6200 
  8 C        1.8700    -0.8070    -1.8390 C.3   1 <1>  -0.0170 
  9 C        0.4870    -4.0450    -0.9510 C.ar  1 <1>   0.4700 
 10 C       -3.3550    -1.6260    -0.2000 C.3   1 <1>   0.2090 
 11 C       -2.7930    -3.4300     1.4240 C.3   1 <1>   0.2090 
 12 C        3.0170    -0.5110    -0.8650 C.3   1 <1>  -0.2400 
 13 C       -4.2210    -0.8810     0.8350 C.3   1 <1>   0.1440 
 14 C       -3.6620    -2.7540     2.4910 C.3   1 <1>  -0.1600 
 15 C       -5.3730    -0.1630     0.1540 C.ar  1 <1>   0.1670 
 16 C       -4.7730    -1.8800     1.8760 C.3   1 <1>  -0.1600 
 17 C       -3.4580     0.2920     1.5090 C.3   1 <1>  -0.1600 
 18 N       -6.1740    -0.6920    -0.7380 N.ar  1 <1>  -0.6200 
 19 C       -5.4900     1.1230     0.5860 C.ar  1 <1>  -0.1430 
 20 C       -4.4430     1.4690     1.6140 C.3   1 <1>  -0.0170 
 21 C       -7.1240     0.1220    -1.2070 C.ar  1 <1>   0.7200 
 22 C       -6.4960     1.8850     0.0520 C.ar  1 <1>   0.1600 
 23 N       -7.3200     1.3950    -0.8450 N.ar  1 <1>  -0.6200 
 24 N       -7.9900    -0.4020    -2.1510 N.pl3 1 <1>  -0.8380 
 25 C       -9.1700     0.3680    -2.6340 C.3   1 <1>   0.1290 
 26 C       -7.9720    -1.8500    -2.5060 C.3   1 <1>   0.1290 
 27 H        1.3260     0.0990    -2.0360 H     1 <1>   0.0800 
 28 H        2.2750    -1.1490    -2.7750 H     1 <1>   0.0800 
 29 H        0.7930    -5.0710    -1.0750 H     1 <1>   0.1500 
 30 H       -3.9770    -2.3100    -0.7510 H     1 <1>   0.0800 
 31 H       -2.9440    -0.9270    -0.9050 H     1 <1>   0.0800 
 32 H       -1.9740    -3.9430     1.9010 H     1 <1>   0.0800 
 33 H       -3.3730    -4.1540     0.8760 H     1 <1>   0.0800 
 34 H        2.6270    -0.1530     0.0710 H     1 <1>   0.0800 
 35 H        3.6700     0.2360    -1.2780 H     1 <1>   0.0800 
 36 H        3.5860    -1.4060    -0.6830 H     1 <1>   0.0800 
 37 H       -3.0250    -2.1600     3.1210 H     1 <1>   0.0800 
 38 H       -4.1060    -3.5130     3.1100 H     1 <1>   0.0800 
 39 H       -5.4820    -2.5250     1.3860 H     1 <1>   0.0800 
 40 H       -5.2990    -1.3530     2.6520 H     1 <1>   0.0800 
 41 H       -2.6450     0.5950     0.8740 H     1 <1>   0.0800 
 42 H       -3.0480     0.0310     2.4670 H     1 <1>   0.0800 
 43 H       -3.9630     2.4070     1.3970 H     1 <1>   0.0800 
 44 H       -4.8930     1.5020     2.5910 H     1 <1>   0.0800 
 45 H       -6.6290     2.9070     0.3620 H     1 <1>   0.1500 
 46 H       -8.8900     1.3870    -2.8400 H     1 <1>   0.0800 
 47 H       -9.9360     0.3620    -1.8780 H     1 <1>   0.0800 
 48 H       -9.5590    -0.0640    -3.5390 H     1 <1>   0.0800 
 49 H       -6.9580    -2.1950    -2.6120 H     1 <1>   0.0800 
 50 H       -8.4810    -2.0150    -3.4390 H     1 <1>   0.0800 
 51 H       -8.4560    -2.4160    -1.7300 H     1 <1>   0.0800 
@<TRIPOS>BOND
  1   1   2  1   
  2   2   3  ar  
  3   2   4  ar  
  4   3   5  ar  
  5   3   6  1   
  6   4   7  ar  
  7   4   8  1   
  8   5   9  ar  
  9   6  10  1   
 10   6  11  1   
 11   7   9  ar  
 12   8  12  1   
 13   8  27  1   
 14   8  28  1   
 15   9  29  1   
 16  10  13  1   
 17  10  30  1   
 18  10  31  1   
 19  11  14  1   
 20  11  32  1   
 21  11  33  1   
 22  12  34  1   
 23  12  35  1   
 24  12  36  1   
 25  13  15  1   
 26  13  16  1   
 27  13  17  1   
 28  14  16  1   
 29  14  37  1   
 30  14  38  1   
 31  15  18  ar  
 32  15  19  ar  
 33  16  39  1   
 34  16  40  1   
 35  17  20  1   
 36  17  41  1   
 37  17  42  1   
 38  18  21  ar  
 39  19  20  1   
 40  19  22  ar  
 41  20  43  1   
 42  20  44  1   
 43  21  23  ar  
 44  21  24  1   
 45  22  23  ar  
 46  22  45  1   
 47  24  25  1   
 48  24  26  1   
 49  25  46  1   
 50  25  47  1   
 51  25  48  1   
 52  26  49  1   
 53  26  50  1   
 54  26  51  1   
@<TRIPOS>SUBSTRUCTURE
  1 ****  10 GROUP 4 **** **** 0

# MOE 2024.06 (io_trps.svl 2023.06)
