@<TRIPOS>MOLECULE
NONAME
40 43 1 0 0 
SMALL
USER_CHARGES


@<TRIPOS>ATOM
  1 S       -0.2170     0.3510    -1.9440 S.3   1 <1>  -0.0800 
  2 C       -1.2160     1.0310    -0.6680 C.2   1 <1>  -0.1400 
  3 C       -1.4240    -0.8860    -2.2720 C.2   1 <1>  -0.1100 
  4 C       -2.3640     0.3490    -0.5510 C.2   1 <1>  -0.1810 
  5 C       -0.7900     2.2370     0.1620 C.3   1 <1>   0.4600 
  6 C       -2.4880    -0.7510    -1.4570 C.2   1 <1>  -0.1500 
  7 C       -3.3830     0.7770     0.4810 C.3   1 <1>   0.0210 
  8 O       -1.7340     2.4240     1.2000 O.3   1 <1>  -0.5600 
  9 C       -0.7200     3.5110    -0.6890 C.3   1 <1>  -0.1600 
 10 C        0.5570     1.9830     0.8450 C.3   1 <1>  -0.1600 
 11 C       -3.0970     2.2330     0.8990 C.3   1 <1>   0.1200 
 12 C       -0.2490     4.7180     0.1250 C.3   1 <1>   0.1400 
 13 C        1.0090     3.1960     1.6580 C.3   1 <1>   0.1400 
 14 N        1.0500     4.4000     0.7800 N.am  1 <1>  -0.6600 
 15 C        2.2090     5.1470     0.6140 C.2   1 <1>   0.7160 
 16 O        3.2690     4.6110     0.9050 O.2   1 <1>  -0.5700 
 17 C        2.2360     6.5180     0.1040 C.2   1 <1>   0.2030 
 18 N        1.2700     7.4240     0.1410 N.2   1 <1>  -0.7070 
 19 C        3.3770     7.0660    -0.5030 C.2   1 <1>  -0.1500 
 20 N        1.7940     8.5240    -0.4390 N.pl3 1 <1>   0.3000 
 21 C        3.0740     8.3370    -0.8340 C.2   1 <1>  -0.0680 
 22 N        3.8840     9.2910    -1.4630 N.pl3 1 <1>  -0.8840 
 23 H       -1.2040    -1.5940    -3.0510 H     1 <1>   0.1500 
 24 H       -3.3600    -1.3810    -1.4550 H     1 <1>   0.1500 
 25 H       -3.3250     0.1320     1.3390 H     1 <1>   0.0800 
 26 H       -4.3740     0.7130     0.0710 H     1 <1>   0.0800 
 27 H       -1.6750     3.7140    -1.1330 H     1 <1>   0.0800 
 28 H       -0.0250     3.3560    -1.4950 H     1 <1>   0.0800 
 29 H        1.3080     1.7710     0.1060 H     1 <1>   0.0800 
 30 H        0.4750     1.1230     1.4830 H     1 <1>   0.0800 
 31 H       -3.6640     2.4840     1.7780 H     1 <1>   0.0800 
 32 H       -3.3700     2.9100     0.1090 H     1 <1>   0.0800 
 33 H       -0.9750     4.9640     0.8820 H     1 <1>   0.0800 
 34 H       -0.1560     5.5570    -0.5390 H     1 <1>   0.0800 
 35 H        1.9750     3.0010     2.0910 H     1 <1>   0.0800 
 36 H        0.3170     3.3750     2.4630 H     1 <1>   0.0800 
 37 H        4.3020     6.5400    -0.6540 H     1 <1>   0.1500 
 38 H        1.2630     9.3900    -0.5770 H     1 <1>   0.2700 
 39 H        3.8880    10.2240    -1.0340 H     1 <1>   0.4000 
 40 H        4.8520     8.9820    -1.6110 H     1 <1>   0.4000 
@<TRIPOS>BOND
  1   1   2  1   
  2   1   3  1   
  3   2   4  2   
  4   2   5  1   
  5   3   6  2   
  6   3  23  1   
  7   4   6  1   
  8   4   7  1   
  9   5   8  1   
 10   5   9  1   
 11   5  10  1   
 12   6  24  1   
 13   7  11  1   
 14   7  25  1   
 15   7  26  1   
 16   8  11  1   
 17   9  12  1   
 18   9  27  1   
 19   9  28  1   
 20  10  13  1   
 21  10  29  1   
 22  10  30  1   
 23  11  31  1   
 24  11  32  1   
 25  12  14  1   
 26  12  33  1   
 27  12  34  1   
 28  13  14  1   
 29  13  35  1   
 30  13  36  1   
 31  14  15  am  
 32  15  16  2   
 33  15  17  1   
 34  17  18  2   
 35  17  19  1   
 36  18  20  1   
 37  19  21  2   
 38  19  37  1   
 39  20  21  1   
 40  20  38  1   
 41  21  22  1   
 42  22  39  1   
 43  22  40  1   
@<TRIPOS>SUBSTRUCTURE
  1 ****  12 GROUP 4 **** **** 0

# MOE 2024.06 (io_trps.svl 2023.06)
