@<TRIPOS>MOLECULE
NONAME
58 61 1 0 0 
SMALL
USER_CHARGES


@<TRIPOS>ATOM
  1 O        0.2030    -1.8860     0.5640 O.3   1 <1>  -0.5600 
  2 C       -0.5070    -2.5970    -0.4120 C.3   1 <1>   0.2800 
  3 C        0.1870    -0.4820     0.5030 C.3   1 <1>   0.1200 
  4 C       -1.9550    -2.0340    -0.5460 C.3   1 <1>  -0.1600 
  5 C       -0.5030    -4.0520     0.0870 C.3   1 <1>  -0.1600 
  6 C        0.2720    -2.5550    -1.7470 C.3   1 <1>  -0.1600 
  7 C       -1.1760     0.0220     0.0200 C.3   1 <1>   0.2000 
  8 C       -2.3400    -0.9550     0.5690 C.3   1 <1>   0.2800 
  9 C        0.9130    -4.6000     0.3280 C.3   1 <1>   0.3430 
 10 C        1.5440    -3.4160    -1.7690 C.3   1 <1>   0.3430 
 11 O       -1.2630     1.3830     0.3310 O.3   1 <1>  -0.6800 
 12 O       -2.6690    -0.0650     1.5960 O.3   1 <1>  -0.6800 
 13 C       -3.5250    -1.8590     1.0980 C.3   1 <1>  -0.2400 
 14 N        1.9290    -3.7820    -0.3850 N.4   1 <1>  -0.9590 
 15 C        3.3330    -4.2480    -0.2520 C.3   1 <1>   0.5230 
 16 C        4.2680    -3.0560    -0.4040 C.2   1 <1>   0.0060 
 17 N        3.8910    -1.8130    -0.4490 N.2   1 <1>  -0.5650 
 18 N        5.6110    -3.2370    -0.4930 N.pl3 1 <1>   0.3260 
 19 C        5.0500    -1.1370    -0.5750 C.2   1 <1>   0.0770 
 20 C        6.3120    -4.4650    -0.4690 C.ar  1 <1>  -0.0230 
 21 C        6.0990    -1.9850    -0.6040 C.2   1 <1>  -0.3020 
 22 C        6.7820    -4.9830     0.7330 C.ar  1 <1>  -0.1500 
 23 C        6.5120    -5.1840    -1.6420 C.ar  1 <1>  -0.1500 
 24 C        7.4230    -6.2080     0.7680 C.ar  1 <1>  -0.1500 
 25 C        7.1510    -6.4090    -1.6070 C.ar  1 <1>  -0.1500 
 26 C        7.6060    -6.9320    -0.4080 C.ar  1 <1>   0.0820 
 27 O        8.2140    -8.1420    -0.4640 O.3   1 <1>  -0.3620 
 28 C        8.8040    -8.7210     0.6790 C.3   1 <1>   0.0400 
 29 H        0.3830    -0.1200     1.4970 H     1 <1>   0.0800 
 30 H        0.9710    -0.1520    -0.1560 H     1 <1>   0.0800 
 31 H       -2.0980    -1.6060    -1.5240 H     1 <1>   0.0800 
 32 H       -2.5820    -2.9060    -0.6420 H     1 <1>   0.0800 
 33 H       -1.0670    -4.1290     1.0000 H     1 <1>   0.0800 
 34 H       -0.9920    -4.6800    -0.6360 H     1 <1>   0.0800 
 35 H       -0.3620    -2.9130    -2.5380 H     1 <1>   0.0800 
 36 H        0.5270    -1.5420    -2.0030 H     1 <1>   0.0800 
 37 H       -1.1350     0.0490    -1.0540 H     1 <1>   0.0800 
 38 H        0.9620    -5.6280     0.0060 H     1 <1>   0.0800 
 39 H        1.1200    -4.5660     1.3860 H     1 <1>   0.0800 
 40 H        2.3380    -2.8570    -2.2390 H     1 <1>   0.0800 
 41 H        1.3700    -4.3110    -2.3440 H     1 <1>   0.0800 
 42 H       -1.9350     1.4180     1.0530 H     1 <1>   0.4000 
 43 H       -2.7320    -0.5580     2.4360 H     1 <1>   0.4000 
 44 H       -4.2320    -2.0360     0.3030 H     1 <1>   0.0800 
 45 H       -4.1660    -1.5160     1.9030 H     1 <1>   0.0800 
 46 H       -3.1500    -2.8080     1.4430 H     1 <1>   0.0800 
 47 H        1.9250    -2.8590     0.1010 H     1 <1>   0.4500 
 48 H        3.4850    -4.6800     0.7240 H     1 <1>   0.0800 
 49 H        3.5530    -4.9940    -0.9970 H     1 <1>   0.0800 
 50 H        5.0700    -0.0600    -0.6370 H     1 <1>   0.1500 
 51 H        7.1510    -1.7810    -0.6940 H     1 <1>   0.1500 
 52 H        6.6520    -4.4280     1.6480 H     1 <1>   0.1500 
 53 H        6.1750    -4.7900    -2.5860 H     1 <1>   0.1500 
 54 H        7.7750    -6.5840     1.7100 H     1 <1>   0.1500 
 55 H        7.3090    -6.9710    -2.5110 H     1 <1>   0.1500 
 56 H        9.2570    -9.6510     0.3850 H     1 <1>   0.0800 
 57 H        8.0400    -8.9040     1.4130 H     1 <1>   0.0800 
 58 H        9.5560    -8.0530     1.0600 H     1 <1>   0.0800 
@<TRIPOS>BOND
  1   1   2  1   
  2   1   3  1   
  3   2   4  1   
  4   2   5  1   
  5   2   6  1   
  6   3   7  1   
  7   3  29  1   
  8   3  30  1   
  9   4   8  1   
 10   4  31  1   
 11   4  32  1   
 12   5   9  1   
 13   5  33  1   
 14   5  34  1   
 15   6  10  1   
 16   6  35  1   
 17   6  36  1   
 18   7   8  1   
 19   7  11  1   
 20   7  37  1   
 21   8  12  1   
 22   8  13  1   
 23   9  14  1   
 24   9  38  1   
 25   9  39  1   
 26  10  14  1   
 27  10  40  1   
 28  10  41  1   
 29  11  42  1   
 30  12  43  1   
 31  13  44  1   
 32  13  45  1   
 33  13  46  1   
 34  14  15  1   
 35  14  47  1   
 36  15  16  1   
 37  15  48  1   
 38  15  49  1   
 39  16  17  2   
 40  16  18  1   
 41  17  19  1   
 42  18  20  1   
 43  18  21  1   
 44  19  21  2   
 45  19  50  1   
 46  20  22  ar  
 47  20  23  ar  
 48  21  51  1   
 49  22  24  ar  
 50  22  52  1   
 51  23  25  ar  
 52  23  53  1   
 53  24  26  ar  
 54  24  54  1   
 55  25  26  ar  
 56  25  55  1   
 57  26  27  1   
 58  27  28  1   
 59  28  56  1   
 60  28  57  1   
 61  28  58  1   
@<TRIPOS>SUBSTRUCTURE
  1 ****  14 GROUP 4 **** **** 0

# MOE 2024.06 (io_trps.svl 2023.06)
