@<TRIPOS>MOLECULE
NONAME
53 55 1 0 0 
SMALL
USER_CHARGES


@<TRIPOS>ATOM
  1 O       -1.5030     0.3460     2.2560 O.2   1 <1>  -0.5700 
  2 C       -1.8170     0.8060     1.1760 C.2   1 <1>   0.5440 
  3 N       -2.2390    -0.0350     0.1720 N.am  1 <1>  -0.6600 
  4 C       -1.7550     2.2390     0.9650 C.ar  1 <1>   0.0860 
  5 C       -2.2610    -1.5260     0.3720 C.3   1 <1>   0.3640 
  6 C       -2.8000     0.4940    -1.1100 C.3   1 <1>   0.1400 
  7 C       -0.6160     2.8700     0.4500 C.ar  1 <1>  -0.1440 
  8 C       -2.8660     3.0230     1.2690 C.ar  1 <1>  -0.1500 
  9 C       -0.9650    -2.1850    -0.1240 C.ar  1 <1>  -0.1440 
 10 C       -3.5020    -2.2180    -0.2770 C.3   1 <1>   0.2000 
 11 C       -3.3570    -0.6160    -2.0100 C.3   1 <1>   0.1200 
 12 C       -0.6130     4.2390     0.2270 C.ar  1 <1>  -0.1500 
 13 C        0.6370     2.0620     0.1350 C.3   1 <1>  -0.0960 
 14 C       -2.8520     4.3870     1.0450 C.ar  1 <1>   0.0830 
 15 C       -0.6070    -3.4070     0.4320 C.ar  1 <1>  -0.1500 
 16 C       -0.1380    -1.6340    -1.0980 C.ar  1 <1>  -0.1500 
 17 O       -4.1720    -1.4490    -1.2520 O.3   1 <1>  -0.5600 
 18 C       -4.5510    -2.5960     0.7760 C.3   1 <1>   0.1200 
 19 C       -1.7300     4.9990     0.5200 C.ar  1 <1>  -0.1500 
 20 O       -3.9280     5.1330     1.3370 O.3   1 <1>  -0.5320 
 21 C        0.5350    -4.0760     0.0250 C.ar  1 <1>   0.0830 
 22 C        1.0170    -2.2830    -1.4990 C.ar  1 <1>  -0.1500 
 23 O       -4.0790    -3.6300     1.5810 O.3   1 <1>  -0.6800 
 24 O        0.7810    -5.2860     0.5870 O.3   1 <1>  -0.3630 
 25 C        1.3710    -3.4950    -0.9330 C.ar  1 <1>   0.0830 
 26 C        0.7760    -6.3990    -0.2800 C.3   1 <1>   0.0400 
 27 O        2.5350    -4.0580    -1.3390 O.3   1 <1>  -0.3630 
 28 C        3.5560    -4.1400    -0.3690 C.3   1 <1>   0.0400 
 29 H       -2.3040    -1.7240     1.4300 H     1 <1>   0.0800 
 30 H       -3.5980     1.1800    -0.8860 H     1 <1>   0.0800 
 31 H       -2.0380     1.0380    -1.6400 H     1 <1>   0.0800 
 32 H       -3.7370     2.5480     1.6810 H     1 <1>   0.1500 
 33 H       -3.1850    -3.1190    -0.7700 H     1 <1>   0.0800 
 34 H       -2.5700    -1.2020    -2.4540 H     1 <1>   0.0800 
 35 H       -3.9560    -0.1920    -2.7960 H     1 <1>   0.0800 
 36 H        0.2600     4.7260    -0.1730 H     1 <1>   0.1500 
 37 H        1.4730     2.7070    -0.0650 H     1 <1>   0.0800 
 38 H        0.4700     1.4410    -0.7250 H     1 <1>   0.0800 
 39 H        0.8930     1.4330     0.9710 H     1 <1>   0.0800 
 40 H       -1.2190    -3.8580     1.1940 H     1 <1>   0.1500 
 41 H       -0.3750    -0.6910    -1.5510 H     1 <1>   0.1500 
 42 H       -5.4590    -2.9290     0.3050 H     1 <1>   0.0800 
 43 H       -4.7620    -1.7510     1.4090 H     1 <1>   0.0800 
 44 H       -1.7350     6.0610     0.3510 H     1 <1>   0.1500 
 45 H       -4.6460     4.6270     1.7560 H     1 <1>   0.4500 
 46 H        1.6550    -1.8490    -2.2470 H     1 <1>   0.1500 
 47 H       -4.1170    -4.4850     1.1090 H     1 <1>   0.4000 
 48 H        0.8400    -7.2900     0.3180 H     1 <1>   0.0800 
 49 H        1.6210    -6.3410    -0.9410 H     1 <1>   0.0800 
 50 H       -0.1400    -6.3960    -0.8430 H     1 <1>   0.0800 
 51 H        4.4430    -4.5160    -0.8440 H     1 <1>   0.0800 
 52 H        3.2490    -4.8070     0.4170 H     1 <1>   0.0800 
 53 H        3.7370    -3.1560     0.0280 H     1 <1>   0.0800 
@<TRIPOS>BOND
  1   1   2  2   
  2   2   3  am  
  3   2   4  1   
  4   3   5  1   
  5   3   6  1   
  6   4   7  ar  
  7   4   8  ar  
  8   5   9  1   
  9   5  10  1   
 10   5  29  1   
 11   6  11  1   
 12   6  30  1   
 13   6  31  1   
 14   7  12  ar  
 15   7  13  1   
 16   8  14  ar  
 17   8  32  1   
 18   9  15  ar  
 19   9  16  ar  
 20  10  17  1   
 21  10  18  1   
 22  10  33  1   
 23  11  17  1   
 24  11  34  1   
 25  11  35  1   
 26  12  19  ar  
 27  12  36  1   
 28  13  37  1   
 29  13  38  1   
 30  13  39  1   
 31  14  19  ar  
 32  14  20  1   
 33  15  21  ar  
 34  15  40  1   
 35  16  22  ar  
 36  16  41  1   
 37  18  23  1   
 38  18  42  1   
 39  18  43  1   
 40  19  44  1   
 41  20  45  1   
 42  21  24  1   
 43  21  25  ar  
 44  22  25  ar  
 45  22  46  1   
 46  23  47  1   
 47  24  26  1   
 48  25  27  1   
 49  26  48  1   
 50  26  49  1   
 51  26  50  1   
 52  27  28  1   
 53  28  51  1   
 54  28  52  1   
 55  28  53  1   
@<TRIPOS>SUBSTRUCTURE
  1 ****   3 GROUP 4 **** **** 0

# MOE 2024.06 (io_trps.svl 2023.06)
