@<TRIPOS>MOLECULE
NONAME
44 45 1 0 0 
SMALL
USER_CHARGES


@<TRIPOS>ATOM
  1 CL      -2.8580     1.2790    -3.4070 Cl    1 <1>  -0.1770 
  2 C       -3.0340     0.6440    -1.7880 C.ar  1 <1>   0.1770 
  3 C       -2.0000    -0.0490    -1.1810 C.ar  1 <1>   0.1770 
  4 C       -4.2310     0.8420    -1.1230 C.ar  1 <1>  -0.1500 
  5 CL      -0.4840    -0.3080    -2.0130 Cl    1 <1>  -0.1770 
  6 C       -2.1540    -0.5490     0.0990 C.ar  1 <1>  -0.1500 
  7 C       -4.3970     0.3380     0.1600 C.ar  1 <1>  -0.1440 
  8 C       -3.3540    -0.3530     0.7650 C.ar  1 <1>  -0.1500 
  9 C       -5.7120     0.5350     0.9090 C.3   1 <1>   0.0440 
 10 C       -6.3020    -0.7770     1.4100 C.2   1 <1>   0.5690 
 11 O       -6.3690    -0.9470     2.6030 O.2   1 <1>  -0.5700 
 12 N       -6.7380    -1.7310     0.5300 N.am  1 <1>  -0.6600 
 13 C       -6.6690    -1.6720    -0.9520 C.3   1 <1>   0.1400 
 14 C       -7.2110    -3.0680     0.9710 C.3   1 <1>   0.1400 
 15 C       -7.5460    -2.8320    -1.4150 C.3   1 <1>   0.2000 
 16 C       -7.3590    -3.8850    -0.3200 C.3   1 <1>  -0.0800 
 17 O       -8.8650    -2.4050    -1.4160 O.3   1 <1>  -0.6800 
 18 C       -8.4680    -4.9590    -0.2760 C.3   1 <1>  -0.0550 
 19 S       -8.1450    -6.3040     0.8660 S.o2  1 <1>   1.3330 
 20 O       -9.1170    -7.3510     0.6510 O.2   1 <1>  -0.6500 
 21 O       -7.9800    -5.7400     2.1860 O.2   1 <1>  -0.6500 
 22 N       -6.6340    -6.8900     0.3550 N.am  1 <1>  -0.8490 
 23 C       -5.8830    -7.5080     1.4520 C.3   1 <1>   0.1160 
 24 C       -6.7270    -7.8260    -0.7720 C.3   1 <1>   0.1160 
 25 H       -5.0160     1.3880    -1.6150 H     1 <1>   0.1500 
 26 H       -1.3460    -1.0840     0.5660 H     1 <1>   0.1500 
 27 H       -3.4740    -0.7450     1.7640 H     1 <1>   0.1500 
 28 H       -6.4390     1.0190     0.2850 H     1 <1>   0.0800 
 29 H       -5.5360     1.1750     1.7540 H     1 <1>   0.0800 
 30 H       -7.0180    -0.7310    -1.3390 H     1 <1>   0.0800 
 31 H       -5.6510    -1.8390    -1.2610 H     1 <1>   0.0800 
 32 H       -6.5030    -3.5190     1.6480 H     1 <1>   0.0800 
 33 H       -8.1560    -2.9580     1.4760 H     1 <1>   0.0800 
 34 H       -7.2970    -3.1850    -2.4010 H     1 <1>   0.0800 
 35 H       -6.4150    -4.3710    -0.5010 H     1 <1>   0.0800 
 36 H       -9.0480    -1.9490    -0.5690 H     1 <1>   0.4000 
 37 H       -8.5860    -5.3650    -1.2610 H     1 <1>   0.0800 
 38 H       -9.4010    -4.4980    -0.0110 H     1 <1>   0.0800 
 39 H       -4.9280    -7.8610     1.1000 H     1 <1>   0.0800 
 40 H       -6.4360    -8.3350     1.8650 H     1 <1>   0.0800 
 41 H       -5.7070    -6.7860     2.2320 H     1 <1>   0.0800 
 42 H       -5.7410    -8.0950    -1.1100 H     1 <1>   0.0800 
 43 H       -7.2550    -7.3700    -1.5920 H     1 <1>   0.0800 
 44 H       -7.2530    -8.7190    -0.4770 H     1 <1>   0.0800 
@<TRIPOS>BOND
  1   1   2  1   
  2   2   3  ar  
  3   2   4  ar  
  4   3   5  1   
  5   3   6  ar  
  6   4   7  ar  
  7   4  25  1   
  8   6   8  ar  
  9   6  26  1   
 10   7   8  ar  
 11   7   9  1   
 12   8  27  1   
 13   9  10  1   
 14   9  28  1   
 15   9  29  1   
 16  10  11  2   
 17  10  12  am  
 18  12  13  1   
 19  12  14  1   
 20  13  15  1   
 21  13  30  1   
 22  13  31  1   
 23  14  16  1   
 24  14  32  1   
 25  14  33  1   
 26  15  16  1   
 27  15  17  1   
 28  15  34  1   
 29  16  18  1   
 30  16  35  1   
 31  17  36  1   
 32  18  19  1   
 33  18  37  1   
 34  18  38  1   
 35  19  20  2   
 36  19  21  2   
 37  19  22  am  
 38  22  23  1   
 39  22  24  1   
 40  23  39  1   
 41  23  40  1   
 42  23  41  1   
 43  24  42  1   
 44  24  43  1   
 45  24  44  1   
@<TRIPOS>SUBSTRUCTURE
  1 ****  12 GROUP 4 **** **** 0

# MOE 2024.06 (io_trps.svl 2023.06)
