@<TRIPOS>MOLECULE
NONAME
44 46 1 0 0 
SMALL
USER_CHARGES


@<TRIPOS>ATOM
  1 S        0.2900     0.2580    -1.7830 S.o2  1 <1>   1.5010 
  2 O       -0.1390     0.9490    -2.9780 O.2   1 <1>  -0.6500 
  3 O        1.3550    -0.7210    -1.9080 O.2   1 <1>  -0.6500 
  4 N        0.9750     1.4630    -0.7910 N.am  1 <1>  -0.8490 
  5 C       -1.1460    -0.4520    -0.8790 C.2   1 <1>   0.1640 
  6 C        1.0450     1.1690     0.6660 C.3   1 <1>   0.2760 
  7 C        2.1200     2.1310    -1.4370 C.3   1 <1>   0.1960 
  8 N       -1.0320    -1.2050     0.2580 N.2   1 <1>  -0.5650 
  9 C       -2.4620    -0.3310    -1.1910 C.2   1 <1>  -0.3020 
 10 C        1.2920     2.4290     1.5130 C.3   1 <1>   0.1200 
 11 C        2.0370     0.0400     1.0550 C.3   1 <1>   0.3430 
 12 C        3.4010     2.2910    -0.5960 C.3   1 <1>  -0.0800 
 13 C       -2.2470    -1.5160     0.5740 C.2   1 <1>   0.0060 
 14 N       -3.1660    -1.0100    -0.2720 N.pl3 1 <1>   0.0330 
 15 O        2.6530     2.7010     1.6450 O.3   1 <1>  -0.5600 
 16 N        3.1640    -0.1810     0.0800 N.4   1 <1>  -0.9590 
 17 C        3.2380     3.3050     0.5430 C.3   1 <1>   0.1200 
 18 C        4.0740     0.9910    -0.1090 C.3   1 <1>   0.3430 
 19 C       -2.6260    -2.3700     1.7720 C.3   1 <1>   0.0200 
 20 C        3.9250    -1.4120     0.4300 C.3   1 <1>   0.2630 
 21 C       -3.1540    -3.7400     1.3340 C.3   1 <1>  -0.2400 
 22 H        0.0680     0.8570     0.9820 H     1 <1>   0.0800 
 23 H        2.3850     1.6060    -2.3420 H     1 <1>   0.0800 
 24 H        1.7900     3.1080    -1.7520 H     1 <1>   0.0800 
 25 H       -2.9140     0.1940    -2.0160 H     1 <1>   0.1500 
 26 H        0.9190     2.2610     2.5080 H     1 <1>   0.0800 
 27 H        0.7790     3.2850     1.1060 H     1 <1>   0.0800 
 28 H        1.4680    -0.8720     1.1350 H     1 <1>   0.0800 
 29 H        2.4370     0.2530     2.0330 H     1 <1>   0.0800 
 30 H        4.1130     2.7510    -1.2570 H     1 <1>   0.0800 
 31 H       -4.1830    -1.1330    -0.2230 H     1 <1>   0.2700 
 32 H        2.6940    -0.3650    -0.8310 H     1 <1>   0.4500 
 33 H        2.6500     4.1580     0.2460 H     1 <1>   0.0800 
 34 H        4.2040     3.6590     0.8600 H     1 <1>   0.0800 
 35 H        4.5870     1.1960     0.8170 H     1 <1>   0.0800 
 36 H        4.8230     0.7170    -0.8350 H     1 <1>   0.0800 
 37 H       -1.7580    -2.5100     2.3920 H     1 <1>   0.0800 
 38 H       -3.3700    -1.8610     2.3580 H     1 <1>   0.0800 
 39 H        4.4130    -1.2940     1.3840 H     1 <1>   0.0800 
 40 H        4.6700    -1.6160    -0.3210 H     1 <1>   0.0800 
 41 H        3.2570    -2.2570     0.4830 H     1 <1>   0.0800 
 42 H       -2.4110    -4.2490     0.7450 H     1 <1>   0.0800 
 43 H       -4.0480    -3.6350     0.7460 H     1 <1>   0.0800 
 44 H       -3.3790    -4.3420     2.1960 H     1 <1>   0.0800 
@<TRIPOS>BOND
  1   1   2  2   
  2   1   3  2   
  3   1   4  am  
  4   1   5  1   
  5   4   6  1   
  6   4   7  1   
  7   5   8  1   
  8   5   9  2   
  9   6  10  1   
 10   6  11  1   
 11   6  22  1   
 12   7  12  1   
 13   7  23  1   
 14   7  24  1   
 15   8  13  2   
 16   9  14  1   
 17   9  25  1   
 18  10  15  1   
 19  10  26  1   
 20  10  27  1   
 21  11  16  1   
 22  11  28  1   
 23  11  29  1   
 24  12  17  1   
 25  12  18  1   
 26  12  30  1   
 27  13  14  1   
 28  13  19  1   
 29  14  31  1   
 30  15  17  1   
 31  16  18  1   
 32  16  20  1   
 33  16  32  1   
 34  17  33  1   
 35  17  34  1   
 36  18  35  1   
 37  18  36  1   
 38  19  21  1   
 39  19  37  1   
 40  19  38  1   
 41  20  39  1   
 42  20  40  1   
 43  20  41  1   
 44  21  42  1   
 45  21  43  1   
 46  21  44  1   
@<TRIPOS>SUBSTRUCTURE
  1 ****   6 GROUP 4 **** **** 0

# MOE 2024.06 (io_trps.svl 2023.06)
