@<TRIPOS>MOLECULE
NONAME
43 45 1 0 0 
SMALL
USER_CHARGES


@<TRIPOS>ATOM
  1 S        0.3960    -0.5120    -1.7320 S.3   1 <1>  -0.0800 
  2 C        1.1250    -1.3500    -0.3870 C.2   1 <1>  -0.1400 
  3 C        0.9100     1.0050    -1.0300 C.2   1 <1>   0.1980 
  4 C        1.6760    -0.4430     0.4360 C.2   1 <1>   0.0460 
  5 C        1.0440    -2.8570    -0.3690 C.3   1 <1>   0.5230 
  6 N        1.5400     0.8800     0.0660 N.2   1 <1>  -0.5650 
  7 C        0.5640     2.2760    -1.7700 C.3   1 <1>  -0.0600 
  8 C        2.4310    -0.6900     1.7260 C.3   1 <1>  -0.0590 
  9 N       -0.2070    -3.2790     0.3170 N.4   1 <1>  -0.9590 
 10 C       -1.4760    -2.7970    -0.2950 C.3   1 <1>   0.3430 
 11 C       -0.3590    -4.7510     0.4980 C.3   1 <1>   0.3430 
 12 C       -2.5400    -3.6960     0.3320 C.3   1 <1>   0.2000 
 13 C       -1.8600    -5.0650     0.3620 C.3   1 <1>  -0.0800 
 14 O       -2.7220    -3.2840     1.6470 O.3   1 <1>  -0.6800 
 15 C       -2.1580    -5.8740    -0.9160 C.3   1 <1>  -0.0160 
 16 C       -1.2650    -7.1020    -1.0080 C.ar  1 <1>  -0.1430 
 17 C       -0.3380    -7.2560    -2.0200 C.ar  1 <1>  -0.1500 
 18 C       -1.3310    -8.1240    -0.0810 C.ar  1 <1>  -0.1500 
 19 C        0.4710    -8.3800    -2.0420 C.ar  1 <1>   0.1600 
 20 C       -0.4740    -9.2060    -0.1930 C.ar  1 <1>   0.1600 
 21 N        0.4320    -9.3490    -1.1440 N.ar  1 <1>  -0.6200 
 22 H        1.8950    -3.2470     0.1640 H     1 <1>   0.0800 
 23 H        1.0710    -3.2360    -1.3780 H     1 <1>   0.0800 
 24 H        0.9430     3.1240    -1.2280 H     1 <1>   0.0800 
 25 H       -0.5010     2.3700    -1.8620 H     1 <1>   0.0800 
 26 H        1.0080     2.2620    -2.7480 H     1 <1>   0.0800 
 27 H        2.5010    -1.7370     1.9480 H     1 <1>   0.0800 
 28 H        1.9310    -0.1910     2.5370 H     1 <1>   0.0800 
 29 H        3.4240    -0.2850     1.6410 H     1 <1>   0.0800 
 30 H       -0.2150    -2.8560     1.2580 H     1 <1>   0.4500 
 31 H       -1.6610    -1.7570    -0.0760 H     1 <1>   0.0800 
 32 H       -1.4540    -2.9440    -1.3620 H     1 <1>   0.0800 
 33 H        0.2030    -5.2880    -0.2490 H     1 <1>   0.0800 
 34 H       -0.0050    -5.0440     1.4730 H     1 <1>   0.0800 
 35 H       -3.4850    -3.6650    -0.1840 H     1 <1>   0.0800 
 36 H       -2.1910    -5.6410     1.2090 H     1 <1>   0.0800 
 37 H       -3.5290    -3.6810     2.0400 H     1 <1>   0.4000 
 38 H       -2.0120    -5.2650    -1.7920 H     1 <1>   0.0800 
 39 H       -3.1870    -6.1920    -0.9130 H     1 <1>   0.0800 
 40 H       -0.2320    -6.5240    -2.8000 H     1 <1>   0.1500 
 41 H       -2.0400    -8.1010     0.7270 H     1 <1>   0.1500 
 42 H        1.1880    -8.4910    -2.8390 H     1 <1>   0.1500 
 43 H       -0.5370    -9.9960     0.5380 H     1 <1>   0.1500 
@<TRIPOS>BOND
  1   1   2  1   
  2   1   3  1   
  3   2   4  2   
  4   2   5  1   
  5   3   6  2   
  6   3   7  1   
  7   4   6  1   
  8   4   8  1   
  9   5   9  1   
 10   5  22  1   
 11   5  23  1   
 12   7  24  1   
 13   7  25  1   
 14   7  26  1   
 15   8  27  1   
 16   8  28  1   
 17   8  29  1   
 18   9  10  1   
 19   9  11  1   
 20   9  30  1   
 21  10  12  1   
 22  10  31  1   
 23  10  32  1   
 24  11  13  1   
 25  11  33  1   
 26  11  34  1   
 27  12  13  1   
 28  12  14  1   
 29  12  35  1   
 30  13  15  1   
 31  13  36  1   
 32  14  37  1   
 33  15  16  1   
 34  15  38  1   
 35  15  39  1   
 36  16  17  ar  
 37  16  18  ar  
 38  17  19  ar  
 39  17  40  1   
 40  18  20  ar  
 41  18  41  1   
 42  19  21  ar  
 43  19  42  1   
 44  20  21  ar  
 45  20  43  1   
@<TRIPOS>SUBSTRUCTURE
  1 ****   9 GROUP 4 **** **** 0

# MOE 2024.06 (io_trps.svl 2023.06)
