@<TRIPOS>MOLECULE
NONAME
56 57 1 0 0 
SMALL
USER_CHARGES


@<TRIPOS>ATOM
  1 O       -1.0670    -0.3250     0.8100 O.2   1 <1>  -0.5700 
  2 C       -1.7570     0.4170     0.1500 C.2   1 <1>   0.5690 
  3 N       -2.7800    -0.0840    -0.6280 N.am  1 <1>  -0.6600 
  4 C       -1.3930     1.9080     0.2490 C.3   1 <1>  -0.0190 
  5 C       -2.9710    -1.5670    -0.7150 C.3   1 <1>   0.2840 
  6 C       -3.7000     0.7150    -1.4900 C.3   1 <1>   0.1400 
  7 C       -2.5140     2.8130     0.8020 C.3   1 <1>  -0.1600 
  8 C       -0.7460     2.4690    -1.0420 C.3   1 <1>  -0.1600 
  9 C       -4.1450    -2.0300     0.1390 C.ar  1 <1>  -0.1440 
 10 C       -5.0630     0.9190    -0.8160 C.3   1 <1>  -0.1600 
 11 C       -2.0110     4.2380     1.1090 C.3   1 <1>   0.2000 
 12 C       -0.8980     3.9950    -1.1860 C.3   1 <1>  -0.1600 
 13 C       -4.1430    -1.8050     1.5080 C.ar  1 <1>  -0.1500 
 14 C       -5.2250    -2.6820    -0.4370 C.ar  1 <1>  -0.1500 
 15 C       -5.8730     2.0180    -1.5130 C.3   1 <1>  -0.2400 
 16 O       -3.0950     5.1220     0.9510 O.3   1 <1>  -0.5600 
 17 C       -0.8470     4.6830     0.1810 C.3   1 <1>   0.2000 
 18 C       -5.2100    -2.2150     2.2860 C.ar  1 <1>  -0.1500 
 19 C       -6.2950    -3.0930     0.3390 C.ar  1 <1>  -0.1500 
 20 C       -3.9870     5.1660     2.0220 C.3   1 <1>   0.0400 
 21 O       -0.9240     6.0450    -0.0250 O.3   1 <1>  -0.6800 
 22 C       -6.2950    -2.8570     1.7110 C.ar  1 <1>   0.0820 
 23 O       -7.3000    -3.2170     2.5500 O.3   1 <1>  -0.3620 
 24 C       -8.5060    -3.7980     2.1040 C.3   1 <1>   0.1200 
 25 C       -9.4240    -2.7050     1.5530 C.3   1 <1>  -0.2400 
 26 H       -0.6180     1.9510     0.9970 H     1 <1>   0.0800 
 27 H       -3.1320    -1.8420    -1.7420 H     1 <1>   0.0800 
 28 H       -2.0850    -2.0830    -0.3890 H     1 <1>   0.0800 
 29 H       -3.2680     1.6730    -1.7060 H     1 <1>   0.0800 
 30 H       -3.8380     0.2150    -2.4340 H     1 <1>   0.0800 
 31 H       -2.9140     2.3730     1.6980 H     1 <1>   0.0800 
 32 H       -3.3010     2.8910     0.0800 H     1 <1>   0.0800 
 33 H        0.3020     2.2200    -1.0220 H     1 <1>   0.0800 
 34 H       -1.1520     1.9960    -1.9180 H     1 <1>   0.0800 
 35 H       -5.6270     0.0050    -0.8520 H     1 <1>   0.0800 
 36 H       -4.9250     1.1830     0.2180 H     1 <1>   0.0800 
 37 H       -1.6600     4.2970     2.1260 H     1 <1>   0.0800 
 38 H       -1.8440     4.2160    -1.6480 H     1 <1>   0.0800 
 39 H       -0.1140     4.3770    -1.8170 H     1 <1>   0.0800 
 40 H       -3.3060    -1.3080     1.9680 H     1 <1>   0.1500 
 41 H       -5.2410    -2.8710    -1.4960 H     1 <1>   0.1500 
 42 H       -6.0410     1.7670    -2.5450 H     1 <1>   0.0800 
 43 H       -5.3550     2.9600    -1.4630 H     1 <1>   0.0800 
 44 H       -6.8280     2.1300    -1.0290 H     1 <1>   0.0800 
 45 H        0.1010     4.4740     0.6470 H     1 <1>   0.0800 
 46 H       -5.2080    -2.0380     3.3450 H     1 <1>   0.1500 
 47 H       -7.1140    -3.5920    -0.1400 H     1 <1>   0.1500 
 48 H       -4.7490     5.8900     1.7920 H     1 <1>   0.0800 
 49 H       -3.4610     5.4670     2.9120 H     1 <1>   0.0800 
 50 H       -4.4400     4.2000     2.1570 H     1 <1>   0.0800 
 51 H       -1.8750     6.2750     0.0920 H     1 <1>   0.4000 
 52 H       -8.2900    -4.5610     1.3780 H     1 <1>   0.0800 
 53 H       -8.9660    -4.2630     2.9580 H     1 <1>   0.0800 
 54 H       -8.9760    -2.2180     0.7060 H     1 <1>   0.0800 
 55 H       -9.6230    -1.9750     2.3180 H     1 <1>   0.0800 
 56 H      -10.3570    -3.1380     1.2430 H     1 <1>   0.0800 
@<TRIPOS>BOND
  1   1   2  2   
  2   2   3  am  
  3   2   4  1   
  4   3   5  1   
  5   3   6  1   
  6   4   7  1   
  7   4   8  1   
  8   4  26  1   
  9   5   9  1   
 10   5  27  1   
 11   5  28  1   
 12   6  10  1   
 13   6  29  1   
 14   6  30  1   
 15   7  11  1   
 16   7  31  1   
 17   7  32  1   
 18   8  12  1   
 19   8  33  1   
 20   8  34  1   
 21   9  13  ar  
 22   9  14  ar  
 23  10  15  1   
 24  10  35  1   
 25  10  36  1   
 26  11  16  1   
 27  11  17  1   
 28  11  37  1   
 29  12  17  1   
 30  12  38  1   
 31  12  39  1   
 32  13  18  ar  
 33  13  40  1   
 34  14  19  ar  
 35  14  41  1   
 36  15  42  1   
 37  15  43  1   
 38  15  44  1   
 39  16  20  1   
 40  17  21  1   
 41  17  45  1   
 42  18  22  ar  
 43  18  46  1   
 44  19  22  ar  
 45  19  47  1   
 46  20  48  1   
 47  20  49  1   
 48  20  50  1   
 49  21  51  1   
 50  22  23  1   
 51  23  24  1   
 52  24  25  1   
 53  24  52  1   
 54  24  53  1   
 55  25  54  1   
 56  25  55  1   
 57  25  56  1   
@<TRIPOS>SUBSTRUCTURE
  1 ****   3 GROUP 4 **** **** 0

# MOE 2024.06 (io_trps.svl 2023.06)
