@<TRIPOS>MOLECULE
NONAME
53 55 1 0 0 
SMALL
USER_CHARGES


@<TRIPOS>ATOM
  1 O       -1.3110     0.0230     1.7110 O.2   1 <1>  -0.5700 
  2 C       -1.6740     0.6240     0.7310 C.2   1 <1>   0.5690 
  3 N       -2.2000    -0.0090    -0.3490 N.am  1 <1>  -0.7300 
  4 C       -1.5440     2.1460     0.7100 C.3   1 <1>  -0.0190 
  5 C       -2.3870    -1.4790    -0.4800 C.3   1 <1>   0.1400 
  6 C       -2.9110     2.8400     0.5550 C.3   1 <1>  -0.1600 
  7 C       -0.5390     2.6280    -0.3650 C.3   1 <1>  -0.1600 
  8 C       -3.7900    -1.9130    -0.9760 C.3   1 <1>   0.1430 
  9 C       -2.8070     4.3730     0.6880 C.3   1 <1>   0.2000 
 10 C       -0.7530     4.0910    -0.8030 C.3   1 <1>  -0.1600 
 11 C       -3.7430    -3.4500    -1.0860 C.ar  1 <1>  -0.1440 
 12 C       -4.1770    -1.2380    -2.3090 C.3   1 <1>  -0.1600 
 13 C       -4.9120    -1.4330    -0.0360 C.3   1 <1>  -0.1600 
 14 O       -3.7760     4.9450    -0.1560 O.3   1 <1>  -0.5600 
 15 C       -1.4060     4.9210     0.3040 C.3   1 <1>   0.2000 
 16 C       -4.0200    -4.2480     0.0200 C.ar  1 <1>  -0.1500 
 17 C       -3.3860    -4.0810    -2.2740 C.ar  1 <1>  -0.1500 
 18 C       -4.9160     0.0630    -1.9790 C.3   1 <1>  -0.1600 
 19 C       -5.3710    -0.0560    -0.5230 C.3   1 <1>  -0.1600 
 20 C       -5.0650     4.9960     0.3730 C.3   1 <1>   0.0400 
 21 O       -1.5350     6.2160    -0.1530 O.3   1 <1>  -0.6800 
 22 C       -3.9660    -5.6280    -0.0630 C.ar  1 <1>  -0.1500 
 23 C       -3.3320    -5.4610    -2.3610 C.ar  1 <1>  -0.1500 
 24 C       -3.6250    -6.2380    -1.2560 C.ar  1 <1>  -0.1500 
 25 H       -2.5430     0.5410    -1.1370 H     1 <1>   0.3700 
 26 H       -1.1530     2.4310     1.6720 H     1 <1>   0.0800 
 27 H       -1.6470    -1.8530    -1.1670 H     1 <1>   0.0800 
 28 H       -2.1980    -1.9460     0.4720 H     1 <1>   0.0800 
 29 H       -3.5860     2.4670     1.3040 H     1 <1>   0.0800 
 30 H       -3.3100     2.5980    -0.4150 H     1 <1>   0.0800 
 31 H        0.4550     2.5170     0.0330 H     1 <1>   0.0800 
 32 H       -0.5980     2.0050    -1.2410 H     1 <1>   0.0800 
 33 H       -3.0070     4.6730     1.7040 H     1 <1>   0.0800 
 34 H       -1.3970     4.1080    -1.6660 H     1 <1>   0.0800 
 35 H        0.1920     4.5270    -1.0790 H     1 <1>   0.0800 
 36 H       -3.3260    -1.0670    -2.9430 H     1 <1>   0.0800 
 37 H       -4.8700    -1.8760    -2.8310 H     1 <1>   0.0800 
 38 H       -5.7480    -2.1070    -0.1160 H     1 <1>   0.0800 
 39 H       -4.5930    -1.4010     0.9920 H     1 <1>   0.0800 
 40 H       -0.7610     4.9370     1.1660 H     1 <1>   0.0800 
 41 H       -4.2770    -3.8050     0.9660 H     1 <1>   0.1500 
 42 H       -3.1400    -3.5090    -3.1500 H     1 <1>   0.1500 
 43 H       -4.2640     0.9110    -2.0950 H     1 <1>   0.0800 
 44 H       -5.7600     0.1920    -2.6350 H     1 <1>   0.0800 
 45 H       -6.4400     0.0400    -0.4390 H     1 <1>   0.0800 
 46 H       -4.9110     0.7120     0.0710 H     1 <1>   0.0800 
 47 H       -5.7080     5.4540    -0.3580 H     1 <1>   0.0800 
 48 H       -5.0580     5.5900     1.2700 H     1 <1>   0.0800 
 49 H       -5.4100     3.9980     0.5800 H     1 <1>   0.0800 
 50 H       -2.4260     6.2670    -0.5670 H     1 <1>   0.4000 
 51 H       -4.1890    -6.2270     0.8020 H     1 <1>   0.1500 
 52 H       -3.0590    -5.9310    -3.2890 H     1 <1>   0.1500 
 53 H       -3.5840    -7.3110    -1.3220 H     1 <1>   0.1500 
@<TRIPOS>BOND
  1   1   2  2   
  2   2   3  am  
  3   2   4  1   
  4   3   5  1   
  5   3  25  1   
  6   4   6  1   
  7   4   7  1   
  8   4  26  1   
  9   5   8  1   
 10   5  27  1   
 11   5  28  1   
 12   6   9  1   
 13   6  29  1   
 14   6  30  1   
 15   7  10  1   
 16   7  31  1   
 17   7  32  1   
 18   8  11  1   
 19   8  12  1   
 20   8  13  1   
 21   9  14  1   
 22   9  15  1   
 23   9  33  1   
 24  10  15  1   
 25  10  34  1   
 26  10  35  1   
 27  11  16  ar  
 28  11  17  ar  
 29  12  18  1   
 30  12  36  1   
 31  12  37  1   
 32  13  19  1   
 33  13  38  1   
 34  13  39  1   
 35  14  20  1   
 36  15  21  1   
 37  15  40  1   
 38  16  22  ar  
 39  16  41  1   
 40  17  23  ar  
 41  17  42  1   
 42  18  19  1   
 43  18  43  1   
 44  18  44  1   
 45  19  45  1   
 46  19  46  1   
 47  20  47  1   
 48  20  48  1   
 49  20  49  1   
 50  21  50  1   
 51  22  24  ar  
 52  22  51  1   
 53  23  24  ar  
 54  23  52  1   
 55  24  53  1   
@<TRIPOS>SUBSTRUCTURE
  1 ****   3 GROUP 4 **** **** 0

# MOE 2024.06 (io_trps.svl 2023.06)
