@<TRIPOS>MOLECULE
NONAME
56 58 1 0 0 
SMALL
USER_CHARGES


@<TRIPOS>ATOM
  1 O        0.5440     0.8330    -1.2830 O.2   1 <1>  -0.5700 
  2 C       -0.1590     1.7430    -0.9250 C.2   1 <1>   0.5690 
  3 N       -1.5090     1.7610    -0.8950 N.am  1 <1>  -0.6600 
  4 C        0.4000     3.0450    -0.4370 C.3   1 <1>  -0.0990 
  5 C       -2.0470     3.0470    -0.4220 C.3   1 <1>   0.1400 
  6 C       -2.4070     0.6870    -1.3820 C.3   1 <1>   0.0600 
  7 C       -0.8190     3.7430     0.1990 C.3   1 <1>  -0.0190 
  8 C       -0.7970     5.2610     0.0330 C.2   1 <1>   0.5690 
  9 O       -1.5640     5.7620    -0.7530 O.2   1 <1>  -0.5700 
 10 N        0.0990     6.0410     0.7260 N.am  1 <1>  -0.6600 
 11 C        1.2110     5.5510     1.6000 C.3   1 <1>   0.1400 
 12 C        0.0400     7.5250     0.6040 C.3   1 <1>   0.1400 
 13 C        2.5800     5.5620     0.8820 C.3   1 <1>   0.3430 
 14 C        0.8280     7.9950    -0.6230 C.3   1 <1>  -0.1600 
 15 N        2.8800     6.8460     0.1730 N.4   1 <1>  -0.9590 
 16 C        2.0180     7.1160    -1.0090 C.3   1 <1>   0.3430 
 17 C        4.3200     7.0030    -0.1520 C.3   1 <1>   0.5230 
 18 C        4.6730     8.4550     0.1360 C.2   1 <1>   0.0060 
 19 N        3.9290     9.2240     0.8760 N.2   1 <1>  -0.5650 
 20 N        5.7880     9.0680    -0.3430 N.pl3 1 <1>   0.0480 
 21 C        4.5890    10.3960     0.8860 C.2   1 <1>   0.0770 
 22 C        5.7170    10.3180     0.1500 C.2   1 <1>  -0.3020 
 23 C        6.8580     8.5690    -1.2420 C.3   1 <1>   0.0960 
 24 C        7.7860     7.5720    -0.5430 C.3   1 <1>   0.1200 
 25 O        7.0810     6.4050    -0.2400 O.3   1 <1>  -0.5600 
 26 C        7.8740     5.4250     0.3560 C.3   1 <1>   0.0400 
 27 H        0.7670     3.5910    -1.2870 H     1 <1>   0.0800 
 28 H        1.1860     2.8630     0.2690 H     1 <1>   0.0800 
 29 H       -2.8250     2.8980     0.3070 H     1 <1>   0.0800 
 30 H       -2.4400     3.5880    -1.2670 H     1 <1>   0.0800 
 31 H       -1.8230    -0.1530    -1.7210 H     1 <1>   0.0800 
 32 H       -3.0010     1.0520    -2.2010 H     1 <1>   0.0800 
 33 H       -3.0530     0.3630    -0.5860 H     1 <1>   0.0800 
 34 H       -0.8450     3.5160     1.2490 H     1 <1>   0.0800 
 35 H        1.0070     4.5560     1.9500 H     1 <1>   0.0800 
 36 H        1.2710     6.1740     2.4770 H     1 <1>   0.0800 
 37 H        0.4430     7.9800     1.4930 H     1 <1>   0.0800 
 38 H       -0.9860     7.8470     0.5190 H     1 <1>   0.0800 
 39 H        2.6070     4.7510     0.1730 H     1 <1>   0.0800 
 40 H        3.3440     5.3740     1.6180 H     1 <1>   0.0800 
 41 H        1.1590     9.0070    -0.4660 H     1 <1>   0.0800 
 42 H        0.1530     8.0190    -1.4610 H     1 <1>   0.0800 
 43 H        2.7450     7.6500     0.8170 H     1 <1>   0.4500 
 44 H        2.5830     7.6260    -1.7730 H     1 <1>   0.0800 
 45 H        1.6580     6.1860    -1.4180 H     1 <1>   0.0800 
 46 H        4.5200     6.7510    -1.1790 H     1 <1>   0.0800 
 47 H        4.9180     6.3730     0.4860 H     1 <1>   0.0800 
 48 H        4.2150    11.2500     1.4290 H     1 <1>   0.1500 
 49 H        6.4550    11.0770    -0.0400 H     1 <1>   0.1500 
 50 H        7.4390     9.4120    -1.5710 H     1 <1>   0.0800 
 51 H        6.4170     8.1140    -2.1090 H     1 <1>   0.0800 
 52 H        8.1790     7.9950     0.3670 H     1 <1>   0.0800 
 53 H        8.6020     7.3160    -1.1980 H     1 <1>   0.0800 
 54 H        7.2620     4.5630     0.5540 H     1 <1>   0.0800 
 55 H        8.2770     5.8030     1.2810 H     1 <1>   0.0800 
 56 H        8.6710     5.1510    -0.3160 H     1 <1>   0.0800 
@<TRIPOS>BOND
  1   1   2  2   
  2   2   3  am  
  3   2   4  1   
  4   3   5  1   
  5   3   6  1   
  6   4   7  1   
  7   4  27  1   
  8   4  28  1   
  9   5   7  1   
 10   5  29  1   
 11   5  30  1   
 12   6  31  1   
 13   6  32  1   
 14   6  33  1   
 15   7   8  1   
 16   7  34  1   
 17   8   9  2   
 18   8  10  am  
 19  10  11  1   
 20  10  12  1   
 21  11  13  1   
 22  11  35  1   
 23  11  36  1   
 24  12  14  1   
 25  12  37  1   
 26  12  38  1   
 27  13  15  1   
 28  13  39  1   
 29  13  40  1   
 30  14  16  1   
 31  14  41  1   
 32  14  42  1   
 33  15  16  1   
 34  15  17  1   
 35  15  43  1   
 36  16  44  1   
 37  16  45  1   
 38  17  18  1   
 39  17  46  1   
 40  17  47  1   
 41  18  19  2   
 42  18  20  1   
 43  19  21  1   
 44  20  22  1   
 45  20  23  1   
 46  21  22  2   
 47  21  48  1   
 48  22  49  1   
 49  23  24  1   
 50  23  50  1   
 51  23  51  1   
 52  24  25  1   
 53  24  52  1   
 54  24  53  1   
 55  25  26  1   
 56  26  54  1   
 57  26  55  1   
 58  26  56  1   
@<TRIPOS>SUBSTRUCTURE
  1 ****  15 GROUP 4 **** **** 0

# MOE 2024.06 (io_trps.svl 2023.06)
