@<TRIPOS>MOLECULE
NONAME
52 53 1 0 0 
SMALL
USER_CHARGES


@<TRIPOS>ATOM
  1 O       -0.2070    -0.1570     0.4950 O.2   1 <1>  -0.5700 
  2 C       -1.2030     0.5160     0.6250 C.2   1 <1>   0.5690 
  3 N       -2.4420    -0.0610     0.7270 N.am  1 <1>  -0.6600 
  4 C       -1.0500     2.0270     0.6800 C.3   1 <1>  -0.0990 
  5 C       -2.6310    -1.5390     0.5780 C.3   1 <1>   0.1400 
  6 C       -3.7480     0.6570     0.8590 C.3   1 <1>   0.1400 
  7 C        0.3400     2.4950     0.2420 C.3   1 <1>   0.1400 
  8 C       -3.6480    -1.8510    -0.5350 C.3   1 <1>   0.3440 
  9 C       -4.7020     0.2570    -0.2920 C.3   1 <1>   0.2000 
 10 N        0.4330     3.9700     0.3520 N.am  1 <1>  -0.7300 
 11 O       -4.8400    -1.1420    -0.3120 O.3   1 <1>  -0.5600 
 12 C       -3.9450    -3.3470    -0.5910 C.ar  1 <1>  -0.1430 
 13 C       -6.1150     0.9110    -0.2250 C.3   1 <1>   0.0000 
 14 C       -0.1170     4.8450    -0.5250 C.2   1 <1>   0.5690 
 15 C       -4.9610    -3.9150     0.1660 C.ar  1 <1>  -0.1500 
 16 C       -3.1750    -4.1650    -1.4060 C.ar  1 <1>  -0.1500 
 17 C       -6.8850     0.5040     1.0460 C.3   1 <1>  -0.2400 
 18 C       -6.9420     0.4740    -1.4490 C.3   1 <1>  -0.2400 
 19 C       -6.0120     2.4480    -0.2610 C.3   1 <1>  -0.2400 
 20 O       -0.8090     4.4910    -1.4470 O.2   1 <1>  -0.5700 
 21 C        0.1460     6.3130    -0.3230 C.3   1 <1>  -0.1790 
 22 C       -5.2030    -5.2760     0.1100 C.ar  1 <1>  -0.1500 
 23 C       -3.4160    -5.5270    -1.4630 C.ar  1 <1>  -0.1500 
 24 C       -4.4300    -6.0840    -0.7050 C.ar  1 <1>  -0.1500 
 25 H       -1.7680     2.4700     0.0170 H     1 <1>   0.0800 
 26 H       -1.2400     2.3510     1.6850 H     1 <1>   0.0800 
 27 H       -1.6990    -2.0230     0.3430 H     1 <1>   0.0800 
 28 H       -2.9880    -1.9490     1.5060 H     1 <1>   0.0800 
 29 H       -4.1930     0.3910     1.8010 H     1 <1>   0.0800 
 30 H       -3.6040     1.7200     0.8560 H     1 <1>   0.0800 
 31 H        0.5120     2.2020    -0.7810 H     1 <1>   0.0800 
 32 H        1.0980     2.0400     0.8560 H     1 <1>   0.0800 
 33 H       -3.2510    -1.5340    -1.4840 H     1 <1>   0.0800 
 34 H       -4.2470     0.5500    -1.2230 H     1 <1>   0.0800 
 35 H        1.0120     4.3220     1.1150 H     1 <1>   0.3700 
 36 H       -5.5700    -3.2940     0.8000 H     1 <1>   0.1500 
 37 H       -2.3820    -3.7460    -2.0010 H     1 <1>   0.1500 
 38 H       -7.8790     0.9150     1.0320 H     1 <1>   0.0800 
 39 H       -6.3920     0.8570     1.9330 H     1 <1>   0.0800 
 40 H       -6.9670    -0.5670     1.1060 H     1 <1>   0.0800 
 41 H       -7.9120     0.9390    -1.4440 H     1 <1>   0.0800 
 42 H       -7.0840    -0.5930    -1.4490 H     1 <1>   0.0800 
 43 H       -6.4400     0.7450    -2.3610 H     1 <1>   0.0800 
 44 H       -6.9910     2.8880    -0.3220 H     1 <1>   0.0800 
 45 H       -5.4460     2.7690    -1.1180 H     1 <1>   0.0800 
 46 H       -5.5390     2.8300     0.6250 H     1 <1>   0.0800 
 47 H        1.2010     6.5020    -0.3700 H     1 <1>   0.0800 
 48 H       -0.2350     6.6220     0.6320 H     1 <1>   0.0800 
 49 H       -0.3440     6.8780    -1.0940 H     1 <1>   0.0800 
 50 H       -5.9940    -5.7050     0.7000 H     1 <1>   0.1500 
 51 H       -2.8140    -6.1540    -2.0980 H     1 <1>   0.1500 
 52 H       -4.6180    -7.1420    -0.7490 H     1 <1>   0.1500 
@<TRIPOS>BOND
  1   1   2  2   
  2   2   3  am  
  3   2   4  1   
  4   3   5  1   
  5   3   6  1   
  6   4   7  1   
  7   4  25  1   
  8   4  26  1   
  9   5   8  1   
 10   5  27  1   
 11   5  28  1   
 12   6   9  1   
 13   6  29  1   
 14   6  30  1   
 15   7  10  1   
 16   7  31  1   
 17   7  32  1   
 18   8  11  1   
 19   8  12  1   
 20   8  33  1   
 21   9  11  1   
 22   9  13  1   
 23   9  34  1   
 24  10  14  am  
 25  10  35  1   
 26  12  15  ar  
 27  12  16  ar  
 28  13  17  1   
 29  13  18  1   
 30  13  19  1   
 31  14  20  2   
 32  14  21  1   
 33  15  22  ar  
 34  15  36  1   
 35  16  23  ar  
 36  16  37  1   
 37  17  38  1   
 38  17  39  1   
 39  17  40  1   
 40  18  41  1   
 41  18  42  1   
 42  18  43  1   
 43  19  44  1   
 44  19  45  1   
 45  19  46  1   
 46  21  47  1   
 47  21  48  1   
 48  21  49  1   
 49  22  24  ar  
 50  22  50  1   
 51  23  24  ar  
 52  23  51  1   
 53  24  52  1   
@<TRIPOS>SUBSTRUCTURE
  1 ****   3 GROUP 4 **** **** 0

# MOE 2024.06 (io_trps.svl 2023.06)
