@<TRIPOS>MOLECULE
NONAME
40 42 1 0 0 
SMALL
USER_CHARGES


@<TRIPOS>ATOM
  1 O        0.6740    -0.5860     0.1070 O.2   1 <1>  -0.5700 
  2 C        0.5200    -1.6210    -0.5130 C.2   1 <1>   0.7160 
  3 N        0.9020    -1.5790    -1.8170 N.am  1 <1>  -0.8000 
  4 C       -0.0390    -2.8420     0.0780 C.2   1 <1>   0.4300 
  5 N       -0.4670    -2.9920     1.2880 N.2   1 <1>  -0.4100 
  6 N       -0.1690    -3.9830    -0.6240 N.2   1 <1>  -0.5650 
  7 O       -0.8900    -4.2060     1.4190 O.3   1 <1>  -0.0190 
  8 C       -0.6970    -4.7470     0.2440 C.2   1 <1>   0.2980 
  9 C       -1.0870    -6.2120     0.0480 C.3   1 <1>   0.2900 
 10 N       -2.5210    -6.4760    -0.2700 N.3   1 <1>  -0.8100 
 11 C       -3.4460    -5.9340     0.7650 C.3   1 <1>   0.1900 
 12 C       -2.6750    -7.9040    -0.5960 C.3   1 <1>   0.0300 
 13 C       -4.7820    -6.6780     0.9280 C.3   1 <1>  -0.1600 
 14 C       -3.9280    -4.5510     0.3110 C.3   1 <1>  -0.1600 
 15 C       -5.6710    -6.1890    -0.2230 C.3   1 <1>  -0.0800 
 16 C       -5.1210    -4.8160    -0.6160 C.3   1 <1>  -0.0800 
 17 C       -7.1540    -5.9930     0.1200 C.3   1 <1>  -0.1600 
 18 C       -6.2840    -3.8210    -0.5050 C.3   1 <1>  -0.1600 
 19 C       -7.5310    -4.6930    -0.5810 C.3   1 <1>   0.2000 
 20 O       -8.5780    -4.0860     0.0770 O.3   1 <1>  -0.6800 
 21 H        1.2730    -0.7160    -2.2100 H     1 <1>   0.3700 
 22 H        0.7980    -2.3890    -2.4300 H     1 <1>   0.3700 
 23 H       -0.8130    -6.7580     0.9330 H     1 <1>   0.0800 
 24 H       -0.4870    -6.5860    -0.7620 H     1 <1>   0.0800 
 25 H       -2.9450    -5.8820     1.7170 H     1 <1>   0.0800 
 26 H       -1.9460    -8.1970    -1.3330 H     1 <1>   0.0800 
 27 H       -3.6460    -8.0890    -1.0180 H     1 <1>   0.0800 
 28 H       -2.5460    -8.5100     0.2850 H     1 <1>   0.0800 
 29 H       -4.7010    -7.7470     0.9750 H     1 <1>   0.0800 
 30 H       -5.2050    -6.3540     1.8620 H     1 <1>   0.0800 
 31 H       -4.2460    -4.0070     1.1820 H     1 <1>   0.0800 
 32 H       -3.1720    -3.9760    -0.1900 H     1 <1>   0.0800 
 33 H       -5.5760    -6.8470    -1.0700 H     1 <1>   0.0800 
 34 H       -4.7760    -4.8700    -1.6360 H     1 <1>   0.0800 
 35 H       -7.2840    -5.8850     1.1820 H     1 <1>   0.0800 
 36 H       -7.7500    -6.8140    -0.2360 H     1 <1>   0.0800 
 37 H       -6.2600    -3.1020    -1.3040 H     1 <1>   0.0800 
 38 H       -6.2510    -3.3120     0.4410 H     1 <1>   0.0800 
 39 H       -7.8150    -4.8740    -1.6040 H     1 <1>   0.0800 
 40 H       -8.3240    -3.9060     1.0010 H     1 <1>   0.4000 
@<TRIPOS>BOND
  1   1   2  2   
  2   2   3  am  
  3   2   4  1   
  4   3  21  1   
  5   3  22  1   
  6   4   5  2   
  7   4   6  1   
  8   5   7  1   
  9   6   8  2   
 10   7   8  1   
 11   8   9  1   
 12   9  10  1   
 13   9  23  1   
 14   9  24  1   
 15  10  11  1   
 16  10  12  1   
 17  11  13  1   
 18  11  14  1   
 19  11  25  1   
 20  12  26  1   
 21  12  27  1   
 22  12  28  1   
 23  13  15  1   
 24  13  29  1   
 25  13  30  1   
 26  14  16  1   
 27  14  31  1   
 28  14  32  1   
 29  15  16  1   
 30  15  17  1   
 31  15  33  1   
 32  16  18  1   
 33  16  34  1   
 34  17  19  1   
 35  17  35  1   
 36  17  36  1   
 37  18  19  1   
 38  18  37  1   
 39  18  38  1   
 40  19  20  1   
 41  19  39  1   
 42  20  40  1   
@<TRIPOS>SUBSTRUCTURE
  1 ****  14 GROUP 4 **** **** 0

# MOE 2024.06 (io_trps.svl 2023.06)
