@<TRIPOS>MOLECULE
NONAME
46 48 1 0 0 
SMALL
USER_CHARGES


@<TRIPOS>ATOM
  1 O       -0.1260     0.0290     2.1030 O.co2 1 <1>  -0.9000 
  2 C        0.7170    -0.4660     1.3510 C.2   1 <1>   0.9060 
  3 O        1.8870    -0.6790     1.6730 O.co2 1 <1>  -0.9000 
  4 C        0.2380    -1.0260     0.0100 C.3   1 <1>   0.2370 
  5 N       -0.1680    -2.4890     0.0790 N.4   1 <1>  -0.9590 
  6 C       -0.5080    -3.0450    -1.2530 C.3   1 <1>   0.3430 
  7 C       -1.2810    -2.6250     1.0660 C.3   1 <1>   0.3430 
  8 C       -0.8500    -4.5240    -1.1110 C.3   1 <1>  -0.1600 
  9 C       -1.6460    -4.0960     1.2270 C.3   1 <1>  -0.1600 
 10 C       -2.0070    -4.7180    -0.1270 C.3   1 <1>   0.4240 
 11 O       -3.0710    -3.9760    -0.6720 O.3   1 <1>  -0.5600 
 12 C       -2.3470    -6.2130     0.0100 C.ar  1 <1>  -0.1430 
 13 C       -4.3660    -4.3280    -0.2840 C.3   1 <1>   0.1200 
 14 C       -3.6070    -6.6980    -0.3080 C.ar  1 <1>  -0.1430 
 15 C       -1.3920    -7.1130     0.4640 C.ar  1 <1>  -0.1500 
 16 C       -4.6740    -5.7350    -0.7920 C.3   1 <1>  -0.0170 
 17 C       -3.8940    -8.0470    -0.1830 C.ar  1 <1>  -0.1500 
 18 C       -1.6560    -8.4650     0.5960 C.ar  1 <1>   0.0830 
 19 C       -2.9350    -8.9510     0.2700 C.ar  1 <1>   0.0830 
 20 O       -0.5910    -9.1890     1.0480 O.3   1 <1>  -0.3620 
 21 O       -3.2280   -10.2780     0.4060 O.3   1 <1>  -0.3620 
 22 C       -0.5500   -10.5980     1.0330 C.3   1 <1>   0.0400 
 23 C       -4.5050   -10.8080     0.1250 C.3   1 <1>   0.0400 
 24 H        1.0460    -0.9010    -0.6880 H     1 <1>   0.0800 
 25 H       -0.5930    -0.4260    -0.3110 H     1 <1>   0.0800 
 26 H        0.6550    -2.9670     0.4790 H     1 <1>   0.4500 
 27 H        0.3230    -2.9240    -1.9280 H     1 <1>   0.0800 
 28 H       -1.3600    -2.5210    -1.6560 H     1 <1>   0.0800 
 29 H       -2.1410    -2.0760     0.7190 H     1 <1>   0.0800 
 30 H       -0.9850    -2.2160     2.0210 H     1 <1>   0.0800 
 31 H        0.0230    -5.0570    -0.7840 H     1 <1>   0.0800 
 32 H       -1.1340    -4.9230    -2.0670 H     1 <1>   0.0800 
 33 H       -2.4700    -4.1930     1.9090 H     1 <1>   0.0800 
 34 H       -0.8140    -4.6140     1.6660 H     1 <1>   0.0800 
 35 H       -5.0470    -3.6160    -0.7170 H     1 <1>   0.0800 
 36 H       -4.4420    -4.2800     0.7880 H     1 <1>   0.0800 
 37 H       -0.4060    -6.7790     0.7290 H     1 <1>   0.1500 
 38 H       -4.7010    -5.7310    -1.8670 H     1 <1>   0.0800 
 39 H       -5.6400    -6.0370    -0.4300 H     1 <1>   0.0800 
 40 H       -4.8800    -8.3770    -0.4450 H     1 <1>   0.1500 
 41 H        0.4420   -10.9080     1.3060 H     1 <1>   0.0800 
 42 H       -0.7840   -10.9440     0.0420 H     1 <1>   0.0800 
 43 H       -1.2590   -10.9740     1.7490 H     1 <1>   0.0800 
 44 H       -4.4780   -11.8640     0.3220 H     1 <1>   0.0800 
 45 H       -4.7340   -10.6370    -0.9120 H     1 <1>   0.0800 
 46 H       -5.2280   -10.3360     0.7660 H     1 <1>   0.0800 
@<TRIPOS>BOND
  1   1   2  ar  
  2   2   3  ar  
  3   2   4  1   
  4   4   5  1   
  5   4  24  1   
  6   4  25  1   
  7   5   6  1   
  8   5   7  1   
  9   5  26  1   
 10   6   8  1   
 11   6  27  1   
 12   6  28  1   
 13   7   9  1   
 14   7  29  1   
 15   7  30  1   
 16   8  10  1   
 17   8  31  1   
 18   8  32  1   
 19   9  10  1   
 20   9  33  1   
 21   9  34  1   
 22  10  11  1   
 23  10  12  1   
 24  11  13  1   
 25  12  14  ar  
 26  12  15  ar  
 27  13  16  1   
 28  13  35  1   
 29  13  36  1   
 30  14  16  1   
 31  14  17  ar  
 32  15  18  ar  
 33  15  37  1   
 34  16  38  1   
 35  16  39  1   
 36  17  19  ar  
 37  17  40  1   
 38  18  19  ar  
 39  18  20  1   
 40  19  21  1   
 41  20  22  1   
 42  21  23  1   
 43  22  41  1   
 44  22  42  1   
 45  22  43  1   
 46  23  44  1   
 47  23  45  1   
 48  23  46  1   
@<TRIPOS>SUBSTRUCTURE
  1 ****  10 GROUP 4 **** **** 0

# MOE 2024.06 (io_trps.svl 2023.06)
