@<TRIPOS>MOLECULE
NONAME
45 47 1 0 0 
SMALL
USER_CHARGES


@<TRIPOS>ATOM
  1 S       -0.6180    -0.5830     0.7660 S.3   1 <1>  -0.0800 
  2 C       -1.7560    -0.9480    -0.5230 C.2   1 <1>  -0.1400 
  3 C       -0.9660     1.1320     0.6560 C.2   1 <1>  -0.1100 
  4 C       -2.3320     0.1870    -0.9710 C.2   1 <1>  -0.1500 
  5 C       -1.9050    -2.4110    -0.9060 C.3   1 <1>   0.3800 
  6 C       -1.8820     1.3680    -0.3000 C.2   1 <1>  -0.1500 
  7 O       -2.6160    -2.4770    -2.0900 O.3   1 <1>  -0.6800 
  8 C       -2.6510    -3.2310     0.1740 C.3   1 <1>  -0.0800 
  9 C       -2.7630    -4.7200    -0.2140 C.3   1 <1>  -0.1600 
 10 C       -4.0490    -2.6540     0.4920 C.3   1 <1>  -0.1600 
 11 C       -3.5660    -5.5240     0.8070 C.3   1 <1>   0.3430 
 12 C       -4.8170    -3.5140     1.4910 C.3   1 <1>   0.3430 
 13 N       -4.9130    -4.9060     0.9730 N.4   1 <1>  -0.9590 
 14 C       -5.8150    -5.7390     1.8120 C.3   1 <1>   0.4860 
 15 C       -6.0610    -7.0670     1.1130 C.ar  1 <1>  -0.1430 
 16 C       -6.8860    -7.1300    -0.0060 C.ar  1 <1>  -0.1500 
 17 C       -5.4620    -8.2240     1.5940 C.ar  1 <1>  -0.1500 
 18 C       -7.1160    -8.3380    -0.6640 C.ar  1 <1>  -0.1430 
 19 C       -5.6780    -9.4320     0.9570 C.ar  1 <1>  -0.1500 
 20 C       -6.4960    -9.4670    -0.1560 C.ar  1 <1>   0.1900 
 21 C       -8.0130    -8.4550    -1.9000 C.3   1 <1>   1.1630 
 22 F       -6.6750   -10.6230    -0.7340 F     1 <1>  -0.1900 
 23 F       -7.3590    -8.9030    -2.9630 F     1 <1>  -0.3400 
 24 F       -9.0490    -9.2610    -1.7120 F     1 <1>  -0.3400 
 25 F       -8.5230    -7.2810    -2.2560 F     1 <1>  -0.3400 
 26 H       -0.4410     1.7900     1.3260 H     1 <1>   0.1500 
 27 H       -3.0690     0.2510    -1.7530 H     1 <1>   0.1500 
 28 H       -0.9310    -2.8330    -1.0890 H     1 <1>   0.0800 
 29 H       -2.2680     2.3370    -0.5690 H     1 <1>   0.1500 
 30 H       -2.2050    -1.8640    -2.7310 H     1 <1>   0.4000 
 31 H       -2.0620    -3.1730     1.0740 H     1 <1>   0.0800 
 32 H       -1.7770    -5.1450    -0.2940 H     1 <1>   0.0800 
 33 H       -3.2320    -4.8230    -1.1780 H     1 <1>   0.0800 
 34 H       -4.6290    -2.5630    -0.4110 H     1 <1>   0.0800 
 35 H       -3.9460    -1.6650     0.9030 H     1 <1>   0.0800 
 36 H       -3.0460    -5.5350     1.7510 H     1 <1>   0.0800 
 37 H       -3.6620    -6.5410     0.4580 H     1 <1>   0.0800 
 38 H       -5.8020    -3.0990     1.6330 H     1 <1>   0.0800 
 39 H       -4.3040    -3.5090     2.4400 H     1 <1>   0.0800 
 40 H       -5.3260    -4.8570     0.0330 H     1 <1>   0.4500 
 41 H       -6.7570    -5.2350     1.9540 H     1 <1>   0.0800 
 42 H       -5.3710    -5.9090     2.7800 H     1 <1>   0.0800 
 43 H       -7.3600    -6.2310    -0.3680 H     1 <1>   0.1500 
 44 H       -4.8280    -8.2040     2.4660 H     1 <1>   0.1500 
 45 H       -5.2230   -10.3410     1.3140 H     1 <1>   0.1500 
@<TRIPOS>BOND
  1   1   2  1   
  2   1   3  1   
  3   2   4  2   
  4   2   5  1   
  5   3   6  2   
  6   3  26  1   
  7   4   6  1   
  8   4  27  1   
  9   5   7  1   
 10   5   8  1   
 11   5  28  1   
 12   6  29  1   
 13   7  30  1   
 14   8   9  1   
 15   8  10  1   
 16   8  31  1   
 17   9  11  1   
 18   9  32  1   
 19   9  33  1   
 20  10  12  1   
 21  10  34  1   
 22  10  35  1   
 23  11  13  1   
 24  11  36  1   
 25  11  37  1   
 26  12  13  1   
 27  12  38  1   
 28  12  39  1   
 29  13  14  1   
 30  13  40  1   
 31  14  15  1   
 32  14  41  1   
 33  14  42  1   
 34  15  16  ar  
 35  15  17  ar  
 36  16  18  ar  
 37  16  43  1   
 38  17  19  ar  
 39  17  44  1   
 40  18  20  ar  
 41  18  21  1   
 42  19  20  ar  
 43  19  45  1   
 44  20  22  1   
 45  21  23  1   
 46  21  24  1   
 47  21  25  1   
@<TRIPOS>SUBSTRUCTURE
  1 ****  13 GROUP 4 **** **** 0

# MOE 2024.06 (io_trps.svl 2023.06)
