@<TRIPOS>MOLECULE
NONAME
44 46 1 0 0 
SMALL
USER_CHARGES


@<TRIPOS>ATOM
  1 CL      -0.7430    -0.7030     2.2570 Cl    1 <1>  -0.1770 
  2 C       -1.6110     0.6100     1.5040 C.ar  1 <1>   0.1770 
  3 C       -2.6440     0.3200     0.6360 C.ar  1 <1>  -0.1500 
  4 C       -1.2460     1.9100     1.7900 C.ar  1 <1>  -0.1500 
  5 C       -3.3320     1.3710     0.0400 C.ar  1 <1>   0.0830 
  6 C       -1.9200     2.9760     1.1970 C.ar  1 <1>   0.0860 
  7 O       -4.3580     1.2020    -0.8280 O.3   1 <1>  -0.3630 
  8 C       -2.9700     2.6770     0.3290 C.ar  1 <1>  -0.1500 
  9 C       -1.5320     4.3440     1.4800 C.2   1 <1>   0.5440 
 10 C       -4.8590    -0.0820    -1.1300 C.3   1 <1>   0.0400 
 11 O       -1.4670     4.7090     2.6390 O.2   1 <1>  -0.5700 
 12 N       -1.2080     5.2500     0.4830 N.am  1 <1>  -0.6600 
 13 C       -0.9230     6.6720     0.8670 C.3   1 <1>   0.1400 
 14 C       -0.8020     4.7950    -0.8870 C.3   1 <1>   0.1400 
 15 C        0.5890     7.0030     0.9850 C.3   1 <1>   0.4230 
 16 C        0.6130     5.2360    -1.3270 C.3   1 <1>  -0.0800 
 17 N        1.1940     7.4810    -0.3120 N.4   1 <1>  -0.9590 
 18 C        1.4610     5.8710     1.5940 C.3   1 <1>   0.1200 
 19 C        1.7760     4.6510    -0.4970 C.3   1 <1>   0.1200 
 20 C        0.7040     6.7520    -1.5200 C.3   1 <1>   0.3430 
 21 C        1.0320     8.9580    -0.4850 C.3   1 <1>   0.2630 
 22 O        1.5160     4.6660     0.8700 O.3   1 <1>  -0.5600 
 23 H       -2.8860    -0.7080     0.4460 H     1 <1>   0.1500 
 24 H       -0.4380     2.1040     2.4730 H     1 <1>   0.1500 
 25 H       -3.5210     3.4780    -0.1290 H     1 <1>   0.1500 
 26 H       -5.6840     0.0320    -1.8100 H     1 <1>   0.0800 
 27 H       -5.1970    -0.5490    -0.2220 H     1 <1>   0.0800 
 28 H       -4.0810    -0.6620    -1.5950 H     1 <1>   0.0800 
 29 H       -1.4010     7.3340     0.1690 H     1 <1>   0.0800 
 30 H       -1.3760     6.8760     1.8220 H     1 <1>   0.0800 
 31 H       -0.8320     3.7210    -0.9380 H     1 <1>   0.0800 
 32 H       -1.5290     5.1610    -1.5920 H     1 <1>   0.0800 
 33 H        0.6540     7.8220     1.6810 H     1 <1>   0.0800 
 34 H        0.7320     4.8300    -2.3160 H     1 <1>   0.0800 
 35 H        2.1990     7.2740    -0.2300 H     1 <1>   0.4500 
 36 H        1.0680     5.6190     2.5640 H     1 <1>   0.0800 
 37 H        2.4700     6.2150     1.7360 H     1 <1>   0.0800 
 38 H        2.7090     5.1540    -0.6840 H     1 <1>   0.0800 
 39 H        1.9050     3.6140    -0.7610 H     1 <1>   0.0800 
 40 H       -0.2690     7.1220    -1.8000 H     1 <1>   0.0800 
 41 H        1.3740     6.9540    -2.3400 H     1 <1>   0.0800 
 42 H       -0.0120     9.2150    -0.5660 H     1 <1>   0.0800 
 43 H        1.5380     9.2890    -1.3790 H     1 <1>   0.0800 
 44 H        1.4520     9.4830     0.3580 H     1 <1>   0.0800 
@<TRIPOS>BOND
  1   1   2  1   
  2   2   3  ar  
  3   2   4  ar  
  4   3   5  ar  
  5   3  23  1   
  6   4   6  ar  
  7   4  24  1   
  8   5   7  1   
  9   5   8  ar  
 10   6   8  ar  
 11   6   9  1   
 12   7  10  1   
 13   8  25  1   
 14   9  11  2   
 15   9  12  am  
 16  10  26  1   
 17  10  27  1   
 18  10  28  1   
 19  12  13  1   
 20  12  14  1   
 21  13  15  1   
 22  13  29  1   
 23  13  30  1   
 24  14  16  1   
 25  14  31  1   
 26  14  32  1   
 27  15  17  1   
 28  15  18  1   
 29  15  33  1   
 30  16  19  1   
 31  16  20  1   
 32  16  34  1   
 33  17  20  1   
 34  17  21  1   
 35  17  35  1   
 36  18  22  1   
 37  18  36  1   
 38  18  37  1   
 39  19  22  1   
 40  19  38  1   
 41  19  39  1   
 42  20  40  1   
 43  20  41  1   
 44  21  42  1   
 45  21  43  1   
 46  21  44  1   
@<TRIPOS>SUBSTRUCTURE
  1 ****   9 GROUP 4 **** **** 0

# MOE 2024.06 (io_trps.svl 2023.06)
