@<TRIPOS>MOLECULE
NONAME
54 58 1 0 0 
SMALL
USER_CHARGES


@<TRIPOS>ATOM
  1 S       -1.0320    -0.2160    -1.7090 S.3   1 <1>  -0.2320 
  2 C       -1.8630     0.9000    -0.6800 C.cat 1 <1>   0.8400 
  3 C       -2.2790    -1.4370    -1.4410 C.2   1 <1>  -0.0490 
  4 N       -1.4310     2.1170    -0.4550 N.pl3 1 <1>  -0.7940 
  5 N       -2.9700     0.3680    -0.1770 N.pl3 1 <1>  -0.6850 
  6 C       -3.2200    -0.9600    -0.6090 C.2   1 <1>   0.2030 
  7 C       -2.1520     3.0690     0.4120 C.3   1 <1>   0.3290 
  8 C       -3.8570     1.1810     0.6950 C.3   1 <1>   0.3290 
  9 C       -4.4630    -1.7020    -0.1290 C.3   1 <1>   0.0390 
 10 C       -3.0490     2.2920     1.3860 C.3   1 <1>  -0.1600 
 11 C       -4.5540    -3.0870    -0.7310 C.2   1 <1>   0.5690 
 12 O       -4.7960    -3.1870    -1.9070 O.2   1 <1>  -0.5700 
 13 N       -4.3590    -4.1770     0.0510 N.am  1 <1>  -0.7300 
 14 C       -4.3430    -5.5810    -0.4300 C.3   1 <1>   0.2200 
 15 C       -5.6250    -6.3160    -0.0540 C.3   1 <1>  -0.0800 
 16 C       -3.3360    -6.3520     0.4110 C.3   1 <1>   0.1200 
 17 C       -5.3620    -6.7260     1.4030 C.3   1 <1>   0.1200 
 18 C       -6.9290    -5.5220    -0.2790 C.3   1 <1>  -0.0170 
 19 O       -3.9900    -6.5610     1.6240 O.3   1 <1>  -0.5600 
 20 C       -8.2440    -6.2680    -0.0180 C.ar  1 <1>  -0.1430 
 21 C       -9.4680    -5.5550    -0.0450 C.ar  1 <1>   0.0000 
 22 C       -8.3170    -7.6100     0.2390 C.ar  1 <1>  -0.1500 
 23 C      -10.6610    -6.2670     0.2330 C.ar  1 <1>   0.3100 
 24 C       -9.5810    -4.1750    -0.3400 C.ar  1 <1>  -0.1500 
 25 C       -9.5510    -8.2200     0.4900 C.ar  1 <1>   0.1600 
 26 N      -10.6850    -7.5960     0.4990 N.ar  1 <1>  -0.6200 
 27 C      -11.8840    -5.5780     0.2310 C.ar  1 <1>  -0.1500 
 28 C      -10.7900    -3.5340    -0.3380 C.ar  1 <1>  -0.1500 
 29 C      -11.9580    -4.2400    -0.0460 C.ar  1 <1>  -0.1500 
 30 H       -2.1620    -2.3790    -1.9510 H     1 <1>   0.1500 
 31 H       -0.5760     2.4470    -0.9110 H     1 <1>   0.4500 
 32 H       -1.4460     3.6670     0.9660 H     1 <1>   0.0800 
 33 H       -2.7470     3.7260    -0.2020 H     1 <1>   0.0800 
 34 H       -4.6380     1.6140     0.0910 H     1 <1>   0.0800 
 35 H       -4.3130     0.5580     1.4460 H     1 <1>   0.0800 
 36 H       -5.3400    -1.1560    -0.4210 H     1 <1>   0.0800 
 37 H       -4.4480    -1.7810     0.9410 H     1 <1>   0.0800 
 38 H       -2.4340     1.8500     2.1510 H     1 <1>   0.0800 
 39 H       -3.7210     2.9740     1.8760 H     1 <1>   0.0800 
 40 H       -4.2040    -4.1110     1.0610 H     1 <1>   0.3700 
 41 H       -4.1260    -5.6280    -1.4840 H     1 <1>   0.0800 
 42 H       -5.6630    -7.2090    -0.6530 H     1 <1>   0.0800 
 43 H       -2.4210    -5.8120     0.5770 H     1 <1>   0.0800 
 44 H       -3.1230    -7.3140    -0.0240 H     1 <1>   0.0800 
 45 H       -5.6170    -7.7550     1.5860 H     1 <1>   0.0800 
 46 H       -5.8870    -6.0940     2.0990 H     1 <1>   0.0800 
 47 H       -6.9400    -5.1720    -1.2970 H     1 <1>   0.0800 
 48 H       -6.9120    -4.6590     0.3620 H     1 <1>   0.0800 
 49 H       -7.4560    -8.2480     0.2600 H     1 <1>   0.1500 
 50 H       -8.7010    -3.6100    -0.5800 H     1 <1>   0.1500 
 51 H       -9.5570    -9.2770     0.6900 H     1 <1>   0.1500 
 52 H      -12.7690    -6.1440     0.4550 H     1 <1>   0.1500 
 53 H      -10.8590    -2.4830    -0.5640 H     1 <1>   0.1500 
 54 H      -12.9030    -3.7250    -0.0440 H     1 <1>   0.1500 
@<TRIPOS>BOND
  1   1   2  1   
  2   1   3  1   
  3   2   4  ar  
  4   2   5  ar  
  5   3   6  2   
  6   3  30  1   
  7   4   7  1   
  8   4  31  1   
  9   5   6  1   
 10   5   8  1   
 11   6   9  1   
 12   7  10  1   
 13   7  32  1   
 14   7  33  1   
 15   8  10  1   
 16   8  34  1   
 17   8  35  1   
 18   9  11  1   
 19   9  36  1   
 20   9  37  1   
 21  10  38  1   
 22  10  39  1   
 23  11  12  2   
 24  11  13  am  
 25  13  14  1   
 26  13  40  1   
 27  14  15  1   
 28  14  16  1   
 29  14  41  1   
 30  15  17  1   
 31  15  18  1   
 32  15  42  1   
 33  16  19  1   
 34  16  43  1   
 35  16  44  1   
 36  17  19  1   
 37  17  45  1   
 38  17  46  1   
 39  18  20  1   
 40  18  47  1   
 41  18  48  1   
 42  20  21  ar  
 43  20  22  ar  
 44  21  23  ar  
 45  21  24  ar  
 46  22  25  ar  
 47  22  49  1   
 48  23  26  ar  
 49  23  27  ar  
 50  24  28  ar  
 51  24  50  1   
 52  25  26  ar  
 53  25  51  1   
 54  27  29  ar  
 55  27  52  1   
 56  28  29  ar  
 57  28  53  1   
 58  29  54  1   
@<TRIPOS>SUBSTRUCTURE
  1 ****  11 GROUP 4 **** **** 0

# MOE 2024.06 (io_trps.svl 2023.06)
