@<TRIPOS>MOLECULE
NONAME
46 48 1 0 0 
SMALL
USER_CHARGES


@<TRIPOS>ATOM
  1 S        0.8550     0.1560     0.1670 S.o2  1 <1>   1.3330 
  2 O       -0.5120     0.2780    -0.2850 O.2   1 <1>  -0.6500 
  3 O        1.3080    -1.1000     0.7220 O.2   1 <1>  -0.6500 
  4 N        1.1120     1.3600     1.3350 N.am  1 <1>  -0.8490 
  5 C        1.9590     0.6000    -1.1740 C.3   1 <1>  -0.0550 
  6 C        0.6070     2.6800     0.9370 C.3   1 <1>   0.1160 
  7 C        0.5550     0.9820     2.6350 C.3   1 <1>   0.1160 
  8 C        3.4320     0.7400    -0.7490 C.3   1 <1>  -0.0800 
  9 C        4.2800     1.3970    -1.8320 C.3   1 <1>   0.2200 
 10 C        4.1380    -0.5870    -0.4820 C.3   1 <1>   0.1200 
 11 N        4.6770     2.7460    -1.3820 N.am  1 <1>  -0.7300 
 12 C        5.4850     0.4670    -1.9720 C.3   1 <1>   0.1200 
 13 O        5.4570    -0.3780    -0.8660 O.3   1 <1>  -0.5600 
 14 C        3.8640     3.8410    -1.4000 C.2   1 <1>   0.5440 
 15 O        2.8100     3.7500    -2.0050 O.2   1 <1>  -0.5700 
 16 C        4.2190     5.0820    -0.7330 C.ar  1 <1>   0.0860 
 17 C        5.0200     5.1180     0.4460 C.ar  1 <1>   0.3100 
 18 C        3.7530     6.2740    -1.2560 C.ar  1 <1>  -0.1500 
 19 N        5.4920     3.9640     1.0060 N.ar  1 <1>  -0.6200 
 20 C        5.3120     6.3740     1.0340 C.ar  1 <1>   0.0000 
 21 C        4.0450     7.5050    -0.6740 C.ar  1 <1>  -0.1500 
 22 C        6.2120     4.0390     2.0840 C.ar  1 <1>   0.1600 
 23 C        6.0980     6.4120     2.1990 C.ar  1 <1>  -0.1500 
 24 C        4.8130     7.5530     0.4530 C.ar  1 <1>  -0.1500 
 25 C        6.5450     5.2380     2.7200 C.ar  1 <1>  -0.1500 
 26 H        1.8800    -0.1310    -1.9550 H     1 <1>   0.0800 
 27 H        1.6310     1.5350    -1.5830 H     1 <1>   0.0800 
 28 H        0.8340     3.4060     1.6980 H     1 <1>   0.0800 
 29 H       -0.4600     2.6480     0.7880 H     1 <1>   0.0800 
 30 H        1.0760     3.0010     0.0220 H     1 <1>   0.0800 
 31 H        0.7660     1.7430     3.3660 H     1 <1>   0.0800 
 32 H        1.0010     0.0600     2.9700 H     1 <1>   0.0800 
 33 H       -0.5110     0.8440     2.5600 H     1 <1>   0.0800 
 34 H        3.4890     1.3210     0.1560 H     1 <1>   0.0800 
 35 H        3.7630     1.4700    -2.7750 H     1 <1>   0.0800 
 36 H        3.7370    -1.3840    -1.0850 H     1 <1>   0.0800 
 37 H        4.1100    -0.8650     0.5580 H     1 <1>   0.0800 
 38 H        5.3870     2.7490    -0.6360 H     1 <1>   0.3700 
 39 H        6.4210     0.9970    -1.9910 H     1 <1>   0.0800 
 40 H        5.3900    -0.1450    -2.8520 H     1 <1>   0.0800 
 41 H        3.1420     6.2630    -2.1440 H     1 <1>   0.1500 
 42 H        3.6610     8.4070    -1.1210 H     1 <1>   0.1500 
 43 H        6.5760     3.1210     2.5170 H     1 <1>   0.1500 
 44 H        6.3310     7.3580     2.6560 H     1 <1>   0.1500 
 45 H        5.0460     8.4980     0.9120 H     1 <1>   0.1500 
 46 H        7.1500     5.2100     3.6090 H     1 <1>   0.1500 
@<TRIPOS>BOND
  1   1   2  2   
  2   1   3  2   
  3   1   4  am  
  4   1   5  1   
  5   4   6  1   
  6   4   7  1   
  7   5   8  1   
  8   5  26  1   
  9   5  27  1   
 10   6  28  1   
 11   6  29  1   
 12   6  30  1   
 13   7  31  1   
 14   7  32  1   
 15   7  33  1   
 16   8   9  1   
 17   8  10  1   
 18   8  34  1   
 19   9  11  1   
 20   9  12  1   
 21   9  35  1   
 22  10  13  1   
 23  10  36  1   
 24  10  37  1   
 25  11  14  am  
 26  11  38  1   
 27  12  13  1   
 28  12  39  1   
 29  12  40  1   
 30  14  15  2   
 31  14  16  1   
 32  16  17  ar  
 33  16  18  ar  
 34  17  19  ar  
 35  17  20  ar  
 36  18  21  ar  
 37  18  41  1   
 38  19  22  ar  
 39  20  23  ar  
 40  20  24  ar  
 41  21  24  ar  
 42  21  42  1   
 43  22  25  ar  
 44  22  43  1   
 45  23  25  ar  
 46  23  44  1   
 47  24  45  1   
 48  25  46  1   
@<TRIPOS>SUBSTRUCTURE
  1 ****  14 GROUP 4 **** **** 0

# MOE 2024.06 (io_trps.svl 2023.06)
