@<TRIPOS>MOLECULE
NONAME
55 57 1 0 0 
SMALL
USER_CHARGES


@<TRIPOS>ATOM
  1 O        2.0760    -0.2080    -0.8970 O.2   1 <1>  -0.5700 
  2 C        2.3480    -0.8980     0.0670 C.2   1 <1>   0.5440 
  3 N        2.9210    -0.2730     1.1530 N.am  1 <1>  -0.6600 
  4 C        2.1730    -2.3400     0.0230 C.ar  1 <1>   0.0860 
  5 C        4.2300    -0.7520     1.6760 C.3   1 <1>   0.1400 
  6 C        2.5430     1.1230     1.5000 C.3   1 <1>   0.1400 
  7 C        2.3040    -3.0430    -1.1740 C.ar  1 <1>  -0.1500 
  8 C        1.8800    -3.0790     1.1690 C.ar  1 <1>  -0.1500 
  9 C        5.3340    -0.5500     0.6180 C.3   1 <1>   0.3430 
 10 C        3.6560     2.1200     1.1600 C.3   1 <1>  -0.1600 
 11 C        2.1790    -4.4190    -1.2210 C.ar  1 <1>  -0.1500 
 12 C        1.7540    -4.4550     1.1280 C.ar  1 <1>  -0.1500 
 13 N        5.6300     0.8860     0.2760 N.4   1 <1>  -0.9590 
 14 C        4.4560     1.7430    -0.0880 C.3   1 <1>   0.3430 
 15 C        1.9100    -5.1370    -0.0670 C.ar  1 <1>  -0.1430 
 16 C        6.6860     0.9830    -0.7770 C.3   1 <1>   0.4860 
 17 C        1.7740    -6.6510    -0.1150 C.3   1 <1>  -0.0170 
 18 C        7.4360     2.3000    -0.6150 C.ar  1 <1>   0.1670 
 19 C        0.3190    -7.0550    -0.3820 C.3   1 <1>  -0.1600 
 20 N        7.6350     2.7240     0.6290 N.ar  1 <1>  -0.6200 
 21 C        7.8620     2.9910    -1.7440 C.ar  1 <1>   0.1600 
 22 C        0.1580    -8.5780    -0.4360 C.3   1 <1>  -0.2400 
 23 C        8.2960     3.8730     0.6580 C.ar  1 <1>   0.1600 
 24 N        8.5100     4.1390    -1.7070 N.ar  1 <1>  -0.6200 
 25 C        8.7220     4.5640    -0.4740 C.ar  1 <1>   0.1670 
 26 C        9.4720     5.8750    -0.3470 C.3   1 <1>  -0.0970 
 27 H        4.1580    -1.8000     1.9060 H     1 <1>   0.0800 
 28 H        4.4830    -0.2370     2.5870 H     1 <1>   0.0800 
 29 H        2.3010     1.1800     2.5480 H     1 <1>   0.0800 
 30 H        1.6520     1.3890     0.9530 H     1 <1>   0.0800 
 31 H        2.5010    -2.5010    -2.0830 H     1 <1>   0.1500 
 32 H        1.7410    -2.5680     2.1060 H     1 <1>   0.1500 
 33 H        5.0350    -1.0750    -0.2750 H     1 <1>   0.0800 
 34 H        6.2350    -1.0150     0.9810 H     1 <1>   0.0800 
 35 H        4.3100     2.2570     2.0030 H     1 <1>   0.0800 
 36 H        3.1830     3.0700     0.9820 H     1 <1>   0.0800 
 37 H        2.2850    -4.9340    -2.1610 H     1 <1>   0.1500 
 38 H        1.5280    -4.9990     2.0300 H     1 <1>   0.1500 
 39 H        6.0820     1.3510     1.0840 H     1 <1>   0.4500 
 40 H        4.8150     2.6560    -0.5360 H     1 <1>   0.0800 
 41 H        3.8240     1.2470    -0.8060 H     1 <1>   0.0800 
 42 H        6.2490     0.9100    -1.7590 H     1 <1>   0.0800 
 43 H        7.3950     0.1810    -0.6540 H     1 <1>   0.0800 
 44 H        2.1020    -7.0720     0.8190 H     1 <1>   0.0800 
 45 H        2.4080    -7.0450    -0.8910 H     1 <1>   0.0800 
 46 H       -0.0030    -6.6290    -1.3170 H     1 <1>   0.0800 
 47 H       -0.3090    -6.6560     0.3960 H     1 <1>   0.0800 
 48 H        7.6660     2.5890    -2.7230 H     1 <1>   0.1500 
 49 H        0.7610    -8.9940    -1.2240 H     1 <1>   0.0800 
 50 H       -0.8710    -8.8310    -0.6240 H     1 <1>   0.0800 
 51 H        0.4530    -9.0220     0.4990 H     1 <1>   0.0800 
 52 H        8.5120     4.2910     1.6260 H     1 <1>   0.1500 
 53 H        9.6040     6.1540     0.6830 H     1 <1>   0.0800 
 54 H        8.9260     6.6540    -0.8490 H     1 <1>   0.0800 
 55 H       10.4390     5.7830    -0.8080 H     1 <1>   0.0800 
@<TRIPOS>BOND
  1   1   2  2   
  2   2   3  am  
  3   2   4  1   
  4   3   5  1   
  5   3   6  1   
  6   4   7  ar  
  7   4   8  ar  
  8   5   9  1   
  9   5  27  1   
 10   5  28  1   
 11   6  10  1   
 12   6  29  1   
 13   6  30  1   
 14   7  11  ar  
 15   7  31  1   
 16   8  12  ar  
 17   8  32  1   
 18   9  13  1   
 19   9  33  1   
 20   9  34  1   
 21  10  14  1   
 22  10  35  1   
 23  10  36  1   
 24  11  15  ar  
 25  11  37  1   
 26  12  15  ar  
 27  12  38  1   
 28  13  14  1   
 29  13  16  1   
 30  13  39  1   
 31  14  40  1   
 32  14  41  1   
 33  15  17  1   
 34  16  18  1   
 35  16  42  1   
 36  16  43  1   
 37  17  19  1   
 38  17  44  1   
 39  17  45  1   
 40  18  20  ar  
 41  18  21  ar  
 42  19  22  1   
 43  19  46  1   
 44  19  47  1   
 45  20  23  ar  
 46  21  24  ar  
 47  21  48  1   
 48  22  49  1   
 49  22  50  1   
 50  22  51  1   
 51  23  25  ar  
 52  23  52  1   
 53  24  25  ar  
 54  25  26  1   
 55  26  53  1   
 56  26  54  1   
 57  26  55  1   
@<TRIPOS>SUBSTRUCTURE
  1 ****   9 GROUP 4 **** **** 0

# MOE 2024.06 (io_trps.svl 2023.06)
