@<TRIPOS>MOLECULE
NONAME
42 42 1 0 0 
SMALL
USER_CHARGES


@<TRIPOS>ATOM
  1 CL      -0.6270     2.8290    -2.0530 Cl    1 <1>  -0.1770 
  2 C       -1.7680     1.7940    -1.2370 C.ar  1 <1>   0.1770 
  3 C       -3.0680     1.7290    -1.7010 C.ar  1 <1>  -0.1500 
  4 C       -1.3580     1.0600    -0.1410 C.ar  1 <1>  -0.1500 
  5 C       -3.9910     0.9180    -1.0530 C.ar  1 <1>  -0.1440 
  6 C       -2.2710     0.2410     0.4990 C.ar  1 <1>  -0.1500 
  7 C       -3.5790     0.1690     0.0440 C.ar  1 <1>  -0.1500 
  8 C       -5.4230     0.8570    -1.5540 C.3   1 <1>   0.4870 
  9 N       -6.3330     1.3120    -0.4590 N.4   1 <1>  -0.9590 
 10 C       -7.5490     0.4450    -0.3460 C.3   1 <1>   0.3430 
 11 C       -6.7660     2.7310    -0.6320 C.3   1 <1>   0.3430 
 12 C       -7.2470    -0.9260     0.2460 C.3   1 <1>  -0.0550 
 13 C       -5.6270     3.7020    -0.3210 C.3   1 <1>  -0.1600 
 14 S       -8.7760    -1.8240     0.1730 S.o2  1 <1>   1.0900 
 15 C       -6.1450     5.1440    -0.2520 C.3   1 <1>  -0.1600 
 16 O       -9.6870    -1.0740     0.9980 O.2   1 <1>  -0.6500 
 17 O       -9.0350    -1.9760    -1.2370 O.2   1 <1>  -0.6500 
 18 C       -8.4450    -3.4130     0.9100 C.3   1 <1>  -0.1350 
 19 C       -5.0040     6.1180     0.0490 C.3   1 <1>  -0.2400 
 20 H       -3.3320     2.3170    -2.5620 H     1 <1>   0.1500 
 21 H       -0.3390     1.1300     0.1990 H     1 <1>   0.1500 
 22 H       -1.9560    -0.3410     1.3510 H     1 <1>   0.1500 
 23 H       -4.2580    -0.4870     0.5590 H     1 <1>   0.1500 
 24 H       -5.6490    -0.1570    -1.8380 H     1 <1>   0.0800 
 25 H       -5.5420     1.4820    -2.4250 H     1 <1>   0.0800 
 26 H       -5.7870     1.2740     0.4120 H     1 <1>   0.4500 
 27 H       -8.0000     0.3210    -1.3190 H     1 <1>   0.0800 
 28 H       -8.2800     0.9270     0.2860 H     1 <1>   0.0800 
 29 H       -7.5760     2.9390     0.0490 H     1 <1>   0.0800 
 30 H       -7.1280     2.8960    -1.6350 H     1 <1>   0.0800 
 31 H       -6.9250    -0.8250     1.2640 H     1 <1>   0.0800 
 32 H       -6.5000    -1.4360    -0.3310 H     1 <1>   0.0800 
 33 H       -4.8780     3.6510    -1.0890 H     1 <1>   0.0800 
 34 H       -5.1770     3.4510     0.6240 H     1 <1>   0.0800 
 35 H       -6.8920     5.2330     0.5200 H     1 <1>   0.0800 
 36 H       -6.5990     5.4190    -1.1900 H     1 <1>   0.0800 
 37 H       -8.1360    -3.3040     1.9320 H     1 <1>   0.0800 
 38 H       -7.6820    -3.9360     0.3670 H     1 <1>   0.0800 
 39 H       -9.3350    -4.0140     0.8950 H     1 <1>   0.0800 
 40 H       -4.5450     5.8890     0.9960 H     1 <1>   0.0800 
 41 H       -5.3820     7.1250     0.0940 H     1 <1>   0.0800 
 42 H       -4.2510     6.0750    -0.7190 H     1 <1>   0.0800 
@<TRIPOS>BOND
  1   1   2  1   
  2   2   3  ar  
  3   2   4  ar  
  4   3   5  ar  
  5   3  20  1   
  6   4   6  ar  
  7   4  21  1   
  8   5   7  ar  
  9   5   8  1   
 10   6   7  ar  
 11   6  22  1   
 12   7  23  1   
 13   8   9  1   
 14   8  24  1   
 15   8  25  1   
 16   9  10  1   
 17   9  11  1   
 18   9  26  1   
 19  10  12  1   
 20  10  27  1   
 21  10  28  1   
 22  11  13  1   
 23  11  29  1   
 24  11  30  1   
 25  12  14  1   
 26  12  31  1   
 27  12  32  1   
 28  13  15  1   
 29  13  33  1   
 30  13  34  1   
 31  14  16  2   
 32  14  17  2   
 33  14  18  1   
 34  15  19  1   
 35  15  35  1   
 36  15  36  1   
 37  18  37  1   
 38  18  38  1   
 39  18  39  1   
 40  19  40  1   
 41  19  41  1   
 42  19  42  1   
@<TRIPOS>SUBSTRUCTURE
  1 ****   9 GROUP 4 **** **** 0

# MOE 2024.06 (io_trps.svl 2023.06)
