@<TRIPOS>MOLECULE
NONAME
58 61 1 0 0 
SMALL
USER_CHARGES


@<TRIPOS>ATOM
  1 O       -0.4810     0.4990    -1.1510 O.2   1 <1>  -0.5700 
  2 C       -1.2400     1.0800    -0.4050 C.2   1 <1>   0.5690 
  3 N       -2.0370     0.3950     0.4520 N.am  1 <1>  -0.7300 
  4 C       -1.2800     2.6320    -0.3980 C.3   1 <1>   0.2040 
  5 C       -2.2260    -1.0710     0.5090 C.3   1 <1>   0.2200 
  6 C       -2.7020     3.0810     0.0100 C.ar  1 <1>  -0.1440 
  7 C       -0.9810     3.2250    -1.8050 C.3   1 <1>  -0.1600 
  8 C       -0.1830     3.1450     0.5660 C.3   1 <1>  -0.1600 
  9 C       -3.6260    -1.3990     0.0140 C.3   1 <1>  -0.0800 
 10 C       -2.3100    -1.5080     1.9670 C.3   1 <1>   0.1200 
 11 C       -3.7720     2.7130    -0.8020 C.ar  1 <1>  -0.1500 
 12 C       -2.9780     3.8180     1.1590 C.ar  1 <1>  -0.1500 
 13 C        0.5010     3.4850    -2.1030 C.3   1 <1>   0.3430 
 14 C        1.2380     2.7400     0.1450 C.3   1 <1>   0.3430 
 15 C       -4.4750    -1.1450     1.2660 C.3   1 <1>   0.1200 
 16 C       -3.7320    -2.8560    -0.4760 C.3   1 <1>  -0.0170 
 17 O       -3.6210    -1.2490     2.3690 O.3   1 <1>  -0.5600 
 18 C       -5.0700     3.0650    -0.4810 C.ar  1 <1>  -0.1500 
 19 C       -4.2770     4.1710     1.4810 C.ar  1 <1>  -0.1500 
 20 N        1.3440     2.5380    -1.3310 N.4   1 <1>  -0.9590 
 21 C       -5.1290    -3.1710    -0.9880 C.ar  1 <1>  -0.1440 
 22 C       -5.3250     3.7950     0.6630 C.ar  1 <1>  -0.1500 
 23 C        2.7610     2.5270    -1.7950 C.3   1 <1>   0.2630 
 24 C       -6.0290    -3.9170    -0.2530 C.ar  1 <1>  -0.1500 
 25 C       -5.5700    -2.7260    -2.2180 C.ar  1 <1>  -0.1500 
 26 C       -7.2910    -4.1690    -0.7650 C.ar  1 <1>   0.1600 
 27 C       -6.8540    -3.0340    -2.6380 C.ar  1 <1>   0.1600 
 28 N       -7.7260    -3.7420    -1.9400 N.ar  1 <1>  -0.6200 
 29 H       -2.7100     0.9130     1.0310 H     1 <1>   0.3700 
 30 H       -1.4460    -1.5790    -0.0320 H     1 <1>   0.0800 
 31 H       -1.4920     4.1660    -1.9130 H     1 <1>   0.0800 
 32 H       -1.3800     2.5740    -2.5630 H     1 <1>   0.0800 
 33 H       -0.3580     2.7700     1.5590 H     1 <1>   0.0800 
 34 H       -0.2240     4.2190     0.6150 H     1 <1>   0.0800 
 35 H       -3.9200    -0.7450    -0.7880 H     1 <1>   0.0800 
 36 H       -1.6250    -0.9750     2.6030 H     1 <1>   0.0800 
 37 H       -2.1430    -2.5670     2.0610 H     1 <1>   0.0800 
 38 H       -3.6110     2.1390    -1.6980 H     1 <1>   0.1500 
 39 H       -2.2070     4.1370     1.8360 H     1 <1>   0.1500 
 40 H        0.7530     4.4950    -1.8230 H     1 <1>   0.0800 
 41 H        0.6790     3.3720    -3.1610 H     1 <1>   0.0800 
 42 H        1.5050     1.8190     0.6400 H     1 <1>   0.0800 
 43 H        1.9300     3.5020     0.4670 H     1 <1>   0.0800 
 44 H       -5.2820    -1.8470     1.3820 H     1 <1>   0.0800 
 45 H       -4.8750    -0.1450     1.2590 H     1 <1>   0.0800 
 46 H       -3.4790    -3.5380     0.3180 H     1 <1>   0.0800 
 47 H       -3.0300    -3.0170    -1.2760 H     1 <1>   0.0800 
 48 H       -5.8850     2.7720    -1.1210 H     1 <1>   0.1500 
 49 H       -4.4770     4.7400     2.3730 H     1 <1>   0.1500 
 50 H        0.9360     1.5930    -1.5130 H     1 <1>   0.4500 
 51 H       -6.3340     4.0710     0.9150 H     1 <1>   0.1500 
 52 H        3.2200     3.4880    -1.6270 H     1 <1>   0.0800 
 53 H        2.8070     2.3010    -2.8480 H     1 <1>   0.0800 
 54 H        3.3220     1.7770    -1.2600 H     1 <1>   0.0800 
 55 H       -5.7630    -4.3050     0.7140 H     1 <1>   0.1500 
 56 H       -4.9300    -2.1440    -2.8540 H     1 <1>   0.1500 
 57 H       -7.9790    -4.7510    -0.1770 H     1 <1>   0.1500 
 58 H       -7.1800    -2.6780    -3.6000 H     1 <1>   0.1500 
@<TRIPOS>BOND
  1   1   2  2   
  2   2   3  am  
  3   2   4  1   
  4   3   5  1   
  5   3  29  1   
  6   4   6  1   
  7   4   7  1   
  8   4   8  1   
  9   5   9  1   
 10   5  10  1   
 11   5  30  1   
 12   6  11  ar  
 13   6  12  ar  
 14   7  13  1   
 15   7  31  1   
 16   7  32  1   
 17   8  14  1   
 18   8  33  1   
 19   8  34  1   
 20   9  15  1   
 21   9  16  1   
 22   9  35  1   
 23  10  17  1   
 24  10  36  1   
 25  10  37  1   
 26  11  18  ar  
 27  11  38  1   
 28  12  19  ar  
 29  12  39  1   
 30  13  20  1   
 31  13  40  1   
 32  13  41  1   
 33  14  20  1   
 34  14  42  1   
 35  14  43  1   
 36  15  17  1   
 37  15  44  1   
 38  15  45  1   
 39  16  21  1   
 40  16  46  1   
 41  16  47  1   
 42  18  22  ar  
 43  18  48  1   
 44  19  22  ar  
 45  19  49  1   
 46  20  23  1   
 47  20  50  1   
 48  21  24  ar  
 49  21  25  ar  
 50  22  51  1   
 51  23  52  1   
 52  23  53  1   
 53  23  54  1   
 54  24  26  ar  
 55  24  55  1   
 56  25  27  ar  
 57  25  56  1   
 58  26  28  ar  
 59  26  57  1   
 60  27  28  ar  
 61  27  58  1   
@<TRIPOS>SUBSTRUCTURE
  1 ****   3 GROUP 4 **** **** 0

# MOE 2024.06 (io_trps.svl 2023.06)
