@<TRIPOS>MOLECULE
NONAME
51 54 1 0 0 
SMALL
USER_CHARGES


@<TRIPOS>ATOM
  1 O       -0.0080     0.4910     1.9050 O.2   1 <1>  -0.5700 
  2 C       -0.0650     1.6330     1.5130 C.2   1 <1>   0.5690 
  3 N       -1.2490     2.3290     1.5000 N.am  1 <1>  -0.6600 
  4 C        1.2200     2.2980     1.0370 C.3   1 <1>  -0.0990 
  5 C       -1.4120     3.7740     1.1810 C.3   1 <1>   0.1400 
  6 C       -2.5420     1.6630     1.8260 C.3   1 <1>   0.1400 
  7 C        2.3440     1.3150     0.6700 C.3   1 <1>   0.0630 
  8 C       -2.3170     3.9100    -0.0440 C.3   1 <1>  -0.1600 
  9 C       -3.4810     1.7800     0.6240 C.3   1 <1>  -0.1600 
 10 C        3.5810     2.0260     0.1610 C.ar  1 <1>  -0.1430 
 11 C        1.9700     0.3830    -0.5040 C.3   1 <1>  -0.1600 
 12 C       -3.6780     3.2370     0.1910 C.3   1 <1>   0.4180 
 13 C        4.0600     1.4340    -0.9820 C.ar  1 <1>  -0.1440 
 14 C        4.2260     3.1250     0.7020 C.ar  1 <1>  -0.1500 
 15 C        3.2240     0.2440    -1.3810 C.3   1 <1>  -0.0170 
 16 O       -4.3340     3.8760     1.2590 O.3   1 <1>  -0.5600 
 17 C       -4.5370     3.2850    -1.0700 C.2   1 <1>  -0.2880 
 18 C        5.1820     1.9270    -1.6220 C.ar  1 <1>  -0.1500 
 19 C        5.3510     3.6280     0.0680 C.ar  1 <1>  -0.1500 
 20 C       -5.0200     5.0650     0.9800 C.3   1 <1>   0.1200 
 21 C       -5.6730     3.9790    -1.1770 C.2   1 <1>  -0.2760 
 22 C        5.8270     3.0320    -1.0910 C.ar  1 <1>  -0.1500 
 23 C       -6.1660     4.8100    -0.0080 C.3   1 <1>  -0.0220 
 24 C       -6.5550     4.0020    -2.4130 C.3   1 <1>  -0.1020 
 25 H        1.5600     2.9460     1.8210 H     1 <1>   0.0800 
 26 H        1.0120     2.8950     0.1690 H     1 <1>   0.0800 
 27 H       -0.4670     4.2510     0.9960 H     1 <1>   0.0800 
 28 H       -1.8670     4.2670     2.0240 H     1 <1>   0.0800 
 29 H       -2.9800     2.1420     2.6850 H     1 <1>   0.0800 
 30 H       -2.3900     0.6240     2.0660 H     1 <1>   0.0800 
 31 H        2.6190     0.7240     1.5280 H     1 <1>   0.0800 
 32 H       -1.8330     3.4440    -0.8820 H     1 <1>   0.0800 
 33 H       -2.4540     4.9450    -0.2920 H     1 <1>   0.0800 
 34 H       -4.4370     1.3510     0.8640 H     1 <1>   0.0800 
 35 H       -3.0660     1.2130    -0.1890 H     1 <1>   0.0800 
 36 H        1.1920     0.8350    -1.0940 H     1 <1>   0.0800 
 37 H        1.6230    -0.5720    -0.1500 H     1 <1>   0.0800 
 38 H        3.8640     3.5860     1.6030 H     1 <1>   0.1500 
 39 H        2.9800     0.2640    -2.4280 H     1 <1>   0.0800 
 40 H        3.7550    -0.6610    -1.1440 H     1 <1>   0.0800 
 41 H       -4.1360     2.6900    -1.8690 H     1 <1>   0.1500 
 42 H        5.5490     1.4580    -2.5170 H     1 <1>   0.1500 
 43 H        5.8590     4.4830     0.4780 H     1 <1>   0.1500 
 44 H       -4.3250     5.7770     0.5730 H     1 <1>   0.0800 
 45 H       -5.4050     5.4490     1.9080 H     1 <1>   0.0800 
 46 H        6.7010     3.4270    -1.5780 H     1 <1>   0.1500 
 47 H       -6.5370     5.7590    -0.3530 H     1 <1>   0.0800 
 48 H       -6.9690     4.2970     0.4920 H     1 <1>   0.0800 
 49 H       -7.5380     3.6380    -2.1710 H     1 <1>   0.0800 
 50 H       -6.1400     3.3760    -3.1830 H     1 <1>   0.0800 
 51 H       -6.6370     5.0040    -2.7940 H     1 <1>   0.0800 
@<TRIPOS>BOND
  1   1   2  2   
  2   2   3  am  
  3   2   4  1   
  4   3   5  1   
  5   3   6  1   
  6   4   7  1   
  7   4  25  1   
  8   4  26  1   
  9   5   8  1   
 10   5  27  1   
 11   5  28  1   
 12   6   9  1   
 13   6  29  1   
 14   6  30  1   
 15   7  10  1   
 16   7  11  1   
 17   7  31  1   
 18   8  12  1   
 19   8  32  1   
 20   8  33  1   
 21   9  12  1   
 22   9  34  1   
 23   9  35  1   
 24  10  13  ar  
 25  10  14  ar  
 26  11  15  1   
 27  11  36  1   
 28  11  37  1   
 29  12  16  1   
 30  12  17  1   
 31  13  15  1   
 32  13  18  ar  
 33  14  19  ar  
 34  14  38  1   
 35  15  39  1   
 36  15  40  1   
 37  16  20  1   
 38  17  21  2   
 39  17  41  1   
 40  18  22  ar  
 41  18  42  1   
 42  19  22  ar  
 43  19  43  1   
 44  20  23  1   
 45  20  44  1   
 46  20  45  1   
 47  21  23  1   
 48  21  24  1   
 49  22  46  1   
 50  23  47  1   
 51  23  48  1   
 52  24  49  1   
 53  24  50  1   
 54  24  51  1   
@<TRIPOS>SUBSTRUCTURE
  1 ****   3 GROUP 4 **** **** 0

# MOE 2024.06 (io_trps.svl 2023.06)
