@<TRIPOS>MOLECULE
NONAME
43 47 1 0 0 
SMALL
USER_CHARGES


@<TRIPOS>ATOM
  1 S       -1.0830     0.5630     0.7780 S.3   1 <1>  -0.0800 
  2 C       -0.5240     2.0510     0.0440 C.2   1 <1>  -0.1400 
  3 C        0.4510     0.3780     1.6160 C.2   1 <1>  -0.1100 
  4 C        0.7280     2.3510     0.4110 C.2   1 <1>  -0.1810 
  5 C       -1.3830     2.8720    -0.8790 C.3   1 <1>   0.0200 
  6 C        1.2880     1.3930     1.3210 C.2   1 <1>  -0.1500 
  7 C        1.4280     3.6030    -0.1250 C.3   1 <1>   0.4610 
  8 C       -0.7540     4.2720    -0.9600 C.3   1 <1>   0.1200 
  9 O        0.6400     4.1920    -1.1450 O.3   1 <1>  -0.5600 
 10 C        1.6570     4.6280     0.9950 C.3   1 <1>  -0.1600 
 11 C        2.7580     3.2270    -0.7880 C.3   1 <1>  -0.1600 
 12 C        2.4340     5.8430     0.4940 C.3   1 <1>   0.2090 
 13 C        3.5080     4.4670    -1.2680 C.3   1 <1>   0.2090 
 14 N        3.7100     5.3770    -0.1120 N.pl3 1 <1>  -0.8380 
 15 C        4.8380     6.1820    -0.0610 C.ar  1 <1>   0.4100 
 16 N        4.6650     7.4690     0.0570 N.ar  1 <1>  -0.6200 
 17 C        6.1360     5.5970    -0.1400 C.ar  1 <1>   0.1600 
 18 C        5.8130     8.1900     0.0760 C.ar  1 <1>   0.3100 
 19 N        7.2570     6.2470    -0.1290 N.ar  1 <1>  -0.6200 
 20 C        7.0970     7.5930    -0.0190 C.ar  1 <1>   0.3100 
 21 C        5.7340     9.5870     0.1910 C.ar  1 <1>  -0.1500 
 22 C        8.2310     8.4160     0.0050 C.ar  1 <1>  -0.1500 
 23 C        6.8590    10.3700     0.2130 C.ar  1 <1>  -0.1500 
 24 C        8.1210     9.7790     0.1180 C.ar  1 <1>  -0.1500 
 25 H        0.5640    -0.4830     2.2500 H     1 <1>   0.1500 
 26 H       -2.3850     2.9450    -0.4970 H     1 <1>   0.0800 
 27 H       -1.4140     2.4190    -1.8530 H     1 <1>   0.0800 
 28 H        2.2840     1.5070     1.7110 H     1 <1>   0.1500 
 29 H       -0.9480     4.8240    -0.0570 H     1 <1>   0.0800 
 30 H       -1.1650     4.8170    -1.7910 H     1 <1>   0.0800 
 31 H        2.2260     4.1680     1.7820 H     1 <1>   0.0800 
 32 H        0.7210     4.9350     1.4190 H     1 <1>   0.0800 
 33 H        2.5660     2.5680    -1.6150 H     1 <1>   0.0800 
 34 H        3.3810     2.7040    -0.0880 H     1 <1>   0.0800 
 35 H        2.6370     6.5060     1.3180 H     1 <1>   0.0800 
 36 H        1.8630     6.3800    -0.2440 H     1 <1>   0.0800 
 37 H        2.9340     4.9770    -2.0250 H     1 <1>   0.0800 
 38 H        4.4510     4.1820    -1.7000 H     1 <1>   0.0800 
 39 H        6.1680     4.5270    -0.2060 H     1 <1>   0.1500 
 40 H        4.7540    10.0230     0.2620 H     1 <1>   0.1500 
 41 H        9.1930     7.9430    -0.0680 H     1 <1>   0.1500 
 42 H        6.7830    11.4410     0.3020 H     1 <1>   0.1500 
 43 H        9.0000    10.4020     0.1360 H     1 <1>   0.1500 
@<TRIPOS>BOND
  1   1   2  1   
  2   1   3  1   
  3   2   4  2   
  4   2   5  1   
  5   3   6  2   
  6   3  25  1   
  7   4   6  1   
  8   4   7  1   
  9   5   8  1   
 10   5  26  1   
 11   5  27  1   
 12   6  28  1   
 13   7   9  1   
 14   7  10  1   
 15   7  11  1   
 16   8   9  1   
 17   8  29  1   
 18   8  30  1   
 19  10  12  1   
 20  10  31  1   
 21  10  32  1   
 22  11  13  1   
 23  11  33  1   
 24  11  34  1   
 25  12  14  1   
 26  12  35  1   
 27  12  36  1   
 28  13  14  1   
 29  13  37  1   
 30  13  38  1   
 31  14  15  1   
 32  15  16  ar  
 33  15  17  ar  
 34  16  18  ar  
 35  17  19  ar  
 36  17  39  1   
 37  18  20  ar  
 38  18  21  ar  
 39  19  20  ar  
 40  20  22  ar  
 41  21  23  ar  
 42  21  40  1   
 43  22  24  ar  
 44  22  41  1   
 45  23  24  ar  
 46  23  42  1   
 47  24  43  1   
@<TRIPOS>SUBSTRUCTURE
  1 ****  14 GROUP 4 **** **** 0

# MOE 2024.06 (io_trps.svl 2023.06)
