@<TRIPOS>MOLECULE
NONAME
56 58 1 0 0 
SMALL
USER_CHARGES


@<TRIPOS>ATOM
  1 N        0.8860    -0.7600    -2.3280 N.ar  1 <1>  -0.6200 
  2 C        1.5490    -0.9700    -1.2050 C.ar  1 <1>   0.4100 
  3 C       -0.2910    -1.3400    -2.4290 C.ar  1 <1>   0.4760 
  4 N        2.7740    -0.3420    -1.0970 N.pl3 1 <1>  -0.8380 
  5 C        1.0320    -1.8040    -0.2180 C.ar  1 <1>  -0.1440 
  6 N       -0.8920    -2.1190    -1.5530 N.ar  1 <1>  -0.6200 
  7 C       -1.0490    -1.0900    -3.7100 C.3   1 <1>  -0.0970 
  8 C        3.0660     0.7490    -0.1260 C.3   1 <1>   0.4330 
  9 C        3.6800    -0.2570    -2.2600 C.3   1 <1>   0.2090 
 10 C       -0.2060    -2.3450    -0.4520 C.ar  1 <1>   0.1600 
 11 C        1.7760    -2.1720     1.0620 C.3   1 <1>  -0.0160 
 12 C        1.8860     1.6780     0.1820 C.ar  1 <1>  -0.1430 
 13 C        4.2260     1.5270    -0.7520 C.3   1 <1>  -0.1600 
 14 C        4.8540     0.5720    -1.7630 C.3   1 <1>  -0.1600 
 15 C        1.1340    -1.5160     2.2910 C.3   1 <1>  -0.1600 
 16 C        1.6600     2.0980     1.4840 C.ar  1 <1>  -0.1500 
 17 C        1.0360     2.1270    -0.8180 C.ar  1 <1>  -0.1500 
 18 C        1.9470    -1.7870     3.5620 C.3   1 <1>  -0.2400 
 19 C        0.6000     2.9370     1.7840 C.ar  1 <1>  -0.1500 
 20 C       -0.0270     2.9610    -0.5250 C.ar  1 <1>  -0.1500 
 21 C       -0.2490     3.3750     0.7790 C.ar  1 <1>  -0.1430 
 22 C       -1.4100     4.2960     1.0970 C.3   1 <1>   0.4860 
 23 N       -0.8840     5.6790     1.2930 N.4   1 <1>  -0.9590 
 24 C       -1.9310     6.5940     1.8370 C.3   1 <1>   0.2630 
 25 C       -0.2860     6.2210     0.0320 C.3   1 <1>   0.2630 
 26 H       -0.6050    -0.2810    -4.2590 H     1 <1>   0.0800 
 27 H       -2.0690    -0.8420    -3.4830 H     1 <1>   0.0800 
 28 H       -1.0280    -1.9790    -4.3120 H     1 <1>   0.0800 
 29 H        3.4120     0.2920     0.7840 H     1 <1>   0.0800 
 30 H        3.1810     0.2480    -3.0700 H     1 <1>   0.0800 
 31 H        3.9860    -1.2390    -2.5800 H     1 <1>   0.0800 
 32 H       -0.6550    -2.9940     0.2800 H     1 <1>   0.1500 
 33 H        2.8100    -1.8900     0.9890 H     1 <1>   0.0800 
 34 H        1.7550    -3.2410     1.1800 H     1 <1>   0.0800 
 35 H        4.9270     1.8530    -0.0060 H     1 <1>   0.0800 
 36 H        3.8430     2.3890    -1.2680 H     1 <1>   0.0800 
 37 H        5.3480     1.0870    -2.5670 H     1 <1>   0.0800 
 38 H        5.5570    -0.0790    -1.2730 H     1 <1>   0.0800 
 39 H        0.1350    -1.8950     2.4210 H     1 <1>   0.0800 
 40 H        1.0610    -0.4570     2.1320 H     1 <1>   0.0800 
 41 H        2.3110     1.7660     2.2760 H     1 <1>   0.1500 
 42 H        1.2010     1.8110    -1.8350 H     1 <1>   0.1500 
 43 H        2.0150    -2.8440     3.7470 H     1 <1>   0.0800 
 44 H        1.4710    -1.3220     4.4080 H     1 <1>   0.0800 
 45 H        2.9410    -1.3860     3.4660 H     1 <1>   0.0800 
 46 H        0.4480     3.2310     2.8080 H     1 <1>   0.1500 
 47 H       -0.6730     3.2710    -1.3290 H     1 <1>   0.1500 
 48 H       -1.8970     3.9520     1.9950 H     1 <1>   0.0800 
 49 H       -2.1260     4.2780     0.2910 H     1 <1>   0.0800 
 50 H       -0.1190     5.5890     1.9780 H     1 <1>   0.4500 
 51 H       -2.7450     6.6920     1.1380 H     1 <1>   0.0800 
 52 H       -1.5150     7.5720     2.0190 H     1 <1>   0.0800 
 53 H       -2.3190     6.2100     2.7670 H     1 <1>   0.0800 
 54 H       -1.0340     6.2840    -0.7420 H     1 <1>   0.0800 
 55 H        0.5110     5.5800    -0.3100 H     1 <1>   0.0800 
 56 H        0.1190     7.2060     0.2020 H     1 <1>   0.0800 
@<TRIPOS>BOND
  1   1   2  ar  
  2   1   3  ar  
  3   2   4  1   
  4   2   5  ar  
  5   3   6  ar  
  6   3   7  1   
  7   4   8  1   
  8   4   9  1   
  9   5  10  ar  
 10   5  11  1   
 11   6  10  ar  
 12   7  26  1   
 13   7  27  1   
 14   7  28  1   
 15   8  12  1   
 16   8  13  1   
 17   8  29  1   
 18   9  14  1   
 19   9  30  1   
 20   9  31  1   
 21  10  32  1   
 22  11  15  1   
 23  11  33  1   
 24  11  34  1   
 25  12  16  ar  
 26  12  17  ar  
 27  13  14  1   
 28  13  35  1   
 29  13  36  1   
 30  14  37  1   
 31  14  38  1   
 32  15  18  1   
 33  15  39  1   
 34  15  40  1   
 35  16  19  ar  
 36  16  41  1   
 37  17  20  ar  
 38  17  42  1   
 39  18  43  1   
 40  18  44  1   
 41  18  45  1   
 42  19  21  ar  
 43  19  46  1   
 44  20  21  ar  
 45  20  47  1   
 46  21  22  1   
 47  22  23  1   
 48  22  48  1   
 49  22  49  1   
 50  23  24  1   
 51  23  25  1   
 52  23  50  1   
 53  24  51  1   
 54  24  52  1   
 55  24  53  1   
 56  25  54  1   
 57  25  55  1   
 58  25  56  1   
@<TRIPOS>SUBSTRUCTURE
  1 ****  12 GROUP 4 **** **** 0

# MOE 2024.06 (io_trps.svl 2023.06)
