@<TRIPOS>MOLECULE
NONAME
33 34 1 0 0 
SMALL
USER_CHARGES


@<TRIPOS>ATOM
  1 O        0.9840    -0.7990     1.6730 O.3   1 <1>  -0.0190 
  2 N        0.8590    -2.0540     1.9800 N.2   1 <1>  -0.4100 
  3 C        1.1790    -0.8060     0.3780 C.2   1 <1>   0.2980 
  4 C        0.9660    -2.7200     0.8980 C.2   1 <1>   0.3350 
  5 N        1.1950    -1.9580    -0.1680 N.2   1 <1>  -0.5650 
  6 C        1.3920     0.5210    -0.3350 C.3   1 <1>   0.3000 
  7 C        0.8850    -4.2470     0.7920 C.3   1 <1>   0.2910 
  8 O        0.2740     1.3510    -0.1880 O.3   1 <1>  -0.5600 
  9 N       -0.4780    -4.7990     0.5540 N.3   1 <1>  -0.8100 
 10 C        0.3830     2.5780    -0.8330 C.3   1 <1>   0.0400 
 11 C       -0.4400    -6.2850     0.5490 C.3   1 <1>   0.2900 
 12 C       -1.0900    -4.2450    -0.6660 C.3   1 <1>   0.0300 
 13 C       -1.8040    -6.9710     0.6200 C.2   1 <1>   0.2980 
 14 O       -2.5810    -7.0200    -0.4170 O.3   1 <1>  -0.2800 
 15 N       -2.3060    -7.5850     1.6250 N.2   1 <1>  -0.3380 
 16 C       -3.6070    -7.6840     0.0020 C.2   1 <1>   0.2980 
 17 N       -3.4890    -8.0490     1.2200 N.2   1 <1>  -0.3380 
 18 C       -4.7660    -7.9470    -0.9300 C.3   1 <1>  -0.0600 
 19 H        1.5510     0.3430    -1.3840 H     1 <1>   0.0800 
 20 H        2.2480     1.0200     0.0830 H     1 <1>   0.0800 
 21 H        1.2610    -4.6480     1.7170 H     1 <1>   0.0800 
 22 H        1.5440    -4.5630     0.0030 H     1 <1>   0.0800 
 23 H       -0.5230     3.1300    -0.6540 H     1 <1>   0.0800 
 24 H        0.5050     2.4170    -1.8910 H     1 <1>   0.0800 
 25 H        1.2220     3.1200    -0.4310 H     1 <1>   0.0800 
 26 H        0.1170    -6.6170     1.4070 H     1 <1>   0.0800 
 27 H        0.0730    -6.6310    -0.3310 H     1 <1>   0.0800 
 28 H       -1.1570    -3.1730    -0.5940 H     1 <1>   0.0800 
 29 H       -2.0920    -4.6160    -0.7840 H     1 <1>   0.0800 
 30 H       -0.5100    -4.5030    -1.5350 H     1 <1>   0.0800 
 31 H       -4.4260    -8.5050    -1.7820 H     1 <1>   0.0800 
 32 H       -5.1830    -7.0130    -1.2580 H     1 <1>   0.0800 
 33 H       -5.5240    -8.5120    -0.4180 H     1 <1>   0.0800 
@<TRIPOS>BOND
  1   1   2  1   
  2   1   3  1   
  3   2   4  2   
  4   3   5  2   
  5   3   6  1   
  6   4   5  1   
  7   4   7  1   
  8   6   8  1   
  9   6  19  1   
 10   6  20  1   
 11   7   9  1   
 12   7  21  1   
 13   7  22  1   
 14   8  10  1   
 15   9  11  1   
 16   9  12  1   
 17  10  23  1   
 18  10  24  1   
 19  10  25  1   
 20  11  13  1   
 21  11  26  1   
 22  11  27  1   
 23  12  28  1   
 24  12  29  1   
 25  12  30  1   
 26  13  14  1   
 27  13  15  2   
 28  14  16  1   
 29  15  17  1   
 30  16  17  2   
 31  16  18  1   
 32  18  31  1   
 33  18  32  1   
 34  18  33  1   
@<TRIPOS>SUBSTRUCTURE
  1 ****   9 GROUP 4 **** **** 0

# MOE 2024.06 (io_trps.svl 2023.06)
