@<TRIPOS>MOLECULE
NONAME
44 46 1 0 0 
SMALL
USER_CHARGES


@<TRIPOS>ATOM
  1 S       -2.6580     0.6060     1.6860 S.3   1 <1>  -0.0800 
  2 C       -2.9970    -0.9740     1.0010 C.2   1 <1>  -0.1100 
  3 C       -2.4120     1.2880     0.0900 C.2   1 <1>  -0.1100 
  4 C       -2.9210    -0.9440    -0.3440 C.2   1 <1>  -0.1810 
  5 C       -2.5850     0.3510    -0.8600 C.2   1 <1>  -0.1500 
  6 C       -3.1500    -2.1100    -1.3020 C.3   1 <1>   0.0820 
  7 C       -3.6070    -3.4060    -0.6380 C.2   1 <1>   0.5690 
  8 O       -2.8720    -4.3640    -0.7220 O.2   1 <1>  -0.5700 
  9 N       -4.8230    -3.5110    -0.0060 N.am  1 <1>  -0.6600 
 10 C       -5.2340    -4.7730     0.6810 C.3   1 <1>   0.1400 
 11 C       -5.9070    -2.4850    -0.0350 C.3   1 <1>   0.1400 
 12 C       -6.4220    -5.3980    -0.0860 C.3   1 <1>   0.4230 
 13 C       -7.1180    -3.0790    -0.7700 C.3   1 <1>  -0.1600 
 14 N       -6.8700    -6.7320     0.4400 N.4   1 <1>  -0.9590 
 15 C       -7.6070    -4.4070    -0.1210 C.3   1 <1>  -0.1060 
 16 C       -7.9240    -7.3420    -0.4100 C.3   1 <1>   0.3430 
 17 C       -5.7800    -7.6880     0.7710 C.3   1 <1>   0.2630 
 18 C       -8.0900    -4.1610     1.3220 C.2   1 <1>   0.9060 
 19 C       -8.7460    -4.9970    -0.9860 C.3   1 <1>  -0.1600 
 20 C       -9.1330    -6.4090    -0.5190 C.3   1 <1>  -0.1600 
 21 O       -7.9860    -5.0770     2.1550 O.co2 1 <1>  -0.9000 
 22 O       -8.5590    -3.0660     1.6250 O.co2 1 <1>  -0.9000 
 23 H       -3.2210    -1.7680     1.6930 H     1 <1>   0.1500 
 24 H       -2.1590     2.3320     0.0330 H     1 <1>   0.1500 
 25 H       -2.4870     0.5210    -1.9180 H     1 <1>   0.1500 
 26 H       -2.2280    -2.3050    -1.8200 H     1 <1>   0.0800 
 27 H       -3.8780    -1.8320    -2.0390 H     1 <1>   0.0800 
 28 H       -4.4060    -5.4560     0.7060 H     1 <1>   0.0800 
 29 H       -5.5110    -4.5450     1.6960 H     1 <1>   0.0800 
 30 H       -6.1780    -2.2220     0.9760 H     1 <1>   0.0800 
 31 H       -5.5880    -1.5850    -0.5280 H     1 <1>   0.0800 
 32 H       -6.0850    -5.5440    -1.0980 H     1 <1>   0.0800 
 33 H       -7.9160    -2.3550    -0.7500 H     1 <1>   0.0800 
 34 H       -6.8530    -3.2360    -1.8000 H     1 <1>   0.0800 
 35 H       -7.3510    -6.4350     1.3330 H     1 <1>   0.4500 
 36 H       -7.5270    -7.5330    -1.3940 H     1 <1>   0.0800 
 37 H       -8.2410    -8.2790     0.0180 H     1 <1>   0.0800 
 38 H       -5.2020    -7.9160    -0.1090 H     1 <1>   0.0800 
 39 H       -6.1960    -8.6010     1.1650 H     1 <1>   0.0800 
 40 H       -5.1290    -7.2650     1.5180 H     1 <1>   0.0800 
 41 H       -9.6080    -4.3520    -0.9270 H     1 <1>   0.0800 
 42 H       -8.4380    -5.0410    -2.0170 H     1 <1>   0.0800 
 43 H       -9.8440    -6.8310    -1.2070 H     1 <1>   0.0800 
 44 H       -9.6180    -6.3530     0.4420 H     1 <1>   0.0800 
@<TRIPOS>BOND
  1   1   2  1   
  2   1   3  1   
  3   2   4  2   
  4   2  23  1   
  5   3   5  2   
  6   3  24  1   
  7   4   5  1   
  8   4   6  1   
  9   5  25  1   
 10   6   7  1   
 11   6  26  1   
 12   6  27  1   
 13   7   8  2   
 14   7   9  am  
 15   9  10  1   
 16   9  11  1   
 17  10  12  1   
 18  10  28  1   
 19  10  29  1   
 20  11  13  1   
 21  11  30  1   
 22  11  31  1   
 23  12  14  1   
 24  12  15  1   
 25  12  32  1   
 26  13  15  1   
 27  13  33  1   
 28  13  34  1   
 29  14  16  1   
 30  14  17  1   
 31  14  35  1   
 32  15  18  1   
 33  15  19  1   
 34  16  20  1   
 35  16  36  1   
 36  16  37  1   
 37  17  38  1   
 38  17  39  1   
 39  17  40  1   
 40  18  21  ar  
 41  18  22  ar  
 42  19  20  1   
 43  19  41  1   
 44  19  42  1   
 45  20  43  1   
 46  20  44  1   
@<TRIPOS>SUBSTRUCTURE
  1 ****   9 GROUP 4 **** **** 0

# MOE 2024.06 (io_trps.svl 2023.06)
