@<TRIPOS>MOLECULE
NONAME
42 43 1 0 0 
SMALL
USER_CHARGES


@<TRIPOS>ATOM
  1 O       -0.4800     0.2680     0.5510 O.2   1 <1>  -0.5700 
  2 C       -1.4290    -0.4790     0.6980 C.2   1 <1>   0.7800 
  3 O       -1.2860    -1.7550     0.3580 O.3   1 <1>  -0.4300 
  4 N       -2.6450    -0.0360     1.1680 N.am  1 <1>  -0.6600 
  5 C       -0.0610    -2.2380    -0.1400 C.3   1 <1>   0.2640 
  6 C       -3.8840    -0.8240     1.4540 C.3   1 <1>   0.2200 
  7 C       -2.9170     1.4310     1.2010 C.3   1 <1>   0.1400 
  8 C       -0.2160    -3.7200    -0.4390 C.ar  1 <1>  -0.1440 
  9 C       -4.8870    -0.5600     0.3240 C.3   1 <1>  -0.1600 
 10 C       -3.6900    -2.3230     1.6960 C.3   1 <1>  -0.2400 
 11 C       -3.9030     1.7820     0.0760 C.3   1 <1>  -0.0190 
 12 C       -1.0480    -4.1370    -1.4670 C.ar  1 <1>  -0.1500 
 13 C        0.4670    -4.6670     0.3090 C.ar  1 <1>  -0.1500 
 14 C       -5.1950     0.9430     0.1870 C.3   1 <1>  -0.1600 
 15 C       -4.2120     3.2710     0.0830 C.2   1 <1>   0.6590 
 16 C       -1.1920    -5.4840    -1.7490 C.ar  1 <1>  -0.1500 
 17 C        0.3240    -6.0150     0.0280 C.ar  1 <1>  -0.1500 
 18 O       -4.2480     3.9140     1.1010 O.2   1 <1>  -0.5700 
 19 O       -4.4530     3.8160    -1.1030 O.3   1 <1>  -0.4300 
 20 C       -0.5050    -6.4250    -1.0010 C.ar  1 <1>  -0.1500 
 21 C       -4.7600     5.1880    -1.2410 C.3   1 <1>   0.0400 
 22 H        0.1820    -1.6940    -1.0360 H     1 <1>   0.0800 
 23 H        0.6990    -2.0660     0.6020 H     1 <1>   0.0800 
 24 H       -4.3020    -0.4280     2.3650 H     1 <1>   0.0800 
 25 H       -3.3360     1.6930     2.1580 H     1 <1>   0.0800 
 26 H       -2.0110     1.9990     1.0780 H     1 <1>   0.0800 
 27 H       -4.4830    -0.9370    -0.6000 H     1 <1>   0.0800 
 28 H       -5.8010    -1.0910     0.5230 H     1 <1>   0.0800 
 29 H       -3.4610    -2.8400     0.7830 H     1 <1>   0.0800 
 30 H       -4.5970    -2.7430     2.0900 H     1 <1>   0.0800 
 31 H       -2.9060    -2.4870     2.4140 H     1 <1>   0.0800 
 32 H       -3.4210     1.5580    -0.8580 H     1 <1>   0.0800 
 33 H       -1.5890    -3.4100    -2.0480 H     1 <1>   0.1500 
 34 H        1.1120    -4.3610     1.1130 H     1 <1>   0.1500 
 35 H       -5.7490     1.2660     1.0530 H     1 <1>   0.0800 
 36 H       -5.8120     1.1100    -0.6790 H     1 <1>   0.0800 
 37 H       -1.8400    -5.8010    -2.5480 H     1 <1>   0.1500 
 38 H        0.8570    -6.7450     0.6120 H     1 <1>   0.1500 
 39 H       -0.6170    -7.4720    -1.2190 H     1 <1>   0.1500 
 40 H       -4.9140     5.4000    -2.2830 H     1 <1>   0.0800 
 41 H       -3.9360     5.7680    -0.8610 H     1 <1>   0.0800 
 42 H       -5.6540     5.4020    -0.6810 H     1 <1>   0.0800 
@<TRIPOS>BOND
  1   1   2  2   
  2   2   3  1   
  3   2   4  am  
  4   3   5  1   
  5   4   6  1   
  6   4   7  1   
  7   5   8  1   
  8   5  22  1   
  9   5  23  1   
 10   6   9  1   
 11   6  10  1   
 12   6  24  1   
 13   7  11  1   
 14   7  25  1   
 15   7  26  1   
 16   8  12  ar  
 17   8  13  ar  
 18   9  14  1   
 19   9  27  1   
 20   9  28  1   
 21  10  29  1   
 22  10  30  1   
 23  10  31  1   
 24  11  14  1   
 25  11  15  1   
 26  11  32  1   
 27  12  16  ar  
 28  12  33  1   
 29  13  17  ar  
 30  13  34  1   
 31  14  35  1   
 32  14  36  1   
 33  15  18  2   
 34  15  19  1   
 35  16  20  ar  
 36  16  37  1   
 37  17  20  ar  
 38  17  38  1   
 39  19  21  1   
 40  20  39  1   
 41  21  40  1   
 42  21  41  1   
 43  21  42  1   
@<TRIPOS>SUBSTRUCTURE
  1 ****   2 GROUP 4 **** **** 0

# MOE 2024.06 (io_trps.svl 2023.06)
