@<TRIPOS>MOLECULE
NONAME
52 54 1 0 0 
SMALL
USER_CHARGES


@<TRIPOS>ATOM
  1 O       -0.7670     0.8450    -1.9420 O.2   1 <1>  -0.5700 
  2 C       -1.5900     0.9390    -1.0490 C.2   1 <1>   0.6900 
  3 N       -2.7840     0.2710    -1.1290 N.am  1 <1>  -0.6600 
  4 N       -1.3380     1.6810     0.0600 N.am  1 <1>  -0.7300 
  5 C       -4.0020     0.6090    -0.3480 C.3   1 <1>   0.1400 
  6 C       -2.9890    -0.8410    -2.0960 C.3   1 <1>   0.1400 
  7 C       -0.1360     2.4330     0.4250 C.3   1 <1>   0.3000 
  8 C       -4.4300    -0.6180     0.4600 C.3   1 <1>  -0.1600 
  9 C       -3.4190    -2.0960    -1.3300 C.3   1 <1>  -0.1600 
 10 C       -0.4260     3.0750     1.7810 C.3   1 <1>  -0.2400 
 11 C        0.1320     3.5260    -0.6100 C.3   1 <1>  -0.2400 
 12 C        1.0510     1.4780     0.5540 C.3   1 <1>  -0.2400 
 13 C       -4.6550    -1.8480    -0.4450 C.3   1 <1>   0.4240 
 14 O       -5.6610    -1.4920    -1.3680 O.3   1 <1>  -0.5600 
 15 C       -5.0430    -3.1210     0.3630 C.ar  1 <1>  -0.1430 
 16 C       -6.9870    -1.6340    -0.9760 C.3   1 <1>   0.1200 
 17 C       -4.1790    -3.7020     1.3020 C.ar  1 <1>   0.0820 
 18 C       -6.2870    -3.7190     0.1620 C.ar  1 <1>  -0.1430 
 19 C       -7.2730    -3.1190    -0.8190 C.3   1 <1>  -0.0160 
 20 O       -2.9700    -3.1240     1.5330 O.3   1 <1>  -0.3620 
 21 C       -4.5610    -4.8510     1.9920 C.ar  1 <1>  -0.1500 
 22 C       -6.6540    -4.8630     0.8500 C.ar  1 <1>  -0.1500 
 23 C       -1.9530    -3.7560     2.2780 C.3   1 <1>   0.0400 
 24 C       -5.7920    -5.4310     1.7640 C.ar  1 <1>  -0.1500 
 25 H       -1.9700     1.5190     0.8330 H     1 <1>   0.3700 
 26 H       -4.7860     0.8890    -1.0310 H     1 <1>   0.0800 
 27 H       -3.8270     1.4430     0.3070 H     1 <1>   0.0800 
 28 H       -2.0820    -1.0450    -2.6390 H     1 <1>   0.0800 
 29 H       -3.7470    -0.5570    -2.8050 H     1 <1>   0.0800 
 30 H       -5.3210    -0.4040     1.0170 H     1 <1>   0.0800 
 31 H       -3.6580    -0.8200     1.1760 H     1 <1>   0.0800 
 32 H       -2.5830    -2.4140    -0.7410 H     1 <1>   0.0800 
 33 H       -3.6380    -2.8870    -2.0230 H     1 <1>   0.0800 
 34 H       -1.2710     3.7360     1.7110 H     1 <1>   0.0800 
 35 H        0.4230     3.6500     2.1040 H     1 <1>   0.0800 
 36 H       -0.6220     2.3220     2.5230 H     1 <1>   0.0800 
 37 H       -0.7330     4.1530    -0.7250 H     1 <1>   0.0800 
 38 H        0.3770     3.0940    -1.5630 H     1 <1>   0.0800 
 39 H        0.9600     4.1360    -0.3000 H     1 <1>   0.0800 
 40 H        0.8290     0.6920     1.2520 H     1 <1>   0.0800 
 41 H        1.9180     2.0100     0.8990 H     1 <1>   0.0800 
 42 H        1.2880     1.0410    -0.3990 H     1 <1>   0.0800 
 43 H       -7.6070    -1.2090    -1.7460 H     1 <1>   0.0800 
 44 H       -7.1480    -1.1050    -0.0550 H     1 <1>   0.0800 
 45 H       -7.1820    -3.6070    -1.7730 H     1 <1>   0.0800 
 46 H       -8.2800    -3.2480    -0.4650 H     1 <1>   0.0800 
 47 H       -3.9170    -5.3110     2.7150 H     1 <1>   0.1500 
 48 H       -7.6150    -5.3170     0.6780 H     1 <1>   0.1500 
 49 H       -1.0700    -3.1450     2.2210 H     1 <1>   0.0800 
 50 H       -1.7560    -4.7230     1.8500 H     1 <1>   0.0800 
 51 H       -2.2710    -3.8430     3.3020 H     1 <1>   0.0800 
 52 H       -6.0800    -6.3200     2.2980 H     1 <1>   0.1500 
@<TRIPOS>BOND
  1   1   2  2   
  2   2   3  am  
  3   2   4  am  
  4   3   5  1   
  5   3   6  1   
  6   4   7  1   
  7   4  25  1   
  8   5   8  1   
  9   5  26  1   
 10   5  27  1   
 11   6   9  1   
 12   6  28  1   
 13   6  29  1   
 14   7  10  1   
 15   7  11  1   
 16   7  12  1   
 17   8  13  1   
 18   8  30  1   
 19   8  31  1   
 20   9  13  1   
 21   9  32  1   
 22   9  33  1   
 23  10  34  1   
 24  10  35  1   
 25  10  36  1   
 26  11  37  1   
 27  11  38  1   
 28  11  39  1   
 29  12  40  1   
 30  12  41  1   
 31  12  42  1   
 32  13  14  1   
 33  13  15  1   
 34  14  16  1   
 35  15  17  ar  
 36  15  18  ar  
 37  16  19  1   
 38  16  43  1   
 39  16  44  1   
 40  17  20  1   
 41  17  21  ar  
 42  18  19  1   
 43  18  22  ar  
 44  19  45  1   
 45  19  46  1   
 46  20  23  1   
 47  21  24  ar  
 48  21  47  1   
 49  22  24  ar  
 50  22  48  1   
 51  23  49  1   
 52  23  50  1   
 53  23  51  1   
 54  24  52  1   
@<TRIPOS>SUBSTRUCTURE
  1 ****   8 GROUP 4 **** **** 0

# MOE 2024.06 (io_trps.svl 2023.06)
