@<TRIPOS>MOLECULE
NONAME
40 42 1 0 0 
SMALL
USER_CHARGES


@<TRIPOS>ATOM
  1 CL      -1.5870    -3.7320    -3.4390 Cl    1 <1>  -0.1770 
  2 C       -2.2200    -3.2490    -1.8880 C.ar  1 <1>   0.1770 
  3 C       -2.4730    -4.2190    -0.9370 C.ar  1 <1>  -0.1500 
  4 C       -2.4620    -1.9130    -1.6340 C.ar  1 <1>  -0.1500 
  5 C       -2.9830    -3.8500     0.3010 C.ar  1 <1>  -0.1440 
  6 C       -2.9670    -1.5430    -0.3990 C.ar  1 <1>  -0.1500 
  7 C       -3.2250    -2.5070     0.5630 C.ar  1 <1>  -0.1500 
  8 C       -3.2790    -4.9070     1.3460 C.3   1 <1>   0.4870 
  9 N       -4.4420    -5.6970     0.8780 N.4   1 <1>  -0.9590 
 10 C       -5.7220    -4.9270     0.7460 C.3   1 <1>   0.3430 
 11 C       -4.7470    -6.9230     1.6480 C.3   1 <1>   0.3430 
 12 C       -6.8350    -5.8800     1.2150 C.3   1 <1>   0.2000 
 13 C       -6.1790    -7.2630     1.2300 C.3   1 <1>  -0.0800 
 14 O       -7.2220    -5.5500     2.5090 O.3   1 <1>  -0.6800 
 15 C       -6.2920    -7.9260    -0.1730 C.3   1 <1>  -0.0170 
 16 C       -5.0080    -8.5520    -0.7060 C.ar  1 <1>   0.1670 
 17 N       -4.1020    -7.7120    -1.1940 N.ar  1 <1>  -0.6200 
 18 C       -4.8420    -9.9350    -0.6740 C.ar  1 <1>   0.1600 
 19 C       -3.0460    -8.3540    -1.6780 C.ar  1 <1>   0.1600 
 20 N       -3.7720   -10.5660    -1.1240 N.ar  1 <1>  -0.6200 
 21 C       -2.8860    -9.7340    -1.6400 C.ar  1 <1>   0.1600 
 22 H       -2.2640    -5.2450    -1.1810 H     1 <1>   0.1500 
 23 H       -2.2560    -1.1770    -2.3920 H     1 <1>   0.1500 
 24 H       -3.1550    -0.5020    -0.1900 H     1 <1>   0.1500 
 25 H       -3.6130    -2.1900     1.5170 H     1 <1>   0.1500 
 26 H       -3.4960    -4.4440     2.2950 H     1 <1>   0.0800 
 27 H       -2.4180    -5.5460     1.4610 H     1 <1>   0.0800 
 28 H       -4.2050    -6.0460    -0.0740 H     1 <1>   0.4500 
 29 H       -5.7180    -4.0350     1.3510 H     1 <1>   0.0800 
 30 H       -5.8730    -4.6550    -0.2860 H     1 <1>   0.0800 
 31 H       -4.0550    -7.7190     1.4220 H     1 <1>   0.0800 
 32 H       -4.7150    -6.7140     2.7050 H     1 <1>   0.0800 
 33 H       -7.7120    -5.8210     0.5920 H     1 <1>   0.0800 
 34 H       -6.6390    -7.9120     1.9560 H     1 <1>   0.0800 
 35 H       -6.5150    -5.6540     3.1730 H     1 <1>   0.4000 
 36 H       -6.6120    -7.2060    -0.9080 H     1 <1>   0.0800 
 37 H       -7.0660    -8.6730    -0.1390 H     1 <1>   0.0800 
 38 H       -5.6230   -10.5520    -0.2630 H     1 <1>   0.1500 
 39 H       -2.2650    -7.7670    -2.1300 H     1 <1>   0.1500 
 40 H       -1.9900   -10.1660    -2.0540 H     1 <1>   0.1500 
@<TRIPOS>BOND
  1   1   2  1   
  2   2   3  ar  
  3   2   4  ar  
  4   3   5  ar  
  5   3  22  1   
  6   4   6  ar  
  7   4  23  1   
  8   5   7  ar  
  9   5   8  1   
 10   6   7  ar  
 11   6  24  1   
 12   7  25  1   
 13   8   9  1   
 14   8  26  1   
 15   8  27  1   
 16   9  10  1   
 17   9  11  1   
 18   9  28  1   
 19  10  12  1   
 20  10  29  1   
 21  10  30  1   
 22  11  13  1   
 23  11  31  1   
 24  11  32  1   
 25  12  13  1   
 26  12  14  1   
 27  12  33  1   
 28  13  15  1   
 29  13  34  1   
 30  14  35  1   
 31  15  16  1   
 32  15  36  1   
 33  15  37  1   
 34  16  17  ar  
 35  16  18  ar  
 36  17  19  ar  
 37  18  20  ar  
 38  18  38  1   
 39  19  21  ar  
 40  19  39  1   
 41  20  21  ar  
 42  21  40  1   
@<TRIPOS>SUBSTRUCTURE
  1 ****   9 GROUP 4 **** **** 0

# MOE 2024.06 (io_trps.svl 2023.06)
