@<TRIPOS>MOLECULE
NONAME
50 51 1 0 0 
SMALL
USER_CHARGES


@<TRIPOS>ATOM
  1 O        0.2120    -0.4470    -1.9380 O.2   1 <1>  -0.5700 
  2 C        1.0480    -1.1150    -1.3770 C.2   1 <1>   0.5690 
  3 N        1.9700    -0.5390    -0.5650 N.am  1 <1>  -0.7300 
  4 C        1.0740    -2.6350    -1.5870 C.3   1 <1>   0.2610 
  5 C        2.0220     0.8900    -0.2430 C.3   1 <1>   0.3210 
  6 O        1.4100    -3.2710    -0.3600 O.3   1 <1>  -0.3630 
  7 C        2.0970    -3.0370    -2.6590 C.3   1 <1>  -0.2400 
  8 C        3.2500     1.1420     0.6040 C.2   1 <1>  -0.1810 
  9 C        0.8460    -4.4720    -0.1070 C.ar  1 <1>   0.0830 
 10 C        4.3810     1.8030     0.3080 C.2   1 <1>  -0.0400 
 11 C        3.4640     0.7170     1.9170 C.2   1 <1>   0.1080 
 12 C       -0.3420    -4.6010     0.6190 C.ar  1 <1>  -0.1440 
 13 C        1.5100    -5.5960    -0.5790 C.ar  1 <1>  -0.1500 
 14 O        5.1590     1.7580     1.3550 O.3   1 <1>  -0.0190 
 15 C        4.8570     2.5260    -0.9350 C.3   1 <1>  -0.0600 
 16 N        4.6150     1.1010     2.3370 N.2   1 <1>  -0.4100 
 17 C        2.5010    -0.0930     2.7590 C.3   1 <1>  -0.0590 
 18 C       -0.8540    -5.8800     0.7980 C.ar  1 <1>  -0.1500 
 19 C       -1.1330    -3.4480     1.2570 C.3   1 <1>   0.0630 
 20 C        0.9880    -6.8620    -0.3870 C.ar  1 <1>  -0.1430 
 21 C       -0.2030    -6.9960     0.3010 C.ar  1 <1>  -0.1500 
 22 C       -2.0240    -2.7290     0.2400 C.3   1 <1>  -0.2400 
 23 C       -0.2640    -2.4540     2.0360 C.3   1 <1>  -0.2400 
 24 C        1.7080    -8.0900    -0.9130 C.3   1 <1>  -0.0970 
 25 H        2.6450    -1.1300    -0.0720 H     1 <1>   0.3700 
 26 H        0.0910    -2.9580    -1.8810 H     1 <1>   0.0800 
 27 H        1.1330     1.1720     0.2950 H     1 <1>   0.0800 
 28 H        2.0640     1.4600    -1.1550 H     1 <1>   0.0800 
 29 H        3.0960    -2.8250    -2.3230 H     1 <1>   0.0800 
 30 H        1.9110    -2.4750    -3.5570 H     1 <1>   0.0800 
 31 H        2.0020    -4.0790    -2.8970 H     1 <1>   0.0800 
 32 H        2.4430    -5.4730    -1.0950 H     1 <1>   0.1500 
 33 H        4.1230     2.4650    -1.7170 H     1 <1>   0.0800 
 34 H        5.7720     2.0820    -1.2830 H     1 <1>   0.0800 
 35 H        5.0390     3.5600    -0.7060 H     1 <1>   0.0800 
 36 H        1.5000     0.2800     2.6460 H     1 <1>   0.0800 
 37 H        2.7790    -0.0290     3.7950 H     1 <1>   0.0800 
 38 H        2.5340    -1.1240     2.4570 H     1 <1>   0.0800 
 39 H       -1.7740    -6.0260     1.3370 H     1 <1>   0.1500 
 40 H       -1.7960    -3.8830     1.9860 H     1 <1>   0.0800 
 41 H       -0.6270    -7.9720     0.4590 H     1 <1>   0.1500 
 42 H       -1.4400    -2.1530    -0.4500 H     1 <1>   0.0800 
 43 H       -2.6970    -2.0610     0.7460 H     1 <1>   0.0800 
 44 H       -2.6040    -3.4450    -0.3130 H     1 <1>   0.0800 
 45 H        0.3030    -1.8330     1.3710 H     1 <1>   0.0800 
 46 H        0.4140    -2.9880     2.6790 H     1 <1>   0.0800 
 47 H       -0.8850    -1.8180     2.6410 H     1 <1>   0.0800 
 48 H        2.4460    -7.8160    -1.6450 H     1 <1>   0.0800 
 49 H        1.0060    -8.7610    -1.3720 H     1 <1>   0.0800 
 50 H        2.1980    -8.5990    -0.1020 H     1 <1>   0.0800 
@<TRIPOS>BOND
  1   1   2  2   
  2   2   3  am  
  3   2   4  1   
  4   3   5  1   
  5   3  25  1   
  6   4   6  1   
  7   4   7  1   
  8   4  26  1   
  9   5   8  1   
 10   5  27  1   
 11   5  28  1   
 12   6   9  1   
 13   7  29  1   
 14   7  30  1   
 15   7  31  1   
 16   8  10  2   
 17   8  11  1   
 18   9  12  ar  
 19   9  13  ar  
 20  10  14  1   
 21  10  15  1   
 22  11  16  2   
 23  11  17  1   
 24  12  18  ar  
 25  12  19  1   
 26  13  20  ar  
 27  13  32  1   
 28  14  16  1   
 29  15  33  1   
 30  15  34  1   
 31  15  35  1   
 32  17  36  1   
 33  17  37  1   
 34  17  38  1   
 35  18  21  ar  
 36  18  39  1   
 37  19  22  1   
 38  19  23  1   
 39  19  40  1   
 40  20  21  ar  
 41  20  24  1   
 42  21  41  1   
 43  22  42  1   
 44  22  43  1   
 45  22  44  1   
 46  23  45  1   
 47  23  46  1   
 48  23  47  1   
 49  24  48  1   
 50  24  49  1   
 51  24  50  1   
@<TRIPOS>SUBSTRUCTURE
  1 ****   6 GROUP 4 **** **** 0

# MOE 2024.06 (io_trps.svl 2023.06)
