@<TRIPOS>MOLECULE
NONAME
40 42 1 0 0 
SMALL
USER_CHARGES


@<TRIPOS>ATOM
  1 O        1.0900    -0.3830     2.3060 O.2   1 <1>  -0.5700 
  2 C        1.4020    -0.8030     1.2120 C.2   1 <1>   0.6160 
  3 N        1.9480     0.0330     0.2680 N.am  1 <1>  -0.4940 
  4 C        1.2440    -2.2010     0.9100 C.2   1 <1>   0.0290 
  5 C        2.2410     1.4190     0.2800 C.2   1 <1>  -0.0880 
  6 C        0.6820    -2.7230    -0.2320 C.2   1 <1>  -0.1690 
  7 C        1.7380    -3.1060     1.9030 C.2   1 <1>   0.3760 
  8 N        1.5810     2.4190     0.9330 N.pl3 1 <1>   0.3140 
  9 C        3.2530     2.0140    -0.3970 C.2   1 <1>  -0.1810 
 10 N        0.6810    -4.1000    -0.3690 N.pl3 1 <1>   0.6010 
 11 C        0.0310    -1.9190    -1.3600 C.3   1 <1>  -0.1020 
 12 N        1.7360    -4.3910     1.7900 N.2   1 <1>  -0.5760 
 13 N        2.1470     3.6210     0.6870 N.2   1 <1>  -0.7070 
 14 C        0.3530     2.3570     1.7360 C.3   1 <1>   0.0160 
 15 C        3.1430     3.3690    -0.0960 C.2   1 <1>   0.1080 
 16 C        4.2990     1.3660    -1.2900 C.3   1 <1>   0.0210 
 17 N        0.2370    -4.8480    -1.4060 N.2   1 <1>  -0.7070 
 18 C        1.2050    -4.8940     0.6260 C.2   1 <1>  -0.0260 
 19 C        4.0510     4.4670    -0.6020 C.3   1 <1>  -0.0590 
 20 C        5.4980     0.9080    -0.4580 C.3   1 <1>  -0.2400 
 21 C        0.4750    -6.0780    -1.0490 C.2   1 <1>   0.1390 
 22 C        1.0730    -6.1730     0.1970 C.2   1 <1>  -0.1500 
 23 H        2.3230    -0.4510    -0.5470 H     1 <1>   0.3700 
 24 H        2.1450    -2.6760     2.8030 H     1 <1>   0.0600 
 25 H       -0.9410    -2.3260    -1.5810 H     1 <1>   0.0800 
 26 H        0.6290    -1.9840    -2.2530 H     1 <1>   0.0800 
 27 H       -0.1050    -0.8840    -1.1050 H     1 <1>   0.0800 
 28 H       -0.3070     1.6180     1.3250 H     1 <1>   0.0800 
 29 H       -0.1270     3.3170     1.7220 H     1 <1>   0.0800 
 30 H        0.6110     2.0990     2.7460 H     1 <1>   0.0800 
 31 H        4.6220     2.0670    -2.0400 H     1 <1>   0.0800 
 32 H        3.8700     0.5230    -1.7980 H     1 <1>   0.0800 
 33 H        5.0790     4.1680    -0.5160 H     1 <1>   0.0800 
 34 H        3.9010     5.3580    -0.0190 H     1 <1>   0.0800 
 35 H        3.8230     4.6810    -1.6290 H     1 <1>   0.0800 
 36 H        5.9460     1.7500     0.0410 H     1 <1>   0.0800 
 37 H        6.2360     0.4470    -1.0900 H     1 <1>   0.0800 
 38 H        5.1840     0.1990     0.2870 H     1 <1>   0.0800 
 39 H        0.2290    -6.9250    -1.6690 H     1 <1>   0.1500 
 40 H        1.3680    -7.0690     0.7120 H     1 <1>   0.1500 
@<TRIPOS>BOND
  1   1   2  2   
  2   2   3  am  
  3   2   4  1   
  4   3   5  1   
  5   3  23  1   
  6   4   6  2   
  7   4   7  1   
  8   5   8  1   
  9   5   9  2   
 10   6  10  1   
 11   6  11  1   
 12   7  12  2   
 13   7  24  1   
 14   8  13  1   
 15   8  14  1   
 16   9  15  1   
 17   9  16  1   
 18  10  17  1   
 19  10  18  1   
 20  11  25  1   
 21  11  26  1   
 22  11  27  1   
 23  12  18  1   
 24  13  15  2   
 25  14  28  1   
 26  14  29  1   
 27  14  30  1   
 28  15  19  1   
 29  16  20  1   
 30  16  31  1   
 31  16  32  1   
 32  17  21  2   
 33  18  22  2   
 34  19  33  1   
 35  19  34  1   
 36  19  35  1   
 37  20  36  1   
 38  20  37  1   
 39  20  38  1   
 40  21  22  1   
 41  21  39  1   
 42  22  40  1   
@<TRIPOS>SUBSTRUCTURE
  1 ****   3 GROUP 4 **** **** 0

# MOE 2024.06 (io_trps.svl 2023.06)
