@<TRIPOS>MOLECULE
NONAME
53 55 1 0 0 
SMALL
USER_CHARGES


@<TRIPOS>ATOM
  1 F       -1.5180     1.3790    -1.8490 F     1 <1>  -0.1900 
  2 C       -0.9590     2.2120    -1.0140 C.ar  1 <1>   0.1900 
  3 C       -1.5660     2.4850     0.2190 C.ar  1 <1>   0.3960 
  4 C        0.2210     2.8010    -1.4110 C.ar  1 <1>  -0.1500 
  5 N       -1.0160     3.3750     1.0790 N.ar  1 <1>  -0.6200 
  6 C       -2.8010     1.7920     0.5670 C.2   1 <1>   0.5440 
  7 C        0.7530     3.6850    -0.5030 C.ar  1 <1>   0.1900 
  8 C        0.1210     3.9430     0.7040 C.ar  1 <1>   0.1600 
  9 O       -2.7620     0.5950     0.7980 O.2   1 <1>  -0.5700 
 10 N       -4.0280     2.4350     0.6280 N.am  1 <1>  -0.6600 
 11 F        1.8700     4.2920    -0.7870 F     1 <1>  -0.1900 
 12 C       -4.1670     3.9140     0.4820 C.3   1 <1>   0.1400 
 13 C       -5.2880     1.6600     0.8300 C.3   1 <1>   0.1400 
 14 C       -5.4890     4.3880     1.0850 C.3   1 <1>  -0.1600 
 15 C       -6.4220     2.2780     0.0090 C.3   1 <1>  -0.1600 
 16 C       -6.7060     3.7630     0.3670 C.3   1 <1>   0.2800 
 17 O       -6.8440     4.4180    -0.8730 O.3   1 <1>  -0.5600 
 18 C       -7.9970     3.9750     1.2220 C.3   1 <1>   0.2000 
 19 C       -7.5620     5.6170    -0.9000 C.3   1 <1>   0.1200 
 20 O       -8.1660     2.9870     2.2040 O.3   1 <1>  -0.6800 
 21 C       -9.2840     4.1740     0.3660 C.3   1 <1>   0.3000 
 22 C       -9.0460     5.3470    -0.6110 C.3   1 <1>  -0.1600 
 23 N      -10.3770     4.4910     1.3130 N.am  1 <1>  -0.7300 
 24 C       -9.6980     2.9060    -0.4010 C.3   1 <1>  -0.2400 
 25 C      -11.6600     4.9140     1.2130 C.2   1 <1>   0.5690 
 26 O      -12.2720     5.1290     2.2270 O.2   1 <1>  -0.5700 
 27 C      -12.3860     5.1280    -0.1090 C.3   1 <1>  -0.0990 
 28 C      -13.4340     4.0380    -0.3810 C.3   1 <1>  -0.2400 
 29 H        0.6880     2.5880    -2.3550 H     1 <1>   0.1500 
 30 H        0.5780     4.6460     1.3810 H     1 <1>   0.1500 
 31 H       -3.3580     4.4110     0.9880 H     1 <1>   0.0800 
 32 H       -4.1320     4.1720    -0.5630 H     1 <1>   0.0800 
 33 H       -5.1480     0.6370     0.5250 H     1 <1>   0.0800 
 34 H       -5.5390     1.6640     1.8770 H     1 <1>   0.0800 
 35 H       -5.5340     5.4600     1.0520 H     1 <1>   0.0800 
 36 H       -5.4980     4.1090     2.1250 H     1 <1>   0.0800 
 37 H       -7.2930     1.6700     0.1450 H     1 <1>   0.0800 
 38 H       -6.1420     2.2000    -1.0280 H     1 <1>   0.0800 
 39 H       -7.8540     4.8900     1.7710 H     1 <1>   0.0800 
 40 H       -7.1440     6.2930    -0.1750 H     1 <1>   0.0800 
 41 H       -7.4430     6.0520    -1.8780 H     1 <1>   0.0800 
 42 H       -8.4600     2.1510     1.7950 H     1 <1>   0.4000 
 43 H       -9.4690     6.2540    -0.2160 H     1 <1>   0.0800 
 44 H       -9.5270     5.1500    -1.5510 H     1 <1>   0.0800 
 45 H      -10.0940     4.2970     2.2800 H     1 <1>   0.3700 
 46 H       -8.9510     2.6460    -1.1280 H     1 <1>   0.0800 
 47 H      -10.6130     3.0640    -0.9370 H     1 <1>   0.0800 
 48 H       -9.8370     2.0780     0.2690 H     1 <1>   0.0800 
 49 H      -12.8800     6.0810    -0.0590 H     1 <1>   0.0800 
 50 H      -11.6970     5.1680    -0.9250 H     1 <1>   0.0800 
 51 H      -14.1700     4.0330     0.4040 H     1 <1>   0.0800 
 52 H      -12.9710     3.0680    -0.4190 H     1 <1>   0.0800 
 53 H      -13.9310     4.2240    -1.3170 H     1 <1>   0.0800 
@<TRIPOS>BOND
  1   1   2  1   
  2   2   3  ar  
  3   2   4  ar  
  4   3   5  ar  
  5   3   6  1   
  6   4   7  ar  
  7   4  29  1   
  8   5   8  ar  
  9   6   9  2   
 10   6  10  am  
 11   7   8  ar  
 12   7  11  1   
 13   8  30  1   
 14  10  12  1   
 15  10  13  1   
 16  12  14  1   
 17  12  31  1   
 18  12  32  1   
 19  13  15  1   
 20  13  33  1   
 21  13  34  1   
 22  14  16  1   
 23  14  35  1   
 24  14  36  1   
 25  15  16  1   
 26  15  37  1   
 27  15  38  1   
 28  16  17  1   
 29  16  18  1   
 30  17  19  1   
 31  18  20  1   
 32  18  21  1   
 33  18  39  1   
 34  19  22  1   
 35  19  40  1   
 36  19  41  1   
 37  20  42  1   
 38  21  22  1   
 39  21  23  1   
 40  21  24  1   
 41  22  43  1   
 42  22  44  1   
 43  23  25  am  
 44  23  45  1   
 45  24  46  1   
 46  24  47  1   
 47  24  48  1   
 48  25  26  2   
 49  25  27  1   
 50  27  28  1   
 51  27  49  1   
 52  27  50  1   
 53  28  51  1   
 54  28  52  1   
 55  28  53  1   
@<TRIPOS>SUBSTRUCTURE
  1 ****  16 GROUP 4 **** **** 0

# MOE 2024.06 (io_trps.svl 2023.06)
