@<TRIPOS>MOLECULE
NONAME
62 65 1 0 0 
SMALL
USER_CHARGES


@<TRIPOS>ATOM
  1 O       -1.7810     0.3270    -3.1390 O.2   1 <1>  -0.5700 
  2 C       -1.9800     1.2130    -2.3290 C.2   1 <1>   0.5440 
  3 N       -2.7710     0.9030    -1.2300 N.am  1 <1>  -0.6600 
  4 C       -1.3990     2.5290    -2.5740 C.ar  1 <1>   0.3960 
  5 C       -3.1860    -0.5060    -0.9360 C.3   1 <1>   0.1400 
  6 C       -3.2310     1.8890    -0.2050 C.3   1 <1>   0.1400 
  7 N       -0.7010     3.1660    -1.6130 N.ar  1 <1>  -0.6200 
  8 C       -1.5920     3.0880    -3.8390 C.ar  1 <1>   0.1600 
  9 C       -2.7150    -0.9220     0.4700 C.3   1 <1>   0.3430 
 10 C       -2.7490     1.4630     1.1960 C.3   1 <1>   0.3430 
 11 C       -0.2380     4.3460    -1.9940 C.ar  1 <1>   0.4100 
 12 N       -1.1540     4.2760    -4.2270 N.ar  1 <1>  -0.6200 
 13 N       -3.1630     0.0510     1.5340 N.4   1 <1>  -0.9590 
 14 N        0.5140     5.0280    -1.0450 N.pl3 1 <1>  -0.8380 
 15 C       -0.4750     4.8750    -3.2740 C.ar  1 <1>   0.1600 
 16 C       -2.6470    -0.3540     2.8760 C.3   1 <1>   0.2630 
 17 C        1.5610     4.3140    -0.2510 C.3   1 <1>   0.2090 
 18 C        0.3610     6.4940    -0.7840 C.3   1 <1>   0.2090 
 19 C        2.9010     5.0840    -0.2710 C.3   1 <1>   0.3430 
 20 C        1.7300     7.2130    -0.7830 C.3   1 <1>   0.3430 
 21 N        2.7490     6.5390     0.1110 N.4   1 <1>  -0.9590 
 22 C        4.0870     7.2230     0.0680 C.3   1 <1>   0.3430 
 23 C        4.0710     8.6180     0.7000 C.3   1 <1>   0.1200 
 24 O        5.3660     9.1430     0.5620 O.3   1 <1>  -0.3630 
 25 C        5.6780    10.3850     1.0110 C.ar  1 <1>   0.0820 
 26 C        4.7890    11.2100     1.6960 C.ar  1 <1>  -0.1500 
 27 C        6.9650    10.8320     0.7570 C.ar  1 <1>  -0.1500 
 28 C        5.1940    12.4660     2.1150 C.ar  1 <1>  -0.1500 
 29 C        7.3670    12.0870     1.1760 C.ar  1 <1>  -0.1500 
 30 C        6.4810    12.9050     1.8550 C.ar  1 <1>  -0.1500 
 31 H       -2.7690    -1.1900    -1.6550 H     1 <1>   0.0800 
 32 H       -4.2570    -0.5840    -1.0040 H     1 <1>   0.0800 
 33 H       -4.3060     1.9340    -0.2170 H     1 <1>   0.0800 
 34 H       -2.8710     2.8780    -0.4200 H     1 <1>   0.0800 
 35 H       -2.1440     2.5150    -4.5650 H     1 <1>   0.1500 
 36 H       -1.6380    -0.9760     0.4590 H     1 <1>   0.0800 
 37 H       -3.0920    -1.9070     0.6890 H     1 <1>   0.0800 
 38 H       -3.1480     2.1460     1.9280 H     1 <1>   0.0800 
 39 H       -1.6750     1.5410     1.2200 H     1 <1>   0.0800 
 40 H       -4.1930     0.0260     1.5570 H     1 <1>   0.4500 
 41 H       -0.0640     5.8370    -3.5100 H     1 <1>   0.1500 
 42 H       -1.5690    -0.3350     2.8850 H     1 <1>   0.0800 
 43 H       -2.9750    -1.3520     3.1190 H     1 <1>   0.0800 
 44 H       -3.0110     0.3180     3.6370 H     1 <1>   0.0800 
 45 H        1.7210     3.3280    -0.6570 H     1 <1>   0.0800 
 46 H        1.2210     4.1980     0.7630 H     1 <1>   0.0800 
 47 H       -0.1140     6.6300     0.1730 H     1 <1>   0.0800 
 48 H       -0.2800     6.9420    -1.5240 H     1 <1>   0.0800 
 49 H        3.3100     5.0140    -1.2650 H     1 <1>   0.0800 
 50 H        3.5910     4.5990     0.4000 H     1 <1>   0.0800 
 51 H        1.5830     8.2340    -0.4710 H     1 <1>   0.0800 
 52 H        2.1000     7.2300    -1.7950 H     1 <1>   0.0800 
 53 H        2.3940     6.5610     1.0770 H     1 <1>   0.4500 
 54 H        4.4140     7.3110    -0.9550 H     1 <1>   0.0800 
 55 H        4.8100     6.6270     0.6020 H     1 <1>   0.0800 
 56 H        3.8430     8.5640     1.7500 H     1 <1>   0.0800 
 57 H        3.3940     9.2780     0.1880 H     1 <1>   0.0800 
 58 H        3.7860    10.9040     1.9180 H     1 <1>   0.1500 
 59 H        7.6530    10.1960     0.2300 H     1 <1>   0.1500 
 60 H        4.5110    13.1070     2.6450 H     1 <1>   0.1500 
 61 H        8.3680    12.4280     0.9750 H     1 <1>   0.1500 
 62 H        6.7930    13.8820     2.1820 H     1 <1>   0.1500 
@<TRIPOS>BOND
  1   1   2  2   
  2   2   3  am  
  3   2   4  1   
  4   3   5  1   
  5   3   6  1   
  6   4   7  ar  
  7   4   8  ar  
  8   5   9  1   
  9   5  31  1   
 10   5  32  1   
 11   6  10  1   
 12   6  33  1   
 13   6  34  1   
 14   7  11  ar  
 15   8  12  ar  
 16   8  35  1   
 17   9  13  1   
 18   9  36  1   
 19   9  37  1   
 20  10  13  1   
 21  10  38  1   
 22  10  39  1   
 23  11  14  1   
 24  11  15  ar  
 25  12  15  ar  
 26  13  16  1   
 27  13  40  1   
 28  14  17  1   
 29  14  18  1   
 30  15  41  1   
 31  16  42  1   
 32  16  43  1   
 33  16  44  1   
 34  17  19  1   
 35  17  45  1   
 36  17  46  1   
 37  18  20  1   
 38  18  47  1   
 39  18  48  1   
 40  19  21  1   
 41  19  49  1   
 42  19  50  1   
 43  20  21  1   
 44  20  51  1   
 45  20  52  1   
 46  21  22  1   
 47  21  53  1   
 48  22  23  1   
 49  22  54  1   
 50  22  55  1   
 51  23  24  1   
 52  23  56  1   
 53  23  57  1   
 54  24  25  1   
 55  25  26  ar  
 56  25  27  ar  
 57  26  28  ar  
 58  26  58  1   
 59  27  29  ar  
 60  27  59  1   
 61  28  30  ar  
 62  28  60  1   
 63  29  30  ar  
 64  29  61  1   
 65  30  62  1   
@<TRIPOS>SUBSTRUCTURE
  1 ****  14 GROUP 4 **** **** 0

# MOE 2024.06 (io_trps.svl 2023.06)
