@<TRIPOS>MOLECULE
NONAME
48 50 1 0 0 
SMALL
USER_CHARGES


@<TRIPOS>ATOM
  1 O       -1.6210     0.1960     1.5090 O.2   1 <1>  -0.5700 
  2 C       -1.9650     0.7820     0.4960 C.2   1 <1>   0.7160 
  3 N       -2.8370     0.1270    -0.3450 N.am  1 <1>  -0.6600 
  4 C       -1.5280     2.1290     0.2330 C.2   1 <1>  -0.0860 
  5 C       -3.0160    -1.3340    -0.2350 C.3   1 <1>   0.1400 
  6 C       -4.0770     0.7930    -0.8180 C.3   1 <1>   0.1400 
  7 C       -1.3370     3.1760     1.0650 C.2   1 <1>  -0.0400 
  8 C       -1.1840     2.6940    -0.9880 C.2   1 <1>   0.1080 
  9 C       -4.2120    -1.5170     0.7170 C.3   1 <1>   0.4230 
 10 C       -5.2970     0.3190     0.0150 C.3   1 <1>  -0.1600 
 11 O       -0.9500     4.2540     0.4270 O.3   1 <1>  -0.0190 
 12 C       -1.5070     3.2770     2.5690 C.3   1 <1>  -0.0600 
 13 N       -0.8650     3.9230    -0.8400 N.2   1 <1>  -0.4100 
 14 C       -1.1490     1.9990    -2.3350 C.3   1 <1>  -0.0590 
 15 N       -4.0840    -2.6780     1.6750 N.4   1 <1>  -0.9590 
 16 C       -5.5840    -1.2790    -0.0780 C.3   1 <1>   0.0000 
 17 C       -3.9080    -3.9670     0.9810 C.3   1 <1>   0.3430 
 18 C       -2.9910    -2.4340     2.6730 C.3   1 <1>   0.2630 
 19 C       -5.8730    -2.8620    -0.2580 C.3   1 <1>  -0.1600 
 20 C       -6.9780    -0.9800    -0.8080 C.3   1 <1>   0.1200 
 21 C       -4.7610    -3.9410    -0.2740 C.3   1 <1>  -0.1600 
 22 O       -6.7360    -0.6890    -2.1480 O.3   1 <1>  -0.6800 
 23 H       -3.2240    -1.7380    -1.2100 H     1 <1>   0.0800 
 24 H       -2.1190    -1.7860     0.1510 H     1 <1>   0.0800 
 25 H       -3.9800     1.8640    -0.7390 H     1 <1>   0.0800 
 26 H       -4.2350     0.5540    -1.8580 H     1 <1>   0.0800 
 27 H       -4.0880    -0.6990     1.4030 H     1 <1>   0.0800 
 28 H       -5.2000     0.6600     1.0340 H     1 <1>   0.0800 
 29 H       -6.0470     1.0040    -0.3430 H     1 <1>   0.0800 
 30 H       -1.8440     2.3460     2.9850 H     1 <1>   0.0800 
 31 H       -2.2250     4.0420     2.8030 H     1 <1>   0.0800 
 32 H       -0.5660     3.5360     3.0200 H     1 <1>   0.0800 
 33 H       -0.7630     1.0020    -2.2310 H     1 <1>   0.0800 
 34 H       -0.5120     2.5440    -3.0080 H     1 <1>   0.0800 
 35 H       -2.1360     1.9590    -2.7540 H     1 <1>   0.0800 
 36 H       -4.9780    -2.7240     2.1800 H     1 <1>   0.4500 
 37 H       -2.8740    -4.1180     0.7130 H     1 <1>   0.0800 
 38 H       -4.2180    -4.7740     1.6260 H     1 <1>   0.0800 
 39 H       -2.0330    -2.3740     2.1800 H     1 <1>   0.0800 
 40 H       -2.9570    -3.2300     3.3990 H     1 <1>   0.0800 
 41 H       -3.1570    -1.5030     3.1900 H     1 <1>   0.0800 
 42 H       -6.5910    -3.1600     0.4900 H     1 <1>   0.0800 
 43 H       -6.3160    -3.0840    -1.2210 H     1 <1>   0.0800 
 44 H       -7.5470    -0.1740    -0.3730 H     1 <1>   0.0800 
 45 H       -7.7220    -1.7640    -0.7890 H     1 <1>   0.0800 
 46 H       -4.1250    -3.7950    -1.1300 H     1 <1>   0.0800 
 47 H       -5.2060    -4.9140    -0.3980 H     1 <1>   0.0800 
 48 H       -7.5730    -0.5220    -2.6310 H     1 <1>   0.4000 
@<TRIPOS>BOND
  1   1   2  2   
  2   2   3  am  
  3   2   4  1   
  4   3   5  1   
  5   3   6  1   
  6   4   7  2   
  7   4   8  1   
  8   5   9  1   
  9   5  23  1   
 10   5  24  1   
 11   6  10  1   
 12   6  25  1   
 13   6  26  1   
 14   7  11  1   
 15   7  12  1   
 16   8  13  2   
 17   8  14  1   
 18   9  15  1   
 19   9  16  1   
 20   9  27  1   
 21  10  16  1   
 22  10  28  1   
 23  10  29  1   
 24  11  13  1   
 25  12  30  1   
 26  12  31  1   
 27  12  32  1   
 28  14  33  1   
 29  14  34  1   
 30  14  35  1   
 31  15  17  1   
 32  15  18  1   
 33  15  36  1   
 34  16  19  1   
 35  16  20  1   
 36  17  21  1   
 37  17  37  1   
 38  17  38  1   
 39  18  39  1   
 40  18  40  1   
 41  18  41  1   
 42  19  21  1   
 43  19  42  1   
 44  19  43  1   
 45  20  22  1   
 46  20  44  1   
 47  20  45  1   
 48  21  46  1   
 49  21  47  1   
 50  22  48  1   
@<TRIPOS>SUBSTRUCTURE
  1 ****   3 GROUP 4 **** **** 0

# MOE 2024.06 (io_trps.svl 2023.06)
