@<TRIPOS>MOLECULE
NONAME
40 42 1 0 0 
SMALL
USER_CHARGES


@<TRIPOS>ATOM
  1 O        1.0740     1.5280    -1.2920 O.3   1 <1>  -0.0190 
  2 N        1.9420     0.5660    -1.3710 N.2   1 <1>  -0.4100 
  3 C        0.7940     1.8300    -0.0530 C.2   1 <1>  -0.0400 
  4 C        2.2100     0.2240    -0.1620 C.2   1 <1>   0.1080 
  5 C        1.5000     1.0100     0.7410 C.2   1 <1>  -0.1500 
  6 C       -0.1690     2.9610     0.2490 C.3   1 <1>   0.0200 
  7 C        3.1690    -0.8850     0.2150 C.3   1 <1>  -0.0590 
  8 C        0.1870     4.2020    -0.5940 C.3   1 <1>  -0.0800 
  9 C       -0.5560     5.4950    -0.2650 C.3   1 <1>   0.2000 
 10 C        1.6710     4.5820    -0.5100 C.3   1 <1>   0.3430 
 11 O       -0.5640     5.6980     1.1140 O.3   1 <1>  -0.6800 
 12 C        0.3500     6.5510    -0.9030 C.3   1 <1>   0.3430 
 13 N        1.7540     6.0670    -0.6830 N.4   1 <1>  -0.9590 
 14 C        2.3530     6.7010     0.5250 C.3   1 <1>   0.4860 
 15 C        2.5050     8.1900     0.2780 C.ar  1 <1>  -0.1440 
 16 C        1.6740     9.1100     0.8890 C.ar  1 <1>  -0.1500 
 17 C        3.4750     8.7030    -0.5630 C.ar  1 <1>  -0.1500 
 18 C        1.8370    10.4590     0.6250 C.ar  1 <1>   0.1600 
 19 C        3.5530    10.0720    -0.7590 C.ar  1 <1>   0.1600 
 20 N        2.7520    10.9550    -0.1900 N.ar  1 <1>  -0.6200 
 21 H        1.5410     0.9410     1.8130 H     1 <1>   0.1500 
 22 H       -1.1700     2.6400     0.0170 H     1 <1>   0.0800 
 23 H       -0.1200     3.1760     1.3020 H     1 <1>   0.0800 
 24 H        3.9330    -0.5060     0.8670 H     1 <1>   0.0800 
 25 H        3.6320    -1.2870    -0.6680 H     1 <1>   0.0800 
 26 H        2.6350    -1.6730     0.7140 H     1 <1>   0.0800 
 27 H       -0.0140     3.9640    -1.6250 H     1 <1>   0.0800 
 28 H       -1.5660     5.5330    -0.6370 H     1 <1>   0.0800 
 29 H        2.2350     4.0630    -1.2690 H     1 <1>   0.0800 
 30 H        2.0550     4.3010     0.4580 H     1 <1>   0.0800 
 31 H       -1.3460     5.2740     1.5290 H     1 <1>   0.4000 
 32 H        0.1750     7.5250    -0.4800 H     1 <1>   0.0800 
 33 H        0.1480     6.5890    -1.9610 H     1 <1>   0.0800 
 34 H        2.3340     6.3170    -1.4930 H     1 <1>   0.4500 
 35 H        1.7200     6.5350     1.3820 H     1 <1>   0.0800 
 36 H        3.3210     6.2730     0.7270 H     1 <1>   0.0800 
 37 H        0.9000     8.8000     1.5700 H     1 <1>   0.1500 
 38 H        4.1780     8.0660    -1.0690 H     1 <1>   0.1500 
 39 H        1.1840    11.1680     1.1070 H     1 <1>   0.1500 
 40 H        4.3130    10.4630    -1.4160 H     1 <1>   0.1500 
@<TRIPOS>BOND
  1   1   2  1   
  2   1   3  1   
  3   2   4  2   
  4   3   5  2   
  5   3   6  1   
  6   4   5  1   
  7   4   7  1   
  8   5  21  1   
  9   6   8  1   
 10   6  22  1   
 11   6  23  1   
 12   7  24  1   
 13   7  25  1   
 14   7  26  1   
 15   8   9  1   
 16   8  10  1   
 17   8  27  1   
 18   9  11  1   
 19   9  12  1   
 20   9  28  1   
 21  10  13  1   
 22  10  29  1   
 23  10  30  1   
 24  11  31  1   
 25  12  13  1   
 26  12  32  1   
 27  12  33  1   
 28  13  14  1   
 29  13  34  1   
 30  14  15  1   
 31  14  35  1   
 32  14  36  1   
 33  15  16  ar  
 34  15  17  ar  
 35  16  18  ar  
 36  16  37  1   
 37  17  19  ar  
 38  17  38  1   
 39  18  20  ar  
 40  18  39  1   
 41  19  20  ar  
 42  19  40  1   
@<TRIPOS>SUBSTRUCTURE
  1 ****  10 GROUP 4 **** **** 0

# MOE 2024.06 (io_trps.svl 2023.06)
