@<TRIPOS>MOLECULE
NONAME
41 44 1 0 0 
SMALL
USER_CHARGES


@<TRIPOS>ATOM
  1 O        2.5270     0.8870    -3.1130 O.co2 1 <1>  -0.9000 
  2 C        2.2730     1.3190    -1.9800 C.2   1 <1>   0.9470 
  3 O        1.3060     2.0710    -1.7890 O.co2 1 <1>  -0.9000 
  4 C        3.2810     1.1140    -0.8440 C.3   1 <1>  -0.2420 
  5 C        3.4130     0.0510     0.2220 C.3   1 <1>  -0.2420 
  6 C        3.6440     2.4440    -0.2140 C.3   1 <1>   0.2350 
  7 C        4.3180     0.0280    -0.9830 C.3   1 <1>  -0.2000 
  8 C        2.5470    -1.1720     0.5300 C.2   1 <1>   0.9470 
  9 C        3.8690     0.7260     1.5060 C.3   1 <1>   0.2350 
 10 N        4.2290     2.1160     1.1140 N.am  1 <1>  -0.6600 
 11 O        1.5680    -1.0400     1.2770 O.co2 1 <1>  -0.9000 
 12 O        2.9220    -2.2940     0.1620 O.co2 1 <1>  -0.9000 
 13 C        5.0090     2.9370     1.8730 C.2   1 <1>   0.6300 
 14 O        5.4950     2.5690     2.9220 O.2   1 <1>  -0.5700 
 15 C        5.2760     4.3820     1.4250 C.3   1 <1>   0.0320 
 16 C        6.5430     4.5190     0.5890 C.ar  1 <1>  -0.0320 
 17 C        4.1300     5.3410     1.2280 C.3   1 <1>  -0.2000 
 18 C        5.0210     5.4860     2.4170 C.3   1 <1>  -0.2000 
 19 C        6.4890     4.7920    -0.7690 C.ar  1 <1>  -0.1500 
 20 C        7.7800     4.3680     1.1960 C.ar  1 <1>  -0.1500 
 21 C        7.6540     4.9190    -1.5070 C.ar  1 <1>  -0.1500 
 22 C        8.9460     4.4960     0.4610 C.ar  1 <1>  -0.1500 
 23 C        8.8890     4.7710    -0.8960 C.ar  1 <1>  -0.1440 
 24 C       10.1650     4.9110    -1.7050 C.3   1 <1>  -0.0970 
 25 H        2.7590     3.0410    -0.0730 H     1 <1>   0.0800 
 26 H        4.3460     2.9670    -0.8350 H     1 <1>   0.0800 
 27 H        5.3580     0.2700    -0.8700 H     1 <1>   0.1000 
 28 H        4.1490    -0.7410    -1.7190 H     1 <1>   0.1000 
 29 H        4.7110     0.2120     1.9330 H     1 <1>   0.0800 
 30 H        3.0620     0.7570     2.2180 H     1 <1>   0.0800 
 31 H        4.1910     6.0750     0.4450 H     1 <1>   0.1000 
 32 H        3.1280     4.9780     1.3760 H     1 <1>   0.1000 
 33 H        4.6480     5.2130     3.3890 H     1 <1>   0.1000 
 34 H        5.7120     6.3090     2.4540 H     1 <1>   0.1000 
 35 H        5.5390     4.9050    -1.2600 H     1 <1>   0.1500 
 36 H        7.8280     4.1440     2.2470 H     1 <1>   0.1500 
 37 H        7.5930     5.1310    -2.5590 H     1 <1>   0.1500 
 38 H        9.8960     4.3770     0.9520 H     1 <1>   0.1500 
 39 H       10.0100     4.5630    -2.7100 H     1 <1>   0.0800 
 40 H       10.9560     4.3320    -1.2640 H     1 <1>   0.0800 
 41 H       10.4640     5.9440    -1.7360 H     1 <1>   0.0800 
@<TRIPOS>BOND
  1   1   2  ar  
  2   2   3  ar  
  3   2   4  1   
  4   4   5  1   
  5   4   6  1   
  6   4   7  1   
  7   5   7  1   
  8   5   8  1   
  9   5   9  1   
 10   6  10  1   
 11   6  25  1   
 12   6  26  1   
 13   7  27  1   
 14   7  28  1   
 15   8  11  ar  
 16   8  12  ar  
 17   9  10  1   
 18   9  29  1   
 19   9  30  1   
 20  10  13  am  
 21  13  14  2   
 22  13  15  1   
 23  15  16  1   
 24  15  17  1   
 25  15  18  1   
 26  16  19  ar  
 27  16  20  ar  
 28  17  18  1   
 29  17  31  1   
 30  17  32  1   
 31  18  33  1   
 32  18  34  1   
 33  19  21  ar  
 34  19  35  1   
 35  20  22  ar  
 36  20  36  1   
 37  21  23  ar  
 38  21  37  1   
 39  22  23  ar  
 40  22  38  1   
 41  23  24  1   
 42  24  39  1   
 43  24  40  1   
 44  24  41  1   
@<TRIPOS>SUBSTRUCTURE
  1 ****  10 GROUP 4 **** **** 0

# MOE 2024.06 (io_trps.svl 2023.06)
