@<TRIPOS>MOLECULE
NONAME
52 54 1 0 0 
SMALL
USER_CHARGES


@<TRIPOS>ATOM
  1 O       -0.8400     0.7360     2.5610 O.2   1 <1>  -0.5700 
  2 C       -1.4900     1.3260     1.7170 C.2   1 <1>   0.5440 
  3 N       -2.3940     0.6160     0.9650 N.am  1 <1>  -0.6600 
  4 C       -1.3060     2.7480     1.5330 C.ar  1 <1>   0.0860 
  5 C       -3.1930     1.1590    -0.1610 C.3   1 <1>   0.1400 
  6 C       -2.5650    -0.8490     1.0510 C.3   1 <1>   0.1400 
  7 C       -0.6640     3.2870     0.4090 C.ar  1 <1>   0.0830 
  8 C       -1.7890     3.6390     2.4910 C.ar  1 <1>  -0.1500 
  9 C       -3.9430    -0.0430    -0.7540 C.3   1 <1>   0.2000 
 10 C       -3.1010    -1.2490    -0.3240 C.3   1 <1>  -0.0800 
 11 O       -0.1500     2.5030    -0.5610 O.3   1 <1>  -0.3630 
 12 C       -0.5530     4.6580     0.2440 C.ar  1 <1>  -0.1500 
 13 C       -1.6660     5.0070     2.3320 C.ar  1 <1>  -0.1500 
 14 O       -5.2140    -0.1520    -0.1770 O.3   1 <1>  -0.5600 
 15 C       -3.8500    -2.5940    -0.3240 C.3   1 <1>   0.0200 
 16 C        0.9610     1.6870    -0.2500 C.3   1 <1>   0.1200 
 17 C       -1.0510     5.5200     1.2030 C.ar  1 <1>  -0.1500 
 18 C       -6.2050     0.6280    -0.7680 C.3   1 <1>   0.0400 
 19 C       -2.9350    -3.7820    -0.0800 C.2   1 <1>  -0.0400 
 20 C        0.8140     0.3690    -1.0100 C.3   1 <1>  -0.1600 
 21 O       -3.4630    -4.9740     0.0150 O.3   1 <1>  -0.0190 
 22 C       -1.6060    -3.9140     0.0700 C.2   1 <1>  -0.1500 
 23 C        1.9570    -0.5960    -0.6810 C.3   1 <1>  -0.2400 
 24 N       -2.5640    -5.8920     0.2220 N.2   1 <1>  -0.4100 
 25 C       -1.4350    -5.2820     0.2600 C.2   1 <1>   0.1080 
 26 C       -0.1050    -5.9650     0.4850 C.3   1 <1>  -0.0590 
 27 H       -3.8660     1.9250     0.1820 H     1 <1>   0.0800 
 28 H       -2.5260     1.5660    -0.9000 H     1 <1>   0.0800 
 29 H       -1.6340    -1.3340     1.2840 H     1 <1>   0.0800 
 30 H       -3.2870    -1.0660     1.8200 H     1 <1>   0.0800 
 31 H       -2.2670     3.2410     3.3700 H     1 <1>   0.1500 
 32 H       -4.0430     0.0170    -1.8250 H     1 <1>   0.0800 
 33 H       -2.2660    -1.3190    -0.9980 H     1 <1>   0.0800 
 34 H       -0.0710     5.0450    -0.6360 H     1 <1>   0.1500 
 35 H       -2.0480     5.6740     3.0860 H     1 <1>   0.1500 
 36 H       -4.3350    -2.7300    -1.2740 H     1 <1>   0.0800 
 37 H       -4.6150    -2.5850     0.4330 H     1 <1>   0.0800 
 38 H        1.8500     2.2120    -0.5520 H     1 <1>   0.0800 
 39 H        1.0000     1.5120     0.8110 H     1 <1>   0.0800 
 40 H       -0.9580     6.5850     1.0750 H     1 <1>   0.1500 
 41 H       -7.1230     0.4620    -0.2330 H     1 <1>   0.0800 
 42 H       -6.3270     0.3290    -1.7950 H     1 <1>   0.0800 
 43 H       -5.9350     1.6670    -0.7040 H     1 <1>   0.0800 
 44 H       -0.1190    -0.0900    -0.7360 H     1 <1>   0.0800 
 45 H        0.8050     0.5680    -2.0680 H     1 <1>   0.0800 
 46 H       -0.8260    -3.1770     0.0530 H     1 <1>   0.1500 
 47 H        1.9650    -0.8200     0.3720 H     1 <1>   0.0800 
 48 H        2.9050    -0.1640    -0.9510 H     1 <1>   0.0800 
 49 H        1.8320    -1.5150    -1.2260 H     1 <1>   0.0800 
 50 H        0.5390    -5.7960    -0.3580 H     1 <1>   0.0800 
 51 H       -0.2520    -7.0230     0.6050 H     1 <1>   0.0800 
 52 H        0.3600    -5.5750     1.3710 H     1 <1>   0.0800 
@<TRIPOS>BOND
  1   1   2  2   
  2   2   3  am  
  3   2   4  1   
  4   3   5  1   
  5   3   6  1   
  6   4   7  ar  
  7   4   8  ar  
  8   5   9  1   
  9   5  27  1   
 10   5  28  1   
 11   6  10  1   
 12   6  29  1   
 13   6  30  1   
 14   7  11  1   
 15   7  12  ar  
 16   8  13  ar  
 17   8  31  1   
 18   9  10  1   
 19   9  14  1   
 20   9  32  1   
 21  10  15  1   
 22  10  33  1   
 23  11  16  1   
 24  12  17  ar  
 25  12  34  1   
 26  13  17  ar  
 27  13  35  1   
 28  14  18  1   
 29  15  19  1   
 30  15  36  1   
 31  15  37  1   
 32  16  20  1   
 33  16  38  1   
 34  16  39  1   
 35  17  40  1   
 36  18  41  1   
 37  18  42  1   
 38  18  43  1   
 39  19  21  1   
 40  19  22  2   
 41  20  23  1   
 42  20  44  1   
 43  20  45  1   
 44  21  24  1   
 45  22  25  1   
 46  22  46  1   
 47  23  47  1   
 48  23  48  1   
 49  23  49  1   
 50  24  25  2   
 51  25  26  1   
 52  26  50  1   
 53  26  51  1   
 54  26  52  1   
@<TRIPOS>SUBSTRUCTURE
  1 ****   3 GROUP 4 **** **** 0

# MOE 2024.06 (io_trps.svl 2023.06)
