@<TRIPOS>MOLECULE
NONAME
36 37 1 0 0 
SMALL
USER_CHARGES


@<TRIPOS>ATOM
  1 CL      -2.3140    -0.6180    -3.4630 Cl    1 <1>  -0.1230 
  2 C       -2.7580     0.0610    -1.9060 C.2   1 <1>   0.1230 
  3 C       -3.0040    -0.6470    -0.7260 C.2   1 <1>   0.2030 
  4 C       -2.9450     1.3640    -1.6450 C.2   1 <1>  -0.3020 
  5 N       -3.3490     0.2160     0.2220 N.2   1 <1>  -0.7070 
  6 C       -2.8810    -2.0950    -0.6180 C.2   1 <1>   0.7160 
  7 N       -3.2960     1.4310    -0.3480 N.pl3 1 <1>   0.3140 
  8 O       -1.9300    -2.6500    -1.1420 O.2   1 <1>  -0.5700 
  9 N       -3.8090    -2.8980     0.0340 N.am  1 <1>  -0.6600 
 10 C       -3.5940     2.6590     0.4020 C.3   1 <1>   0.0160 
 11 C       -3.4930    -4.3510     0.2250 C.3   1 <1>   0.3200 
 12 C       -4.9740    -2.3240     0.7930 C.3   1 <1>   0.1400 
 13 C       -4.7130    -5.2220     0.4760 C.2   1 <1>  -0.3320 
 14 C       -6.0590    -1.7480    -0.1390 C.3   1 <1>   0.1200 
 15 N       -5.8550    -5.1680    -0.2350 N.pl3 1 <1>   0.0330 
 16 C       -4.9000    -6.1840     1.4070 C.2   1 <1>   0.0770 
 17 O       -6.1930    -2.5170    -1.2930 O.3   1 <1>  -0.6800 
 18 C       -6.6650    -6.0960     0.3150 C.2   1 <1>   0.0060 
 19 N       -6.1250    -6.7310     1.3020 N.2   1 <1>  -0.5650 
 20 C       -8.0720    -6.3430    -0.1820 C.3   1 <1>  -0.0600 
 21 H       -2.8530     2.2170    -2.2900 H     1 <1>   0.1500 
 22 H       -4.4590     3.1320    -0.0230 H     1 <1>   0.0800 
 23 H       -2.7500     3.3200     0.3470 H     1 <1>   0.0800 
 24 H       -3.7870     2.4080     1.4290 H     1 <1>   0.0800 
 25 H       -2.8100    -4.4490     1.0500 H     1 <1>   0.0800 
 26 H       -2.9970    -4.7300    -0.6530 H     1 <1>   0.0800 
 27 H       -4.6310    -1.5540     1.4600 H     1 <1>   0.0800 
 28 H       -5.4240    -3.0700     1.4250 H     1 <1>   0.0800 
 29 H       -5.8040    -0.7450    -0.4360 H     1 <1>   0.0800 
 30 H       -7.0110    -1.7210     0.3640 H     1 <1>   0.0800 
 31 H       -6.0930    -4.4950    -0.9770 H     1 <1>   0.2700 
 32 H       -4.2070    -6.5200     2.1610 H     1 <1>   0.1500 
 33 H       -5.3200    -2.5630    -1.7380 H     1 <1>   0.4000 
 34 H       -8.6520    -5.4420    -0.1100 H     1 <1>   0.0800 
 35 H       -8.5400    -7.1050     0.4150 H     1 <1>   0.0800 
 36 H       -8.0480    -6.6720    -1.2050 H     1 <1>   0.0800 
@<TRIPOS>BOND
  1   1   2  1   
  2   2   3  1   
  3   2   4  2   
  4   3   5  2   
  5   3   6  1   
  6   4   7  1   
  7   4  21  1   
  8   5   7  1   
  9   6   8  2   
 10   6   9  am  
 11   7  10  1   
 12   9  11  1   
 13   9  12  1   
 14  10  22  1   
 15  10  23  1   
 16  10  24  1   
 17  11  13  1   
 18  11  25  1   
 19  11  26  1   
 20  12  14  1   
 21  12  27  1   
 22  12  28  1   
 23  13  15  1   
 24  13  16  2   
 25  14  17  1   
 26  14  29  1   
 27  14  30  1   
 28  15  18  1   
 29  15  31  1   
 30  16  19  1   
 31  16  32  1   
 32  17  33  1   
 33  18  19  2   
 34  18  20  1   
 35  20  34  1   
 36  20  35  1   
 37  20  36  1   
@<TRIPOS>SUBSTRUCTURE
  1 ****   9 GROUP 4 **** **** 0

# MOE 2024.06 (io_trps.svl 2023.06)
