@<TRIPOS>MOLECULE
NONAME
46 48 1 0 0 
SMALL
USER_CHARGES


@<TRIPOS>ATOM
  1 S       -0.8450    -0.4230     0.9270 S.3   1 <1>  -0.0800 
  2 C       -1.3660    -1.7020    -0.1250 C.2   1 <1>   0.4420 
  3 C       -0.1620     0.3470    -0.4660 C.2   1 <1>   0.1980 
  4 N       -1.0260    -1.4970    -1.3450 N.2   1 <1>  -0.3380 
  5 N       -2.0600    -2.7930     0.3430 N.am  1 <1>  -0.4940 
  6 N       -0.3380    -0.3310    -1.5330 N.2   1 <1>  -0.3380 
  7 C        0.5630     1.6750    -0.2560 C.3   1 <1>   0.3800 
  8 C       -2.5040    -3.1580     1.5780 C.2   1 <1>   0.5690 
  9 O       -0.2750     2.6200     0.3490 O.3   1 <1>  -0.5600 
 10 C        1.0580     2.3440    -1.5350 C.3   1 <1>  -0.1600 
 11 O       -2.3450    -2.5060     2.5790 O.2   1 <1>  -0.5700 
 12 C       -3.2440    -4.4950     1.6680 C.3   1 <1>   0.1710 
 13 C       -0.0510     3.9080    -0.1380 C.3   1 <1>   0.1200 
 14 C        1.0860     3.8080    -1.1470 C.3   1 <1>  -0.1600 
 15 N       -3.7940    -4.9740     0.3590 N.3   1 <1>  -0.8100 
 16 C       -4.0770    -6.4220     0.4190 C.3   1 <1>   0.1100 
 17 C       -5.0030    -4.2040     0.0020 C.3   1 <1>   0.0300 
 18 C       -4.2200    -7.0200    -0.9840 C.3   1 <1>   0.0960 
 19 N       -4.4320    -8.4760    -0.8800 N.pl3 1 <1>   0.0480 
 20 C       -5.5960    -9.1640    -0.7720 C.2   1 <1>   0.0060 
 21 C       -3.4730    -9.4190    -0.8400 C.2   1 <1>  -0.3020 
 22 N       -5.4360   -10.4420    -0.6670 N.2   1 <1>  -0.5650 
 23 C       -6.9650    -8.5120    -0.7700 C.3   1 <1>  -0.0600 
 24 C       -4.1020   -10.6060    -0.7120 C.2   1 <1>   0.0770 
 25 H       -2.3360    -3.4630    -0.3780 H     1 <1>   0.3700 
 26 H        1.3910     1.5220     0.4130 H     1 <1>   0.0800 
 27 H        0.3470     2.1850    -2.3270 H     1 <1>   0.0800 
 28 H        2.0190     1.9680    -1.8390 H     1 <1>   0.0800 
 29 H       -4.0350    -4.4080     2.3930 H     1 <1>   0.0800 
 30 H       -2.5350    -5.2100     2.0440 H     1 <1>   0.0800 
 31 H        0.1910     4.5580     0.6860 H     1 <1>   0.0800 
 32 H       -0.9600     4.2390    -0.6100 H     1 <1>   0.0800 
 33 H        0.9370     4.4630    -1.9880 H     1 <1>   0.0800 
 34 H        2.0160     4.0540    -0.6640 H     1 <1>   0.0800 
 35 H       -4.9700    -6.6020     0.9940 H     1 <1>   0.0800 
 36 H       -3.2560    -6.9250     0.9030 H     1 <1>   0.0800 
 37 H       -4.7900    -3.1480    -0.0040 H     1 <1>   0.0800 
 38 H       -5.7930    -4.3890     0.7110 H     1 <1>   0.0800 
 39 H       -5.3460    -4.4730    -0.9810 H     1 <1>   0.0800 
 40 H       -3.3240    -6.8430    -1.5490 H     1 <1>   0.0800 
 41 H       -5.0540    -6.5880    -1.5030 H     1 <1>   0.0800 
 42 H       -2.4230    -9.2040    -0.9030 H     1 <1>   0.1500 
 43 H       -7.0470    -7.8200     0.0470 H     1 <1>   0.0800 
 44 H       -7.7230    -9.2660    -0.6580 H     1 <1>   0.0800 
 45 H       -7.1290    -7.9970    -1.6980 H     1 <1>   0.0800 
 46 H       -3.6600   -11.5870    -0.6480 H     1 <1>   0.1500 
@<TRIPOS>BOND
  1   1   2  1   
  2   1   3  1   
  3   2   4  2   
  4   2   5  1   
  5   3   6  2   
  6   3   7  1   
  7   4   6  1   
  8   5   8  am  
  9   5  25  1   
 10   7   9  1   
 11   7  10  1   
 12   7  26  1   
 13   8  11  2   
 14   8  12  1   
 15   9  13  1   
 16  10  14  1   
 17  10  27  1   
 18  10  28  1   
 19  12  15  1   
 20  12  29  1   
 21  12  30  1   
 22  13  14  1   
 23  13  31  1   
 24  13  32  1   
 25  14  33  1   
 26  14  34  1   
 27  15  16  1   
 28  15  17  1   
 29  16  18  1   
 30  16  35  1   
 31  16  36  1   
 32  17  37  1   
 33  17  38  1   
 34  17  39  1   
 35  18  19  1   
 36  18  40  1   
 37  18  41  1   
 38  19  20  1   
 39  19  21  1   
 40  20  22  2   
 41  20  23  1   
 42  21  24  2   
 43  21  42  1   
 44  22  24  1   
 45  23  43  1   
 46  23  44  1   
 47  23  45  1   
 48  24  46  1   
@<TRIPOS>SUBSTRUCTURE
  1 ****   5 GROUP 4 **** **** 0

# MOE 2024.06 (io_trps.svl 2023.06)
