@<TRIPOS>MOLECULE
NONAME
49 49 1 0 0 
SMALL
USER_CHARGES


@<TRIPOS>ATOM
  1 O       -0.2530    -2.4610     2.1320 O.3   1 <1>  -0.6800 
  2 C       -0.2500    -2.8960     0.8070 C.3   1 <1>   0.1200 
  3 C       -1.5070    -2.4160     0.0410 C.3   1 <1>   0.0000 
  4 C       -2.7950    -2.9370     0.7330 C.3   1 <1>   0.2090 
  5 C       -1.4750    -2.9690    -1.4110 C.3   1 <1>  -0.1600 
  6 C       -1.5200    -0.8570     0.0470 C.3   1 <1>  -0.1600 
  7 N       -2.8580    -4.4360     0.9550 N.pl3 1 <1>  -0.8380 
  8 C       -0.3010    -2.5100    -2.2930 C.3   1 <1>  -0.2400 
  9 C       -2.6440    -0.1790    -0.7560 C.3   1 <1>  -0.2400 
 10 C       -3.9050    -5.1570     0.4000 C.ar  1 <1>   0.4100 
 11 C       -2.4850    -4.8170     2.3470 C.3   1 <1>   0.1290 
 12 N       -5.0690    -4.5310     0.3930 N.ar  1 <1>  -0.6200 
 13 C       -3.8060    -6.4680    -0.0870 C.ar  1 <1>  -0.1430 
 14 C       -6.0980    -5.1770    -0.1020 C.ar  1 <1>   0.4770 
 15 C       -4.9680    -7.0200    -0.5720 C.ar  1 <1>   0.1600 
 16 C       -2.5630    -7.3750    -0.1390 C.3   1 <1>   0.0630 
 17 N       -6.1250    -6.3950    -0.5940 N.ar  1 <1>  -0.6200 
 18 C       -7.4130    -4.4350    -0.1100 C.3   1 <1>  -0.0970 
 19 C       -2.3000    -8.0750     1.1980 C.3   1 <1>  -0.2400 
 20 C       -1.2930    -6.7110    -0.6740 C.3   1 <1>  -0.2400 
 21 H        0.5720    -2.7270     2.5790 H     1 <1>   0.4000 
 22 H       -0.1980    -3.9700     0.8080 H     1 <1>   0.0800 
 23 H        0.6400    -2.5090     0.3450 H     1 <1>   0.0800 
 24 H       -3.6270    -2.6310     0.1270 H     1 <1>   0.0800 
 25 H       -2.9100    -2.4310     1.6750 H     1 <1>   0.0800 
 26 H       -2.3950    -2.7170    -1.9080 H     1 <1>   0.0800 
 27 H       -1.4530    -4.0390    -1.3640 H     1 <1>   0.0800 
 28 H       -0.5760    -0.4930    -0.3180 H     1 <1>   0.0800 
 29 H       -1.5980    -0.5170     1.0660 H     1 <1>   0.0800 
 30 H       -0.3060    -1.4430    -2.4220 H     1 <1>   0.0800 
 31 H       -0.3890    -2.9610    -3.2660 H     1 <1>   0.0800 
 32 H        0.6420    -2.8090    -1.8740 H     1 <1>   0.0800 
 33 H       -2.5760    -0.4200    -1.8010 H     1 <1>   0.0800 
 34 H       -2.5600     0.8890    -0.6570 H     1 <1>   0.0800 
 35 H       -3.6130    -0.4690    -0.3920 H     1 <1>   0.0800 
 36 H       -1.4560    -5.1260     2.3760 H     1 <1>   0.0800 
 37 H       -3.1070    -5.6260     2.6910 H     1 <1>   0.0800 
 38 H       -2.6160    -3.9910     3.0230 H     1 <1>   0.0800 
 39 H       -4.9670    -8.0230    -0.9620 H     1 <1>   0.1500 
 40 H       -2.7780    -8.1630    -0.8420 H     1 <1>   0.0800 
 41 H       -7.3420    -3.5360     0.4730 H     1 <1>   0.0800 
 42 H       -8.1810    -5.0610     0.3020 H     1 <1>   0.0800 
 43 H       -7.6680    -4.1800    -1.1210 H     1 <1>   0.0800 
 44 H       -1.9020    -7.3920     1.9210 H     1 <1>   0.0800 
 45 H       -1.5890    -8.8700     1.0640 H     1 <1>   0.0800 
 46 H       -3.2130    -8.4940     1.5830 H     1 <1>   0.0800 
 47 H       -0.9480    -5.9510    -0.0020 H     1 <1>   0.0800 
 48 H       -1.4920    -6.2740    -1.6350 H     1 <1>   0.0800 
 49 H       -0.5120    -7.4410    -0.7890 H     1 <1>   0.0800 
@<TRIPOS>BOND
  1   1   2  1   
  2   1  21  1   
  3   2   3  1   
  4   2  22  1   
  5   2  23  1   
  6   3   4  1   
  7   3   5  1   
  8   3   6  1   
  9   4   7  1   
 10   4  24  1   
 11   4  25  1   
 12   5   8  1   
 13   5  26  1   
 14   5  27  1   
 15   6   9  1   
 16   6  28  1   
 17   6  29  1   
 18   7  10  1   
 19   7  11  1   
 20   8  30  1   
 21   8  31  1   
 22   8  32  1   
 23   9  33  1   
 24   9  34  1   
 25   9  35  1   
 26  10  12  ar  
 27  10  13  ar  
 28  11  36  1   
 29  11  37  1   
 30  11  38  1   
 31  12  14  ar  
 32  13  15  ar  
 33  13  16  1   
 34  14  17  ar  
 35  14  18  1   
 36  15  17  ar  
 37  15  39  1   
 38  16  19  1   
 39  16  20  1   
 40  16  40  1   
 41  18  41  1   
 42  18  42  1   
 43  18  43  1   
 44  19  44  1   
 45  19  45  1   
 46  19  46  1   
 47  20  47  1   
 48  20  48  1   
 49  20  49  1   
@<TRIPOS>SUBSTRUCTURE
  1 ****   7 GROUP 4 **** **** 0

# MOE 2024.06 (io_trps.svl 2023.06)
