@<TRIPOS>MOLECULE
NONAME
43 44 1 0 0 
SMALL
USER_CHARGES


@<TRIPOS>ATOM
  1 CL      -2.2910     0.0150    -2.2310 Cl    1 <1>  -0.1770 
  2 C       -2.5290    -0.9760    -0.8050 C.ar  1 <1>   0.1770 
  3 C       -2.6530    -0.4560     0.4890 C.ar  1 <1>   0.0830 
  4 C       -2.6170    -2.3360    -1.0340 C.ar  1 <1>  -0.1500 
  5 O       -2.5800     0.8470     0.8610 O.3   1 <1>  -0.3630 
  6 C       -2.8780    -1.3480     1.5280 C.ar  1 <1>  -0.1500 
  7 C       -2.8480    -3.2320     0.0080 C.ar  1 <1>   0.0860 
  8 C       -1.9010     1.8340     0.1210 C.3   1 <1>   0.1200 
  9 C       -2.9680    -2.7070     1.2930 C.ar  1 <1>  -0.1500 
 10 C       -2.9590    -4.6560    -0.2310 C.2   1 <1>   0.5440 
 11 C       -1.6370     3.0170     1.0480 C.3   1 <1>  -0.2400 
 12 O       -2.1130    -5.3990     0.2280 O.2   1 <1>  -0.5700 
 13 N       -4.0130    -5.1930    -0.9380 N.am  1 <1>  -0.6600 
 14 C       -4.0210    -6.6250    -1.3470 C.3   1 <1>   0.3200 
 15 C       -5.2300    -4.4100    -1.3190 C.3   1 <1>   0.1400 
 16 C       -5.1170    -7.3650    -0.6060 C.2   1 <1>  -0.3320 
 17 C       -6.1930    -4.2760    -0.1340 C.3   1 <1>   0.1200 
 18 N       -5.0830    -7.6780     0.7050 N.pl3 1 <1>   0.0480 
 19 C       -6.2900    -7.8390    -1.0830 C.2   1 <1>   0.0770 
 20 O       -7.1220    -3.2820    -0.4100 O.3   1 <1>  -0.6800 
 21 C       -6.2500    -8.3200     0.9330 C.2   1 <1>   0.0360 
 22 C       -4.0160    -7.4040     1.6850 C.3   1 <1>   0.0160 
 23 N       -7.0030    -8.4370    -0.1120 N.2   1 <1>  -0.5650 
 24 H       -2.5080    -2.7100    -2.0360 H     1 <1>   0.1500 
 25 H       -2.9750    -0.9630     2.5290 H     1 <1>   0.1500 
 26 H       -2.5260     2.1350    -0.7010 H     1 <1>   0.0800 
 27 H       -0.9740     1.4210    -0.2390 H     1 <1>   0.0800 
 28 H       -3.1310    -3.3820     2.1170 H     1 <1>   0.1500 
 29 H       -2.5660     3.4150     1.4140 H     1 <1>   0.0800 
 30 H       -1.1200     3.7910     0.5110 H     1 <1>   0.0800 
 31 H       -1.0260     2.7070     1.8770 H     1 <1>   0.0800 
 32 H       -3.0700    -7.0900    -1.1520 H     1 <1>   0.0800 
 33 H       -4.1970    -6.6840    -2.4070 H     1 <1>   0.0800 
 34 H       -5.7400    -4.9000    -2.1300 H     1 <1>   0.0800 
 35 H       -4.9370    -3.4330    -1.6560 H     1 <1>   0.0800 
 36 H       -5.6730    -4.0050     0.7680 H     1 <1>   0.0800 
 37 H       -6.7300    -5.1970     0.0210 H     1 <1>   0.0800 
 38 H       -6.6700    -7.7810    -2.0890 H     1 <1>   0.1500 
 39 H       -6.7190    -2.3940    -0.3430 H     1 <1>   0.4000 
 40 H       -6.5120    -8.6960     1.9060 H     1 <1>   0.1500 
 41 H       -3.0640    -7.6720     1.2630 H     1 <1>   0.0800 
 42 H       -4.1850    -7.9770     2.5770 H     1 <1>   0.0800 
 43 H       -4.0150    -6.3560     1.9230 H     1 <1>   0.0800 
@<TRIPOS>BOND
  1   1   2  1   
  2   2   3  ar  
  3   2   4  ar  
  4   3   5  1   
  5   3   6  ar  
  6   4   7  ar  
  7   4  24  1   
  8   5   8  1   
  9   6   9  ar  
 10   6  25  1   
 11   7   9  ar  
 12   7  10  1   
 13   8  11  1   
 14   8  26  1   
 15   8  27  1   
 16   9  28  1   
 17  10  12  2   
 18  10  13  am  
 19  11  29  1   
 20  11  30  1   
 21  11  31  1   
 22  13  14  1   
 23  13  15  1   
 24  14  16  1   
 25  14  32  1   
 26  14  33  1   
 27  15  17  1   
 28  15  34  1   
 29  15  35  1   
 30  16  18  1   
 31  16  19  2   
 32  17  20  1   
 33  17  36  1   
 34  17  37  1   
 35  18  21  1   
 36  18  22  1   
 37  19  23  1   
 38  19  38  1   
 39  20  39  1   
 40  21  23  2   
 41  21  40  1   
 42  22  41  1   
 43  22  42  1   
 44  22  43  1   
@<TRIPOS>SUBSTRUCTURE
  1 ****   7 GROUP 4 **** **** 0

# MOE 2024.06 (io_trps.svl 2023.06)
