@<TRIPOS>MOLECULE
NONAME
40 43 1 0 0 
SMALL
USER_CHARGES


@<TRIPOS>ATOM
  1 CL       0.3740    -0.8430     2.5240 Cl    1 <1>  -0.1770 
  2 C        0.1310    -2.1680     1.4180 C.ar  1 <1>   0.1770 
  3 C       -0.5180    -3.3150     1.8380 C.ar  1 <1>   0.1600 
  4 C        0.5860    -2.0720     0.1240 C.ar  1 <1>  -0.1500 
  5 N       -0.7490    -4.3650     1.0660 N.ar  1 <1>  -0.6200 
  6 C        0.3530    -3.1640    -0.6860 C.ar  1 <1>  -0.1500 
  7 C       -0.3140    -4.2990    -0.2100 C.ar  1 <1>   0.3960 
  8 C       -0.5130    -5.4250    -1.1290 C.2   1 <1>   0.5440 
  9 O        0.3940    -5.7230    -1.8900 O.2   1 <1>  -0.5700 
 10 N       -1.6840    -6.1670    -1.2030 N.am  1 <1>  -0.6600 
 11 C       -1.7380    -7.4970    -1.8700 C.3   1 <1>   0.1400 
 12 C       -2.9740    -5.7780    -0.5740 C.3   1 <1>   0.1400 
 13 C       -2.0780    -8.5570    -0.8190 C.3   1 <1>  -0.1600 
 14 C       -3.3180    -6.8020     0.5070 C.3   1 <1>  -0.1600 
 15 C       -3.3760    -8.2250    -0.0710 C.3   1 <1>   0.4610 
 16 O       -4.4080    -8.2880    -1.0400 O.3   1 <1>  -0.5600 
 17 C       -3.6330    -9.2560     1.0320 C.2   1 <1>  -0.1810 
 18 C       -5.7370    -8.4440    -0.6020 C.3   1 <1>   0.1200 
 19 C       -4.7820    -9.9420     1.0810 C.2   1 <1>  -0.1400 
 20 C       -2.7300    -9.6010     2.0930 C.2   1 <1>  -0.1500 
 21 C       -5.9310    -9.7860     0.1220 C.3   1 <1>   0.0200 
 22 S       -4.8150   -11.0680     2.4210 S.3   1 <1>  -0.0800 
 23 C       -3.2100   -10.5520     2.9190 C.2   1 <1>  -0.1100 
 24 H       -0.8600    -3.3610     2.8570 H     1 <1>   0.1500 
 25 H        1.0970    -1.1920    -0.2260 H     1 <1>   0.1500 
 26 H        0.6920    -3.1550    -1.7070 H     1 <1>   0.1500 
 27 H       -0.7960    -7.7370    -2.3320 H     1 <1>   0.0800 
 28 H       -2.4930    -7.4790    -2.6380 H     1 <1>   0.0800 
 29 H       -3.7420    -5.7710    -1.3290 H     1 <1>   0.0800 
 30 H       -2.9220    -4.7910    -0.1530 H     1 <1>   0.0800 
 31 H       -1.2620    -8.6140    -0.1240 H     1 <1>   0.0800 
 32 H       -2.1760    -9.5190    -1.2860 H     1 <1>   0.0800 
 33 H       -4.2500    -6.5520     0.9740 H     1 <1>   0.0800 
 34 H       -2.5600    -6.7590     1.2680 H     1 <1>   0.0800 
 35 H       -6.3760    -8.3930    -1.4660 H     1 <1>   0.0800 
 36 H       -5.9790    -7.6270     0.0540 H     1 <1>   0.0800 
 37 H       -1.7710    -9.1230     2.1870 H     1 <1>   0.1500 
 38 H       -5.9320   -10.5960    -0.5850 H     1 <1>   0.0800 
 39 H       -6.8660    -9.7830     0.6520 H     1 <1>   0.0800 
 40 H       -2.7890   -11.0210     3.7900 H     1 <1>   0.1500 
@<TRIPOS>BOND
  1   1   2  1   
  2   2   3  ar  
  3   2   4  ar  
  4   3   5  ar  
  5   3  24  1   
  6   4   6  ar  
  7   4  25  1   
  8   5   7  ar  
  9   6   7  ar  
 10   6  26  1   
 11   7   8  1   
 12   8   9  2   
 13   8  10  am  
 14  10  11  1   
 15  10  12  1   
 16  11  13  1   
 17  11  27  1   
 18  11  28  1   
 19  12  14  1   
 20  12  29  1   
 21  12  30  1   
 22  13  15  1   
 23  13  31  1   
 24  13  32  1   
 25  14  15  1   
 26  14  33  1   
 27  14  34  1   
 28  15  16  1   
 29  15  17  1   
 30  16  18  1   
 31  17  19  2   
 32  17  20  1   
 33  18  21  1   
 34  18  35  1   
 35  18  36  1   
 36  19  21  1   
 37  19  22  1   
 38  20  23  2   
 39  20  37  1   
 40  21  38  1   
 41  21  39  1   
 42  22  23  1   
 43  23  40  1   
@<TRIPOS>SUBSTRUCTURE
  1 ****  14 GROUP 4 **** **** 0

# MOE 2024.06 (io_trps.svl 2023.06)
