@<TRIPOS>MOLECULE
NONAME
47 50 1 0 0 
SMALL
USER_CHARGES


@<TRIPOS>ATOM
  1 S       -0.3980    -0.0510    -1.5080 S.3   1 <1>  -0.0800 
  2 C       -1.3780     1.0090    -0.5070 C.2   1 <1>  -0.1400 
  3 C       -1.7180    -1.2070    -1.6310 C.2   1 <1>  -0.1100 
  4 C       -2.5980     0.4900    -0.3190 C.2   1 <1>  -0.1810 
  5 C       -0.8530     2.3280     0.0540 C.3   1 <1>   0.4600 
  6 C       -2.8000    -0.7770    -0.9530 C.2   1 <1>  -0.1500 
  7 C       -3.6090     1.2470     0.5110 C.3   1 <1>   0.0210 
  8 O       -1.8310     2.8740     0.9180 O.3   1 <1>  -0.5600 
  9 C       -0.5890     3.3410    -1.0720 C.3   1 <1>  -0.1600 
 10 C        0.3890     2.0930     0.9340 C.3   1 <1>  -0.1600 
 11 C       -3.1920     2.7290     0.5770 C.3   1 <1>   0.1200 
 12 C        0.2970     4.4830    -0.5780 C.3   1 <1>   0.1400 
 13 C        1.6900     2.5180     0.2510 C.3   1 <1>   0.1400 
 14 N        1.6270     3.9600    -0.1390 N.am  1 <1>  -0.6600 
 15 C        2.7610     4.7320    -0.0830 C.2   1 <1>   0.5690 
 16 O        3.8390     4.2540     0.1850 O.2   1 <1>  -0.5700 
 17 C        2.6790     6.2300    -0.3670 C.3   1 <1>  -0.0990 
 18 C        3.9430     7.0190     0.0280 C.3   1 <1>  -0.1600 
 19 C        3.7970     8.5210    -0.2520 C.3   1 <1>   0.0210 
 20 C        5.0410     9.3040     0.1360 C.2   1 <1>  -0.1810 
 21 C        5.1970    10.6820     0.0120 C.2   1 <1>   0.1390 
 22 C        6.2120     8.8780     0.6560 C.2   1 <1>  -0.3020 
 23 N        6.3610    11.0880     0.4180 N.2   1 <1>  -0.7070 
 24 N        6.9890     9.9660     0.8170 N.pl3 1 <1>   0.3000 
 25 H       -1.5410    -2.0980    -2.2060 H     1 <1>   0.1500 
 26 H       -3.7360    -1.3000    -0.8700 H     1 <1>   0.1500 
 27 H       -3.6490     0.8330     1.5030 H     1 <1>   0.0800 
 28 H       -4.5850     1.1700     0.0680 H     1 <1>   0.0800 
 29 H       -1.5130     3.7260    -1.4560 H     1 <1>   0.0800 
 30 H       -0.0870     2.8560    -1.8900 H     1 <1>   0.0800 
 31 H        0.4560     1.0540     1.2010 H     1 <1>   0.0800 
 32 H        0.3030     2.6540     1.8480 H     1 <1>   0.0800 
 33 H       -3.7720     3.2420     1.3240 H     1 <1>   0.0800 
 34 H       -3.3600     3.2030    -0.3730 H     1 <1>   0.0800 
 35 H       -0.1810     4.9760     0.2530 H     1 <1>   0.0800 
 36 H        0.4260     5.1950    -1.3740 H     1 <1>   0.0800 
 37 H        1.8580     1.9220    -0.6310 H     1 <1>   0.0800 
 38 H        2.5140     2.3520     0.9240 H     1 <1>   0.0800 
 39 H        1.8430     6.6320     0.1740 H     1 <1>   0.0800 
 40 H        2.5000     6.3580    -1.4190 H     1 <1>   0.0800 
 41 H        4.7850     6.6370    -0.5240 H     1 <1>   0.0800 
 42 H        4.1390     6.8690     1.0760 H     1 <1>   0.0800 
 43 H        2.9600     8.9090     0.3020 H     1 <1>   0.0800 
 44 H        3.6060     8.6740    -1.3000 H     1 <1>   0.0800 
 45 H        4.4440    11.3480    -0.3760 H     1 <1>   0.1500 
 46 H        6.5320     7.8850     0.9160 H     1 <1>   0.1500 
 47 H        7.9440     9.9770     1.1940 H     1 <1>   0.2700 
@<TRIPOS>BOND
  1   1   2  1   
  2   1   3  1   
  3   2   4  2   
  4   2   5  1   
  5   3   6  2   
  6   3  25  1   
  7   4   6  1   
  8   4   7  1   
  9   5   8  1   
 10   5   9  1   
 11   5  10  1   
 12   6  26  1   
 13   7  11  1   
 14   7  27  1   
 15   7  28  1   
 16   8  11  1   
 17   9  12  1   
 18   9  29  1   
 19   9  30  1   
 20  10  13  1   
 21  10  31  1   
 22  10  32  1   
 23  11  33  1   
 24  11  34  1   
 25  12  14  1   
 26  12  35  1   
 27  12  36  1   
 28  13  14  1   
 29  13  37  1   
 30  13  38  1   
 31  14  15  am  
 32  15  16  2   
 33  15  17  1   
 34  17  18  1   
 35  17  39  1   
 36  17  40  1   
 37  18  19  1   
 38  18  41  1   
 39  18  42  1   
 40  19  20  1   
 41  19  43  1   
 42  19  44  1   
 43  20  21  1   
 44  20  22  2   
 45  21  23  2   
 46  21  45  1   
 47  22  24  1   
 48  22  46  1   
 49  23  24  1   
 50  24  47  1   
@<TRIPOS>SUBSTRUCTURE
  1 ****  14 GROUP 4 **** **** 0

# MOE 2024.06 (io_trps.svl 2023.06)
