@<TRIPOS>MOLECULE
NONAME
58 61 1 0 0 
SMALL
USER_CHARGES


@<TRIPOS>ATOM
  1 O        0.6760    -0.1910     1.5280 O.2   1 <1>  -0.5700 
  2 C        1.6510    -0.8160     1.1820 C.2   1 <1>   0.5690 
  3 N        2.8900    -0.2240     1.1080 N.am  1 <1>  -0.6600 
  4 C        1.4750    -2.2880     0.8300 C.3   1 <1>  -0.0990 
  5 C        4.1630    -0.9310     0.7560 C.3   1 <1>   0.1400 
  6 C        3.0430     1.2340     1.3740 C.3   1 <1>   0.1400 
  7 C        0.0150    -2.7270     0.6180 C.3   1 <1>   0.0630 
  8 C        4.7650    -0.3960    -0.5500 C.3   1 <1>   0.1400 
  9 C        3.0960     1.9930     0.0430 C.3   1 <1>  -0.1600 
 10 C       -0.0940    -4.1930     0.2550 C.ar  1 <1>  -0.1440 
 11 C       -0.6590    -2.0200    -0.5790 C.3   1 <1>  -0.1600 
 12 N        5.3830     0.9500    -0.3410 N.am  1 <1>  -0.6600 
 13 C        4.4990     2.1330    -0.5690 C.3   1 <1>   0.1400 
 14 C       -0.9370    -4.3800    -0.8130 C.ar  1 <1>  -0.1440 
 15 C        0.5220    -5.2780     0.8570 C.ar  1 <1>  -0.1500 
 16 C       -1.5160    -3.0750    -1.2960 C.3   1 <1>  -0.0170 
 17 C        6.6890     1.0220     0.0770 C.2   1 <1>   0.5690 
 18 C       -1.1780    -5.6450    -1.3170 C.ar  1 <1>  -0.1500 
 19 C        0.2880    -6.5500     0.3590 C.ar  1 <1>  -0.1500 
 20 O        7.2890     0.0320     0.4250 O.2   1 <1>  -0.5700 
 21 C        7.4230     2.3600     0.1280 C.3   1 <1>  -0.0990 
 22 C       -0.5580    -6.7330    -0.7250 C.ar  1 <1>  -0.1500 
 23 C        8.9590     2.2290     0.1400 C.3   1 <1>  -0.1600 
 24 C        9.6420     3.6030     0.2060 C.3   1 <1>   0.0960 
 25 N       11.1100     3.4770     0.1110 N.pl3 1 <1>   0.3140 
 26 N       11.7980     3.9120    -0.9340 N.2   1 <1>  -0.7070 
 27 C       11.9640     2.9580     0.9990 C.2   1 <1>   0.0360 
 28 C       13.0140     3.6230    -0.6040 C.2   1 <1>   0.3660 
 29 N       13.1780     3.0320     0.5860 N.2   1 <1>  -0.5650 
 30 H        1.9020    -2.8640     1.6290 H     1 <1>   0.0800 
 31 H        2.0160    -2.5050    -0.0710 H     1 <1>   0.0800 
 32 H        3.9970    -1.9860     0.6500 H     1 <1>   0.0800 
 33 H        4.8760    -0.8060     1.5520 H     1 <1>   0.0800 
 34 H        3.9300     1.4150     1.9570 H     1 <1>   0.0800 
 35 H        2.2030     1.5870     1.9490 H     1 <1>   0.0800 
 36 H       -0.5600    -2.5540     1.5130 H     1 <1>   0.0800 
 37 H        4.0120    -0.3510    -1.3170 H     1 <1>   0.0800 
 38 H        5.5250    -1.0810    -0.8840 H     1 <1>   0.0800 
 39 H        2.7150     2.9850     0.2070 H     1 <1>   0.0800 
 40 H        2.4300     1.5260    -0.6620 H     1 <1>   0.0800 
 41 H        0.0910    -1.6680    -1.2640 H     1 <1>   0.0800 
 42 H       -1.2500    -1.1810    -0.2550 H     1 <1>   0.0800 
 43 H        4.9510     3.0060    -0.1350 H     1 <1>   0.0800 
 44 H        4.4090     2.3050    -1.6280 H     1 <1>   0.0800 
 45 H        1.1730    -5.1420     1.7010 H     1 <1>   0.1500 
 46 H       -1.4460    -2.9810    -2.3650 H     1 <1>   0.0800 
 47 H       -2.5430    -3.0030    -0.9860 H     1 <1>   0.0800 
 48 H       -1.8390    -5.7810    -2.1540 H     1 <1>   0.1500 
 49 H        0.7610    -7.4010     0.8180 H     1 <1>   0.1500 
 50 H        7.1000     2.8790     1.0110 H     1 <1>   0.0800 
 51 H        7.1410     2.9380    -0.7340 H     1 <1>   0.0800 
 52 H       -0.7360    -7.7230    -1.1060 H     1 <1>   0.1500 
 53 H        9.2730     1.7170    -0.7550 H     1 <1>   0.0800 
 54 H        9.2590     1.6390     0.9890 H     1 <1>   0.0800 
 55 H        9.4020     4.0990     1.1280 H     1 <1>   0.0800 
 56 H        9.3110     4.2180    -0.6120 H     1 <1>   0.0800 
 57 H       11.6530     2.5360     1.9370 H     1 <1>   0.1500 
 58 H       13.8640     3.8370    -1.2330 H     1 <1>   0.1500 
@<TRIPOS>BOND
  1   1   2  2   
  2   2   3  am  
  3   2   4  1   
  4   3   5  1   
  5   3   6  1   
  6   4   7  1   
  7   4  30  1   
  8   4  31  1   
  9   5   8  1   
 10   5  32  1   
 11   5  33  1   
 12   6   9  1   
 13   6  34  1   
 14   6  35  1   
 15   7  10  1   
 16   7  11  1   
 17   7  36  1   
 18   8  12  1   
 19   8  37  1   
 20   8  38  1   
 21   9  13  1   
 22   9  39  1   
 23   9  40  1   
 24  10  14  ar  
 25  10  15  ar  
 26  11  16  1   
 27  11  41  1   
 28  11  42  1   
 29  12  13  1   
 30  12  17  am  
 31  13  43  1   
 32  13  44  1   
 33  14  16  1   
 34  14  18  ar  
 35  15  19  ar  
 36  15  45  1   
 37  16  46  1   
 38  16  47  1   
 39  17  20  2   
 40  17  21  1   
 41  18  22  ar  
 42  18  48  1   
 43  19  22  ar  
 44  19  49  1   
 45  21  23  1   
 46  21  50  1   
 47  21  51  1   
 48  22  52  1   
 49  23  24  1   
 50  23  53  1   
 51  23  54  1   
 52  24  25  1   
 53  24  55  1   
 54  24  56  1   
 55  25  26  1   
 56  25  27  1   
 57  26  28  2   
 58  27  29  2   
 59  27  57  1   
 60  28  29  1   
 61  28  58  1   
@<TRIPOS>SUBSTRUCTURE
  1 ****   8 GROUP 4 **** **** 0

# MOE 2024.06 (io_trps.svl 2023.06)
