@<TRIPOS>MOLECULE
NONAME
53 55 1 0 0 
SMALL
USER_CHARGES


@<TRIPOS>ATOM
  1 O        0.7490     2.3660    -0.8850 O.2   1 <1>  -0.5700 
  2 C        0.0080     3.3090    -0.7400 C.2   1 <1>   0.5690 
  3 N       -0.8940     3.3820     0.2860 N.am  1 <1>  -0.6600 
  4 C        0.1100     4.4600    -1.7400 C.3   1 <1>   0.1810 
  5 C       -1.8210     4.5490     0.4290 C.3   1 <1>   0.3640 
  6 C       -1.0290     2.3100     1.3130 C.3   1 <1>   0.0600 
  7 O       -1.0730     5.2250    -1.8430 O.3   1 <1>  -0.5600 
  8 C       -3.2970     4.1140     0.4760 C.ar  1 <1>  -0.1430 
  9 C       -1.6000     5.6920    -0.6060 C.3   1 <1>   0.2610 
 10 C       -3.9450     3.3310    -0.4850 C.ar  1 <1>  -0.1430 
 11 C       -4.0260     4.5600     1.5740 C.ar  1 <1>  -0.1500 
 12 C       -0.7660     6.8570    -0.0510 C.2   1 <1>   0.5690 
 13 C       -5.2870     3.0170    -0.3180 C.ar  1 <1>  -0.1500 
 14 C       -3.2610     2.7860    -1.7330 C.3   1 <1>  -0.0960 
 15 C       -5.3620     4.2420     1.7290 C.ar  1 <1>  -0.1500 
 16 O       -0.7830     7.1050     1.1330 O.2   1 <1>  -0.5700 
 17 N       -0.0430     7.6020    -0.9340 N.am  1 <1>  -0.5790 
 18 C       -5.9950     3.4660     0.7800 C.ar  1 <1>  -0.1500 
 19 C        0.8030     8.7620    -0.6260 C.3   1 <1>   0.0540 
 20 C        0.7510     9.8740    -1.6280 C.3   1 <1>  -0.2000 
 21 C        0.0580    10.0180    -0.3080 C.3   1 <1>  -0.2000 
 22 C        2.1030     8.3320     0.0900 C.3   1 <1>  -0.0650 
 23 C        3.3630     9.2250    -0.0250 C.3   1 <1>  -0.0800 
 24 C        4.5800     8.4500     0.5010 C.3   1 <1>  -0.2400 
 25 C        3.2580    10.5470     0.7500 C.3   1 <1>  -0.2400 
 26 H        0.3210     4.0580    -2.7140 H     1 <1>   0.0800 
 27 H        0.9200     5.1050    -1.4530 H     1 <1>   0.0800 
 28 H       -1.6110     4.9540     1.4020 H     1 <1>   0.0800 
 29 H       -0.9420     2.7340     2.2980 H     1 <1>   0.0800 
 30 H       -0.2610     1.5660     1.1900 H     1 <1>   0.0800 
 31 H       -1.9880     1.8310     1.2170 H     1 <1>   0.0800 
 32 H       -2.5630     6.1100    -0.8320 H     1 <1>   0.0800 
 33 H       -3.5600     5.1690     2.3300 H     1 <1>   0.1500 
 34 H       -5.7980     2.4140    -1.0480 H     1 <1>   0.1500 
 35 H       -3.9450     2.2120    -2.3300 H     1 <1>   0.0800 
 36 H       -2.4470     2.1390    -1.4660 H     1 <1>   0.0800 
 37 H       -2.8970     3.5900    -2.3430 H     1 <1>   0.0800 
 38 H       -5.9070     4.5970     2.5860 H     1 <1>   0.1500 
 39 H       -0.0950     7.3460    -1.9230 H     1 <1>   0.3700 
 40 H       -7.0350     3.2130     0.8930 H     1 <1>   0.1500 
 41 H        1.5990    10.5080    -1.8040 H     1 <1>   0.1000 
 42 H        0.1450     9.7570    -2.5090 H     1 <1>   0.1000 
 43 H       -1.0160     9.9710    -0.2710 H     1 <1>   0.1000 
 44 H        0.4530    10.6810     0.4370 H     1 <1>   0.1000 
 45 H        1.8750     8.1760     1.1300 H     1 <1>   0.0800 
 46 H        2.3720     7.3730    -0.3160 H     1 <1>   0.0800 
 47 H        3.5450     9.4420    -1.0640 H     1 <1>   0.0800 
 48 H        4.4520     8.2050     1.5410 H     1 <1>   0.0800 
 49 H        5.4740     9.0380     0.3950 H     1 <1>   0.0800 
 50 H        4.7160     7.5370    -0.0530 H     1 <1>   0.0800 
 51 H        2.9320    10.3700     1.7600 H     1 <1>   0.0800 
 52 H        2.5740    11.2210     0.2740 H     1 <1>   0.0800 
 53 H        4.2150    11.0380     0.7830 H     1 <1>   0.0800 
@<TRIPOS>BOND
  1   1   2  2   
  2   2   3  am  
  3   2   4  1   
  4   3   5  1   
  5   3   6  1   
  6   4   7  1   
  7   4  26  1   
  8   4  27  1   
  9   5   8  1   
 10   5   9  1   
 11   5  28  1   
 12   6  29  1   
 13   6  30  1   
 14   6  31  1   
 15   7   9  1   
 16   8  10  ar  
 17   8  11  ar  
 18   9  12  1   
 19   9  32  1   
 20  10  13  ar  
 21  10  14  1   
 22  11  15  ar  
 23  11  33  1   
 24  12  16  2   
 25  12  17  am  
 26  13  18  ar  
 27  13  34  1   
 28  14  35  1   
 29  14  36  1   
 30  14  37  1   
 31  15  18  ar  
 32  15  38  1   
 33  17  19  1   
 34  17  39  1   
 35  18  40  1   
 36  19  20  1   
 37  19  21  1   
 38  19  22  1   
 39  20  21  1   
 40  20  41  1   
 41  20  42  1   
 42  21  43  1   
 43  21  44  1   
 44  22  23  1   
 45  22  45  1   
 46  22  46  1   
 47  23  24  1   
 48  23  25  1   
 49  23  47  1   
 50  24  48  1   
 51  24  49  1   
 52  24  50  1   
 53  25  51  1   
 54  25  52  1   
 55  25  53  1   
@<TRIPOS>SUBSTRUCTURE
  1 ****   9 GROUP 4 **** **** 0

# MOE 2024.06 (io_trps.svl 2023.06)
