@<TRIPOS>MOLECULE
NONAME
39 41 1 0 0 
SMALL
USER_CHARGES


@<TRIPOS>ATOM
  1 F       -0.5730     0.1030    -0.4850 F     1 <1>  -0.1900 
  2 C       -1.2160     1.2330    -0.3000 C.ar  1 <1>   0.1900 
  3 C       -0.5220     2.3870     0.1040 C.ar  1 <1>   0.4100 
  4 C       -2.5720     1.2430    -0.5110 C.ar  1 <1>  -0.1500 
  5 N       -1.1380     3.5530     0.2900 N.ar  1 <1>  -0.6200 
  6 N        0.8500     2.4150     0.3230 N.pl3 1 <1>  -0.8380 
  7 C       -3.2010     2.4560    -0.3030 C.ar  1 <1>  -0.1500 
  8 C       -2.4510     3.5540     0.0890 C.ar  1 <1>   0.1600 
  9 C        1.4130     3.0520     1.5730 C.3   1 <1>   0.2090 
 10 C        1.7980     2.0510    -0.7750 C.3   1 <1>   0.2090 
 11 C        2.0490     4.4410     1.3050 C.3   1 <1>   0.4230 
 12 C        2.7210     3.1970    -1.2600 C.3   1 <1>  -0.0800 
 13 N        1.4420     4.9860     0.0370 N.4   1 <1>  -0.9590 
 14 C        3.5970     4.3660     1.3300 C.3   1 <1>   0.1200 
 15 C        4.1240     3.1650    -0.6330 C.3   1 <1>   0.1200 
 16 C        2.1440     4.6230    -1.2240 C.3   1 <1>   0.3430 
 17 C        1.2510     6.4910     0.1270 C.3   1 <1>   0.2370 
 18 O        4.0760     3.1820     0.7530 O.3   1 <1>  -0.5600 
 19 C        2.5460     7.2750     0.3520 C.2   1 <1>   0.9060 
 20 O        2.9070     7.4620     1.5170 O.co2 1 <1>  -0.9000 
 21 O        3.2490     7.5310    -0.6300 O.co2 1 <1>  -0.9000 
 22 H       -3.1040     0.3590    -0.8160 H     1 <1>   0.1500 
 23 H       -4.2640     2.5470    -0.4440 H     1 <1>   0.1500 
 24 H       -2.9640     4.4890     0.2450 H     1 <1>   0.1500 
 25 H        0.6150     3.1840     2.2840 H     1 <1>   0.0800 
 26 H        2.1250     2.3870     2.0300 H     1 <1>   0.0800 
 27 H        2.3980     1.2170    -0.4500 H     1 <1>   0.0800 
 28 H        1.2210     1.7100    -1.6180 H     1 <1>   0.0800 
 29 H        1.7670     5.0940     2.1140 H     1 <1>   0.0800 
 30 H        2.9040     2.9990    -2.3010 H     1 <1>   0.0800 
 31 H        0.5250     4.4920     0.0050 H     1 <1>   0.4500 
 32 H        3.9160     4.3520     2.3570 H     1 <1>   0.0800 
 33 H        4.0600     5.2160     0.8610 H     1 <1>   0.0800 
 34 H        4.7250     3.9970    -0.9660 H     1 <1>   0.0800 
 35 H        4.6280     2.2560    -0.9130 H     1 <1>   0.0800 
 36 H        1.4500     4.7360    -2.0390 H     1 <1>   0.0800 
 37 H        2.9500     5.3220    -1.3930 H     1 <1>   0.0800 
 38 H        0.8050     6.8580    -0.7790 H     1 <1>   0.0800 
 39 H        0.5960     6.7230     0.9460 H     1 <1>   0.0800 
@<TRIPOS>BOND
  1   1   2  1   
  2   2   3  ar  
  3   2   4  ar  
  4   3   5  ar  
  5   3   6  1   
  6   4   7  ar  
  7   4  22  1   
  8   5   8  ar  
  9   6   9  1   
 10   6  10  1   
 11   7   8  ar  
 12   7  23  1   
 13   8  24  1   
 14   9  11  1   
 15   9  25  1   
 16   9  26  1   
 17  10  12  1   
 18  10  27  1   
 19  10  28  1   
 20  11  13  1   
 21  11  14  1   
 22  11  29  1   
 23  12  15  1   
 24  12  16  1   
 25  12  30  1   
 26  13  16  1   
 27  13  17  1   
 28  13  31  1   
 29  14  18  1   
 30  14  32  1   
 31  14  33  1   
 32  15  18  1   
 33  15  34  1   
 34  15  35  1   
 35  16  36  1   
 36  16  37  1   
 37  17  19  1   
 38  17  38  1   
 39  17  39  1   
 40  19  20  ar  
 41  19  21  ar  
@<TRIPOS>SUBSTRUCTURE
  1 ****  13 GROUP 4 **** **** 0

# MOE 2024.06 (io_trps.svl 2023.06)
