@<TRIPOS>MOLECULE
NONAME
56 59 1 0 0 
SMALL
USER_CHARGES


@<TRIPOS>ATOM
  1 O        0.3050    -2.1600     0.2500 O.3   1 <1>  -0.6800 
  2 C       -1.0000    -2.6000     0.4050 C.3   1 <1>   0.2000 
  3 C       -1.3240    -3.6590    -0.6640 C.3   1 <1>   0.2090 
  4 C       -1.9200    -1.3830     0.2730 C.3   1 <1>  -0.1600 
  5 N       -2.7710    -4.0540    -0.5920 N.pl3 1 <1>  -0.8380 
  6 C       -3.3950    -1.8180     0.2750 C.3   1 <1>  -0.1600 
  7 C       -3.2260    -5.3340    -0.5130 C.ar  1 <1>   0.4100 
  8 C       -3.6860    -2.8860    -0.7870 C.3   1 <1>   0.2090 
  9 N       -4.3980    -5.6050    -1.0600 N.ar  1 <1>  -0.6200 
 10 C       -2.4770    -6.3380     0.1350 C.ar  1 <1>  -0.1500 
 11 C       -4.8310    -6.8490    -1.0190 C.ar  1 <1>   0.7710 
 12 C       -2.9540    -7.6050     0.1650 C.ar  1 <1>   0.2110 
 13 N       -4.1420    -7.8420    -0.4350 N.ar  1 <1>  -0.1790 
 14 N       -6.0190    -7.0750    -1.5910 N.pl3 1 <1>  -0.8690 
 15 C       -6.7850    -8.3270    -1.8520 C.3   1 <1>   0.2090 
 16 C       -7.3190    -8.9520    -0.5580 C.3   1 <1>  -0.0170 
 17 C       -6.7070   -10.3190    -0.3200 C.ar  1 <1>   0.4770 
 18 N       -7.5530   -11.3240    -0.3100 N.ar  1 <1>  -0.6200 
 19 N       -5.3900   -10.3630    -0.1600 N.ar  1 <1>  -0.6200 
 20 C       -7.0400   -12.5140    -0.1020 C.ar  1 <1>   0.1670 
 21 C       -4.8870   -11.5660     0.0380 C.ar  1 <1>   0.1670 
 22 C       -5.6830   -12.6970     0.0920 C.ar  1 <1>  -0.1430 
 23 C       -8.0360   -13.6650    -0.0740 C.3   1 <1>  -0.0170 
 24 C       -3.3770   -11.6320     0.2050 C.3   1 <1>  -0.0970 
 25 C       -5.1040   -14.0920     0.3440 C.3   1 <1>  -0.0170 
 26 C       -7.3730   -15.0430    -0.1780 C.3   1 <1>  -0.1600 
 27 C       -6.1640   -15.1190     0.7560 C.3   1 <1>  -0.1600 
 28 H        0.9440    -2.8270     0.5640 H     1 <1>   0.4000 
 29 H       -1.0930    -3.0280     1.3880 H     1 <1>   0.0800 
 30 H       -0.6810    -4.5100    -0.5440 H     1 <1>   0.0800 
 31 H       -1.1360    -3.2360    -1.6360 H     1 <1>   0.0800 
 32 H       -1.7050    -0.8730    -0.6500 H     1 <1>   0.0800 
 33 H       -1.7410    -0.7050     1.0890 H     1 <1>   0.0800 
 34 H       -4.0200    -0.9620     0.0940 H     1 <1>   0.0800 
 35 H       -3.6570    -2.2130     1.2410 H     1 <1>   0.0800 
 36 H       -4.7180    -3.1840    -0.7070 H     1 <1>   0.0800 
 37 H       -3.5330    -2.4770    -1.7720 H     1 <1>   0.0800 
 38 H       -1.5500    -6.0820     0.6080 H     1 <1>   0.1500 
 39 H       -2.4390    -8.4200     0.6480 H     1 <1>   0.1500 
 40 H       -4.5850    -8.7680    -0.4320 H     1 <1>   0.4570 
 41 H       -6.4440    -6.2300    -1.9920 H     1 <1>   0.4000 
 42 H       -6.1680    -9.0280    -2.3910 H     1 <1>   0.0800 
 43 H       -7.6200    -8.0890    -2.4910 H     1 <1>   0.0800 
 44 H       -8.3860    -9.0630    -0.6480 H     1 <1>   0.0800 
 45 H       -7.1350    -8.3220     0.2920 H     1 <1>   0.0800 
 46 H       -8.7390   -13.5490    -0.8800 H     1 <1>   0.0800 
 47 H       -8.5850   -13.6040     0.8490 H     1 <1>   0.0800 
 48 H       -2.9030   -10.8470    -0.3540 H     1 <1>   0.0800 
 49 H       -2.9840   -12.5630    -0.1580 H     1 <1>   0.0800 
 50 H       -3.1240   -11.5270     1.2440 H     1 <1>   0.0800 
 51 H       -4.3600   -14.0510     1.1200 H     1 <1>   0.0800 
 52 H       -4.6260   -14.4310    -0.5590 H     1 <1>   0.0800 
 53 H       -7.0540   -15.2110    -1.1930 H     1 <1>   0.0800 
 54 H       -8.0870   -15.8070     0.0770 H     1 <1>   0.0800 
 55 H       -6.4810   -14.9240     1.7670 H     1 <1>   0.0800 
 56 H       -5.7400   -16.1080     0.7270 H     1 <1>   0.0800 
@<TRIPOS>BOND
  1   1   2  1   
  2   1  28  1   
  3   2   3  1   
  4   2   4  1   
  5   2  29  1   
  6   3   5  1   
  7   3  30  1   
  8   3  31  1   
  9   4   6  1   
 10   4  32  1   
 11   4  33  1   
 12   5   7  1   
 13   5   8  1   
 14   6   8  1   
 15   6  34  1   
 16   6  35  1   
 17   7   9  ar  
 18   7  10  ar  
 19   8  36  1   
 20   8  37  1   
 21   9  11  ar  
 22  10  12  ar  
 23  10  38  1   
 24  11  13  ar  
 25  11  14  1   
 26  12  13  ar  
 27  12  39  1   
 28  13  40  1   
 29  14  15  1   
 30  14  41  1   
 31  15  16  1   
 32  15  42  1   
 33  15  43  1   
 34  16  17  1   
 35  16  44  1   
 36  16  45  1   
 37  17  18  ar  
 38  17  19  ar  
 39  18  20  ar  
 40  19  21  ar  
 41  20  22  ar  
 42  20  23  1   
 43  21  22  ar  
 44  21  24  1   
 45  22  25  1   
 46  23  26  1   
 47  23  46  1   
 48  23  47  1   
 49  24  48  1   
 50  24  49  1   
 51  24  50  1   
 52  25  27  1   
 53  25  51  1   
 54  25  52  1   
 55  26  27  1   
 56  26  53  1   
 57  26  54  1   
 58  27  55  1   
 59  27  56  1   
@<TRIPOS>SUBSTRUCTURE
  1 ****  13 GROUP 4 **** **** 0

# MOE 2024.06 (io_trps.svl 2023.06)
