@<TRIPOS>MOLECULE
NONAME
46 48 1 0 0 
SMALL
USER_CHARGES


@<TRIPOS>ATOM
  1 O       -1.0590    -0.0850     0.0130 O.2   1 <1>  -0.5700 
  2 C       -1.2470     1.0990    -0.0160 C.2   1 <1>   0.6590 
  3 O       -2.3990     1.6680     0.2760 O.3   1 <1>  -0.4300 
  4 C       -0.2030     2.1230    -0.3490 C.3   1 <1>  -0.0990 
  5 C       -2.3710     3.0690     0.1460 C.3   1 <1>   0.2800 
  6 C       -0.8630     3.4000     0.1800 C.3   1 <1>  -0.0190 
  7 C       -3.0730     3.4160    -1.1870 C.3   1 <1>  -0.1600 
  8 C       -3.1410     3.6800     1.3330 C.3   1 <1>  -0.1600 
  9 C       -0.4840     4.6820    -0.5470 C.2   1 <1>   0.5690 
 10 C       -4.5590     3.0230    -1.1870 C.3   1 <1>  -0.1600 
 11 C       -4.6310     3.2980     1.3290 C.3   1 <1>  -0.1600 
 12 O       -0.1910     4.6300    -1.7170 O.2   1 <1>  -0.5700 
 13 N       -0.5000     5.8490     0.1590 N.am  1 <1>  -0.4930 
 14 C       -5.2970     3.6620    -0.0040 C.3   1 <1>  -0.1600 
 15 C       -0.2320     7.1620    -0.3020 C.2   1 <1>   0.0630 
 16 C        0.1060     7.6020    -1.5830 C.2   1 <1>   0.1390 
 17 C       -0.2540     8.2840     0.4460 C.2   1 <1>  -0.3020 
 18 N        0.2830     8.8900    -1.6310 N.2   1 <1>  -0.7070 
 19 N        0.0570     9.3140    -0.3720 N.pl3 1 <1>   0.3140 
 20 C        0.1720    10.7330    -0.0030 C.3   1 <1>   0.1570 
 21 C        1.6250    11.0950     0.2080 C.2   1 <1>   0.5690 
 22 O        1.9150    11.7460     1.1830 O.2   1 <1>  -0.5700 
 23 N        2.5550    10.6930    -0.7000 N.am  1 <1>  -0.7300 
 24 C        4.0120    10.9630    -0.6360 C.3   1 <1>   0.0600 
 25 H       -0.0710     2.1370    -1.4160 H     1 <1>   0.0800 
 26 H        0.7280     1.9070     0.1400 H     1 <1>   0.0800 
 27 H       -0.5670     3.5050     1.2080 H     1 <1>   0.0800 
 28 H       -2.5720     2.9330    -2.0070 H     1 <1>   0.0800 
 29 H       -3.0160     4.4770    -1.3580 H     1 <1>   0.0800 
 30 H       -3.0660     4.7520     1.2850 H     1 <1>   0.0800 
 31 H       -2.6980     3.3590     2.2600 H     1 <1>   0.0800 
 32 H       -4.6480     1.9510    -1.1270 H     1 <1>   0.0800 
 33 H       -5.0150     3.3380    -2.1100 H     1 <1>   0.0800 
 34 H       -5.1370     3.8010     2.1340 H     1 <1>   0.0800 
 35 H       -4.7280     2.2380     1.4930 H     1 <1>   0.0800 
 36 H       -0.7320     5.7950     1.1490 H     1 <1>   0.3700 
 37 H       -6.3200     3.3260     0.0030 H     1 <1>   0.0800 
 38 H       -5.3040     4.7330    -0.1220 H     1 <1>   0.0800 
 39 H        0.2110     6.9560    -2.4390 H     1 <1>   0.1500 
 40 H       -0.4640     8.4100     1.4910 H     1 <1>   0.1500 
 41 H       -0.3820    10.9120     0.8970 H     1 <1>   0.0800 
 42 H       -0.2330    11.3320    -0.7950 H     1 <1>   0.0800 
 43 H        2.2360    10.0680    -1.4570 H     1 <1>   0.3700 
 44 H        4.2390    11.5950     0.2060 H     1 <1>   0.0800 
 45 H        4.3290    11.4570    -1.5380 H     1 <1>   0.0800 
 46 H        4.5480    10.0370    -0.5310 H     1 <1>   0.0800 
@<TRIPOS>BOND
  1   1   2  2   
  2   2   3  1   
  3   2   4  1   
  4   3   5  1   
  5   4   6  1   
  6   4  25  1   
  7   4  26  1   
  8   5   6  1   
  9   5   7  1   
 10   5   8  1   
 11   6   9  1   
 12   6  27  1   
 13   7  10  1   
 14   7  28  1   
 15   7  29  1   
 16   8  11  1   
 17   8  30  1   
 18   8  31  1   
 19   9  12  2   
 20   9  13  am  
 21  10  14  1   
 22  10  32  1   
 23  10  33  1   
 24  11  14  1   
 25  11  34  1   
 26  11  35  1   
 27  13  15  1   
 28  13  36  1   
 29  14  37  1   
 30  14  38  1   
 31  15  16  1   
 32  15  17  2   
 33  16  18  2   
 34  16  39  1   
 35  17  19  1   
 36  17  40  1   
 37  18  19  1   
 38  19  20  1   
 39  20  21  1   
 40  20  41  1   
 41  20  42  1   
 42  21  22  2   
 43  21  23  am  
 44  23  24  1   
 45  23  43  1   
 46  24  44  1   
 47  24  45  1   
 48  24  46  1   
@<TRIPOS>SUBSTRUCTURE
  1 ****  13 GROUP 4 **** **** 0

# MOE 2024.06 (io_trps.svl 2023.06)
