@<TRIPOS>MOLECULE
NONAME
53 57 1 0 0 
SMALL
USER_CHARGES


@<TRIPOS>ATOM
  1 CL      -2.3380     1.2010     0.2340 Cl    1 <1>  -0.1230 
  2 C       -4.0080     0.6950     0.4050 C.2   1 <1>   0.1230 
  3 C       -5.0440     1.0090    -0.4600 C.2   1 <1>   0.1390 
  4 C       -4.5400    -0.0620     1.3810 C.2   1 <1>  -0.3020 
  5 N       -6.1670     0.4800    -0.0590 N.2   1 <1>  -0.7070 
  6 N       -5.8510    -0.1810     1.0860 N.pl3 1 <1>   0.3140 
  7 C       -6.8570    -0.9130     1.8880 C.3   1 <1>   0.0960 
  8 C       -7.6970    -1.8660     1.0180 C.3   1 <1>   0.3430 
  9 N       -8.4310    -1.1610    -0.0780 N.4   1 <1>  -0.9590 
 10 C       -9.5760    -0.3230     0.4170 C.3   1 <1>   0.3430 
 11 C       -8.8540    -2.0840    -1.1680 C.3   1 <1>   0.3430 
 12 C      -10.1840     0.5350    -0.7050 C.3   1 <1>   0.1430 
 13 C       -9.4220    -1.2770    -2.3380 C.3   1 <1>  -0.1600 
 14 C      -11.4020     1.2460    -0.1630 C.ar  1 <1>   0.1670 
 15 C      -10.5760    -0.3540    -1.9040 C.3   1 <1>  -0.1600 
 16 C       -9.2710     1.7170    -1.1280 C.3   1 <1>  -0.1600 
 17 N      -12.3410     0.6740     0.5490 N.ar  1 <1>  -0.6200 
 18 C      -11.4050     2.5650    -0.4920 C.ar  1 <1>  -0.1430 
 19 C      -10.1880     2.9430    -1.2990 C.3   1 <1>  -0.0170 
 20 C      -13.3480     1.4780     0.9250 C.ar  1 <1>   0.6200 
 21 C      -12.4620     3.3220    -0.0590 C.ar  1 <1>   0.1600 
 22 N      -13.4320     2.7870     0.6460 N.ar  1 <1>  -0.6200 
 23 C      -14.4320     0.8850     1.6960 C.ar  1 <1>   0.0000 
 24 C      -14.2190    -0.1970     2.5560 C.ar  1 <1>  -0.1500 
 25 C      -15.7400     1.3700     1.6080 C.ar  1 <1>  -0.1500 
 26 C      -15.2500    -0.7610     3.2860 C.ar  1 <1>  -0.1500 
 27 C      -16.7760     0.8110     2.3350 C.ar  1 <1>  -0.1500 
 28 C      -16.5330    -0.2580     3.1760 C.ar  1 <1>  -0.1500 
 29 H       -4.9270     1.6130    -1.3450 H     1 <1>   0.1500 
 30 H       -4.0620    -0.4980     2.2390 H     1 <1>   0.1500 
 31 H       -7.4880    -0.1990     2.3830 H     1 <1>   0.0800 
 32 H       -6.3430    -1.4820     2.6400 H     1 <1>   0.0800 
 33 H       -8.4010    -2.3940     1.6410 H     1 <1>   0.0800 
 34 H       -7.0310    -2.5970     0.5870 H     1 <1>   0.0800 
 35 H       -7.7350    -0.4940    -0.4850 H     1 <1>   0.4500 
 36 H       -9.2480     0.3300     1.2080 H     1 <1>   0.0800 
 37 H      -10.3480    -0.9640     0.8120 H     1 <1>   0.0800 
 38 H       -9.6080    -2.7620    -0.7990 H     1 <1>   0.0800 
 39 H       -8.0110    -2.6640    -1.5100 H     1 <1>   0.0800 
 40 H       -9.7820    -1.9600    -3.0890 H     1 <1>   0.0800 
 41 H       -8.6310    -0.7030    -2.7880 H     1 <1>   0.0800 
 42 H      -10.8910     0.2590    -2.7320 H     1 <1>   0.0800 
 43 H      -11.4190    -0.9640    -1.6230 H     1 <1>   0.0800 
 44 H       -8.7100     1.5220    -2.0240 H     1 <1>   0.0800 
 45 H       -8.5740     1.9360    -0.3370 H     1 <1>   0.0800 
 46 H      -10.4650     3.0740    -2.3310 H     1 <1>   0.0800 
 47 H       -9.7250     3.8420    -0.9290 H     1 <1>   0.0800 
 48 H      -12.5160     4.3730    -0.2900 H     1 <1>   0.1500 
 49 H      -13.2290    -0.6010     2.6580 H     1 <1>   0.1500 
 50 H      -15.9500     2.2020     0.9590 H     1 <1>   0.1500 
 51 H      -15.0560    -1.5930     3.9410 H     1 <1>   0.1500 
 52 H      -17.7720     1.2090     2.2450 H     1 <1>   0.1500 
 53 H      -17.3370    -0.6950     3.7430 H     1 <1>   0.1500 
@<TRIPOS>BOND
  1   1   2  1   
  2   2   3  1   
  3   2   4  2   
  4   3   5  2   
  5   3  29  1   
  6   4   6  1   
  7   4  30  1   
  8   5   6  1   
  9   6   7  1   
 10   7   8  1   
 11   7  31  1   
 12   7  32  1   
 13   8   9  1   
 14   8  33  1   
 15   8  34  1   
 16   9  10  1   
 17   9  11  1   
 18   9  35  1   
 19  10  12  1   
 20  10  36  1   
 21  10  37  1   
 22  11  13  1   
 23  11  38  1   
 24  11  39  1   
 25  12  14  1   
 26  12  15  1   
 27  12  16  1   
 28  13  15  1   
 29  13  40  1   
 30  13  41  1   
 31  14  17  ar  
 32  14  18  ar  
 33  15  42  1   
 34  15  43  1   
 35  16  19  1   
 36  16  44  1   
 37  16  45  1   
 38  17  20  ar  
 39  18  19  1   
 40  18  21  ar  
 41  19  46  1   
 42  19  47  1   
 43  20  22  ar  
 44  20  23  1   
 45  21  22  ar  
 46  21  48  1   
 47  23  24  ar  
 48  23  25  ar  
 49  24  26  ar  
 50  24  49  1   
 51  25  27  ar  
 52  25  50  1   
 53  26  28  ar  
 54  26  51  1   
 55  27  28  ar  
 56  27  52  1   
 57  28  53  1   
@<TRIPOS>SUBSTRUCTURE
  1 ****  10 GROUP 4 **** **** 0

# MOE 2024.06 (io_trps.svl 2023.06)
