@<TRIPOS>MOLECULE
NONAME
59 61 1 0 0 
SMALL
USER_CHARGES


@<TRIPOS>ATOM
  1 O        0.0540     0.9290    -0.5340 O.2   1 <1>  -0.5700 
  2 C       -0.0140     2.1310    -0.4900 C.2   1 <1>   0.5690 
  3 N       -1.1150     2.7440    -0.0060 N.am  1 <1>  -0.7300 
  4 C        1.1370     2.9880    -1.0180 C.3   1 <1>   0.1810 
  5 C       -1.3100     4.2160    -0.0050 C.3   1 <1>   0.3640 
  6 O        1.1100     4.2980    -0.4970 O.3   1 <1>  -0.5600 
  7 C       -2.6360     4.5180    -0.7000 C.ar  1 <1>  -0.1440 
  8 C       -0.1310     4.9790    -0.6690 C.3   1 <1>   0.2610 
  9 C       -3.5150     5.4360    -0.1410 C.ar  1 <1>  -0.1500 
 10 C       -2.9870     3.8940    -1.8910 C.ar  1 <1>  -0.1500 
 11 C       -0.0360     6.3920    -0.0820 C.2   1 <1>   0.5690 
 12 C       -4.7210     5.7210    -0.7560 C.ar  1 <1>  -0.1500 
 13 C       -4.1940     4.1780    -2.5070 C.ar  1 <1>  -0.1500 
 14 O       -0.8850     7.2120    -0.3390 O.2   1 <1>  -0.5700 
 15 N        1.0190     6.7020     0.7210 N.am  1 <1>  -0.7300 
 16 C       -5.0630     5.0920    -1.9390 C.ar  1 <1>  -0.1500 
 17 C        1.2770     8.0250     1.3160 C.3   1 <1>   0.1400 
 18 C        2.2320     8.7940     0.3980 C.3   1 <1>  -0.1600 
 19 C        2.4530    10.2580     0.8240 C.3   1 <1>  -0.0800 
 20 C        1.1680    11.0940     0.6960 C.3   1 <1>  -0.1600 
 21 C        3.5550    10.8860    -0.0420 C.3   1 <1>  -0.1600 
 22 C        1.4110    12.5800     0.9610 C.3   1 <1>   0.3430 
 23 C        3.7460    12.3730     0.2520 C.3   1 <1>   0.3430 
 24 N        2.4620    13.1100     0.0370 N.4   1 <1>  -0.9590 
 25 C        2.6220    14.5910     0.1330 C.3   1 <1>   0.4230 
 26 C        1.2900    15.2850    -0.1620 C.3   1 <1>  -0.2400 
 27 C        3.6620    15.0740    -0.8820 C.3   1 <1>  -0.2400 
 28 H       -1.9060     2.1720     0.2920 H     1 <1>   0.3700 
 29 H        1.0860     3.0440    -2.0900 H     1 <1>   0.0800 
 30 H        2.0730     2.5410    -0.7360 H     1 <1>   0.0800 
 31 H       -1.3790     4.5320     1.0220 H     1 <1>   0.0800 
 32 H       -0.3100     5.0690    -1.7250 H     1 <1>   0.0800 
 33 H       -3.2640     5.9450     0.7740 H     1 <1>   0.1500 
 34 H       -2.3260     3.1780    -2.3500 H     1 <1>   0.1500 
 35 H       -5.3930     6.4370    -0.3150 H     1 <1>   0.1500 
 36 H       -4.4570     3.6880    -3.4280 H     1 <1>   0.1500 
 37 H        1.7470     5.9850     0.8220 H     1 <1>   0.3700 
 38 H       -6.0010     5.3140    -2.4170 H     1 <1>   0.1500 
 39 H        0.3400     8.5460     1.4140 H     1 <1>   0.0800 
 40 H        1.7050     7.9030     2.2960 H     1 <1>   0.0800 
 41 H        3.1770     8.2780     0.3930 H     1 <1>   0.0800 
 42 H        1.8380     8.7740    -0.6050 H     1 <1>   0.0800 
 43 H        2.7780    10.2720     1.8520 H     1 <1>   0.0800 
 44 H        0.4340    10.7500     1.4030 H     1 <1>   0.0800 
 45 H        0.7420    10.9760    -0.2860 H     1 <1>   0.0800 
 46 H        3.3260    10.7620    -1.0870 H     1 <1>   0.0800 
 47 H        4.4870    10.3780     0.1430 H     1 <1>   0.0800 
 48 H        1.7230    12.7190     1.9840 H     1 <1>   0.0800 
 49 H        0.4830    13.1070     0.8160 H     1 <1>   0.0800 
 50 H        4.5130    12.7530    -0.4020 H     1 <1>   0.0800 
 51 H        4.0750    12.5020     1.2710 H     1 <1>   0.0800 
 52 H        2.1520    12.9050    -0.9210 H     1 <1>   0.4500 
 53 H        2.9480    14.8600     1.1260 H     1 <1>   0.0800 
 54 H        0.8830    14.9600    -1.1030 H     1 <1>   0.0800 
 55 H        1.4400    16.3490    -0.2150 H     1 <1>   0.0800 
 56 H        0.5750    15.1180     0.6220 H     1 <1>   0.0800 
 57 H        3.4240    14.7320    -1.8740 H     1 <1>   0.0800 
 58 H        4.6530    14.7570    -0.6150 H     1 <1>   0.0800 
 59 H        3.6800    16.1500    -0.8980 H     1 <1>   0.0800 
@<TRIPOS>BOND
  1   1   2  2   
  2   2   3  am  
  3   2   4  1   
  4   3   5  1   
  5   3  28  1   
  6   4   6  1   
  7   4  29  1   
  8   4  30  1   
  9   5   7  1   
 10   5   8  1   
 11   5  31  1   
 12   6   8  1   
 13   7   9  ar  
 14   7  10  ar  
 15   8  11  1   
 16   8  32  1   
 17   9  12  ar  
 18   9  33  1   
 19  10  13  ar  
 20  10  34  1   
 21  11  14  2   
 22  11  15  am  
 23  12  16  ar  
 24  12  35  1   
 25  13  16  ar  
 26  13  36  1   
 27  15  17  1   
 28  15  37  1   
 29  16  38  1   
 30  17  18  1   
 31  17  39  1   
 32  17  40  1   
 33  18  19  1   
 34  18  41  1   
 35  18  42  1   
 36  19  20  1   
 37  19  21  1   
 38  19  43  1   
 39  20  22  1   
 40  20  44  1   
 41  20  45  1   
 42  21  23  1   
 43  21  46  1   
 44  21  47  1   
 45  22  24  1   
 46  22  48  1   
 47  22  49  1   
 48  23  24  1   
 49  23  50  1   
 50  23  51  1   
 51  24  25  1   
 52  24  52  1   
 53  25  26  1   
 54  25  27  1   
 55  25  53  1   
 56  26  54  1   
 57  26  55  1   
 58  26  56  1   
 59  27  57  1   
 60  27  58  1   
 61  27  59  1   
@<TRIPOS>SUBSTRUCTURE
  1 ****  14 GROUP 4 **** **** 0

# MOE 2024.06 (io_trps.svl 2023.06)
