@<TRIPOS>MOLECULE
NONAME
54 57 1 0 0 
SMALL
USER_CHARGES


@<TRIPOS>ATOM
  1 O        0.6100     1.1030    -0.6640 O.2   1 <1>  -0.5700 
  2 C        1.3960     0.1880    -0.6770 C.2   1 <1>   0.5690 
  3 N        2.6850     0.3610    -0.2190 N.am  1 <1>  -0.6600 
  4 C        0.8770    -1.1320    -1.2050 C.3   1 <1>   0.1570 
  5 C        3.7990    -0.6430    -0.3110 C.3   1 <1>   0.1400 
  6 C        2.9970     1.5400     0.6370 C.3   1 <1>   0.1400 
  7 N        0.8120    -2.0890    -0.0990 N.pl3 1 <1>   0.3140 
  8 C        4.9950    -0.1710    -1.1700 C.3   1 <1>   0.3430 
  9 C        3.5640     2.6820    -0.2060 C.3   1 <1>  -0.1600 
 10 N        1.6060    -3.1340    -0.0120 N.2   1 <1>  -0.4180 
 11 C        0.0580    -2.0710     0.9820 C.2   1 <1>   0.0360 
 12 N        5.4700     1.2260    -0.8870 N.4   1 <1>  -0.9590 
 13 C        4.4850     2.2510    -1.3460 C.3   1 <1>   0.3430 
 14 N        1.3180    -3.7150     1.0960 N.2   1 <1>   0.0000 
 15 N        0.3520    -3.0600     1.7330 N.2   1 <1>  -0.3380 
 16 C        6.7980     1.4680    -1.5030 C.3   1 <1>   0.4810 
 17 C        7.3550     2.7460    -0.9200 C.2   1 <1>  -0.2540 
 18 C        7.5310     3.9030    -1.5730 C.2   1 <1>  -0.2880 
 19 C        7.7630     2.6950     0.5570 C.3   1 <1>   0.1160 
 20 C        8.1430     5.0970    -0.8350 C.3   1 <1>  -0.0220 
 21 C        9.1830     3.3210     0.8100 C.3   1 <1>   0.0000 
 22 C        7.1990     3.9780     1.2510 C.3   1 <1>   0.0000 
 23 C        8.4440     4.7010     0.6370 C.3   1 <1>   0.0000 
 24 C        9.7670     3.0730     2.2220 C.3   1 <1>  -0.2400 
 25 C       10.2830     2.9860    -0.2210 C.3   1 <1>  -0.2400 
 26 H        1.5190    -1.5100    -1.9760 H     1 <1>   0.0800 
 27 H       -0.1110    -1.0010    -1.6070 H     1 <1>   0.0800 
 28 H        4.1430    -0.8770     0.6830 H     1 <1>   0.0800 
 29 H        3.4480    -1.5630    -0.7370 H     1 <1>   0.0800 
 30 H        2.1060     1.8780     1.1440 H     1 <1>   0.0800 
 31 H        3.7020     1.2560     1.4000 H     1 <1>   0.0800 
 32 H        4.7170    -0.2450    -2.2080 H     1 <1>   0.0800 
 33 H        5.8060    -0.8630    -1.0090 H     1 <1>   0.0800 
 34 H        4.0780     3.3730     0.4360 H     1 <1>   0.0800 
 35 H        2.7390     3.2230    -0.6360 H     1 <1>   0.0800 
 36 H       -0.6860    -1.3220     1.1890 H     1 <1>   0.1500 
 37 H        5.5980     1.3560     0.1220 H     1 <1>   0.4500 
 38 H        4.9970     3.1250    -1.7190 H     1 <1>   0.0800 
 39 H        3.8900     1.8480    -2.1500 H     1 <1>   0.0800 
 40 H        7.4720     0.6550    -1.2870 H     1 <1>   0.0800 
 41 H        6.7010     1.5620    -2.5730 H     1 <1>   0.0800 
 42 H        7.2950     4.0930    -2.6080 H     1 <1>   0.1500 
 43 H        7.5570     1.7770     1.0790 H     1 <1>   0.0000 
 44 H        7.4570     5.9260    -0.8480 H     1 <1>   0.0800 
 45 H        9.0520     5.4080    -1.3190 H     1 <1>   0.0800 
 46 H        6.2570     4.3180     0.8590 H     1 <1>   0.0000 
 47 H        7.1850     3.9380     2.3250 H     1 <1>   0.0000 
 48 H        8.8320     5.4990     1.2440 H     1 <1>   0.0000 
 49 H       10.6340     3.6930     2.3680 H     1 <1>   0.0800 
 50 H       10.0720     2.0460     2.3190 H     1 <1>   0.0800 
 51 H        9.0820     3.2870     3.0200 H     1 <1>   0.0800 
 52 H       11.1350     3.6240    -0.0610 H     1 <1>   0.0800 
 53 H        9.9740     3.1100    -1.2400 H     1 <1>   0.0800 
 54 H       10.6030     1.9660    -0.0990 H     1 <1>   0.0800 
@<TRIPOS>BOND
  1   1   2  2   
  2   2   3  am  
  3   2   4  1   
  4   3   5  1   
  5   3   6  1   
  6   4   7  1   
  7   4  26  1   
  8   4  27  1   
  9   5   8  1   
 10   5  28  1   
 11   5  29  1   
 12   6   9  1   
 13   6  30  1   
 14   6  31  1   
 15   7  10  1   
 16   7  11  1   
 17   8  12  1   
 18   8  32  1   
 19   8  33  1   
 20   9  13  1   
 21   9  34  1   
 22   9  35  1   
 23  10  14  2   
 24  11  15  2   
 25  11  36  1   
 26  12  13  1   
 27  12  16  1   
 28  12  37  1   
 29  13  38  1   
 30  13  39  1   
 31  14  15  1   
 32  16  17  1   
 33  16  40  1   
 34  16  41  1   
 35  17  18  2   
 36  17  19  1   
 37  18  20  1   
 38  18  42  1   
 39  19  21  1   
 40  19  22  1   
 41  19  43  1   
 42  20  23  1   
 43  20  44  1   
 44  20  45  1   
 45  21  23  1   
 46  21  24  1   
 47  21  25  1   
 48  22  23  1   
 49  22  46  1   
 50  22  47  1   
 51  23  48  1   
 52  24  49  1   
 53  24  50  1   
 54  24  51  1   
 55  25  52  1   
 56  25  53  1   
 57  25  54  1   
@<TRIPOS>SUBSTRUCTURE
  1 ****  12 GROUP 4 **** **** 0

# MOE 2024.06 (io_trps.svl 2023.06)
