@<TRIPOS>MOLECULE
NONAME
42 44 1 0 0 
SMALL
USER_CHARGES


@<TRIPOS>ATOM
  1 O       -0.3850    -0.0830    -0.3350 O.3   1 <1>  -0.0190 
  2 N       -1.2460    -1.0190    -0.0330 N.2   1 <1>  -0.4100 
  3 C       -1.0890     1.0200    -0.2690 C.2   1 <1>   0.2980 
  4 C       -2.3640    -0.4400     0.1830 C.2   1 <1>   0.5990 
  5 N       -2.3110     0.8770     0.0370 N.2   1 <1>  -0.5650 
  6 C       -0.4010     2.3410    -0.5600 C.3   1 <1>   0.0200 
  7 N       -3.5490    -1.0750     0.5500 N.pl3 1 <1>  -0.8210 
  8 C        0.6360     2.6900     0.5180 C.3   1 <1>  -0.1600 
  9 C       -4.8390    -0.4490     0.1420 C.3   1 <1>   0.2090 
 10 C       -3.6300    -2.5460     0.3490 C.3   1 <1>   0.2090 
 11 C        1.3190     4.0320     0.2320 C.3   1 <1>  -0.2400 
 12 C       -5.7100    -1.5920    -0.3830 C.3   1 <1>   0.2000 
 13 C       -5.1180    -2.8610     0.2170 C.3   1 <1>  -0.0800 
 14 O       -7.0360    -1.4570     0.0020 O.3   1 <1>  -0.6800 
 15 C       -5.4110    -4.1190    -0.6150 C.3   1 <1>   0.0210 
 16 C       -4.6700    -5.3230    -0.0660 C.2   1 <1>   0.1080 
 17 N       -4.8370    -5.7610     1.1430 N.2   1 <1>  -0.7070 
 18 C       -3.7370    -6.0730    -0.7730 C.2   1 <1>  -0.1500 
 19 N       -4.0060    -6.8160     1.2410 N.pl3 1 <1>   0.3000 
 20 C       -3.3270    -7.0240     0.0930 C.2   1 <1>  -0.3320 
 21 C       -2.3130    -8.1350    -0.1080 C.3   1 <1>  -0.0600 
 22 H        0.0740     2.2790    -1.5220 H     1 <1>   0.0800 
 23 H       -1.1470     3.1150    -0.6040 H     1 <1>   0.0800 
 24 H        0.1480     2.7350     1.4770 H     1 <1>   0.0800 
 25 H        1.3820     1.9140     0.5630 H     1 <1>   0.0800 
 26 H       -5.2870     0.0130     1.0040 H     1 <1>   0.0800 
 27 H       -4.6930     0.2870    -0.6290 H     1 <1>   0.0800 
 28 H       -3.1060    -2.8210    -0.5510 H     1 <1>   0.0800 
 29 H       -3.1960    -3.0690     1.1850 H     1 <1>   0.0800 
 30 H        0.5940     4.8270     0.2100 H     1 <1>   0.0800 
 31 H        1.8320     4.0020    -0.7130 H     1 <1>   0.0800 
 32 H        2.0370     4.2490     1.0030 H     1 <1>   0.0800 
 33 H       -5.6690    -1.6080    -1.4590 H     1 <1>   0.0800 
 34 H       -5.4950    -3.0020     1.2150 H     1 <1>   0.0800 
 35 H       -7.1110    -1.5430     0.9730 H     1 <1>   0.4000 
 36 H       -5.1210    -3.9610    -1.6380 H     1 <1>   0.0800 
 37 H       -6.4660    -4.3230    -0.5940 H     1 <1>   0.0800 
 38 H       -3.4260    -5.9090    -1.7890 H     1 <1>   0.1500 
 39 H       -3.9250    -7.3690     2.1020 H     1 <1>   0.2700 
 40 H       -1.9100    -8.0920    -1.1040 H     1 <1>   0.0800 
 41 H       -2.7790    -9.0940     0.0320 H     1 <1>   0.0800 
 42 H       -1.5040    -8.0310     0.5930 H     1 <1>   0.0800 
@<TRIPOS>BOND
  1   1   2  1   
  2   1   3  1   
  3   2   4  2   
  4   3   5  2   
  5   3   6  1   
  6   4   5  1   
  7   4   7  1   
  8   6   8  1   
  9   6  22  1   
 10   6  23  1   
 11   7   9  1   
 12   7  10  1   
 13   8  11  1   
 14   8  24  1   
 15   8  25  1   
 16   9  12  1   
 17   9  26  1   
 18   9  27  1   
 19  10  13  1   
 20  10  28  1   
 21  10  29  1   
 22  11  30  1   
 23  11  31  1   
 24  11  32  1   
 25  12  13  1   
 26  12  14  1   
 27  12  33  1   
 28  13  15  1   
 29  13  34  1   
 30  14  35  1   
 31  15  16  1   
 32  15  36  1   
 33  15  37  1   
 34  16  17  2   
 35  16  18  1   
 36  17  19  1   
 37  18  20  2   
 38  18  38  1   
 39  19  20  1   
 40  19  39  1   
 41  20  21  1   
 42  21  40  1   
 43  21  41  1   
 44  21  42  1   
@<TRIPOS>SUBSTRUCTURE
  1 ****  10 GROUP 4 **** **** 0

# MOE 2024.06 (io_trps.svl 2023.06)
