@<TRIPOS>MOLECULE
NONAME
33 34 1 0 0 
SMALL
USER_CHARGES


@<TRIPOS>ATOM
  1 CL      -0.3910    -0.2020    -0.7000 Cl    1 <1>  -0.1770 
  2 C        0.9970    -1.2590    -0.6140 C.ar  1 <1>   0.1770 
  3 C        1.0330    -2.3360     0.2640 C.ar  1 <1>  -0.0090 
  4 C        2.0490    -0.9690    -1.4640 C.ar  1 <1>  -0.1500 
  5 S       -0.3530    -2.7100     1.3640 S.o2  1 <1>   1.4470 
  6 C        2.1770    -3.1330     0.2610 C.ar  1 <1>  -0.1500 
  7 C        3.1660    -1.7780    -1.4390 C.ar  1 <1>   0.1770 
  8 O       -0.7260    -1.5230     2.1020 O.2   1 <1>  -0.6500 
  9 O       -0.0530    -3.9110     2.1150 O.2   1 <1>  -0.6500 
 10 N       -1.6180    -3.0940     0.3080 N.am  1 <1>  -0.8490 
 11 C        3.2410    -2.8600    -0.5830 C.ar  1 <1>  -0.1500 
 12 CL       4.5020    -1.4310    -2.5030 Cl    1 <1>  -0.1770 
 13 C       -1.4250    -4.3790    -0.4160 C.3   1 <1>   0.1960 
 14 C       -2.9280    -2.9710     0.9720 C.3   1 <1>   0.1960 
 15 C       -2.2370    -5.5280     0.2000 C.3   1 <1>   0.2000 
 16 C       -4.0240    -3.7090     0.1980 C.3   1 <1>  -0.1600 
 17 O       -1.9160    -6.7040    -0.4500 O.3   1 <1>  -0.6800 
 18 C       -3.7510    -5.2330     0.0920 C.3   1 <1>  -0.1860 
 19 C       -4.4160    -5.7730    -1.1670 C.2   1 <1>   0.9060 
 20 O       -5.6400    -5.9190    -1.1610 O.co2 1 <1>  -0.9000 
 21 O       -3.7220    -6.0360    -2.1600 O.co2 1 <1>  -0.9000 
 22 H        1.9980    -0.1300    -2.1330 H     1 <1>   0.1500 
 23 H        2.2360    -3.9790     0.9280 H     1 <1>   0.1500 
 24 H        4.1220    -3.4790    -0.5800 H     1 <1>   0.1500 
 25 H       -1.7570    -4.2470    -1.4330 H     1 <1>   0.0800 
 26 H       -0.3850    -4.6510    -0.4400 H     1 <1>   0.0800 
 27 H       -2.8730    -3.3820     1.9670 H     1 <1>   0.0800 
 28 H       -3.1800    -1.9270     1.0580 H     1 <1>   0.0800 
 29 H       -1.9460    -5.6490     1.2290 H     1 <1>   0.0800 
 30 H       -4.9790    -3.5550     0.6690 H     1 <1>   0.0800 
 31 H       -4.0860    -3.2800    -0.7890 H     1 <1>   0.0800 
 32 H       -2.4680    -6.7020    -1.2920 H     1 <1>   0.4000 
 33 H       -4.2260    -5.7210     0.9220 H     1 <1>   0.0800 
@<TRIPOS>BOND
  1   1   2  1   
  2   2   3  ar  
  3   2   4  ar  
  4   3   5  1   
  5   3   6  ar  
  6   4   7  ar  
  7   4  22  1   
  8   5   8  2   
  9   5   9  2   
 10   5  10  am  
 11   6  11  ar  
 12   6  23  1   
 13   7  11  ar  
 14   7  12  1   
 15  10  13  1   
 16  10  14  1   
 17  11  24  1   
 18  13  15  1   
 19  13  25  1   
 20  13  26  1   
 21  14  16  1   
 22  14  27  1   
 23  14  28  1   
 24  15  17  1   
 25  15  18  1   
 26  15  29  1   
 27  16  18  1   
 28  16  30  1   
 29  16  31  1   
 30  17  32  1   
 31  18  19  1   
 32  18  33  1   
 33  19  20  ar  
 34  19  21  ar  
@<TRIPOS>SUBSTRUCTURE
  1 ****  10 GROUP 4 **** **** 0

# MOE 2024.06 (io_trps.svl 2023.06)
