@<TRIPOS>MOLECULE
NONAME
49 50 1 0 0 
SMALL
USER_CHARGES


@<TRIPOS>ATOM
  1 S       -0.1200     0.1440     0.3830 S.o2  1 <1>   1.3330 
  2 O        0.1100    -0.0130     1.8000 O.2   1 <1>  -0.6500 
  3 O       -1.3380    -0.2980    -0.2480 O.2   1 <1>  -0.6500 
  4 N        1.2100    -0.5070    -0.4440 N.am  1 <1>  -0.8490 
  5 C        0.1010     1.8790     0.0760 C.3   1 <1>  -0.0550 
  6 C        0.9240    -0.7870    -1.8610 C.3   1 <1>   0.1160 
  7 C        1.6960    -1.7430     0.1880 C.3   1 <1>   0.1160 
  8 C        1.4260     2.2680     0.7090 C.3   1 <1>   0.3430 
  9 N        1.6940     3.7310     0.5600 N.4   1 <1>  -0.9060 
 10 C        2.9610     4.1570     1.1980 C.3   1 <1>   0.4230 
 11 C        2.9660     5.6880     1.2720 C.3   1 <1>  -0.1600 
 12 C        4.1540     3.6150     0.4000 C.3   1 <1>  -0.1600 
 13 C        4.3070     6.2060     1.7970 C.3   1 <1>   0.1400 
 14 C        5.4690     4.1780     0.9390 C.3   1 <1>   0.1400 
 15 N        5.3800     5.6610     0.9300 N.am  1 <1>  -0.6600 
 16 C        6.2330     6.4150     0.1510 C.2   1 <1>   0.5770 
 17 O        7.0450     5.8810    -0.5660 O.2   1 <1>  -0.5700 
 18 C        6.1630     7.9430     0.1640 C.3   1 <1>   0.0530 
 19 C        4.9700     8.5350    -0.6350 C.3   1 <1>   0.0000 
 20 C        7.0910     8.7050    -0.8270 C.3   1 <1>   0.0000 
 21 C        5.9170     9.6950    -1.0370 C.3   1 <1>   0.0000 
 22 H       -0.7050     2.4200     0.5320 H     1 <1>   0.0800 
 23 H        0.1120     2.0630    -0.9800 H     1 <1>   0.0800 
 24 H        0.5730     0.1000    -2.3590 H     1 <1>   0.0800 
 25 H        0.1650    -1.5500    -1.9490 H     1 <1>   0.0800 
 26 H        1.8150    -1.1270    -2.3610 H     1 <1>   0.0800 
 27 H        2.0060    -1.5500     1.2010 H     1 <1>   0.0800 
 28 H        2.5420    -2.1340    -0.3520 H     1 <1>   0.0800 
 29 H        0.9160    -2.4880     0.2050 H     1 <1>   0.0800 
 30 H        2.2150     1.6970     0.2440 H     1 <1>   0.0800 
 31 H        1.4040     2.0060     1.7560 H     1 <1>   0.0800 
 32 H        0.9260     4.2680     0.9800 H     1 <1>   0.4500 
 33 H        1.7380     3.9910    -0.4330 H     1 <1>   0.4500 
 34 H        3.0110     3.7690     2.2040 H     1 <1>   0.0800 
 35 H        2.1890     6.0290     1.9320 H     1 <1>   0.0800 
 36 H        2.8030     6.1140     0.2970 H     1 <1>   0.0800 
 37 H        4.0770     3.8910    -0.6370 H     1 <1>   0.0800 
 38 H        4.2020     2.5430     0.4670 H     1 <1>   0.0800 
 39 H        4.4700     5.8760     2.8100 H     1 <1>   0.0800 
 40 H        4.3080     7.2810     1.8010 H     1 <1>   0.0800 
 41 H        6.2890     3.8340     0.3290 H     1 <1>   0.0800 
 42 H        5.6480     3.8380     1.9450 H     1 <1>   0.0800 
 43 H        6.2330     8.3590     1.1560 H     1 <1>   0.0000 
 44 H        4.1420     8.8450    -0.0240 H     1 <1>   0.0000 
 45 H        4.6820     7.9260    -1.4750 H     1 <1>   0.0000 
 46 H        7.3180     8.1590    -1.7270 H     1 <1>   0.0000 
 47 H        7.9540     9.1480    -0.3640 H     1 <1>   0.0000 
 48 H        5.9170    10.5000    -0.3210 H     1 <1>   0.0000 
 49 H        5.7980    10.0230    -2.0540 H     1 <1>   0.0000 
@<TRIPOS>BOND
  1   1   2  2   
  2   1   3  2   
  3   1   4  am  
  4   1   5  1   
  5   4   6  1   
  6   4   7  1   
  7   5   8  1   
  8   5  22  1   
  9   5  23  1   
 10   6  24  1   
 11   6  25  1   
 12   6  26  1   
 13   7  27  1   
 14   7  28  1   
 15   7  29  1   
 16   8   9  1   
 17   8  30  1   
 18   8  31  1   
 19   9  10  1   
 20   9  32  1   
 21   9  33  1   
 22  10  11  1   
 23  10  12  1   
 24  10  34  1   
 25  11  13  1   
 26  11  35  1   
 27  11  36  1   
 28  12  14  1   
 29  12  37  1   
 30  12  38  1   
 31  13  15  1   
 32  13  39  1   
 33  13  40  1   
 34  14  15  1   
 35  14  41  1   
 36  14  42  1   
 37  15  16  am  
 38  16  17  2   
 39  16  18  1   
 40  18  19  1   
 41  18  20  1   
 42  18  43  1   
 43  19  21  1   
 44  19  44  1   
 45  19  45  1   
 46  20  21  1   
 47  20  46  1   
 48  20  47  1   
 49  21  48  1   
 50  21  49  1   
@<TRIPOS>SUBSTRUCTURE
  1 ****  12 GROUP 4 **** **** 0

# MOE 2024.06 (io_trps.svl 2023.06)
