@<TRIPOS>MOLECULE
NONAME
44 47 1 0 0 
SMALL
USER_CHARGES


@<TRIPOS>ATOM
  1 O       -0.0950     1.0580     1.5440 O.2   1 <1>  -0.5700 
  2 C        0.0300     2.1790     1.0800 C.2   1 <1>   0.5440 
  3 N       -1.1110     2.8840     0.7470 N.am  1 <1>  -0.6600 
  4 C        1.3620     2.7120     0.8640 C.ar  1 <1>   0.0860 
  5 C       -2.4580     2.4770     1.2520 C.3   1 <1>   0.1400 
  6 C       -1.1480     3.9790    -0.2620 C.3   1 <1>   0.1400 
  7 C        2.3750     1.9010     0.3220 C.ar  1 <1>  -0.1520 
  8 C        1.7200     4.0190     1.1680 C.ar  1 <1>  -0.1500 
  9 C       -3.3890     2.0340     0.0950 C.3   1 <1>   0.0000 
 10 C       -2.0640     3.5920    -1.4290 C.3   1 <1>  -0.1600 
 11 N        2.3290     0.5770    -0.0200 N.pl3 1 <1>   0.0330 
 12 C        3.6520     2.3810     0.0530 C.ar  1 <1>   0.0000 
 13 C        3.0020     4.5150     0.9120 C.ar  1 <1>  -0.1500 
 14 C       -4.7930     1.6380     0.5970 C.3   1 <1>   0.2000 
 15 C       -3.4630     3.1660    -0.9520 C.3   1 <1>  -0.1600 
 16 C       -2.8980     0.7100    -0.5170 C.3   1 <1>  -0.1600 
 17 C        3.5510     0.2230    -0.5200 C.2   1 <1>  -0.3020 
 18 C        3.9650     3.7070     0.3520 C.ar  1 <1>  -0.1500 
 19 C        4.3760     1.2980    -0.4910 C.2   1 <1>  -0.1500 
 20 O       -5.2340     2.4170     1.6540 O.3   1 <1>  -0.6800 
 21 C       -4.7170     0.1690     1.0230 C.3   1 <1>  -0.1600 
 22 C       -3.4250    -0.3860     0.4110 C.3   1 <1>  -0.1600 
 23 H       -2.3640     1.6880     1.9770 H     1 <1>   0.0800 
 24 H       -2.8880     3.3260     1.7540 H     1 <1>   0.0800 
 25 H       -1.5160     4.8750     0.2080 H     1 <1>   0.0800 
 26 H       -0.1640     4.1790    -0.6490 H     1 <1>   0.0800 
 27 H        0.9910     4.6720     1.6130 H     1 <1>   0.1500 
 28 H       -2.1540     4.4300    -2.0970 H     1 <1>   0.0800 
 29 H       -1.6040     2.7900    -1.9790 H     1 <1>   0.0800 
 30 H        1.5130    -0.0260     0.1480 H     1 <1>   0.2700 
 31 H        3.2310     5.5370     1.1580 H     1 <1>   0.1500 
 32 H       -5.5060     1.7400    -0.2040 H     1 <1>   0.0800 
 33 H       -4.0510     2.8530    -1.7980 H     1 <1>   0.0800 
 34 H       -3.9560     4.0150    -0.5110 H     1 <1>   0.0800 
 35 H       -3.3340     0.5770    -1.4920 H     1 <1>   0.0800 
 36 H       -1.8270     0.6630    -0.6150 H     1 <1>   0.0800 
 37 H        3.7580    -0.7760    -0.8600 H     1 <1>   0.1500 
 38 H        4.9550     4.0740     0.1450 H     1 <1>   0.1500 
 39 H        5.4020     1.3580    -0.8090 H     1 <1>   0.1500 
 40 H       -4.7480     2.1800     2.4640 H     1 <1>   0.4000 
 41 H       -4.6880     0.0620     2.0940 H     1 <1>   0.0800 
 42 H       -5.5700    -0.3610     0.6370 H     1 <1>   0.0800 
 43 H       -2.7040    -0.5680     1.1900 H     1 <1>   0.0800 
 44 H       -3.5950    -1.3050    -0.1230 H     1 <1>   0.0800 
@<TRIPOS>BOND
  1   1   2  2   
  2   2   3  am  
  3   2   4  1   
  4   3   5  1   
  5   3   6  1   
  6   4   7  ar  
  7   4   8  ar  
  8   5   9  1   
  9   5  23  1   
 10   5  24  1   
 11   6  10  1   
 12   6  25  1   
 13   6  26  1   
 14   7  11  1   
 15   7  12  ar  
 16   8  13  ar  
 17   8  27  1   
 18   9  14  1   
 19   9  15  1   
 20   9  16  1   
 21  10  15  1   
 22  10  28  1   
 23  10  29  1   
 24  11  17  1   
 25  11  30  1   
 26  12  18  ar  
 27  12  19  1   
 28  13  18  ar  
 29  13  31  1   
 30  14  20  1   
 31  14  21  1   
 32  14  32  1   
 33  15  33  1   
 34  15  34  1   
 35  16  22  1   
 36  16  35  1   
 37  16  36  1   
 38  17  19  2   
 39  17  37  1   
 40  18  38  1   
 41  19  39  1   
 42  20  40  1   
 43  21  22  1   
 44  21  41  1   
 45  21  42  1   
 46  22  43  1   
 47  22  44  1   
@<TRIPOS>SUBSTRUCTURE
  1 ****   2 GROUP 4 **** **** 0

# MOE 2024.06 (io_trps.svl 2023.06)
