@<TRIPOS>MOLECULE
NONAME
56 58 1 0 0 
SMALL
USER_CHARGES


@<TRIPOS>ATOM
  1 O        0.4360    -0.7650    -2.8670 O.2   1 <1>  -0.5700 
  2 C        1.1280    -1.2630    -2.0160 C.2   1 <1>   0.5690 
  3 N        0.6920    -1.4070    -0.7470 N.am  1 <1>  -0.7300 
  4 C        2.5280    -1.7420    -2.3330 C.3   1 <1>  -0.0990 
  5 C        1.5230    -1.9910     0.3260 C.3   1 <1>   0.1400 
  6 C        2.7990    -3.1060    -1.6660 C.3   1 <1>  -0.0800 
  7 C        2.2800    -3.2210    -0.2130 C.3   1 <1>  -0.0800 
  8 C        4.2890    -3.4610    -1.6200 C.3   1 <1>  -0.1600 
  9 C        3.5020    -3.5860     0.6390 C.3   1 <1>  -0.1600 
 10 C        4.4780    -4.2570    -0.3290 C.3   1 <1>   0.2200 
 11 N        5.8870    -4.2090     0.1500 N.am  1 <1>  -0.6600 
 12 C        6.8920    -4.4360    -0.7620 C.2   1 <1>   0.5690 
 13 C        6.0950    -4.6380     1.5600 C.3   1 <1>   0.0600 
 14 O        6.8480    -5.4320    -1.4540 O.2   1 <1>  -0.5700 
 15 C        8.0690    -3.4230    -0.9210 C.3   1 <1>   0.3410 
 16 O        7.4910    -2.1430    -1.2080 O.3   1 <1>  -0.3630 
 17 C        8.9310    -3.3610     0.3580 C.3   1 <1>  -0.2400 
 18 C        8.9770    -3.7980    -2.1090 C.3   1 <1>  -0.2400 
 19 C        8.1110    -0.9710    -0.9220 C.ar  1 <1>   0.0820 
 20 C        7.7340    -0.2250     0.1960 C.ar  1 <1>  -0.1440 
 21 C        9.0990    -0.5050    -1.7760 C.ar  1 <1>  -0.1500 
 22 C        8.4090     0.9590     0.4800 C.ar  1 <1>  -0.1440 
 23 C        6.5890    -0.6940     1.0930 C.3   1 <1>  -0.0970 
 24 C        9.7570     0.6750    -1.4950 C.ar  1 <1>  -0.1500 
 25 C        9.4170     1.3980    -0.3660 C.ar  1 <1>  -0.1500 
 26 C        8.0710     1.8050     1.7010 C.3   1 <1>  -0.0970 
 27 H       -0.2400    -1.0540    -0.5230 H     1 <1>   0.3700 
 28 H        2.6510    -1.8200    -3.3980 H     1 <1>   0.0800 
 29 H        3.2140    -1.0010    -1.9680 H     1 <1>   0.0800 
 30 H        2.2200    -1.2390     0.6580 H     1 <1>   0.0800 
 31 H        0.9020    -2.2740     1.1580 H     1 <1>   0.0800 
 32 H        2.2900    -3.8590    -2.2460 H     1 <1>   0.0800 
 33 H        1.5990    -4.0560    -0.1830 H     1 <1>   0.0800 
 34 H        4.8760    -2.5610    -1.5690 H     1 <1>   0.0800 
 35 H        4.5850    -4.0320    -2.4820 H     1 <1>   0.0800 
 36 H        3.2320    -4.2390     1.4490 H     1 <1>   0.0800 
 37 H        3.9550    -2.6910     1.0270 H     1 <1>   0.0800 
 38 H        4.1860    -5.2810    -0.4930 H     1 <1>   0.0800 
 39 H        5.9350    -3.8040     2.2220 H     1 <1>   0.0800 
 40 H        7.0950    -5.0080     1.6980 H     1 <1>   0.0800 
 41 H        5.4090    -5.4290     1.8100 H     1 <1>   0.0800 
 42 H        9.2910    -4.3450     0.5970 H     1 <1>   0.0800 
 43 H        8.3550    -2.9980     1.1860 H     1 <1>   0.0800 
 44 H        9.7840    -2.7210     0.2190 H     1 <1>   0.0800 
 45 H        9.3250    -4.8090    -1.9960 H     1 <1>   0.0800 
 46 H        9.8400    -3.1630    -2.1590 H     1 <1>   0.0800 
 47 H        8.4220    -3.7350    -3.0280 H     1 <1>   0.0800 
 48 H        9.3460    -1.0550    -2.6630 H     1 <1>   0.1500 
 49 H        5.9310     0.1250     1.3160 H     1 <1>   0.0800 
 50 H        6.9820    -1.0900     2.0110 H     1 <1>   0.0800 
 51 H        6.0020    -1.4530     0.6140 H     1 <1>   0.0800 
 52 H       10.5300     1.0330    -2.1520 H     1 <1>   0.1500 
 53 H        9.9420     2.3130    -0.1560 H     1 <1>   0.1500 
 54 H        8.7960     2.5870     1.8410 H     1 <1>   0.0800 
 55 H        8.0640     1.1950     2.5860 H     1 <1>   0.0800 
 56 H        7.1040     2.2580     1.5760 H     1 <1>   0.0800 
@<TRIPOS>BOND
  1   1   2  2   
  2   2   3  am  
  3   2   4  1   
  4   3   5  1   
  5   3  27  1   
  6   4   6  1   
  7   4  28  1   
  8   4  29  1   
  9   5   7  1   
 10   5  30  1   
 11   5  31  1   
 12   6   7  1   
 13   6   8  1   
 14   6  32  1   
 15   7   9  1   
 16   7  33  1   
 17   8  10  1   
 18   8  34  1   
 19   8  35  1   
 20   9  10  1   
 21   9  36  1   
 22   9  37  1   
 23  10  11  1   
 24  10  38  1   
 25  11  12  am  
 26  11  13  1   
 27  12  14  2   
 28  12  15  1   
 29  13  39  1   
 30  13  40  1   
 31  13  41  1   
 32  15  16  1   
 33  15  17  1   
 34  15  18  1   
 35  16  19  1   
 36  17  42  1   
 37  17  43  1   
 38  17  44  1   
 39  18  45  1   
 40  18  46  1   
 41  18  47  1   
 42  19  20  ar  
 43  19  21  ar  
 44  20  22  ar  
 45  20  23  1   
 46  21  24  ar  
 47  21  48  1   
 48  22  25  ar  
 49  22  26  1   
 50  23  49  1   
 51  23  50  1   
 52  23  51  1   
 53  24  25  ar  
 54  24  52  1   
 55  25  53  1   
 56  26  54  1   
 57  26  55  1   
 58  26  56  1   
@<TRIPOS>SUBSTRUCTURE
  1 ****  16 GROUP 4 **** **** 0

# MOE 2024.06 (io_trps.svl 2023.06)
