@<TRIPOS>MOLECULE
NONAME
47 50 1 0 0 
SMALL
USER_CHARGES


@<TRIPOS>ATOM
  1 CL      -0.3660    -1.0500     1.3970 Cl    1 <1>  -0.1230 
  2 C       -1.2370    -2.4550     0.8080 C.2   1 <1>   0.1230 
  3 C       -0.7620    -3.7560     0.7890 C.2   1 <1>   0.1390 
  4 C       -2.4780    -2.4930     0.2900 C.2   1 <1>  -0.3020 
  5 N       -1.6490    -4.5710     0.2910 N.2   1 <1>  -0.7070 
  6 N       -2.7080    -3.7870    -0.0170 N.pl3 1 <1>   0.3140 
  7 C       -3.9280    -4.3450    -0.6220 C.3   1 <1>   0.0960 
  8 C       -4.0790    -5.8060    -0.1800 C.3   1 <1>   0.3430 
  9 N       -5.2340    -6.5170    -0.8330 N.4   1 <1>  -0.9590 
 10 C       -6.5630    -5.9770    -0.3820 C.3   1 <1>   0.3430 
 11 C       -5.2070    -7.9590    -0.4130 C.3   1 <1>   0.3430 
 12 C       -7.0160    -6.8780     0.7680 C.3   1 <1>   0.2000 
 13 C       -6.5270    -8.2500     0.3100 C.3   1 <1>  -0.0800 
 14 O       -6.3370    -6.4860     1.9180 O.3   1 <1>  -0.6800 
 15 C       -6.3920    -9.3310     1.4020 C.3   1 <1>  -0.0160 
 16 C       -5.7890   -10.6030     0.8160 C.ar  1 <1>  -0.1430 
 17 C       -6.5240   -11.4770    -0.0230 C.ar  1 <1>   0.0000 
 18 C       -4.4890   -10.9270     1.0790 C.ar  1 <1>  -0.1500 
 19 C       -5.8380   -12.5850    -0.5780 C.ar  1 <1>   0.3100 
 20 C       -7.8940   -11.3230    -0.3390 C.ar  1 <1>  -0.1500 
 21 C       -3.9130   -12.0630     0.4990 C.ar  1 <1>   0.1600 
 22 N       -4.5370   -12.8580    -0.3100 N.ar  1 <1>  -0.6200 
 23 C       -6.5260   -13.4470    -1.4460 C.ar  1 <1>  -0.1500 
 24 C       -8.5370   -12.1850    -1.1850 C.ar  1 <1>  -0.1500 
 25 C       -7.8460   -13.2580    -1.7520 C.ar  1 <1>  -0.1500 
 26 H        0.2120    -4.0540     1.1400 H     1 <1>   0.1500 
 27 H       -3.1750    -1.6910     0.1320 H     1 <1>   0.1500 
 28 H       -4.7650    -3.7570    -0.2960 H     1 <1>   0.0800 
 29 H       -3.8240    -4.2830    -1.6890 H     1 <1>   0.0800 
 30 H       -4.1960    -5.8350     0.8920 H     1 <1>   0.0800 
 31 H       -3.1650    -6.3260    -0.4250 H     1 <1>   0.0800 
 32 H       -5.1440    -6.4620    -1.8570 H     1 <1>   0.4500 
 33 H       -6.5080    -4.9490    -0.0660 H     1 <1>   0.0800 
 34 H       -7.2740    -6.0600    -1.1880 H     1 <1>   0.0800 
 35 H       -5.0900    -8.6150    -1.2610 H     1 <1>   0.0800 
 36 H       -4.3880    -8.1280     0.2680 H     1 <1>   0.0800 
 37 H       -8.0770    -6.8240     0.9480 H     1 <1>   0.0800 
 38 H       -7.2140    -8.6070    -0.4360 H     1 <1>   0.0800 
 39 H       -6.7480    -6.8670     2.7240 H     1 <1>   0.4000 
 40 H       -7.3500    -9.5480     1.8430 H     1 <1>   0.0800 
 41 H       -5.7540    -8.9790     2.1950 H     1 <1>   0.0800 
 42 H       -3.8710   -10.3320     1.7280 H     1 <1>   0.1500 
 43 H       -8.4560   -10.5200     0.0970 H     1 <1>   0.1500 
 44 H       -2.8860   -12.2880     0.7340 H     1 <1>   0.1500 
 45 H       -5.9760   -14.2710    -1.8630 H     1 <1>   0.1500 
 46 H       -9.5810   -12.0580    -1.4210 H     1 <1>   0.1500 
 47 H       -8.3610   -13.9280    -2.4180 H     1 <1>   0.1500 
@<TRIPOS>BOND
  1   1   2  1   
  2   2   3  1   
  3   2   4  2   
  4   3   5  2   
  5   3  26  1   
  6   4   6  1   
  7   4  27  1   
  8   5   6  1   
  9   6   7  1   
 10   7   8  1   
 11   7  28  1   
 12   7  29  1   
 13   8   9  1   
 14   8  30  1   
 15   8  31  1   
 16   9  10  1   
 17   9  11  1   
 18   9  32  1   
 19  10  12  1   
 20  10  33  1   
 21  10  34  1   
 22  11  13  1   
 23  11  35  1   
 24  11  36  1   
 25  12  13  1   
 26  12  14  1   
 27  12  37  1   
 28  13  15  1   
 29  13  38  1   
 30  14  39  1   
 31  15  16  1   
 32  15  40  1   
 33  15  41  1   
 34  16  17  ar  
 35  16  18  ar  
 36  17  19  ar  
 37  17  20  ar  
 38  18  21  ar  
 39  18  42  1   
 40  19  22  ar  
 41  19  23  ar  
 42  20  24  ar  
 43  20  43  1   
 44  21  22  ar  
 45  21  44  1   
 46  23  25  ar  
 47  23  45  1   
 48  24  25  ar  
 49  24  46  1   
 50  25  47  1   
@<TRIPOS>SUBSTRUCTURE
  1 ****  11 GROUP 4 **** **** 0

# MOE 2024.06 (io_trps.svl 2023.06)
