@<TRIPOS>MOLECULE
NONAME
43 45 1 0 0 
SMALL
USER_CHARGES


@<TRIPOS>ATOM
  1 F       -0.0400    -0.9090    -1.8060 F     1 <1>  -0.1900 
  2 C       -0.0620    -2.0660    -1.1970 C.ar  1 <1>   0.1900 
  3 C       -0.5600    -2.1490     0.0930 C.ar  1 <1>  -0.1440 
  4 C        0.4190    -3.1670    -1.8770 C.ar  1 <1>  -0.1500 
  5 C       -0.5740    -3.3930     0.7050 C.ar  1 <1>  -0.1500 
  6 C       -1.0730    -0.9190     0.8270 C.3   1 <1>  -0.0960 
  7 C        0.3980    -4.4000    -1.2490 C.ar  1 <1>  -0.1500 
  8 C       -0.1030    -4.5250     0.0420 C.ar  1 <1>  -0.1440 
  9 C       -0.1290    -5.9180     0.6830 C.3   1 <1>   0.4610 
 10 N       -1.3470    -6.6610     0.1470 N.4   1 <1>  -0.9590 
 11 C        0.0360    -5.9870     2.2280 C.2   1 <1>   0.9060 
 12 C       -2.5940    -5.9770     0.6060 C.3   1 <1>   0.3430 
 13 C       -1.2860    -8.0620     0.6520 C.3   1 <1>   0.3430 
 14 O       -0.8670    -5.5630     2.9650 O.co2 1 <1>  -0.9000 
 15 O        0.9800    -6.6510     2.6670 O.co2 1 <1>  -0.9000 
 16 C       -3.8110    -6.7230     0.0690 C.3   1 <1>  -0.1600 
 17 C       -2.4880    -8.8550     0.1430 C.3   1 <1>  -0.1600 
 18 C       -3.8060    -8.1820     0.5410 C.3   1 <1>   0.1000 
 19 C       -4.9770    -8.9590    -0.0370 C.2   1 <1>  -0.3320 
 20 N       -5.4300   -10.1140     0.5030 N.pl3 1 <1>   0.3000 
 21 C       -5.7620    -8.7130    -1.1110 C.2   1 <1>  -0.1500 
 22 N       -6.4670   -10.6160    -0.1870 N.2   1 <1>  -0.7070 
 23 C       -6.6620    -9.7710    -1.1510 C.2   1 <1>   0.1390 
 24 H        0.8040    -3.0530    -2.8750 H     1 <1>   0.1500 
 25 H       -0.9530    -3.4700     1.7120 H     1 <1>   0.1500 
 26 H       -1.9000    -0.4890     0.2900 H     1 <1>   0.0800 
 27 H       -0.2900    -0.1860     0.9010 H     1 <1>   0.0800 
 28 H       -1.4010    -1.1690     1.8200 H     1 <1>   0.0800 
 29 H        0.7820    -5.2570    -1.7760 H     1 <1>   0.1500 
 30 H        0.7430    -6.4280     0.3170 H     1 <1>   0.0800 
 31 H       -1.3080    -6.6340    -0.8730 H     1 <1>   0.4500 
 32 H       -2.6070    -4.9570     0.2570 H     1 <1>   0.0800 
 33 H       -2.6310    -5.9610     1.6840 H     1 <1>   0.0800 
 34 H       -1.2940    -8.0570     1.7330 H     1 <1>   0.0800 
 35 H       -0.3710    -8.5330     0.3300 H     1 <1>   0.0800 
 36 H       -3.8120    -6.6690    -1.0040 H     1 <1>   0.0800 
 37 H       -4.7030    -6.2380     0.4250 H     1 <1>   0.0800 
 38 H       -2.4490    -9.8460     0.5590 H     1 <1>   0.0800 
 39 H       -2.4300    -8.9500    -0.9270 H     1 <1>   0.0800 
 40 H       -3.8900    -8.1840     1.6170 H     1 <1>   0.0800 
 41 H       -5.0620   -10.5840     1.3400 H     1 <1>   0.2700 
 42 H       -5.7390    -7.8980    -1.8120 H     1 <1>   0.1500 
 43 H       -7.4360    -9.8880    -1.8920 H     1 <1>   0.1500 
@<TRIPOS>BOND
  1   1   2  1   
  2   2   3  ar  
  3   2   4  ar  
  4   3   5  ar  
  5   3   6  1   
  6   4   7  ar  
  7   4  24  1   
  8   5   8  ar  
  9   5  25  1   
 10   6  26  1   
 11   6  27  1   
 12   6  28  1   
 13   7   8  ar  
 14   7  29  1   
 15   8   9  1   
 16   9  10  1   
 17   9  11  1   
 18   9  30  1   
 19  10  12  1   
 20  10  13  1   
 21  10  31  1   
 22  11  14  ar  
 23  11  15  ar  
 24  12  16  1   
 25  12  32  1   
 26  12  33  1   
 27  13  17  1   
 28  13  34  1   
 29  13  35  1   
 30  16  18  1   
 31  16  36  1   
 32  16  37  1   
 33  17  18  1   
 34  17  38  1   
 35  17  39  1   
 36  18  19  1   
 37  18  40  1   
 38  19  20  1   
 39  19  21  2   
 40  20  22  1   
 41  20  41  1   
 42  21  23  1   
 43  21  42  1   
 44  22  23  2   
 45  23  43  1   
@<TRIPOS>SUBSTRUCTURE
  1 ****  12 GROUP 4 **** **** 0

# MOE 2024.06 (io_trps.svl 2023.06)
