@<TRIPOS>MOLECULE
NONAME
45 47 1 0 0 
SMALL
USER_CHARGES


@<TRIPOS>ATOM
  1 O        1.6970     0.0310     2.0270 O.3   1 <1>  -0.6800 
  2 C        1.7420    -0.0920     0.6410 C.3   1 <1>   0.2000 
  3 C        2.4840    -1.3760     0.2600 C.3   1 <1>  -0.0800 
  4 C        2.6400     1.0170     0.0750 C.3   1 <1>   0.2090 
  5 C        3.9610    -0.9960     0.3790 C.3   1 <1>   0.2090 
  6 C        2.1250    -2.6480     1.0510 C.3   1 <1>   0.0200 
  7 N        4.0260     0.4500     0.0330 N.pl3 1 <1>  -0.8380 
  8 C        3.0800    -3.7700     0.6800 C.2   1 <1>  -0.3320 
  9 C        5.1100     1.2150    -0.2290 C.ar  1 <1>   0.7710 
 10 N        3.8610    -4.4250     1.5670 N.pl3 1 <1>   0.3000 
 11 C        3.3460    -4.3050    -0.5320 C.2   1 <1>  -0.1500 
 12 N        4.9370     2.4830    -0.5740 N.ar  1 <1>  -0.6200 
 13 N        6.3310     0.6590    -0.1320 N.ar  1 <1>  -0.1790 
 14 N        4.6480    -5.3280     0.9590 N.2   1 <1>  -0.7070 
 15 C        4.3230    -5.2640    -0.2920 C.2   1 <1>   0.1080 
 16 C        6.0060     3.2020    -0.8280 C.ar  1 <1>   0.4100 
 17 C        7.4550     1.3740    -0.3800 C.ar  1 <1>   0.2110 
 18 C        4.9570    -6.1510    -1.3380 C.3   1 <1>  -0.0590 
 19 N        5.7600     4.4740    -1.1720 N.pl3 1 <1>  -0.8690 
 20 C        7.3060     2.6720    -0.7360 C.ar  1 <1>  -0.1500 
 21 C        6.6770     5.5500    -1.5990 C.3   1 <1>   0.2090 
 22 C        6.9670     6.4380    -0.3970 C.3   1 <1>  -0.2400 
 23 H        0.9060    -0.4130     2.3910 H     1 <1>   0.4000 
 24 H        0.7390    -0.0370     0.2550 H     1 <1>   0.0800 
 25 H        2.2900    -1.5680    -0.7810 H     1 <1>   0.0800 
 26 H        2.5920     1.9050     0.6840 H     1 <1>   0.0800 
 27 H        2.3320     1.2590    -0.9280 H     1 <1>   0.0800 
 28 H        4.5590    -1.5950    -0.2870 H     1 <1>   0.0800 
 29 H        4.2880    -1.1330     1.3970 H     1 <1>   0.0800 
 30 H        1.1150    -2.9460     0.8270 H     1 <1>   0.0800 
 31 H        2.1920    -2.4660     2.1100 H     1 <1>   0.0800 
 32 H        3.8840    -4.2870     2.5850 H     1 <1>   0.2700 
 33 H        2.9200    -4.0680    -1.4910 H     1 <1>   0.1500 
 34 H        6.3430    -0.3140     0.1490 H     1 <1>   0.4570 
 35 H        8.4180     0.8970    -0.2870 H     1 <1>   0.1500 
 36 H        4.5680    -5.9250    -2.3130 H     1 <1>   0.0800 
 37 H        4.7500    -7.1800    -1.1060 H     1 <1>   0.0800 
 38 H        6.0210    -6.0040    -1.3390 H     1 <1>   0.0800 
 39 H        4.7750     4.7580    -1.1350 H     1 <1>   0.4000 
 40 H        8.1500     3.3020    -0.9410 H     1 <1>   0.1500 
 41 H        7.5910     5.1400    -1.9920 H     1 <1>   0.0800 
 42 H        6.2080     6.1270    -2.3790 H     1 <1>   0.0800 
 43 H        7.4360     5.8680     0.3850 H     1 <1>   0.0800 
 44 H        6.0560     6.8700    -0.0250 H     1 <1>   0.0800 
 45 H        7.6290     7.2340    -0.6850 H     1 <1>   0.0800 
@<TRIPOS>BOND
  1   1   2  1   
  2   1  23  1   
  3   2   3  1   
  4   2   4  1   
  5   2  24  1   
  6   3   5  1   
  7   3   6  1   
  8   3  25  1   
  9   4   7  1   
 10   4  26  1   
 11   4  27  1   
 12   5   7  1   
 13   5  28  1   
 14   5  29  1   
 15   6   8  1   
 16   6  30  1   
 17   6  31  1   
 18   7   9  1   
 19   8  10  1   
 20   8  11  2   
 21   9  12  ar  
 22   9  13  ar  
 23  10  14  1   
 24  10  32  1   
 25  11  15  1   
 26  11  33  1   
 27  12  16  ar  
 28  13  17  ar  
 29  13  34  1   
 30  14  15  2   
 31  15  18  1   
 32  16  19  1   
 33  16  20  ar  
 34  17  20  ar  
 35  17  35  1   
 36  18  36  1   
 37  18  37  1   
 38  18  38  1   
 39  19  21  1   
 40  19  39  1   
 41  20  40  1   
 42  21  22  1   
 43  21  41  1   
 44  21  42  1   
 45  22  43  1   
 46  22  44  1   
 47  22  45  1   
@<TRIPOS>SUBSTRUCTURE
  1 ****   7 GROUP 4 **** **** 0

# MOE 2024.06 (io_trps.svl 2023.06)
