@<TRIPOS>MOLECULE
NONAME
37 40 1 0 0 
SMALL
USER_CHARGES


@<TRIPOS>ATOM
  1 O        0.2570     1.4010    -0.1290 O.co2 1 <1>  -0.9000 
  2 C        1.2590     2.0190     0.2560 C.2   1 <1>   0.9470 
  3 O        1.2090     3.2370     0.4790 O.co2 1 <1>  -0.9000 
  4 C        2.6300     1.3320     0.2440 C.3   1 <1>  -0.2420 
  5 C        3.3820     0.5430     1.2890 C.3   1 <1>  -0.2420 
  6 C        3.6410     2.1750    -0.5100 C.3   1 <1>   0.2350 
  7 C        2.6740    -0.1740     0.1720 C.3   1 <1>  -0.2000 
  8 C        3.0210     0.2340     2.7410 C.2   1 <1>   0.9470 
  9 C        4.8600     0.8630     1.1600 C.3   1 <1>   0.2350 
 10 N        4.9850     1.7030    -0.0640 N.am  1 <1>  -0.6600 
 11 O        2.6490    -0.9090     3.0410 O.co2 1 <1>  -0.9000 
 12 O        3.2580     1.0810     3.6120 O.co2 1 <1>  -0.9000 
 13 C        6.1980     2.1350    -0.5170 C.2   1 <1>   0.5690 
 14 O        7.2300     1.6370    -0.1250 O.2   1 <1>  -0.5700 
 15 C        6.2970     3.2440    -1.5520 C.3   1 <1>   0.0820 
 16 C        6.8850     4.5280    -0.9920 C.2   1 <1>   0.1080 
 17 N        7.7560     5.2190    -1.6550 N.2   1 <1>  -0.7070 
 18 C        6.5560     5.1150     0.2500 C.ar  1 <1>   0.0000 
 19 N        8.0440     6.2720    -0.8610 N.pl3 1 <1>   0.3000 
 20 C        7.3360     6.2520     0.3010 C.ar  1 <1>  -0.1520 
 21 C        5.6990     4.8360     1.3270 C.ar  1 <1>  -0.1500 
 22 C        7.3010     7.1240     1.3960 C.ar  1 <1>  -0.1500 
 23 C        5.6560     5.6870     2.4050 C.ar  1 <1>  -0.1500 
 24 C        6.4590     6.8350     2.4420 C.ar  1 <1>  -0.1500 
 25 H        3.5230     3.2150    -0.2560 H     1 <1>   0.0800 
 26 H        3.5130     2.0410    -1.5680 H     1 <1>   0.0800 
 27 H        3.2470    -0.6520    -0.6000 H     1 <1>   0.1000 
 28 H        1.7790    -0.7200     0.4210 H     1 <1>   0.1000 
 29 H        5.4410    -0.0380     1.0710 H     1 <1>   0.0800 
 30 H        5.1980     1.4260     2.0140 H     1 <1>   0.0800 
 31 H        6.9310     2.8940    -2.3430 H     1 <1>   0.0800 
 32 H        5.3420     3.4680    -1.9820 H     1 <1>   0.0800 
 33 H        8.7240     6.9930    -1.1250 H     1 <1>   0.2700 
 34 H        5.0760     3.9600     1.3140 H     1 <1>   0.1500 
 35 H        7.9220     8.0010     1.4100 H     1 <1>   0.1500 
 36 H        4.9970     5.4690     3.2290 H     1 <1>   0.1500 
 37 H        6.4040     7.4810     3.3000 H     1 <1>   0.1500 
@<TRIPOS>BOND
  1   1   2  ar  
  2   2   3  ar  
  3   2   4  1   
  4   4   5  1   
  5   4   6  1   
  6   4   7  1   
  7   5   7  1   
  8   5   8  1   
  9   5   9  1   
 10   6  10  1   
 11   6  25  1   
 12   6  26  1   
 13   7  27  1   
 14   7  28  1   
 15   8  11  ar  
 16   8  12  ar  
 17   9  10  1   
 18   9  29  1   
 19   9  30  1   
 20  10  13  am  
 21  13  14  2   
 22  13  15  1   
 23  15  16  1   
 24  15  31  1   
 25  15  32  1   
 26  16  17  2   
 27  16  18  1   
 28  17  19  1   
 29  18  20  ar  
 30  18  21  ar  
 31  19  20  1   
 32  19  33  1   
 33  20  22  ar  
 34  21  23  ar  
 35  21  34  1   
 36  22  24  ar  
 37  22  35  1   
 38  23  24  ar  
 39  23  36  1   
 40  24  37  1   
@<TRIPOS>SUBSTRUCTURE
  1 ****  10 GROUP 4 **** **** 0

# MOE 2024.06 (io_trps.svl 2023.06)
