@<TRIPOS>MOLECULE
NONAME
55 58 1 0 0 
SMALL
USER_CHARGES


@<TRIPOS>ATOM
  1 S        0.1650    -0.0190    -0.1010 S.3   1 <1>  -0.0800 
  2 C       -0.5830     1.5540     0.1580 C.2   1 <1>   0.3250 
  3 C       -1.3960    -0.7380    -0.3470 C.2   1 <1>  -0.1400 
  4 N       -1.8660     1.4950     0.0610 N.2   1 <1>  -0.5650 
  5 C        0.2810     2.6820     0.4330 C.ar  1 <1>   0.0530 
  6 C       -2.3190     0.2280    -0.2240 C.2   1 <1>   0.0770 
  7 C       -1.4070    -2.2220    -0.6400 C.3   1 <1>   0.5230 
  8 C        0.1110     3.9390    -0.1670 C.ar  1 <1>  -0.1440 
  9 C        1.3390     2.5370     1.3340 C.ar  1 <1>  -0.1500 
 10 N       -2.7870    -2.7740    -0.5090 N.4   1 <1>  -0.9590 
 11 C        0.9710     4.9840     0.1350 C.ar  1 <1>  -0.1500 
 12 C       -1.0090     4.1980    -1.1680 C.3   1 <1>  -0.0970 
 13 C        2.1950     3.5800     1.6290 C.ar  1 <1>  -0.1500 
 14 C       -2.9520    -4.1610    -1.0290 C.3   1 <1>   0.3430 
 15 C       -3.3170    -2.7280     0.8510 C.3   1 <1>   0.3430 
 16 C        2.0110     4.8090     1.0280 C.ar  1 <1>  -0.1500 
 17 C       -4.1280    -4.9970    -0.4070 C.3   1 <1>   0.4230 
 18 C       -4.8040    -3.0260     0.7090 C.3   1 <1>  -0.1600 
 19 N       -3.8900    -5.8900     0.7830 N.4   1 <1>  -0.9590 
 20 C       -5.4810    -4.2690    -0.0780 C.3   1 <1>  -0.1060 
 21 C       -4.7300    -7.1160     0.5650 C.3   1 <1>   0.3430 
 22 C       -2.4880    -6.2810     1.1260 C.3   1 <1>   0.2630 
 23 C       -6.8470    -3.6690     0.2960 C.2   1 <1>   0.9060 
 24 C       -6.2470    -5.4920    -0.7870 C.3   1 <1>  -0.1600 
 25 C       -6.1560    -6.7420     0.1280 C.3   1 <1>  -0.1600 
 26 O       -7.3390    -4.0070     1.3760 O.co2 1 <1>  -0.9000 
 27 O       -7.3490    -2.8500    -0.4770 O.co2 1 <1>  -0.9000 
 28 H       -3.3870     0.1160    -0.3270 H     1 <1>   0.1500 
 29 H       -0.7440    -2.7230     0.0470 H     1 <1>   0.0800 
 30 H       -1.0370    -2.3780    -1.6410 H     1 <1>   0.0800 
 31 H        1.4970     1.5920     1.8220 H     1 <1>   0.1500 
 32 H       -3.4040    -2.1570    -1.0640 H     1 <1>   0.4500 
 33 H        0.8380     5.9480    -0.3250 H     1 <1>   0.1500 
 34 H       -0.8900     5.1520    -1.6490 H     1 <1>   0.0800 
 35 H       -1.9580     4.1900    -0.6620 H     1 <1>   0.0800 
 36 H       -1.0140     3.4380    -1.9280 H     1 <1>   0.0800 
 37 H        3.0020     3.4390     2.3280 H     1 <1>   0.1500 
 38 H       -3.1350    -4.0910    -2.0890 H     1 <1>   0.0800 
 39 H       -2.0370    -4.7140    -0.9040 H     1 <1>   0.0800 
 40 H       -2.8350    -3.4560     1.4810 H     1 <1>   0.0800 
 41 H       -3.1850    -1.7490     1.2880 H     1 <1>   0.0800 
 42 H        2.6730     5.6270     1.2540 H     1 <1>   0.1500 
 43 H       -4.2420    -5.6960    -1.2150 H     1 <1>   0.0800 
 44 H       -5.1300    -3.0550     1.7390 H     1 <1>   0.0800 
 45 H       -5.1930    -2.0930     0.3200 H     1 <1>   0.0800 
 46 H       -4.3490    -5.4190     1.5840 H     1 <1>   0.4500 
 47 H       -4.2840    -7.7200    -0.2080 H     1 <1>   0.0800 
 48 H       -4.7750    -7.7080     1.4660 H     1 <1>   0.0800 
 49 H       -2.0360    -6.8200     0.3090 H     1 <1>   0.0800 
 50 H       -2.4860    -6.9190     1.9960 H     1 <1>   0.0800 
 51 H       -1.8930    -5.4100     1.3460 H     1 <1>   0.0800 
 52 H       -7.3090    -5.3640    -0.9730 H     1 <1>   0.0800 
 53 H       -5.9130    -5.7040    -1.7910 H     1 <1>   0.0800 
 54 H       -6.6120    -7.5860    -0.3610 H     1 <1>   0.0800 
 55 H       -6.7390    -6.5550     1.0160 H     1 <1>   0.0800 
@<TRIPOS>BOND
  1   1   2  1   
  2   1   3  1   
  3   2   4  2   
  4   2   5  1   
  5   3   6  2   
  6   3   7  1   
  7   4   6  1   
  8   5   8  ar  
  9   5   9  ar  
 10   6  28  1   
 11   7  10  1   
 12   7  29  1   
 13   7  30  1   
 14   8  11  ar  
 15   8  12  1   
 16   9  13  ar  
 17   9  31  1   
 18  10  14  1   
 19  10  15  1   
 20  10  32  1   
 21  11  16  ar  
 22  11  33  1   
 23  12  34  1   
 24  12  35  1   
 25  12  36  1   
 26  13  16  ar  
 27  13  37  1   
 28  14  17  1   
 29  14  38  1   
 30  14  39  1   
 31  15  18  1   
 32  15  40  1   
 33  15  41  1   
 34  16  42  1   
 35  17  19  1   
 36  17  20  1   
 37  17  43  1   
 38  18  20  1   
 39  18  44  1   
 40  18  45  1   
 41  19  21  1   
 42  19  22  1   
 43  19  46  1   
 44  20  23  1   
 45  20  24  1   
 46  21  25  1   
 47  21  47  1   
 48  21  48  1   
 49  22  49  1   
 50  22  50  1   
 51  22  51  1   
 52  23  26  ar  
 53  23  27  ar  
 54  24  25  1   
 55  24  52  1   
 56  24  53  1   
 57  25  54  1   
 58  25  55  1   
@<TRIPOS>SUBSTRUCTURE
  1 ****   3 GROUP 4 **** **** 0

# MOE 2024.06 (io_trps.svl 2023.06)
