@<TRIPOS>MOLECULE
NONAME
50 54 1 0 0 
SMALL
USER_CHARGES


@<TRIPOS>ATOM
  1 N        0.0140     0.1870    -0.3490 N.ar  1 <1>  -0.6200 
  2 C       -1.1900     0.7800    -0.3450 C.ar  1 <1>   0.6200 
  3 C        0.8540     0.6270    -1.2510 C.ar  1 <1>   0.1660 
  4 N       -1.5650     1.7660    -1.1710 N.ar  1 <1>  -0.6200 
  5 C       -2.1590     0.3200     0.6390 C.ar  1 <1>   0.0000 
  6 C        0.5610     1.6220    -2.1290 C.ar  1 <1>  -0.1430 
  7 C        2.2620     0.1090    -1.4330 C.3   1 <1>   0.1440 
  8 C       -0.6890     2.1800    -2.0590 C.ar  1 <1>   0.1600 
  9 C       -2.2010    -1.0130     1.0580 C.ar  1 <1>  -0.1500 
 10 C       -3.0930     1.1900     1.2080 C.ar  1 <1>  -0.1500 
 11 C        1.7260     1.9260    -3.0380 C.3   1 <1>  -0.0160 
 12 C        2.9380     0.0390    -0.0530 C.3   1 <1>   0.3430 
 13 C        2.2380    -1.2870    -2.0910 C.3   1 <1>  -0.1600 
 14 C        2.8940     1.1810    -2.3630 C.3   1 <1>  -0.1600 
 15 C       -3.1170    -1.4520     1.9970 C.ar  1 <1>  -0.1500 
 16 C       -4.0120     0.7590     2.1470 C.ar  1 <1>  -0.1500 
 17 N        4.2890    -0.5990    -0.1340 N.4   1 <1>  -0.9590 
 18 C        3.6280    -1.9510    -2.0890 C.3   1 <1>  -0.1600 
 19 C       -4.0260    -0.5650     2.5440 C.ar  1 <1>  -0.1500 
 20 C        4.2590    -1.9760    -0.6930 C.3   1 <1>   0.3430 
 21 C        5.0550    -0.5250     1.1380 C.3   1 <1>   0.5240 
 22 C        6.5090    -0.2580     0.7590 C.2   1 <1>   0.1080 
 23 N        6.8510     0.2350    -0.4010 N.2   1 <1>  -0.7070 
 24 C        7.6110    -0.4970     1.5720 C.2   1 <1>  -0.1500 
 25 N        8.1990     0.3270    -0.3470 N.pl3 1 <1>   0.3000 
 26 C        8.6730    -0.1120     0.8340 C.2   1 <1>  -0.3020 
 27 H       -0.9760     2.9710    -2.7320 H     1 <1>   0.1500 
 28 H       -1.5050    -1.7180     0.6390 H     1 <1>   0.1500 
 29 H       -3.0980     2.2240     0.9090 H     1 <1>   0.1500 
 30 H        1.9140     2.9840    -3.1080 H     1 <1>   0.0800 
 31 H        1.5320     1.5250    -4.0190 H     1 <1>   0.0800 
 32 H        2.3070    -0.5360     0.6060 H     1 <1>   0.0800 
 33 H        3.0180     1.0360     0.3490 H     1 <1>   0.0800 
 34 H        1.8640    -1.2150    -3.0980 H     1 <1>   0.0800 
 35 H        1.5540    -1.9160    -1.5440 H     1 <1>   0.0800 
 36 H        3.5610     0.7650    -3.0960 H     1 <1>   0.0800 
 37 H        3.4440     1.8940    -1.7730 H     1 <1>   0.0800 
 38 H       -3.1270    -2.4840     2.3000 H     1 <1>   0.1500 
 39 H       -4.7180     1.4530     2.5670 H     1 <1>   0.1500 
 40 H        4.9040    -0.0430    -0.7630 H     1 <1>   0.4500 
 41 H        4.2900    -1.4390    -2.7640 H     1 <1>   0.0800 
 42 H        3.5360    -2.9630    -2.4450 H     1 <1>   0.0800 
 43 H       -4.7410    -0.9040     3.2740 H     1 <1>   0.1500 
 44 H        3.6810    -2.6190    -0.0500 H     1 <1>   0.0800 
 45 H        5.2620    -2.3680    -0.7600 H     1 <1>   0.0800 
 46 H        4.9670    -1.4410     1.6970 H     1 <1>   0.0800 
 47 H        4.7010     0.2950     1.7400 H     1 <1>   0.0800 
 48 H        7.6100    -0.8990     2.5720 H     1 <1>   0.1500 
 49 H        8.7670     0.6940    -1.1250 H     1 <1>   0.2700 
 50 H        9.7210    -0.1250     1.0800 H     1 <1>   0.1500 
@<TRIPOS>BOND
  1   1   2  ar  
  2   1   3  ar  
  3   2   4  ar  
  4   2   5  1   
  5   3   6  ar  
  6   3   7  1   
  7   4   8  ar  
  8   5   9  ar  
  9   5  10  ar  
 10   6   8  ar  
 11   6  11  1   
 12   7  12  1   
 13   7  13  1   
 14   7  14  1   
 15   8  27  1   
 16   9  15  ar  
 17   9  28  1   
 18  10  16  ar  
 19  10  29  1   
 20  11  14  1   
 21  11  30  1   
 22  11  31  1   
 23  12  17  1   
 24  12  32  1   
 25  12  33  1   
 26  13  18  1   
 27  13  34  1   
 28  13  35  1   
 29  14  36  1   
 30  14  37  1   
 31  15  19  ar  
 32  15  38  1   
 33  16  19  ar  
 34  16  39  1   
 35  17  20  1   
 36  17  21  1   
 37  17  40  1   
 38  18  20  1   
 39  18  41  1   
 40  18  42  1   
 41  19  43  1   
 42  20  44  1   
 43  20  45  1   
 44  21  22  1   
 45  21  46  1   
 46  21  47  1   
 47  22  23  2   
 48  22  24  1   
 49  23  25  1   
 50  24  26  2   
 51  24  48  1   
 52  25  26  1   
 53  25  49  1   
 54  26  50  1   
@<TRIPOS>SUBSTRUCTURE
  1 ****  12 GROUP 4 **** **** 0

# MOE 2024.06 (io_trps.svl 2023.06)
