@<TRIPOS>MOLECULE
NONAME
53 56 1 0 0 
SMALL
USER_CHARGES


@<TRIPOS>ATOM
  1 O       -1.3520    -0.2530     2.0280 O.2   1 <1>  -0.5700 
  2 C       -1.6410     0.6590     1.2740 C.2   1 <1>   0.5440 
  3 N       -2.6560     0.4440     0.3680 N.am  1 <1>  -0.6600 
  4 C       -0.9740     1.9470     1.3800 C.ar  1 <1>   0.0860 
  5 C       -3.0440    -0.9420     0.0010 C.3   1 <1>   0.1400 
  6 C       -3.7980     1.4060     0.3250 C.3   1 <1>   0.1400 
  7 C       -0.7500     2.7480     0.2610 C.ar  1 <1>  -0.1500 
  8 C       -0.5340     2.4280     2.6110 C.ar  1 <1>  -0.1500 
  9 C       -4.4530    -1.1390     0.5920 C.3   1 <1>   0.4230 
 10 C       -5.0410     0.8120    -0.4140 C.3   1 <1>  -0.1600 
 11 C       -0.1320     3.9910     0.3400 C.ar  1 <1>   0.0540 
 12 C        0.0870     3.6580     2.7190 C.ar  1 <1>  -0.1500 
 13 N       -4.5390    -2.3010     1.5460 N.4   1 <1>  -0.9590 
 14 C       -5.5320    -0.7440    -0.5150 C.3   1 <1>   0.0000 
 15 C        0.0730     4.7930    -0.8460 C.2   1 <1>  -0.0540 
 16 C        0.2830     4.4330     1.5920 C.ar  1 <1>  -0.1500 
 17 C       -4.5370    -3.5650     0.8360 C.3   1 <1>   0.3430 
 18 C       -3.4970    -2.2490     2.6260 C.3   1 <1>   0.2630 
 19 C       -6.0510    -2.2660    -0.7380 C.3   1 <1>  -0.1600 
 20 C       -6.6370    -0.2600    -1.5850 C.3   1 <1>   0.1200 
 21 C        0.0970     6.1890    -0.9370 C.2   1 <1>   0.1390 
 22 C        0.2850     4.3960    -2.1270 C.2   1 <1>  -0.3020 
 23 C       -5.8630    -3.5220     0.1410 C.3   1 <1>  -0.1600 
 24 O       -7.8140     0.0170    -0.8920 O.3   1 <1>  -0.6800 
 25 N        0.3040     6.6180    -2.1430 N.2   1 <1>  -0.7070 
 26 N        0.4230     5.5010    -2.8800 N.pl3 1 <1>   0.3000 
 27 H       -3.0670    -1.0270    -1.0720 H     1 <1>   0.0800 
 28 H       -2.3300    -1.6560     0.3680 H     1 <1>   0.0800 
 29 H       -4.0710     1.6610     1.3370 H     1 <1>   0.0800 
 30 H       -3.4860     2.3170    -0.1590 H     1 <1>   0.0800 
 31 H       -1.0640     2.3930    -0.7030 H     1 <1>   0.1500 
 32 H       -0.6780     1.8260     3.4930 H     1 <1>   0.1500 
 33 H       -4.5620    -0.3560     1.3190 H     1 <1>   0.0800 
 34 H       -5.8620     1.4350    -0.0910 H     1 <1>   0.0800 
 35 H       -4.7680     1.1340    -1.4070 H     1 <1>   0.0800 
 36 H        0.4200     4.0110     3.6800 H     1 <1>   0.1500 
 37 H       -5.4610    -2.2170     1.9950 H     1 <1>   0.4500 
 38 H        0.7740     5.3860     1.6850 H     1 <1>   0.1500 
 39 H       -3.7200    -3.6190     0.1330 H     1 <1>   0.0800 
 40 H       -4.4920    -4.3980     1.5190 H     1 <1>   0.0800 
 41 H       -2.5120    -2.4090     2.2180 H     1 <1>   0.0800 
 42 H       -3.6860    -3.0050     3.3700 H     1 <1>   0.0800 
 43 H       -3.5030    -1.2830     3.1070 H     1 <1>   0.0800 
 44 H       -7.1240    -2.3220    -0.8580 H     1 <1>   0.0800 
 45 H       -5.6300    -2.5630    -1.6870 H     1 <1>   0.0800 
 46 H       -6.8780    -0.9720    -2.3600 H     1 <1>   0.0800 
 47 H       -6.4380     0.6200    -2.1720 H     1 <1>   0.0800 
 48 H       -0.0460     6.8480    -0.0970 H     1 <1>   0.1500 
 49 H        0.3510     3.4010    -2.5270 H     1 <1>   0.1500 
 50 H       -5.9670    -4.4040    -0.4680 H     1 <1>   0.0800 
 51 H       -6.6450    -3.5670     0.8810 H     1 <1>   0.0800 
 52 H       -8.5260     0.3040    -1.5010 H     1 <1>   0.4000 
 53 H        0.6000     5.5330    -3.8920 H     1 <1>   0.2700 
@<TRIPOS>BOND
  1   1   2  2   
  2   2   3  am  
  3   2   4  1   
  4   3   5  1   
  5   3   6  1   
  6   4   7  ar  
  7   4   8  ar  
  8   5   9  1   
  9   5  27  1   
 10   5  28  1   
 11   6  10  1   
 12   6  29  1   
 13   6  30  1   
 14   7  11  ar  
 15   7  31  1   
 16   8  12  ar  
 17   8  32  1   
 18   9  13  1   
 19   9  14  1   
 20   9  33  1   
 21  10  14  1   
 22  10  34  1   
 23  10  35  1   
 24  11  15  1   
 25  11  16  ar  
 26  12  16  ar  
 27  12  36  1   
 28  13  17  1   
 29  13  18  1   
 30  13  37  1   
 31  14  19  1   
 32  14  20  1   
 33  15  21  1   
 34  15  22  2   
 35  16  38  1   
 36  17  23  1   
 37  17  39  1   
 38  17  40  1   
 39  18  41  1   
 40  18  42  1   
 41  18  43  1   
 42  19  23  1   
 43  19  44  1   
 44  19  45  1   
 45  20  24  1   
 46  20  46  1   
 47  20  47  1   
 48  21  25  2   
 49  21  48  1   
 50  22  26  1   
 51  22  49  1   
 52  23  50  1   
 53  23  51  1   
 54  24  52  1   
 55  25  26  1   
 56  26  53  1   
@<TRIPOS>SUBSTRUCTURE
  1 ****   3 GROUP 4 **** **** 0

# MOE 2024.06 (io_trps.svl 2023.06)
