@<TRIPOS>MOLECULE
NONAME
46 47 1 0 0 
SMALL
USER_CHARGES


@<TRIPOS>ATOM
  1 S        0.8200     0.0140    -0.5440 S.o2  1 <1>   1.3330 
  2 O        0.4230    -0.1350    -1.9230 O.2   1 <1>  -0.6500 
  3 O        2.1960     0.3280    -0.2280 O.2   1 <1>  -0.6500 
  4 N        0.3230    -1.3360     0.3490 N.am  1 <1>  -0.8490 
  5 C       -0.1510     1.3500     0.1500 C.3   1 <1>  -0.0550 
  6 C       -0.8520    -2.0100    -0.2170 C.3   1 <1>   0.1160 
  7 C        1.4030    -2.3100     0.5440 C.3   1 <1>   0.1160 
  8 C        0.1050     2.6920    -0.5720 C.3   1 <1>  -0.0800 
  9 C       -0.6560     3.8950    -0.0170 C.3   1 <1>   0.2000 
 10 C        1.5810     3.1260    -0.5500 C.3   1 <1>   0.3430 
 11 O       -0.5940     3.8820     1.3750 O.3   1 <1>  -0.6800 
 12 C        0.1760     5.0730    -0.5290 C.3   1 <1>   0.3430 
 13 N        1.6000     4.6150    -0.4580 N.4   1 <1>  -0.9590 
 14 C        2.2370     5.0540     0.8120 C.3   1 <1>   0.5240 
 15 C        2.3500     6.5580     0.7640 C.2   1 <1>  -0.1810 
 16 C        3.1890     7.3600     0.0680 C.2   1 <1>  -0.3320 
 17 C        1.5330     7.4260     1.4760 C.2   1 <1>   0.1390 
 18 N        2.8450     8.6330     0.3750 N.pl3 1 <1>   0.3140 
 19 C        4.3280     7.0020    -0.8780 C.3   1 <1>  -0.0600 
 20 N        1.8150     8.6640     1.2350 N.2   1 <1>  -0.7070 
 21 C        3.4630     9.8770    -0.1080 C.3   1 <1>   0.0160 
 22 H       -1.1920     1.1030     0.0740 H     1 <1>   0.0800 
 23 H        0.0920     1.4390     1.1920 H     1 <1>   0.0800 
 24 H       -1.1730    -2.8060     0.4340 H     1 <1>   0.0800 
 25 H       -0.6190    -2.4240    -1.1850 H     1 <1>   0.0800 
 26 H       -1.6650    -1.3140    -0.3270 H     1 <1>   0.0800 
 27 H        1.0560    -3.1410     1.1350 H     1 <1>   0.0800 
 28 H        2.2270    -1.8510     1.0650 H     1 <1>   0.0800 
 29 H        1.7560    -2.6760    -0.4060 H     1 <1>   0.0800 
 30 H       -0.1720     2.5710    -1.6060 H     1 <1>   0.0800 
 31 H       -1.6870     3.9500    -0.3260 H     1 <1>   0.0800 
 32 H        2.0890     2.7820    -1.4380 H     1 <1>   0.0800 
 33 H        2.0720     2.6980     0.3100 H     1 <1>   0.0800 
 34 H       -1.3680     3.4190     1.7630 H     1 <1>   0.4000 
 35 H       -0.0050     5.9640     0.0480 H     1 <1>   0.0800 
 36 H       -0.0850     5.2650    -1.5570 H     1 <1>   0.0800 
 37 H        2.1420     5.0500    -1.2150 H     1 <1>   0.4500 
 38 H        1.6440     4.7500     1.6600 H     1 <1>   0.0800 
 39 H        3.2210     4.6260     0.9030 H     1 <1>   0.0800 
 40 H        0.7470     7.1280     2.1520 H     1 <1>   0.1500 
 41 H        4.4540     5.9370    -0.9460 H     1 <1>   0.0800 
 42 H        5.2500     7.4260    -0.5200 H     1 <1>   0.0800 
 43 H        4.1320     7.3900    -1.8620 H     1 <1>   0.0800 
 44 H        3.4050     9.9110    -1.1790 H     1 <1>   0.0800 
 45 H        4.4880     9.9070     0.2080 H     1 <1>   0.0800 
 46 H        2.9360    10.7160     0.3070 H     1 <1>   0.0800 
@<TRIPOS>BOND
  1   1   2  2   
  2   1   3  2   
  3   1   4  am  
  4   1   5  1   
  5   4   6  1   
  6   4   7  1   
  7   5   8  1   
  8   5  22  1   
  9   5  23  1   
 10   6  24  1   
 11   6  25  1   
 12   6  26  1   
 13   7  27  1   
 14   7  28  1   
 15   7  29  1   
 16   8   9  1   
 17   8  10  1   
 18   8  30  1   
 19   9  11  1   
 20   9  12  1   
 21   9  31  1   
 22  10  13  1   
 23  10  32  1   
 24  10  33  1   
 25  11  34  1   
 26  12  13  1   
 27  12  35  1   
 28  12  36  1   
 29  13  14  1   
 30  13  37  1   
 31  14  15  1   
 32  14  38  1   
 33  14  39  1   
 34  15  16  2   
 35  15  17  1   
 36  16  18  1   
 37  16  19  1   
 38  17  20  2   
 39  17  40  1   
 40  18  20  1   
 41  18  21  1   
 42  19  41  1   
 43  19  42  1   
 44  19  43  1   
 45  21  44  1   
 46  21  45  1   
 47  21  46  1   
@<TRIPOS>SUBSTRUCTURE
  1 ****  10 GROUP 4 **** **** 0

# MOE 2024.06 (io_trps.svl 2023.06)
