@<TRIPOS>MOLECULE
NONAME
59 61 1 0 0 
SMALL
USER_CHARGES


@<TRIPOS>ATOM
  1 O       -1.8150    -3.2510     0.9740 O.2   1 <1>  -0.5700 
  2 C       -0.6620    -3.5390     0.7700 C.2   1 <1>   0.5690 
  3 N       -0.1820    -4.8190     0.8120 N.am  1 <1>  -0.6600 
  4 C        0.3230    -2.4350     0.4480 C.3   1 <1>  -0.0990 
  5 C        1.2540    -5.0990     0.5720 C.3   1 <1>   0.1400 
  6 C       -1.0440    -5.9830     1.1570 C.3   1 <1>   0.0600 
  7 C        1.2160    -2.8430    -0.7390 C.3   1 <1>  -0.0800 
  8 C        1.7530    -4.2910    -0.6440 C.3   1 <1>  -0.0800 
  9 C        2.4360    -1.9300    -0.9240 C.3   1 <1>  -0.1600 
 10 C        3.2830    -4.1780    -0.7090 C.3   1 <1>  -0.1600 
 11 C        3.5280    -2.8590    -1.4410 C.3   1 <1>   0.4230 
 12 N        4.8990    -2.3000    -1.2710 N.4   1 <1>  -0.9590 
 13 C        5.3550    -2.1150     0.1400 C.3   1 <1>   0.4860 
 14 C        5.9020    -3.0900    -2.0540 C.3   1 <1>   0.2630 
 15 C        6.5630    -1.2010     0.1340 C.ar  1 <1>  -0.1440 
 16 C        7.8370    -1.7330     0.2550 C.ar  1 <1>  -0.1500 
 17 C        6.4100     0.1720     0.0070 C.ar  1 <1>  -0.1500 
 18 C        8.9570    -0.9170     0.2400 C.ar  1 <1>  -0.1440 
 19 C        7.5200     0.9960    -0.0120 C.ar  1 <1>  -0.1500 
 20 C        8.8000     0.4590     0.1000 C.ar  1 <1>   0.0820 
 21 C       10.3440    -1.5390     0.3670 C.3   1 <1>   0.2640 
 22 O        9.9210     1.2240     0.0780 O.3   1 <1>  -0.3630 
 23 O       10.3320    -2.4400     1.4190 O.3   1 <1>  -0.6800 
 24 C        9.8710     2.6300    -0.0090 C.3   1 <1>   0.1200 
 25 C       11.3040     3.1610     0.0190 C.3   1 <1>  -0.1600 
 26 C       11.3350     4.6900    -0.0730 C.3   1 <1>  -0.2400 
 27 H       -0.2160    -1.5340     0.2150 H     1 <1>   0.0800 
 28 H        0.9090    -2.2590     1.3300 H     1 <1>   0.0800 
 29 H        1.7990    -4.8260     1.4590 H     1 <1>   0.0800 
 30 H        1.4010    -6.1510     0.3950 H     1 <1>   0.0800 
 31 H       -0.6720    -6.4630     2.0450 H     1 <1>   0.0800 
 32 H       -1.0500    -6.6870     0.3440 H     1 <1>   0.0800 
 33 H       -2.0570    -5.6630     1.3390 H     1 <1>   0.0800 
 34 H        0.6080    -2.7880    -1.6290 H     1 <1>   0.0800 
 35 H        1.4200    -4.8140    -1.5260 H     1 <1>   0.0800 
 36 H        2.7040    -1.5000     0.0230 H     1 <1>   0.0800 
 37 H        2.2220    -1.1430    -1.6260 H     1 <1>   0.0800 
 38 H        3.7070    -5.0140    -1.2360 H     1 <1>   0.0800 
 39 H        3.6740    -4.1440     0.2910 H     1 <1>   0.0800 
 40 H        3.3410    -3.0240    -2.4910 H     1 <1>   0.0800 
 41 H        4.8930    -1.3530    -1.6730 H     1 <1>   0.4500 
 42 H        4.5800    -1.6630     0.7360 H     1 <1>   0.0800 
 43 H        5.6130    -3.0640     0.5800 H     1 <1>   0.0800 
 44 H        6.0010    -4.0830    -1.6460 H     1 <1>   0.0800 
 45 H        6.8670    -2.6080    -2.0220 H     1 <1>   0.0800 
 46 H        5.5970    -3.1680    -3.0840 H     1 <1>   0.0800 
 47 H        7.9770    -2.7960     0.3670 H     1 <1>   0.1500 
 48 H        5.4320     0.6170    -0.0740 H     1 <1>   0.1500 
 49 H        7.3700     2.0550    -0.1130 H     1 <1>   0.1500 
 50 H       11.1070    -0.8070     0.5680 H     1 <1>   0.0800 
 51 H       10.6010    -2.0760    -0.5300 H     1 <1>   0.0800 
 52 H       10.1370    -1.9560     2.2450 H     1 <1>   0.4000 
 53 H        9.3860     2.8980    -0.9320 H     1 <1>   0.0800 
 54 H        9.3120     3.0040     0.8310 H     1 <1>   0.0800 
 55 H       11.7790     2.8510     0.9350 H     1 <1>   0.0800 
 56 H       11.8520     2.7450    -0.8100 H     1 <1>   0.0800 
 57 H       10.8070     5.1290     0.7560 H     1 <1>   0.0800 
 58 H       10.8820     5.0230    -0.9900 H     1 <1>   0.0800 
 59 H       12.3530     5.0380    -0.0510 H     1 <1>   0.0800 
@<TRIPOS>BOND
  1   1   2  2   
  2   2   3  am  
  3   2   4  1   
  4   3   5  1   
  5   3   6  1   
  6   4   7  1   
  7   4  27  1   
  8   4  28  1   
  9   5   8  1   
 10   5  29  1   
 11   5  30  1   
 12   6  31  1   
 13   6  32  1   
 14   6  33  1   
 15   7   8  1   
 16   7   9  1   
 17   7  34  1   
 18   8  10  1   
 19   8  35  1   
 20   9  11  1   
 21   9  36  1   
 22   9  37  1   
 23  10  11  1   
 24  10  38  1   
 25  10  39  1   
 26  11  12  1   
 27  11  40  1   
 28  12  13  1   
 29  12  14  1   
 30  12  41  1   
 31  13  15  1   
 32  13  42  1   
 33  13  43  1   
 34  14  44  1   
 35  14  45  1   
 36  14  46  1   
 37  15  16  ar  
 38  15  17  ar  
 39  16  18  ar  
 40  16  47  1   
 41  17  19  ar  
 42  17  48  1   
 43  18  20  ar  
 44  18  21  1   
 45  19  20  ar  
 46  19  49  1   
 47  20  22  1   
 48  21  23  1   
 49  21  50  1   
 50  21  51  1   
 51  22  24  1   
 52  23  52  1   
 53  24  25  1   
 54  24  53  1   
 55  24  54  1   
 56  25  26  1   
 57  25  55  1   
 58  25  56  1   
 59  26  57  1   
 60  26  58  1   
 61  26  59  1   
@<TRIPOS>SUBSTRUCTURE
  1 ****  13 GROUP 4 **** **** 0

# MOE 2024.06 (io_trps.svl 2023.06)
