@<TRIPOS>MOLECULE
NONAME
45 49 1 0 0 
SMALL
USER_CHARGES


@<TRIPOS>ATOM
  1 S        1.7810     0.2300     1.5810 S.3   1 <1>  -0.0800 
  2 C        1.0110    -0.6710     0.2770 C.2   1 <1>   0.3250 
  3 C        1.2740    -0.9630     2.7230 C.2   1 <1>  -0.1100 
  4 N        0.4470    -1.7480     0.7190 N.2   1 <1>  -0.5650 
  5 C        1.0830    -0.1360    -1.0790 C.ar  1 <1>   0.6730 
  6 C        0.5750    -1.9360     2.1020 C.2   1 <1>   0.1410 
  7 N        0.4110    -0.7850    -2.0440 N.ar  1 <1>  -0.6200 
  8 N        1.8110     0.9730    -1.2910 N.ar  1 <1>  -0.6200 
  9 C        0.0210    -3.1060     2.7870 C.2   1 <1>   0.7160 
 10 C        0.4810    -0.3000    -3.2600 C.ar  1 <1>   0.1600 
 11 C        1.8630     1.4370    -2.5160 C.ar  1 <1>   0.1600 
 12 O        0.5610    -3.4860     3.8130 O.2   1 <1>  -0.5700 
 13 N       -1.0850    -3.8090     2.3400 N.am  1 <1>  -0.6600 
 14 C        1.2060     0.8270    -3.5530 C.ar  1 <1>  -0.1500 
 15 C       -1.3150    -5.2310     2.7070 C.3   1 <1>   0.1400 
 16 C       -2.1110    -3.2700     1.4080 C.3   1 <1>   0.1400 
 17 C       -1.2700    -6.0760     1.4320 C.3   1 <1>  -0.1600 
 18 C       -2.0660    -4.0760     0.1100 C.3   1 <1>  -0.1600 
 19 C       -2.2670    -5.5760     0.3770 C.3   1 <1>   0.4610 
 20 O       -3.5530    -5.7770     0.9390 O.3   1 <1>  -0.5600 
 21 C       -2.1290    -6.3880    -0.9130 C.2   1 <1>  -0.1810 
 22 C       -4.6660    -5.8120     0.0770 C.3   1 <1>   0.1200 
 23 C       -3.1810    -7.0200    -1.4470 C.2   1 <1>  -0.1400 
 24 C       -0.9250    -6.5640    -1.6740 C.2   1 <1>  -0.1500 
 25 C       -4.5800    -7.0000    -0.8940 C.3   1 <1>   0.0200 
 26 S       -2.7510    -7.8920    -2.9030 S.3   1 <1>  -0.0800 
 27 C       -1.0880    -7.3410    -2.7640 C.2   1 <1>  -0.1100 
 28 H        1.5460    -0.8390     3.7550 H     1 <1>   0.1500 
 29 H       -0.0530    -0.8160    -4.0410 H     1 <1>   0.1500 
 30 H        2.4450     2.3260    -2.6960 H     1 <1>   0.1500 
 31 H        1.2560     1.2150    -4.5530 H     1 <1>   0.1500 
 32 H       -2.2760    -5.3250     3.1830 H     1 <1>   0.0800 
 33 H       -0.5630    -5.5760     3.3970 H     1 <1>   0.0800 
 34 H       -1.9500    -2.2250     1.2100 H     1 <1>   0.0800 
 35 H       -3.0820    -3.3680     1.8640 H     1 <1>   0.0800 
 36 H       -1.4860    -7.1020     1.6630 H     1 <1>   0.0800 
 37 H       -0.2730    -6.0340     1.0360 H     1 <1>   0.0800 
 38 H       -1.1080    -3.9220    -0.3530 H     1 <1>   0.0800 
 39 H       -2.8060    -3.7160    -0.5770 H     1 <1>   0.0800 
 40 H       -4.7060    -4.8860    -0.4670 H     1 <1>   0.0800 
 41 H       -5.5500    -5.8920     0.6850 H     1 <1>   0.0800 
 42 H       -0.0010    -6.1020    -1.3740 H     1 <1>   0.1500 
 43 H       -5.2960    -6.8770    -1.6860 H     1 <1>   0.0800 
 44 H       -4.7850    -7.9210    -0.3780 H     1 <1>   0.0800 
 45 H       -0.3980    -7.6600    -3.5240 H     1 <1>   0.1500 
@<TRIPOS>BOND
  1   1   2  1   
  2   1   3  1   
  3   2   4  2   
  4   2   5  1   
  5   3   6  2   
  6   3  28  1   
  7   4   6  1   
  8   5   7  ar  
  9   5   8  ar  
 10   6   9  1   
 11   7  10  ar  
 12   8  11  ar  
 13   9  12  2   
 14   9  13  am  
 15  10  14  ar  
 16  10  29  1   
 17  11  14  ar  
 18  11  30  1   
 19  13  15  1   
 20  13  16  1   
 21  14  31  1   
 22  15  17  1   
 23  15  32  1   
 24  15  33  1   
 25  16  18  1   
 26  16  34  1   
 27  16  35  1   
 28  17  19  1   
 29  17  36  1   
 30  17  37  1   
 31  18  19  1   
 32  18  38  1   
 33  18  39  1   
 34  19  20  1   
 35  19  21  1   
 36  20  22  1   
 37  21  23  2   
 38  21  24  1   
 39  22  25  1   
 40  22  40  1   
 41  22  41  1   
 42  23  25  1   
 43  23  26  1   
 44  24  27  2   
 45  24  42  1   
 46  25  43  1   
 47  25  44  1   
 48  26  27  1   
 49  27  45  1   
@<TRIPOS>SUBSTRUCTURE
  1 ****  18 GROUP 4 **** **** 0

# MOE 2024.06 (io_trps.svl 2023.06)
