@<TRIPOS>MOLECULE
NONAME
50 52 1 0 0 
SMALL
USER_CHARGES


@<TRIPOS>ATOM
  1 S        0.0850    -1.0320     0.8760 S.3   1 <1>  -0.0800 
  2 C       -1.3090     0.0310     1.0020 C.2   1 <1>  -0.1400 
  3 C        1.0440     0.2370     0.1340 C.2   1 <1>  -0.1400 
  4 C       -1.0190     1.2470     0.5040 C.2   1 <1>  -0.1500 
  5 C       -2.5680    -0.5420     1.6170 C.3   1 <1>   0.3200 
  6 C        0.3200     1.3640     0.0100 C.2   1 <1>  -0.1500 
  7 C        2.4710    -0.1020    -0.2390 C.3   1 <1>  -0.0600 
  8 N       -3.0820    -1.5970     0.7320 N.am  1 <1>  -0.7300 
  9 C       -4.3870    -1.9000     0.5260 C.2   1 <1>   0.5690 
 10 O       -5.2580    -1.3360     1.1450 O.2   1 <1>  -0.5700 
 11 C       -4.7510    -2.9810    -0.5010 C.3   1 <1>   0.2610 
 12 O       -3.5730    -3.5910    -1.0070 O.3   1 <1>  -0.5600 
 13 C       -5.7480    -3.9950     0.1320 C.3   1 <1>   0.3640 
 14 C       -3.8120    -4.6660    -1.8760 C.3   1 <1>   0.1810 
 15 N       -5.5180    -5.4370    -0.2280 N.am  1 <1>  -0.6600 
 16 C       -7.1800    -3.6080    -0.2460 C.ar  1 <1>  -0.1430 
 17 C       -4.6010    -5.7770    -1.1910 C.2   1 <1>   0.5690 
 18 C       -6.2870    -6.4130     0.5940 C.3   1 <1>   0.2200 
 19 C       -7.9700    -2.9120     0.6590 C.ar  1 <1>  -0.1500 
 20 C       -7.7110    -3.9310    -1.4890 C.ar  1 <1>  -0.1500 
 21 O       -4.3830    -6.9130    -1.5410 O.2   1 <1>  -0.5700 
 22 C       -5.3350    -7.2350     1.4610 C.3   1 <1>  -0.2400 
 23 C       -7.1770    -7.3000    -0.2780 C.3   1 <1>  -0.2400 
 24 C       -9.2650    -2.5510     0.3310 C.ar  1 <1>  -0.1500 
 25 C       -9.0050    -3.5700    -1.8190 C.ar  1 <1>  -0.1500 
 26 C       -9.7840    -2.8790    -0.9080 C.ar  1 <1>  -0.1500 
 27 H       -1.6950     2.0830     0.4570 H     1 <1>   0.1500 
 28 H       -3.3090     0.2310     1.7340 H     1 <1>   0.0800 
 29 H       -2.3470    -0.9600     2.5840 H     1 <1>   0.0800 
 30 H        0.6710     2.2890    -0.4120 H     1 <1>   0.1500 
 31 H        2.9520     0.7520    -0.6800 H     1 <1>   0.0800 
 32 H        2.4830    -0.9120    -0.9460 H     1 <1>   0.0800 
 33 H        3.0180    -0.3960     0.6390 H     1 <1>   0.0800 
 34 H       -2.3730    -2.0950     0.1830 H     1 <1>   0.3700 
 35 H       -5.2290    -2.4880    -1.3280 H     1 <1>   0.0800 
 36 H       -5.6500    -3.9200     1.2010 H     1 <1>   0.0800 
 37 H       -4.3480    -4.3080    -2.7350 H     1 <1>   0.0800 
 38 H       -2.8590    -5.0500    -2.1910 H     1 <1>   0.0800 
 39 H       -6.9380    -5.8660     1.2570 H     1 <1>   0.0800 
 40 H       -7.5800    -2.6390     1.6250 H     1 <1>   0.1500 
 41 H       -7.1210    -4.4730    -2.2080 H     1 <1>   0.1500 
 42 H       -4.7050    -7.8590     0.8530 H     1 <1>   0.0800 
 43 H       -5.8990    -7.8690     2.1210 H     1 <1>   0.0800 
 44 H       -4.7200    -6.5850     2.0570 H     1 <1>   0.0800 
 45 H       -6.5900    -7.9410    -0.9100 H     1 <1>   0.0800 
 46 H       -7.8240    -6.6950    -0.8850 H     1 <1>   0.0800 
 47 H       -7.7900    -7.9220     0.3480 H     1 <1>   0.0800 
 48 H       -9.8670    -2.0100     1.0410 H     1 <1>   0.1500 
 49 H       -9.4080    -3.8280    -2.7830 H     1 <1>   0.1500 
 50 H      -10.7910    -2.5980    -1.1620 H     1 <1>   0.1500 
@<TRIPOS>BOND
  1   1   2  1   
  2   1   3  1   
  3   2   4  2   
  4   2   5  1   
  5   3   6  2   
  6   3   7  1   
  7   4   6  1   
  8   4  27  1   
  9   5   8  1   
 10   5  28  1   
 11   5  29  1   
 12   6  30  1   
 13   7  31  1   
 14   7  32  1   
 15   7  33  1   
 16   8   9  am  
 17   8  34  1   
 18   9  10  2   
 19   9  11  1   
 20  11  12  1   
 21  11  13  1   
 22  11  35  1   
 23  12  14  1   
 24  13  15  1   
 25  13  16  1   
 26  13  36  1   
 27  14  17  1   
 28  14  37  1   
 29  14  38  1   
 30  15  17  am  
 31  15  18  1   
 32  16  19  ar  
 33  16  20  ar  
 34  17  21  2   
 35  18  22  1   
 36  18  23  1   
 37  18  39  1   
 38  19  24  ar  
 39  19  40  1   
 40  20  25  ar  
 41  20  41  1   
 42  22  42  1   
 43  22  43  1   
 44  22  44  1   
 45  23  45  1   
 46  23  46  1   
 47  23  47  1   
 48  24  26  ar  
 49  24  48  1   
 50  25  26  ar  
 51  25  49  1   
 52  26  50  1   
@<TRIPOS>SUBSTRUCTURE
  1 ****  11 GROUP 4 **** **** 0

# MOE 2024.06 (io_trps.svl 2023.06)
