@<TRIPOS>MOLECULE
NONAME
41 42 1 0 0 
SMALL
USER_CHARGES


@<TRIPOS>ATOM
  1 O       -2.2000     1.9090    -1.8070 O.2   1 <1>  -0.5700 
  2 C       -2.3930     1.4250    -0.7070 C.2   1 <1>   0.5440 
  3 N       -1.7360     1.9670     0.3830 N.am  1 <1>  -0.6600 
  4 C       -3.2880     0.2980    -0.5880 C.ar  1 <1>   0.0860 
  5 C       -1.0400     3.2810     0.2890 C.3   1 <1>   0.0600 
  6 C       -1.4760     1.2210     1.6450 C.3   1 <1>   0.0600 
  7 C       -3.2300    -0.7460    -1.5060 C.ar  1 <1>   0.1600 
  8 C       -4.2450     0.1930     0.4170 C.ar  1 <1>  -0.1500 
  9 N       -3.9800    -1.8350    -1.4950 N.ar  1 <1>  -0.6200 
 10 C       -5.0380    -0.9280     0.4410 C.ar  1 <1>  -0.1500 
 11 C       -4.8790    -1.9200    -0.5230 C.ar  1 <1>   0.4100 
 12 N       -5.6860    -3.0250    -0.4820 N.pl3 1 <1>  -0.8690 
 13 C       -5.7500    -4.0080    -1.5870 C.3   1 <1>   0.4690 
 14 C       -7.0960    -4.7290    -1.5550 C.2   1 <1>   0.0060 
 15 C       -4.5890    -5.0000    -1.4850 C.3   1 <1>  -0.2400 
 16 N       -7.8670    -4.8390    -2.5810 N.2   1 <1>  -0.5650 
 17 N       -7.6380    -5.3290    -0.4780 N.pl3 1 <1>   0.3140 
 18 C       -8.8930    -5.5330    -2.0800 C.2   1 <1>   0.3660 
 19 N       -8.8070    -5.8500    -0.8330 N.2   1 <1>  -0.7070 
 20 C       -7.1550    -5.4510     0.9200 C.3   1 <1>   0.0960 
 21 C       -7.9260    -4.5170     1.8630 C.3   1 <1>  -0.2400 
 22 H       -1.4170     3.8500    -0.5440 H     1 <1>   0.0800 
 23 H        0.0150     3.1220     0.1500 H     1 <1>   0.0800 
 24 H       -1.2010     3.8470     1.1890 H     1 <1>   0.0800 
 25 H       -1.7100     0.1780     1.5310 H     1 <1>   0.0800 
 26 H       -2.0720     1.6340     2.4400 H     1 <1>   0.0800 
 27 H       -0.4350     1.3040     1.9080 H     1 <1>   0.0800 
 28 H       -2.5070    -0.6650    -2.3010 H     1 <1>   0.1500 
 29 H       -4.3550     0.9770     1.1460 H     1 <1>   0.1500 
 30 H       -5.7850    -1.0530     1.2000 H     1 <1>   0.1500 
 31 H       -6.6290    -2.8200    -0.1530 H     1 <1>   0.4000 
 32 H       -5.6780    -3.4870    -2.5280 H     1 <1>   0.0800 
 33 H       -4.5830    -5.5090    -0.5420 H     1 <1>   0.0800 
 34 H       -3.6550    -4.4860    -1.6110 H     1 <1>   0.0800 
 35 H       -4.6770    -5.7280    -2.2700 H     1 <1>   0.0800 
 36 H       -9.7330    -5.8010    -2.7020 H     1 <1>   0.1500 
 37 H       -6.1080    -5.2230     0.9640 H     1 <1>   0.0800 
 38 H       -7.2930    -6.4720     1.2280 H     1 <1>   0.0800 
 39 H       -7.7890    -3.4900     1.5770 H     1 <1>   0.0800 
 40 H       -7.5700    -4.6430     2.8690 H     1 <1>   0.0800 
 41 H       -8.9760    -4.7550     1.8410 H     1 <1>   0.0800 
@<TRIPOS>BOND
  1   1   2  2   
  2   2   3  am  
  3   2   4  1   
  4   3   5  1   
  5   3   6  1   
  6   4   7  ar  
  7   4   8  ar  
  8   5  22  1   
  9   5  23  1   
 10   5  24  1   
 11   6  25  1   
 12   6  26  1   
 13   6  27  1   
 14   7   9  ar  
 15   7  28  1   
 16   8  10  ar  
 17   8  29  1   
 18   9  11  ar  
 19  10  11  ar  
 20  10  30  1   
 21  11  12  1   
 22  12  13  1   
 23  12  31  1   
 24  13  14  1   
 25  13  15  1   
 26  13  32  1   
 27  14  16  2   
 28  14  17  1   
 29  15  33  1   
 30  15  34  1   
 31  15  35  1   
 32  16  18  1   
 33  17  19  1   
 34  17  20  1   
 35  18  19  2   
 36  18  36  1   
 37  20  21  1   
 38  20  37  1   
 39  20  38  1   
 40  21  39  1   
 41  21  40  1   
 42  21  41  1   
@<TRIPOS>SUBSTRUCTURE
  1 ****  11 GROUP 4 **** **** 0

# MOE 2024.06 (io_trps.svl 2023.06)
