@<TRIPOS>MOLECULE
NONAME
55 58 1 0 0 
SMALL
USER_CHARGES


@<TRIPOS>ATOM
  1 O       -1.7500     1.8160    -2.3650 O.2   1 <1>  -0.5700 
  2 C       -2.3380     1.7650    -1.3010 C.2   1 <1>   0.5690 
  3 N       -3.5960     1.2090    -1.2930 N.am  1 <1>  -0.6600 
  4 C       -1.5840     2.2210     0.0140 C.3   1 <1>   0.4300 
  5 C       -4.7420     1.7600    -0.5260 C.3   1 <1>   0.2350 
  6 C       -3.6940    -0.2760    -1.2990 C.3   1 <1>   0.2350 
  7 N       -2.2920     3.2600     0.8400 N.pl3 1 <1>  -0.8690 
  8 C       -1.4370     0.9820     0.9340 C.3   1 <1>  -0.1600 
  9 C       -0.1580     2.8050    -0.2650 C.3   1 <1>  -0.1600 
 10 C       -5.1600     0.6560     0.4210 C.3   1 <1>  -0.2420 
 11 C       -4.5530    -0.6380    -0.0960 C.3   1 <1>  -0.2420 
 12 C       -2.8590     4.4400     0.3590 C.ar  1 <1>   0.1000 
 13 C       -0.3240     1.1180     1.9820 C.3   1 <1>  -0.1600 
 14 C        0.9840     1.7850    -0.1210 C.3   1 <1>  -0.1600 
 15 C       -5.2960     1.1800     1.8540 C.2   1 <1>   0.9470 
 16 C       -6.0460    -0.4370    -0.0970 C.3   1 <1>  -0.2000 
 17 C       -4.0160    -1.8900     0.6010 C.2   1 <1>   0.9470 
 18 C       -3.8540     5.0260     1.1270 C.ar  1 <1>  -0.1500 
 19 C       -2.5180     5.0540    -0.8410 C.ar  1 <1>  -0.1500 
 20 C        1.0570     1.2320     1.3130 C.3   1 <1>  -0.1600 
 21 O       -6.3660     1.0370     2.4580 O.co2 1 <1>  -0.9000 
 22 O       -4.3860     1.8830     2.3220 O.co2 1 <1>  -0.9000 
 23 O       -4.7130    -2.9140     0.6220 O.co2 1 <1>  -0.9000 
 24 O       -2.8400    -1.9110     0.9840 O.co2 1 <1>  -0.9000 
 25 C       -4.4940     6.1910     0.7360 C.ar  1 <1>  -0.1440 
 26 C       -3.1440     6.2200    -1.2420 C.ar  1 <1>  -0.1500 
 27 C       -4.1320     6.8000    -0.4610 C.ar  1 <1>  -0.1440 
 28 C       -5.5820     6.7610     1.6330 C.3   1 <1>  -0.0970 
 29 C       -4.8000     8.0810    -0.9350 C.3   1 <1>  -0.0970 
 30 H       -4.5020     2.6610    -0.0100 H     1 <1>   0.0800 
 31 H       -5.5470     1.9790    -1.2030 H     1 <1>   0.0800 
 32 H       -4.1620    -0.6110    -2.2060 H     1 <1>   0.0800 
 33 H       -2.7150    -0.7170    -1.2250 H     1 <1>   0.0800 
 34 H       -2.9410     2.7570     1.4970 H     1 <1>   0.4000 
 35 H       -2.3690     0.7660     1.4200 H     1 <1>   0.0800 
 36 H       -1.2130     0.1190     0.3330 H     1 <1>   0.0800 
 37 H       -0.1080     3.2290    -1.2490 H     1 <1>   0.0800 
 38 H        0.0370     3.6030     0.4290 H     1 <1>   0.0800 
 39 H       -0.5190     1.9950     2.5760 H     1 <1>   0.0800 
 40 H       -0.3470     0.2660     2.6390 H     1 <1>   0.0800 
 41 H        0.8110     0.9760    -0.8110 H     1 <1>   0.0800 
 42 H        1.9230     2.2410    -0.3820 H     1 <1>   0.0800 
 43 H       -6.5560    -0.3250    -1.0350 H     1 <1>   0.1000 
 44 H       -6.6280    -0.9880     0.6240 H     1 <1>   0.1000 
 45 H       -4.1270     4.5330     2.0460 H     1 <1>   0.1500 
 46 H       -1.7710     4.6220    -1.4730 H     1 <1>   0.1500 
 47 H        1.5180     0.2600     1.2830 H     1 <1>   0.0800 
 48 H        1.6770     1.8710     1.9170 H     1 <1>   0.0800 
 49 H       -2.8560     6.6700    -2.1740 H     1 <1>   0.1500 
 50 H       -5.7610     6.1120     2.4730 H     1 <1>   0.0800 
 51 H       -6.5010     6.8560     1.0840 H     1 <1>   0.0800 
 52 H       -5.2860     7.7240     2.0040 H     1 <1>   0.0800 
 53 H       -4.3580     8.4300    -1.8500 H     1 <1>   0.0800 
 54 H       -4.6900     8.8490    -0.1920 H     1 <1>   0.0800 
 55 H       -5.8460     7.9050    -1.1080 H     1 <1>   0.0800 
@<TRIPOS>BOND
  1   1   2  2   
  2   2   3  am  
  3   2   4  1   
  4   3   5  1   
  5   3   6  1   
  6   4   7  1   
  7   4   8  1   
  8   4   9  1   
  9   5  10  1   
 10   5  30  1   
 11   5  31  1   
 12   6  11  1   
 13   6  32  1   
 14   6  33  1   
 15   7  12  1   
 16   7  34  1   
 17   8  13  1   
 18   8  35  1   
 19   8  36  1   
 20   9  14  1   
 21   9  37  1   
 22   9  38  1   
 23  10  11  1   
 24  10  15  1   
 25  10  16  1   
 26  11  16  1   
 27  11  17  1   
 28  12  18  ar  
 29  12  19  ar  
 30  13  20  1   
 31  13  39  1   
 32  13  40  1   
 33  14  20  1   
 34  14  41  1   
 35  14  42  1   
 36  15  21  ar  
 37  15  22  ar  
 38  16  43  1   
 39  16  44  1   
 40  17  23  ar  
 41  17  24  ar  
 42  18  25  ar  
 43  18  45  1   
 44  19  26  ar  
 45  19  46  1   
 46  20  47  1   
 47  20  48  1   
 48  25  27  ar  
 49  25  28  1   
 50  26  27  ar  
 51  26  49  1   
 52  27  29  1   
 53  28  50  1   
 54  28  51  1   
 55  28  52  1   
 56  29  53  1   
 57  29  54  1   
 58  29  55  1   
@<TRIPOS>SUBSTRUCTURE
  1 ****   7 GROUP 4 **** **** 0

# MOE 2024.06 (io_trps.svl 2023.06)
