@<TRIPOS>MOLECULE
NONAME
61 64 1 0 0 
SMALL
USER_CHARGES


@<TRIPOS>ATOM
  1 O        0.1040    -0.9370    -1.5890 O.2   1 <1>  -0.5700 
  2 C        0.2040    -1.5170    -0.5340 C.2   1 <1>   0.5690 
  3 N        1.2170    -1.2500     0.3370 N.am  1 <1>  -0.7300 
  4 C       -0.8690    -2.5690    -0.1920 C.3   1 <1>   0.4040 
  5 C        2.2680    -0.2220     0.1050 C.3   1 <1>   0.1400 
  6 N       -2.1180    -2.4830    -1.0470 N.4   1 <1>  -0.9590 
  7 C        3.5670    -0.8830    -0.3550 C.3   1 <1>  -0.0170 
  8 C       -2.8540    -1.1740    -0.8920 C.3   1 <1>   0.3430 
  9 C       -3.0190    -3.6690    -0.8760 C.3   1 <1>   0.3430 
 10 C        4.6470     0.1710    -0.5260 C.ar  1 <1>  -0.1440 
 11 C       -3.5130    -0.9800     0.4920 C.3   1 <1>   0.1430 
 12 C       -4.1500    -3.4300     0.1390 C.3   1 <1>  -0.1600 
 13 C        4.7570     0.8690    -1.7190 C.ar  1 <1>  -0.1500 
 14 C        5.5270     0.4500     0.5090 C.ar  1 <1>  -0.1500 
 15 C       -4.7520    -0.1530     0.2270 C.ar  1 <1>   0.1670 
 16 C       -3.8510    -2.3310     1.1740 C.3   1 <1>  -0.1600 
 17 C       -2.6880    -0.0580     1.4330 C.3   1 <1>  -0.1600 
 18 C        5.7350     1.8370    -1.8740 C.ar  1 <1>  -0.1500 
 19 C        6.5040     1.4170     0.3540 C.ar  1 <1>  -0.1500 
 20 N       -5.8080    -0.5860    -0.4110 N.ar  1 <1>  -0.6200 
 21 C       -4.6290     1.1200     0.6920 C.ar  1 <1>  -0.1440 
 22 C       -3.2950     1.3560     1.3480 C.3   1 <1>  -0.0170 
 23 C        6.6090     2.1110    -0.8380 C.ar  1 <1>  -0.1500 
 24 C       -6.7880     0.3100    -0.5600 C.ar  1 <1>   0.7200 
 25 C       -5.6850     1.9730     0.4910 C.ar  1 <1>   0.1600 
 26 N       -6.7670     1.5760    -0.1350 N.ar  1 <1>  -0.6200 
 27 N       -7.9190    -0.1130    -1.2250 N.pl3 1 <1>  -0.8380 
 28 C       -8.3420    -1.5400    -1.2510 C.3   1 <1>   0.1290 
 29 C       -8.9150     0.8560    -1.7610 C.3   1 <1>   0.1290 
 30 H        1.3480    -1.7840     1.2020 H     1 <1>   0.3700 
 31 H       -1.1310    -2.4620     0.8440 H     1 <1>   0.0800 
 32 H       -0.4200    -3.5390    -0.3220 H     1 <1>   0.0800 
 33 H        2.4420     0.3250     1.0160 H     1 <1>   0.0800 
 34 H        1.9420     0.4800    -0.6450 H     1 <1>   0.0800 
 35 H       -1.7660    -2.4740    -2.0190 H     1 <1>   0.4500 
 36 H        3.4050    -1.3830    -1.2940 H     1 <1>   0.0800 
 37 H        3.8880    -1.6110     0.3680 H     1 <1>   0.0800 
 38 H       -3.6390    -1.1440    -1.6320 H     1 <1>   0.0800 
 39 H       -2.1970    -0.3450    -1.0980 H     1 <1>   0.0800 
 40 H       -2.4350    -4.5200    -0.5640 H     1 <1>   0.0800 
 41 H       -3.4690    -3.9180    -1.8250 H     1 <1>   0.0800 
 42 H       -4.3670    -4.3560     0.6440 H     1 <1>   0.0800 
 43 H       -5.0400    -3.1660    -0.4050 H     1 <1>   0.0800 
 44 H        4.0840     0.6650    -2.5330 H     1 <1>   0.1500 
 45 H        5.4580    -0.0830     1.4420 H     1 <1>   0.1500 
 46 H       -4.7020    -2.2030     1.8220 H     1 <1>   0.0800 
 47 H       -3.0300    -2.6540     1.7890 H     1 <1>   0.0800 
 48 H       -1.6410    -0.0390     1.1870 H     1 <1>   0.0800 
 49 H       -2.7910    -0.3930     2.4510 H     1 <1>   0.0800 
 50 H        5.8160     2.3750    -2.8020 H     1 <1>   0.1500 
 51 H        7.1840     1.6290     1.1610 H     1 <1>   0.1500 
 52 H       -2.6940     1.9990     0.7270 H     1 <1>   0.0800 
 53 H       -3.4100     1.7980     2.3230 H     1 <1>   0.0800 
 54 H        7.3690     2.8630    -0.9590 H     1 <1>   0.1500 
 55 H       -5.6430     2.9900     0.8420 H     1 <1>   0.1500 
 56 H       -7.8050    -2.1130    -0.5150 H     1 <1>   0.0800 
 57 H       -8.1520    -1.9530    -2.2260 H     1 <1>   0.0800 
 58 H       -9.3930    -1.6140    -1.0340 H     1 <1>   0.0800 
 59 H       -8.4270     1.7650    -2.0660 H     1 <1>   0.0800 
 60 H       -9.6390     1.0870    -0.9990 H     1 <1>   0.0800 
 61 H       -9.4160     0.4370    -2.6150 H     1 <1>   0.0800 
@<TRIPOS>BOND
  1   1   2  2   
  2   2   3  am  
  3   2   4  1   
  4   3   5  1   
  5   3  30  1   
  6   4   6  1   
  7   4  31  1   
  8   4  32  1   
  9   5   7  1   
 10   5  33  1   
 11   5  34  1   
 12   6   8  1   
 13   6   9  1   
 14   6  35  1   
 15   7  10  1   
 16   7  36  1   
 17   7  37  1   
 18   8  11  1   
 19   8  38  1   
 20   8  39  1   
 21   9  12  1   
 22   9  40  1   
 23   9  41  1   
 24  10  13  ar  
 25  10  14  ar  
 26  11  15  1   
 27  11  16  1   
 28  11  17  1   
 29  12  16  1   
 30  12  42  1   
 31  12  43  1   
 32  13  18  ar  
 33  13  44  1   
 34  14  19  ar  
 35  14  45  1   
 36  15  20  ar  
 37  15  21  ar  
 38  16  46  1   
 39  16  47  1   
 40  17  22  1   
 41  17  48  1   
 42  17  49  1   
 43  18  23  ar  
 44  18  50  1   
 45  19  23  ar  
 46  19  51  1   
 47  20  24  ar  
 48  21  22  1   
 49  21  25  ar  
 50  22  52  1   
 51  22  53  1   
 52  23  54  1   
 53  24  26  ar  
 54  24  27  1   
 55  25  26  ar  
 56  25  55  1   
 57  27  28  1   
 58  27  29  1   
 59  28  56  1   
 60  28  57  1   
 61  28  58  1   
 62  29  59  1   
 63  29  60  1   
 64  29  61  1   
@<TRIPOS>SUBSTRUCTURE
  1 ****   8 GROUP 4 **** **** 0

# MOE 2024.06 (io_trps.svl 2023.06)
