@<TRIPOS>MOLECULE
NONAME
40 41 1 0 0 
SMALL
USER_CHARGES


@<TRIPOS>ATOM
  1 S       -0.7470     0.3640    -1.6640 S.o2  1 <1>   1.4470 
  2 O       -0.5350    -0.8460    -2.4310 O.2   1 <1>  -0.6500 
  3 O       -1.5850     1.4080    -2.2150 O.2   1 <1>  -0.6500 
  4 N       -1.3860    -0.0660    -0.1520 N.am  1 <1>  -0.8490 
  5 C        0.8600     1.0900    -1.2310 C.ar  1 <1>  -0.0090 
  6 C       -0.7260    -1.2130     0.5090 C.3   1 <1>   0.1960 
  7 C       -2.8480    -0.1280    -0.0890 C.3   1 <1>   0.1960 
  8 C        1.0040     1.9110    -0.1180 C.ar  1 <1>  -0.1500 
  9 C        1.9880     0.8560    -2.0110 C.ar  1 <1>  -0.1500 
 10 C       -1.5900    -2.4830     0.6160 C.3   1 <1>  -0.1860 
 11 C       -3.3860    -1.3570    -0.8290 C.3   1 <1>  -0.1600 
 12 C        2.2240     2.4730     0.2160 C.ar  1 <1>  -0.1500 
 13 C        3.2120     1.4130    -1.6880 C.ar  1 <1>  -0.1500 
 14 C       -2.2810    -2.5230     1.9680 C.2   1 <1>   0.9060 
 15 C       -2.5280    -2.6090    -0.5940 C.3   1 <1>   0.2000 
 16 C        3.3420     2.2240    -0.5740 C.ar  1 <1>   0.0820 
 17 O       -1.5810    -2.4160     2.9790 O.co2 1 <1>  -0.9000 
 18 O       -3.5080    -2.6790     2.0370 O.co2 1 <1>  -0.9000 
 19 O       -3.3720    -3.6770    -0.3890 O.3   1 <1>  -0.6800 
 20 O        4.5740     2.7280    -0.3230 O.3   1 <1>  -0.3630 
 21 C        4.8180     3.5570     0.7890 C.3   1 <1>   0.1200 
 22 C        6.2940     3.9420     0.7780 C.3   1 <1>  -0.2400 
 23 H        0.1750    -1.4650    -0.0250 H     1 <1>   0.0800 
 24 H       -0.4160    -0.9050     1.4940 H     1 <1>   0.0800 
 25 H       -3.1460    -0.1830     0.9460 H     1 <1>   0.0800 
 26 H       -3.2820     0.7690    -0.4960 H     1 <1>   0.0800 
 27 H        0.1420     2.1090     0.4990 H     1 <1>   0.1500 
 28 H        1.9040     0.2270    -2.8820 H     1 <1>   0.1500 
 29 H       -0.9270    -3.3250     0.6130 H     1 <1>   0.0800 
 30 H       -3.4190    -1.1500    -1.8830 H     1 <1>   0.0800 
 31 H       -4.3940    -1.5240    -0.4940 H     1 <1>   0.0800 
 32 H        2.2830     3.0970     1.0880 H     1 <1>   0.1500 
 33 H        4.0770     1.2240    -2.2990 H     1 <1>   0.1500 
 34 H       -1.9490    -2.8180    -1.4780 H     1 <1>   0.0800 
 35 H       -3.7250    -3.5480     0.5390 H     1 <1>   0.4000 
 36 H        4.1960     4.4320     0.7040 H     1 <1>   0.0800 
 37 H        4.5740     3.0090     1.6830 H     1 <1>   0.0800 
 38 H        6.5310     4.4750    -0.1260 H     1 <1>   0.0800 
 39 H        6.9070     3.0610     0.8460 H     1 <1>   0.0800 
 40 H        6.5120     4.5770     1.6170 H     1 <1>   0.0800 
@<TRIPOS>BOND
  1   1   2  2   
  2   1   3  2   
  3   1   4  am  
  4   1   5  1   
  5   4   6  1   
  6   4   7  1   
  7   5   8  ar  
  8   5   9  ar  
  9   6  10  1   
 10   6  23  1   
 11   6  24  1   
 12   7  11  1   
 13   7  25  1   
 14   7  26  1   
 15   8  12  ar  
 16   8  27  1   
 17   9  13  ar  
 18   9  28  1   
 19  10  14  1   
 20  10  15  1   
 21  10  29  1   
 22  11  15  1   
 23  11  30  1   
 24  11  31  1   
 25  12  16  ar  
 26  12  32  1   
 27  13  16  ar  
 28  13  33  1   
 29  14  17  ar  
 30  14  18  ar  
 31  15  19  1   
 32  15  34  1   
 33  16  20  1   
 34  19  35  1   
 35  20  21  1   
 36  21  22  1   
 37  21  36  1   
 38  21  37  1   
 39  22  38  1   
 40  22  39  1   
 41  22  40  1   
@<TRIPOS>SUBSTRUCTURE
  1 ****   4 GROUP 4 **** **** 0

# MOE 2024.06 (io_trps.svl 2023.06)
