@<TRIPOS>MOLECULE
NONAME
42 44 1 0 0 
SMALL
USER_CHARGES


@<TRIPOS>ATOM
  1 O       -1.1620    -0.4180     1.0540 O.3   1 <1>  -0.5600 
  2 C       -1.5690     0.9090     1.1250 C.3   1 <1>   0.1200 
  3 C       -0.9960    -0.9600    -0.2150 C.3   1 <1>   0.1200 
  4 C       -3.0350     1.0980     0.6790 C.3   1 <1>   0.4230 
  5 C       -2.3570    -1.3230    -0.8280 C.3   1 <1>  -0.0800 
  6 N       -3.1460     1.1360    -0.8370 N.4   1 <1>  -0.9590 
  7 C       -3.9900     0.1060     1.4250 C.3   1 <1>   0.2090 
  8 C       -3.3060    -2.0120     0.1710 C.3   1 <1>   0.2090 
  9 C       -3.0340    -0.1700    -1.5790 C.3   1 <1>   0.3430 
 10 C       -4.3900     1.8330    -1.2840 C.3   1 <1>   0.2630 
 11 N       -4.4170    -1.1200     0.6540 N.pl3 1 <1>  -0.8380 
 12 C       -5.6950    -1.3930     0.3050 C.ar  1 <1>   0.7710 
 13 N       -5.9450    -1.6520    -0.9680 N.ar  1 <1>  -0.6200 
 14 N       -6.6520    -1.3890     1.2500 N.ar  1 <1>  -0.1790 
 15 C       -7.1910    -1.9050    -1.2960 C.ar  1 <1>   0.4100 
 16 C       -7.9460    -1.6500     0.9380 C.ar  1 <1>   0.2110 
 17 N       -7.3970    -2.1580    -2.5910 N.pl3 1 <1>  -0.9000 
 18 C       -8.2490    -1.9120    -0.3590 C.ar  1 <1>  -0.1440 
 19 C       -9.6810    -2.2140    -0.7970 C.3   1 <1>  -0.0970 
 20 H       -1.4760     1.1980     2.1580 H     1 <1>   0.0800 
 21 H       -0.8930     1.5200     0.5520 H     1 <1>   0.0800 
 22 H       -0.4310    -0.2800    -0.8310 H     1 <1>   0.0800 
 23 H       -0.4110    -1.8560    -0.0880 H     1 <1>   0.0800 
 24 H       -3.2950     2.0810     1.0330 H     1 <1>   0.0800 
 25 H       -2.1380    -2.0620    -1.5780 H     1 <1>   0.0800 
 26 H       -2.3510     1.7060    -1.1590 H     1 <1>   0.4500 
 27 H       -4.8650     0.6660     1.7060 H     1 <1>   0.0800 
 28 H       -3.5180    -0.2060     2.3420 H     1 <1>   0.0800 
 29 H       -2.7490    -2.3830     1.0160 H     1 <1>   0.0800 
 30 H       -3.7340    -2.8760    -0.3120 H     1 <1>   0.0800 
 31 H       -4.0190    -0.5030    -1.8610 H     1 <1>   0.0800 
 32 H       -2.4930     0.0020    -2.4950 H     1 <1>   0.0800 
 33 H       -5.2590     1.2550    -1.0150 H     1 <1>   0.0800 
 34 H       -4.3850     1.9580    -2.3560 H     1 <1>   0.0800 
 35 H       -4.4630     2.8080    -0.8290 H     1 <1>   0.0800 
 36 H       -6.3390    -1.2660     2.2090 H     1 <1>   0.4570 
 37 H       -8.6860    -1.6480     1.7240 H     1 <1>   0.1500 
 38 H       -6.6190    -2.2250    -3.2520 H     1 <1>   0.4000 
 39 H       -8.3060    -2.4000    -2.9930 H     1 <1>   0.4000 
 40 H      -10.3630    -2.1760     0.0340 H     1 <1>   0.0800 
 41 H       -9.7370    -3.1970    -1.2310 H     1 <1>   0.0800 
 42 H      -10.0060    -1.4950    -1.5300 H     1 <1>   0.0800 
@<TRIPOS>BOND
  1   1   2  1   
  2   1   3  1   
  3   2   4  1   
  4   2  20  1   
  5   2  21  1   
  6   3   5  1   
  7   3  22  1   
  8   3  23  1   
  9   4   6  1   
 10   4   7  1   
 11   4  24  1   
 12   5   8  1   
 13   5   9  1   
 14   5  25  1   
 15   6   9  1   
 16   6  10  1   
 17   6  26  1   
 18   7  11  1   
 19   7  27  1   
 20   7  28  1   
 21   8  11  1   
 22   8  29  1   
 23   8  30  1   
 24   9  31  1   
 25   9  32  1   
 26  10  33  1   
 27  10  34  1   
 28  10  35  1   
 29  11  12  1   
 30  12  13  ar  
 31  12  14  ar  
 32  13  15  ar  
 33  14  16  ar  
 34  14  36  1   
 35  15  17  1   
 36  15  18  ar  
 37  16  18  ar  
 38  16  37  1   
 39  17  38  1   
 40  17  39  1   
 41  18  19  1   
 42  19  40  1   
 43  19  41  1   
 44  19  42  1   
@<TRIPOS>SUBSTRUCTURE
  1 ****  11 GROUP 4 **** **** 0

# MOE 2024.06 (io_trps.svl 2023.06)
