@<TRIPOS>MOLECULE
NONAME
53 57 1 0 0 
SMALL
USER_CHARGES


@<TRIPOS>ATOM
  1 O       -0.8440     0.5040     1.8040 O.2   1 <1>  -0.5700 
  2 C       -1.7940     1.1450     1.3980 C.2   1 <1>   0.5440 
  3 N       -3.0630     0.6230     1.5440 N.am  1 <1>  -0.6600 
  4 C       -1.5630     2.4220     0.7580 C.ar  1 <1>   0.0860 
  5 C       -3.3370    -0.5180     2.4620 C.3   1 <1>   0.1400 
  6 C       -4.2010     0.9460     0.6390 C.3   1 <1>   0.1400 
  7 C       -2.3130     3.5410     1.1020 C.ar  1 <1>   0.1600 
  8 C       -0.5910     2.5930    -0.2150 C.ar  1 <1>  -0.1500 
  9 C       -3.6480    -1.7640     1.6340 C.3   1 <1>  -0.1600 
 10 C       -4.5170    -0.2840    -0.2130 C.3   1 <1>  -0.1600 
 11 N       -2.2030     4.7420     0.5600 N.ar  1 <1>  -0.6200 
 12 C       -0.4420     3.8380    -0.7930 C.ar  1 <1>  -0.1440 
 13 C       -4.8000    -1.5180     0.6550 C.3   1 <1>   0.4600 
 14 C       -1.2770     4.8730    -0.3760 C.ar  1 <1>   0.1670 
 15 C        0.6320     4.0310    -1.8560 C.3   1 <1>  -0.0970 
 16 O       -5.9460    -1.2740     1.4430 O.3   1 <1>  -0.5600 
 17 C       -5.0330    -2.7530    -0.2060 C.2   1 <1>  -0.3320 
 18 C       -1.1720     6.2640    -0.9760 C.3   1 <1>  -0.0970 
 19 C       -7.2110    -1.4580     0.8510 C.3   1 <1>   0.1200 
 20 N       -4.1060    -3.3830    -0.9890 N.pl3 1 <1>   0.0330 
 21 C       -6.2120    -3.3980    -0.3060 C.2   1 <1>  -0.1810 
 22 C       -7.4300    -2.9260     0.4480 C.3   1 <1>   0.0210 
 23 C       -4.7190    -4.4550    -1.5930 C.ar  1 <1>  -0.1520 
 24 C       -6.0480    -4.4930    -1.1800 C.ar  1 <1>   0.0000 
 25 C       -4.2160    -5.4110    -2.4780 C.ar  1 <1>  -0.1500 
 26 C       -6.8920    -5.5010    -1.6550 C.ar  1 <1>  -0.1500 
 27 C       -5.0580    -6.3980    -2.9390 C.ar  1 <1>  -0.1500 
 28 C       -6.3960    -6.4430    -2.5270 C.ar  1 <1>  -0.1500 
 29 H       -4.1790    -0.2740     3.0880 H     1 <1>   0.0800 
 30 H       -2.4910    -0.7040     3.1020 H     1 <1>   0.0800 
 31 H       -3.9630     1.7720    -0.0070 H     1 <1>   0.0800 
 32 H       -5.0600     1.2140     1.2320 H     1 <1>   0.0800 
 33 H       -3.0520     3.4280     1.8760 H     1 <1>   0.1500 
 34 H        0.0280     1.7580    -0.4950 H     1 <1>   0.1500 
 35 H       -3.9050    -2.5820     2.2820 H     1 <1>   0.0800 
 36 H       -2.7610    -2.0400     1.0950 H     1 <1>   0.0800 
 37 H       -3.6720    -0.4840    -0.8450 H     1 <1>   0.0800 
 38 H       -5.3520    -0.0850    -0.8570 H     1 <1>   0.0800 
 39 H        1.2670     3.1650    -1.9230 H     1 <1>   0.0800 
 40 H        1.2480     4.8780    -1.6130 H     1 <1>   0.0800 
 41 H        0.1750     4.1920    -2.8170 H     1 <1>   0.0800 
 42 H       -2.0840     6.8080    -0.8100 H     1 <1>   0.0800 
 43 H       -1.0010     6.2150    -2.0350 H     1 <1>   0.0800 
 44 H       -0.3650     6.7960    -0.5070 H     1 <1>   0.0800 
 45 H       -7.2820    -0.8210    -0.0120 H     1 <1>   0.0800 
 46 H       -7.9550    -1.1560     1.5660 H     1 <1>   0.0800 
 47 H       -3.1210    -3.1270    -1.1000 H     1 <1>   0.2700 
 48 H       -8.3040    -3.0060    -0.1720 H     1 <1>   0.0800 
 49 H       -7.5710    -3.5320     1.3240 H     1 <1>   0.0800 
 50 H       -3.1880    -5.3700    -2.7890 H     1 <1>   0.1500 
 51 H       -7.9150    -5.5240    -1.3300 H     1 <1>   0.1500 
 52 H       -4.6950    -7.1460    -3.6220 H     1 <1>   0.1500 
 53 H       -7.0320    -7.2250    -2.9020 H     1 <1>   0.1500 
@<TRIPOS>BOND
  1   1   2  2   
  2   2   3  am  
  3   2   4  1   
  4   3   5  1   
  5   3   6  1   
  6   4   7  ar  
  7   4   8  ar  
  8   5   9  1   
  9   5  29  1   
 10   5  30  1   
 11   6  10  1   
 12   6  31  1   
 13   6  32  1   
 14   7  11  ar  
 15   7  33  1   
 16   8  12  ar  
 17   8  34  1   
 18   9  13  1   
 19   9  35  1   
 20   9  36  1   
 21  10  13  1   
 22  10  37  1   
 23  10  38  1   
 24  11  14  ar  
 25  12  14  ar  
 26  12  15  1   
 27  13  16  1   
 28  13  17  1   
 29  14  18  1   
 30  15  39  1   
 31  15  40  1   
 32  15  41  1   
 33  16  19  1   
 34  17  20  1   
 35  17  21  2   
 36  18  42  1   
 37  18  43  1   
 38  18  44  1   
 39  19  22  1   
 40  19  45  1   
 41  19  46  1   
 42  20  23  1   
 43  20  47  1   
 44  21  22  1   
 45  21  24  1   
 46  22  48  1   
 47  22  49  1   
 48  23  24  ar  
 49  23  25  ar  
 50  24  26  ar  
 51  25  27  ar  
 52  25  50  1   
 53  26  28  ar  
 54  26  51  1   
 55  27  28  ar  
 56  27  52  1   
 57  28  53  1   
@<TRIPOS>SUBSTRUCTURE
  1 ****  10 GROUP 4 **** **** 0

# MOE 2024.06 (io_trps.svl 2023.06)
