@<TRIPOS>MOLECULE
NONAME
42 43 1 0 0 
SMALL
USER_CHARGES


@<TRIPOS>ATOM
  1 F        1.3520    -1.7380     1.5800 F     1 <1>  -0.1900 
  2 C        0.7450    -2.5200     0.7290 C.ar  1 <1>   0.1900 
  3 C        0.9070    -3.8850     0.8510 C.ar  1 <1>  -0.1500 
  4 C       -0.0360    -1.9480    -0.2560 C.ar  1 <1>  -0.1500 
  5 C        0.2540    -4.7130    -0.0570 C.ar  1 <1>   0.0830 
  6 C       -0.6810    -2.7770    -1.1580 C.ar  1 <1>  -0.1500 
  7 O        0.3400    -6.0670    -0.0180 O.3   1 <1>  -0.3630 
  8 C       -0.5390    -4.1560    -1.0600 C.ar  1 <1>  -0.1440 
  9 C        1.0660    -6.7380     0.9910 C.3   1 <1>   0.0400 
 10 C       -1.2460    -5.0720    -2.0420 C.3   1 <1>   0.4870 
 11 N       -2.2220    -5.9070    -1.3050 N.4   1 <1>  -0.9590 
 12 C       -2.6790    -7.0820    -2.0930 C.3   1 <1>   0.5240 
 13 C       -3.3140    -5.1070    -0.6620 C.3   1 <1>   0.3430 
 14 C       -2.8580    -8.2560    -1.1390 C.2   1 <1>   0.0460 
 15 C       -3.9680    -5.8130     0.5330 C.3   1 <1>   0.1200 
 16 N       -2.0340    -8.4040    -0.0790 N.2   1 <1>  -0.5650 
 17 C       -3.7810    -9.2430    -1.1690 C.2   1 <1>  -0.3020 
 18 O       -4.9000    -4.9460     1.0780 O.3   1 <1>  -0.6800 
 19 C       -2.4620    -9.4750     0.5040 C.2   1 <1>   0.0060 
 20 N       -3.5260   -10.0360    -0.1120 N.pl3 1 <1>   0.0330 
 21 C       -1.8420   -10.0630     1.7540 C.3   1 <1>  -0.0600 
 22 H        1.5300    -4.2630     1.6390 H     1 <1>   0.1500 
 23 H       -0.1300    -0.8770    -0.3110 H     1 <1>   0.1500 
 24 H       -1.2870    -2.3340    -1.9310 H     1 <1>   0.1500 
 25 H        0.9600    -7.7970     0.8310 H     1 <1>   0.0800 
 26 H        0.6610    -6.4750     1.9520 H     1 <1>   0.0800 
 27 H        2.1030    -6.4610     0.9220 H     1 <1>   0.0800 
 28 H       -0.5080    -5.7020    -2.5130 H     1 <1>   0.0800 
 29 H       -1.7440    -4.4930    -2.8020 H     1 <1>   0.0800 
 30 H       -1.6650    -6.3490    -0.5420 H     1 <1>   0.4500 
 31 H       -1.9240    -7.3540    -2.8110 H     1 <1>   0.0800 
 32 H       -3.5980    -6.8690    -2.6120 H     1 <1>   0.0800 
 33 H       -4.0720    -4.8710    -1.3900 H     1 <1>   0.0800 
 34 H       -2.9030    -4.1810    -0.2950 H     1 <1>   0.0800 
 35 H       -3.2360    -6.0420     1.2890 H     1 <1>   0.0800 
 36 H       -4.4870    -6.7060     0.2330 H     1 <1>   0.0800 
 37 H       -4.5840    -9.4330    -1.8600 H     1 <1>   0.1500 
 38 H       -5.3150    -5.3280     1.8810 H     1 <1>   0.4000 
 39 H       -4.0210   -10.8890     0.1690 H     1 <1>   0.2700 
 40 H       -1.0190    -9.4520     2.0780 H     1 <1>   0.0800 
 41 H       -1.4750   -11.0530     1.5530 H     1 <1>   0.0800 
 42 H       -2.5690   -10.1090     2.5440 H     1 <1>   0.0800 
@<TRIPOS>BOND
  1   1   2  1   
  2   2   3  ar  
  3   2   4  ar  
  4   3   5  ar  
  5   3  22  1   
  6   4   6  ar  
  7   4  23  1   
  8   5   7  1   
  9   5   8  ar  
 10   6   8  ar  
 11   6  24  1   
 12   7   9  1   
 13   8  10  1   
 14   9  25  1   
 15   9  26  1   
 16   9  27  1   
 17  10  11  1   
 18  10  28  1   
 19  10  29  1   
 20  11  12  1   
 21  11  13  1   
 22  11  30  1   
 23  12  14  1   
 24  12  31  1   
 25  12  32  1   
 26  13  15  1   
 27  13  33  1   
 28  13  34  1   
 29  14  16  1   
 30  14  17  2   
 31  15  18  1   
 32  15  35  1   
 33  15  36  1   
 34  16  19  2   
 35  17  20  1   
 36  17  37  1   
 37  18  38  1   
 38  19  20  1   
 39  19  21  1   
 40  20  39  1   
 41  21  40  1   
 42  21  41  1   
 43  21  42  1   
@<TRIPOS>SUBSTRUCTURE
  1 ****  11 GROUP 4 **** **** 0

# MOE 2024.06 (io_trps.svl 2023.06)
