@<TRIPOS>MOLECULE
NONAME
63 65 1 0 0 
SMALL
USER_CHARGES


@<TRIPOS>ATOM
  1 O        0.3840    -1.3890    -1.8590 O.2   1 <1>  -0.5700 
  2 C        0.5860    -1.6620    -0.7010 C.2   1 <1>   0.5690 
  3 N        1.7340    -1.4470    -0.0220 N.am  1 <1>  -0.6600 
  4 C       -0.4450    -2.3040     0.1840 C.3   1 <1>  -0.0990 
  5 C        1.6670    -1.9030     1.3770 C.3   1 <1>   0.1400 
  6 C        2.9510    -0.8220    -0.5840 C.3   1 <1>   0.1400 
  7 C        0.3450    -2.6790     1.4510 C.3   1 <1>  -0.1600 
  8 C        3.2390     0.5060     0.1200 C.3   1 <1>  -0.1600 
  9 C        4.3800     1.2760    -0.5720 C.3   1 <1>  -0.0990 
 10 C        4.7540     2.5930     0.1020 C.2   1 <1>   0.5690 
 11 O        4.2330     2.8710     1.1570 O.2   1 <1>  -0.5700 
 12 N        5.6790     3.4250    -0.4750 N.am  1 <1>  -0.6600 
 13 C        6.4610     3.1400    -1.7220 C.3   1 <1>   0.1400 
 14 C        5.9970     4.7430     0.1410 C.3   1 <1>   0.1400 
 15 C        7.9130     2.7370    -1.4180 C.3   1 <1>   0.1400 
 16 C        7.0790     4.6120     1.2210 C.3   1 <1>  -0.1600 
 17 N        8.6130     3.7420    -0.5570 N.am  1 <1>  -0.6600 
 18 C        8.2410     3.6670     0.8840 C.3   1 <1>   0.1400 
 19 C        9.4430     4.6880    -1.1120 C.2   1 <1>   0.5690 
 20 O        9.5940     4.7510    -2.3150 O.2   1 <1>  -0.5700 
 21 C       10.2070     5.7060    -0.2350 C.3   1 <1>   0.2610 
 22 O       10.3930     6.9040    -0.9290 O.3   1 <1>  -0.6800 
 23 C       11.5740     5.1650     0.2500 C.3   1 <1>  -0.0800 
 24 C       12.2200     6.1120     1.2820 C.3   1 <1>  -0.1600 
 25 C       12.5630     4.8710    -0.8990 C.3   1 <1>  -0.1600 
 26 C       13.5480     5.5510     1.8100 C.3   1 <1>  -0.1600 
 27 C       13.8910     4.3120    -0.3690 C.3   1 <1>  -0.1600 
 28 C       14.5200     5.2570     0.6610 C.3   1 <1>  -0.1600 
 29 H       -1.2110    -1.5840     0.4020 H     1 <1>   0.0800 
 30 H       -0.8720    -3.1660    -0.2950 H     1 <1>   0.0800 
 31 H        2.5080    -2.5320     1.6150 H     1 <1>   0.0800 
 32 H        1.6470    -1.0480     2.0320 H     1 <1>   0.0800 
 33 H        3.7830    -1.4950    -0.4710 H     1 <1>   0.0800 
 34 H        2.7990    -0.6470    -1.6370 H     1 <1>   0.0800 
 35 H        0.5600    -3.7330     1.4440 H     1 <1>   0.0800 
 36 H       -0.1980    -2.4440     2.3490 H     1 <1>   0.0800 
 37 H        2.3510     1.1150     0.1060 H     1 <1>   0.0800 
 38 H        3.5090     0.3190     1.1450 H     1 <1>   0.0800 
 39 H        4.0760     1.4890    -1.5800 H     1 <1>   0.0800 
 40 H        5.2570     0.6560    -0.6020 H     1 <1>   0.0800 
 41 H        5.9980     2.3570    -2.2930 H     1 <1>   0.0800 
 42 H        6.4700     4.0170    -2.3450 H     1 <1>   0.0800 
 43 H        6.3350     5.4220    -0.6230 H     1 <1>   0.0800 
 44 H        5.1050     5.1640     0.5750 H     1 <1>   0.0800 
 45 H        8.4420     2.6220    -2.3490 H     1 <1>   0.0800 
 46 H        7.9230     1.7780    -0.9310 H     1 <1>   0.0800 
 47 H        6.6130     4.2630     2.1260 H     1 <1>   0.0800 
 48 H        7.4630     5.5920     1.4340 H     1 <1>   0.0800 
 49 H        7.9410     2.6590     1.1150 H     1 <1>   0.0800 
 50 H        9.0910     3.8920     1.5050 H     1 <1>   0.0800 
 51 H        9.6080     5.9510     0.6210 H     1 <1>   0.0800 
 52 H       10.5020     6.6740    -1.8770 H     1 <1>   0.4000 
 53 H       11.3810     4.2320     0.7510 H     1 <1>   0.0800 
 54 H       12.4030     7.0700     0.8240 H     1 <1>   0.0800 
 55 H       11.5480     6.2680     2.1070 H     1 <1>   0.0800 
 56 H       12.1360     4.1590    -1.5850 H     1 <1>   0.0800 
 57 H       12.7610     5.7760    -1.4470 H     1 <1>   0.0800 
 58 H       13.9940     6.2610     2.4850 H     1 <1>   0.0800 
 59 H       13.3610     4.6450     2.3600 H     1 <1>   0.0800 
 60 H       13.7180     3.3510     0.0860 H     1 <1>   0.0800 
 61 H       14.5730     4.1690    -1.1900 H     1 <1>   0.0800 
 62 H       15.4200     4.8170     1.0530 H     1 <1>   0.0800 
 63 H       14.7880     6.1810     0.1780 H     1 <1>   0.0800 
@<TRIPOS>BOND
  1   1   2  2   
  2   2   3  am  
  3   2   4  1   
  4   3   5  1   
  5   3   6  1   
  6   4   7  1   
  7   4  29  1   
  8   4  30  1   
  9   5   7  1   
 10   5  31  1   
 11   5  32  1   
 12   6   8  1   
 13   6  33  1   
 14   6  34  1   
 15   7  35  1   
 16   7  36  1   
 17   8   9  1   
 18   8  37  1   
 19   8  38  1   
 20   9  10  1   
 21   9  39  1   
 22   9  40  1   
 23  10  11  2   
 24  10  12  am  
 25  12  13  1   
 26  12  14  1   
 27  13  15  1   
 28  13  41  1   
 29  13  42  1   
 30  14  16  1   
 31  14  43  1   
 32  14  44  1   
 33  15  17  1   
 34  15  45  1   
 35  15  46  1   
 36  16  18  1   
 37  16  47  1   
 38  16  48  1   
 39  17  18  1   
 40  17  19  am  
 41  18  49  1   
 42  18  50  1   
 43  19  20  2   
 44  19  21  1   
 45  21  22  1   
 46  21  23  1   
 47  21  51  1   
 48  22  52  1   
 49  23  24  1   
 50  23  25  1   
 51  23  53  1   
 52  24  26  1   
 53  24  54  1   
 54  24  55  1   
 55  25  27  1   
 56  25  56  1   
 57  25  57  1   
 58  26  28  1   
 59  26  58  1   
 60  26  59  1   
 61  27  28  1   
 62  27  60  1   
 63  27  61  1   
 64  28  62  1   
 65  28  63  1   
@<TRIPOS>SUBSTRUCTURE
  1 ****  12 GROUP 4 **** **** 0

# MOE 2024.06 (io_trps.svl 2023.06)
