@<TRIPOS>MOLECULE
NONAME
53 56 1 0 0 
SMALL
USER_CHARGES


@<TRIPOS>ATOM
  1 O        2.6200     0.5300    -1.4090 O.2   1 <1>  -0.5700 
  2 C        2.1650    -0.5640    -1.1740 C.2   1 <1>   0.4950 
  3 C        2.8530    -1.7210    -0.7230 C.2   1 <1>  -0.1240 
  4 C        0.7010    -0.9030    -1.3360 C.3   1 <1>  -0.0990 
  5 C        2.0320    -2.7760    -0.5690 C.2   1 <1>  -0.1670 
  6 C        4.3550    -1.6780    -0.4600 C.3   1 <1>   0.0390 
  7 C        0.6110    -2.3970    -0.9570 C.3   1 <1>  -0.0220 
  8 C        2.3140    -4.1020    -0.0930 C.ar  1 <1>   0.0280 
  9 C        4.7140    -0.7220     0.6740 C.2   1 <1>   0.5690 
 10 C        2.9200    -4.2930     1.1470 C.ar  1 <1>  -0.1500 
 11 C        1.9950    -5.2310    -0.8430 C.ar  1 <1>  -0.1500 
 12 O        3.9150    -0.5970     1.5730 O.2   1 <1>  -0.5700 
 13 N        5.8820     0.0130     0.6760 N.am  1 <1>  -0.6600 
 14 C        3.2060    -5.5610     1.6170 C.ar  1 <1>  -0.1500 
 15 C        2.2780    -6.5020    -0.3780 C.ar  1 <1>  -0.1500 
 16 C        6.1020     1.0530     1.7320 C.3   1 <1>   0.1400 
 17 C        6.9280     0.0000    -0.3870 C.3   1 <1>   0.1400 
 18 C        2.8860    -6.6700     0.8540 C.ar  1 <1>  -0.1500 
 19 C        6.1740     2.4990     1.1800 C.3   1 <1>   0.4230 
 20 C        6.7740     1.1950    -1.3580 C.3   1 <1>  -0.0800 
 21 N        5.2510     2.7800     0.0080 N.4   1 <1>  -0.9590 
 22 C        7.6320     2.9190     0.8630 C.3   1 <1>   0.1200 
 23 C        7.9810     2.1560    -1.3570 C.3   1 <1>   0.1200 
 24 C        5.4250     1.9270    -1.2230 C.3   1 <1>   0.3430 
 25 C        3.8110     2.7480     0.4120 C.3   1 <1>   0.2630 
 26 O        7.8010     3.2340    -0.4900 O.3   1 <1>  -0.5600 
 27 H        0.1130    -0.2990    -0.6710 H     1 <1>   0.0800 
 28 H        0.3940    -0.7370    -2.3520 H     1 <1>   0.0800 
 29 H        4.8280    -1.3780    -1.3730 H     1 <1>   0.0800 
 30 H        4.7170    -2.6560    -0.2050 H     1 <1>   0.0800 
 31 H        0.2740    -2.9840    -1.7940 H     1 <1>   0.0800 
 32 H       -0.0550    -2.5430    -0.1240 H     1 <1>   0.0800 
 33 H        3.1610    -3.4340     1.7500 H     1 <1>   0.1500 
 34 H        1.5270    -5.1120    -1.8030 H     1 <1>   0.1500 
 35 H        3.6740    -5.6870     2.5780 H     1 <1>   0.1500 
 36 H        2.0260    -7.3630    -0.9730 H     1 <1>   0.1500 
 37 H        5.3080     1.0240     2.4570 H     1 <1>   0.0800 
 38 H        7.0010     0.8180     2.2750 H     1 <1>   0.0800 
 39 H        7.8980     0.0160     0.0790 H     1 <1>   0.0800 
 40 H        6.8790    -0.9230    -0.9370 H     1 <1>   0.0800 
 41 H        3.1070    -7.6580     1.2180 H     1 <1>   0.1500 
 42 H        5.8710     3.1320     1.9970 H     1 <1>   0.0800 
 43 H        6.7750     0.7500    -2.3370 H     1 <1>   0.0800 
 44 H        5.5170     3.7280    -0.2970 H     1 <1>   0.4500 
 45 H        8.3480     2.1670     1.1450 H     1 <1>   0.0800 
 46 H        7.8630     3.8090     1.4210 H     1 <1>   0.0800 
 47 H        8.1020     2.5790    -2.3400 H     1 <1>   0.0800 
 48 H        8.8990     1.6530    -1.1020 H     1 <1>   0.0800 
 49 H        4.6600     1.1740    -1.2330 H     1 <1>   0.0800 
 50 H        5.2720     2.5420    -2.0950 H     1 <1>   0.0800 
 51 H        3.5390     1.7550     0.7370 H     1 <1>   0.0800 
 52 H        3.1820     3.0100    -0.4240 H     1 <1>   0.0800 
 53 H        3.6260     3.4400     1.2170 H     1 <1>   0.0800 
@<TRIPOS>BOND
  1   1   2  2   
  2   2   3  1   
  3   2   4  1   
  4   3   5  2   
  5   3   6  1   
  6   4   7  1   
  7   4  27  1   
  8   4  28  1   
  9   5   7  1   
 10   5   8  1   
 11   6   9  1   
 12   6  29  1   
 13   6  30  1   
 14   7  31  1   
 15   7  32  1   
 16   8  10  ar  
 17   8  11  ar  
 18   9  12  2   
 19   9  13  am  
 20  10  14  ar  
 21  10  33  1   
 22  11  15  ar  
 23  11  34  1   
 24  13  16  1   
 25  13  17  1   
 26  14  18  ar  
 27  14  35  1   
 28  15  18  ar  
 29  15  36  1   
 30  16  19  1   
 31  16  37  1   
 32  16  38  1   
 33  17  20  1   
 34  17  39  1   
 35  17  40  1   
 36  18  41  1   
 37  19  21  1   
 38  19  22  1   
 39  19  42  1   
 40  20  23  1   
 41  20  24  1   
 42  20  43  1   
 43  21  24  1   
 44  21  25  1   
 45  21  44  1   
 46  22  26  1   
 47  22  45  1   
 48  22  46  1   
 49  23  26  1   
 50  23  47  1   
 51  23  48  1   
 52  24  49  1   
 53  24  50  1   
 54  25  51  1   
 55  25  52  1   
 56  25  53  1   
@<TRIPOS>SUBSTRUCTURE
  1 ****   6 GROUP 4 **** **** 0

# MOE 2024.06 (io_trps.svl 2023.06)
