@<TRIPOS>MOLECULE
NONAME
37 38 1 0 0 
SMALL
USER_CHARGES


@<TRIPOS>ATOM
  1 O       -0.5700     0.8340    -1.4170 O.co2 1 <1>  -0.9000 
  2 C       -1.3040     0.0940    -0.7400 C.2   1 <1>   0.9060 
  3 O       -1.1880    -1.1290    -0.6800 O.co2 1 <1>  -0.9000 
  4 C       -2.4010     0.8130     0.0680 C.3   1 <1>   0.3170 
  5 N       -2.2280     2.3090    -0.0250 N.4   1 <1>  -0.9590 
  6 C       -3.8190     0.5390    -0.4430 C.3   1 <1>  -0.1600 
  7 C       -3.5240     2.9120    -0.4320 C.3   1 <1>   0.3430 
  8 C       -1.6270     2.8780     1.1890 C.3   1 <1>   0.5240 
  9 C       -4.5740     1.8290    -0.1690 C.3   1 <1>   0.2000 
 10 C       -1.2260     4.2990     0.8710 C.2   1 <1>  -0.1810 
 11 O       -4.9130     1.8490     1.1800 O.3   1 <1>  -0.6800 
 12 C       -1.7650     5.4510     1.4270 C.2   1 <1>   0.1390 
 13 C       -0.2960     4.7410    -0.0040 C.2   1 <1>  -0.3020 
 14 N       -1.2260     6.5230     0.9390 N.2   1 <1>  -0.7070 
 15 N       -0.3050     6.0880     0.0500 N.pl3 1 <1>   0.3140 
 16 C        0.5720     7.0000    -0.7420 C.3   1 <1>   0.1760 
 17 C        1.4890     7.8080     0.1870 C.3   1 <1>  -0.2400 
 18 C       -0.2690     7.9320    -1.6260 C.3   1 <1>  -0.2400 
 19 H       -2.3280     0.4970     1.0920 H     1 <1>   0.0800 
 20 H       -1.5090     2.3830    -0.7820 H     1 <1>   0.4500 
 21 H       -4.2540    -0.3250     0.0270 H     1 <1>   0.0800 
 22 H       -3.7780     0.3610    -1.5040 H     1 <1>   0.0800 
 23 H       -3.7450     3.8140     0.1140 H     1 <1>   0.0800 
 24 H       -3.4940     3.1310    -1.4860 H     1 <1>   0.0800 
 25 H       -2.3340     2.8530     2.0010 H     1 <1>   0.0800 
 26 H       -0.7510     2.3120     1.4630 H     1 <1>   0.0800 
 27 H       -5.4650     1.9530    -0.7610 H     1 <1>   0.0800 
 28 H       -5.5840     1.1640     1.3750 H     1 <1>   0.4000 
 29 H       -2.5410     5.4760     2.1750 H     1 <1>   0.1500 
 30 H        0.3610     4.1830    -0.6490 H     1 <1>   0.1500 
 31 H        1.1850     6.3870    -1.3780 H     1 <1>   0.0800 
 32 H        0.9030     8.4380     0.8340 H     1 <1>   0.0800 
 33 H        2.1490     8.4300    -0.3910 H     1 <1>   0.0800 
 34 H        2.0840     7.1450     0.7890 H     1 <1>   0.0800 
 35 H       -0.8910     8.5640    -1.0170 H     1 <1>   0.0800 
 36 H       -0.8920     7.3550    -2.2850 H     1 <1>   0.0800 
 37 H        0.3720     8.5550    -2.2230 H     1 <1>   0.0800 
@<TRIPOS>BOND
  1   1   2  ar  
  2   2   3  ar  
  3   2   4  1   
  4   4   5  1   
  5   4   6  1   
  6   4  19  1   
  7   5   7  1   
  8   5   8  1   
  9   5  20  1   
 10   6   9  1   
 11   6  21  1   
 12   6  22  1   
 13   7   9  1   
 14   7  23  1   
 15   7  24  1   
 16   8  10  1   
 17   8  25  1   
 18   8  26  1   
 19   9  11  1   
 20   9  27  1   
 21  10  12  1   
 22  10  13  2   
 23  11  28  1   
 24  12  14  2   
 25  12  29  1   
 26  13  15  1   
 27  13  30  1   
 28  14  15  1   
 29  15  16  1   
 30  16  17  1   
 31  16  18  1   
 32  16  31  1   
 33  17  32  1   
 34  17  33  1   
 35  17  34  1   
 36  18  35  1   
 37  18  36  1   
 38  18  37  1   
@<TRIPOS>SUBSTRUCTURE
  1 ****  10 GROUP 4 **** **** 0

# MOE 2024.06 (io_trps.svl 2023.06)
