@<TRIPOS>MOLECULE
NONAME
47 49 1 0 0 
SMALL
USER_CHARGES


@<TRIPOS>ATOM
  1 S        0.1200     0.5670     0.7560 S.3   1 <1>  -0.3320 
  2 C       -0.6620    -1.0210     0.4190 C.ar  1 <1>   0.1020 
  3 C        1.9140     0.3670     0.3550 C.3   1 <1>   0.2500 
  4 C        0.0420    -2.1040    -0.0850 C.ar  1 <1>  -0.1500 
  5 C       -2.0140    -1.1200     0.6860 C.ar  1 <1>  -0.1500 
  6 C        2.6270     1.6770     0.6290 C.2   1 <1>  -0.0400 
  7 C       -0.6250    -3.2960    -0.3160 C.ar  1 <1>  -0.1500 
  8 C       -2.6730    -2.3150     0.4520 C.ar  1 <1>  -0.1500 
  9 O        2.5390     2.6530    -0.2470 O.3   1 <1>  -0.2800 
 10 C        3.3950     2.0580     1.6730 C.2   1 <1>  -0.1500 
 11 C       -1.9810    -3.4070    -0.0480 C.ar  1 <1>  -0.1430 
 12 C        3.2350     3.6990     0.1900 C.2   1 <1>   0.0550 
 13 C        3.7850     3.3670     1.3930 C.2   1 <1>  -0.1500 
 14 C       -2.7060    -4.7160    -0.3050 C.3   1 <1>  -0.0970 
 15 C        3.3090     4.9250    -0.5780 C.2   1 <1>   0.7150 
 16 O        2.3450     5.3180    -1.2130 O.2   1 <1>  -0.5700 
 17 N        4.4530     5.6940    -0.6090 N.am  1 <1>  -0.6600 
 18 C        4.3480     7.1580    -0.9350 C.3   1 <1>   0.3210 
 19 C        5.8220     5.1190    -0.4880 C.3   1 <1>   0.1400 
 20 C        5.1760     8.0440    -0.0060 C.2   1 <1>   0.3350 
 21 C        6.5260     5.1430    -1.8430 C.3   1 <1>  -0.2400 
 22 N        4.7760     8.5010     1.1160 N.2   1 <1>  -0.4100 
 23 N        6.4140     8.4190    -0.3130 N.2   1 <1>  -0.5650 
 24 O        5.7460     9.2080     1.6100 O.3   1 <1>  -0.0190 
 25 C        6.6920     9.1200     0.7100 C.2   1 <1>   0.2980 
 26 C        7.9990     9.8390     0.9550 C.3   1 <1>  -0.0600 
 27 H        1.9910     0.0960    -0.6820 H     1 <1>   0.0800 
 28 H        2.2900    -0.4170     0.9850 H     1 <1>   0.0800 
 29 H        1.0890    -2.0430    -0.3020 H     1 <1>   0.1500 
 30 H       -2.5440    -0.2690     1.0740 H     1 <1>   0.1500 
 31 H       -0.0830    -4.1390    -0.7080 H     1 <1>   0.1500 
 32 H       -3.7260    -2.3890     0.6610 H     1 <1>   0.1500 
 33 H        3.6600     1.4980     2.5530 H     1 <1>   0.1500 
 34 H        4.3970     3.9860     2.0260 H     1 <1>   0.1500 
 35 H       -2.0370    -5.5490    -0.1800 H     1 <1>   0.0800 
 36 H       -3.0900    -4.7280    -1.3090 H     1 <1>   0.0800 
 37 H       -3.5240    -4.8340     0.3820 H     1 <1>   0.0800 
 38 H        3.3240     7.4780    -0.8580 H     1 <1>   0.0800 
 39 H        4.6610     7.3190    -1.9500 H     1 <1>   0.0800 
 40 H        5.7720     4.0980    -0.1530 H     1 <1>   0.0800 
 41 H        6.3920     5.6750     0.2390 H     1 <1>   0.0800 
 42 H        5.9340     4.6310    -2.5810 H     1 <1>   0.0800 
 43 H        7.4750     4.6440    -1.7620 H     1 <1>   0.0800 
 44 H        6.7090     6.1530    -2.1630 H     1 <1>   0.0800 
 45 H        8.6690     9.6730     0.1320 H     1 <1>   0.0800 
 46 H        8.4510     9.4710     1.8570 H     1 <1>   0.0800 
 47 H        7.8180    10.8930     1.0530 H     1 <1>   0.0800 
@<TRIPOS>BOND
  1   1   2  1   
  2   1   3  1   
  3   2   4  ar  
  4   2   5  ar  
  5   3   6  1   
  6   3  27  1   
  7   3  28  1   
  8   4   7  ar  
  9   4  29  1   
 10   5   8  ar  
 11   5  30  1   
 12   6   9  1   
 13   6  10  2   
 14   7  11  ar  
 15   7  31  1   
 16   8  11  ar  
 17   8  32  1   
 18   9  12  1   
 19  10  13  1   
 20  10  33  1   
 21  11  14  1   
 22  12  13  2   
 23  12  15  1   
 24  13  34  1   
 25  14  35  1   
 26  14  36  1   
 27  14  37  1   
 28  15  16  2   
 29  15  17  am  
 30  17  18  1   
 31  17  19  1   
 32  18  20  1   
 33  18  38  1   
 34  18  39  1   
 35  19  21  1   
 36  19  40  1   
 37  19  41  1   
 38  20  22  2   
 39  20  23  1   
 40  21  42  1   
 41  21  43  1   
 42  21  44  1   
 43  22  24  1   
 44  23  25  2   
 45  24  25  1   
 46  25  26  1   
 47  26  45  1   
 48  26  46  1   
 49  26  47  1   
@<TRIPOS>SUBSTRUCTURE
  1 ****   9 GROUP 4 **** **** 0

# MOE 2024.06 (io_trps.svl 2023.06)
