@<TRIPOS>MOLECULE
NONAME
60 64 1 0 0 
SMALL
USER_CHARGES


@<TRIPOS>ATOM
  1 O       -3.1130     0.2430    -2.0430 O.2   1 <1>  -0.5700 
  2 C       -2.8580     0.5680    -0.8990 C.2   1 <1>   0.5440 
  3 N       -2.8140    -0.4260     0.0580 N.am  1 <1>  -0.6600 
  4 C       -2.6600     1.9640    -0.5680 C.ar  1 <1>   0.0860 
  5 C       -3.4550    -0.2670     1.3840 C.3   1 <1>   0.1400 
  6 C       -2.5450    -1.8300    -0.3330 C.3   1 <1>   0.1400 
  7 C       -1.7310     2.3500     0.3970 C.ar  1 <1>   0.1600 
  8 C       -3.3790     2.9760    -1.1890 C.ar  1 <1>  -0.1500 
  9 C       -4.8140    -0.9680     1.3310 C.3   1 <1>  -0.1600 
 10 C       -3.8820    -2.5660    -0.4270 C.3   1 <1>  -0.1600 
 11 N       -1.4970     3.5890     0.7990 N.ar  1 <1>  -0.6200 
 12 C       -3.1450     4.2760    -0.7950 C.ar  1 <1>  -0.1500 
 13 C       -4.6800    -2.4260     0.8750 C.3   1 <1>   0.4230 
 14 C       -2.2080     4.5260     0.1930 C.ar  1 <1>   0.1600 
 15 N       -6.0420    -2.9580     0.6710 N.4   1 <1>  -0.9060 
 16 C       -6.1510    -4.4360     0.5170 C.3   1 <1>   0.4230 
 17 C       -7.5920    -4.8240     0.1870 C.3   1 <1>  -0.0800 
 18 C       -6.0330    -5.0630     1.9010 C.3   1 <1>   0.1200 
 19 C       -8.2670    -4.8640     1.5700 C.3   1 <1>   0.1200 
 20 C       -8.3230    -3.9780    -0.8780 C.3   1 <1>  -0.0170 
 21 O       -7.2330    -4.6940     2.4960 O.3   1 <1>  -0.5600 
 22 C       -9.6930    -4.5730    -1.1870 C.ar  1 <1>  -0.1440 
 23 C      -10.9030    -4.1150    -0.6040 C.ar  1 <1>   0.0000 
 24 C       -9.7740    -5.6130    -2.0680 C.ar  1 <1>  -0.1500 
 25 C      -12.0960    -4.7970    -0.9540 C.ar  1 <1>   0.3100 
 26 C      -11.0130    -3.0280     0.2960 C.ar  1 <1>  -0.1500 
 27 C      -11.0080    -6.2050    -2.3550 C.ar  1 <1>   0.1600 
 28 N      -12.1290    -5.8340    -1.8260 N.ar  1 <1>  -0.6200 
 29 C      -13.3110    -4.3900    -0.3810 C.ar  1 <1>  -0.1500 
 30 C      -12.2140    -2.6540     0.8350 C.ar  1 <1>  -0.1500 
 31 C      -13.3790    -3.3440     0.4970 C.ar  1 <1>  -0.1500 
 32 H       -2.8250    -0.7030     2.1420 H     1 <1>   0.0800 
 33 H       -3.5930     0.7750     1.6220 H     1 <1>   0.0800 
 34 H       -2.0370    -1.8600    -1.2840 H     1 <1>   0.0800 
 35 H       -1.9030    -2.2880     0.4010 H     1 <1>   0.0800 
 36 H       -1.1440     1.5790     0.8650 H     1 <1>   0.1500 
 37 H       -4.0950     2.7440    -1.9590 H     1 <1>   0.1500 
 38 H       -5.4410    -0.4180     0.6490 H     1 <1>   0.0800 
 39 H       -5.2570    -0.9280     2.3100 H     1 <1>   0.0800 
 40 H       -3.6790    -3.5990    -0.6400 H     1 <1>   0.0800 
 41 H       -4.4280    -2.1450    -1.2540 H     1 <1>   0.0800 
 42 H       -3.6800     5.0910    -1.2490 H     1 <1>   0.1500 
 43 H       -4.1790    -2.9780     1.6530 H     1 <1>   0.0800 
 44 H       -2.0330     5.5450     0.4970 H     1 <1>   0.1500 
 45 H       -6.4640    -2.4790    -0.1300 H     1 <1>   0.4500 
 46 H       -6.6120    -2.7430     1.5030 H     1 <1>   0.4500 
 47 H       -5.4390    -4.8270    -0.1930 H     1 <1>   0.0800 
 48 H       -7.5730    -5.8390    -0.1720 H     1 <1>   0.0800 
 49 H       -5.2080    -4.6950     2.4850 H     1 <1>   0.0800 
 50 H       -5.9940    -6.1390     1.8500 H     1 <1>   0.0800 
 51 H       -8.7450    -5.8140     1.7510 H     1 <1>   0.0800 
 52 H       -8.9790    -4.0730     1.7190 H     1 <1>   0.0800 
 53 H       -7.7440    -3.9840    -1.7860 H     1 <1>   0.0800 
 54 H       -8.4200    -2.9520    -0.5810 H     1 <1>   0.0800 
 55 H       -8.9060    -6.0100    -2.5630 H     1 <1>   0.1500 
 56 H      -10.1450    -2.4660     0.5730 H     1 <1>   0.1500 
 57 H      -11.0280    -7.0230    -3.0560 H     1 <1>   0.1500 
 58 H      -14.1950    -4.9340    -0.6610 H     1 <1>   0.1500 
 59 H      -12.2840    -1.8270     1.5210 H     1 <1>   0.1500 
 60 H      -14.3190    -3.0430     0.9280 H     1 <1>   0.1500 
@<TRIPOS>BOND
  1   1   2  2   
  2   2   3  am  
  3   2   4  1   
  4   3   5  1   
  5   3   6  1   
  6   4   7  ar  
  7   4   8  ar  
  8   5   9  1   
  9   5  32  1   
 10   5  33  1   
 11   6  10  1   
 12   6  34  1   
 13   6  35  1   
 14   7  11  ar  
 15   7  36  1   
 16   8  12  ar  
 17   8  37  1   
 18   9  13  1   
 19   9  38  1   
 20   9  39  1   
 21  10  13  1   
 22  10  40  1   
 23  10  41  1   
 24  11  14  ar  
 25  12  14  ar  
 26  12  42  1   
 27  13  15  1   
 28  13  43  1   
 29  14  44  1   
 30  15  16  1   
 31  15  45  1   
 32  15  46  1   
 33  16  17  1   
 34  16  18  1   
 35  16  47  1   
 36  17  19  1   
 37  17  20  1   
 38  17  48  1   
 39  18  21  1   
 40  18  49  1   
 41  18  50  1   
 42  19  21  1   
 43  19  51  1   
 44  19  52  1   
 45  20  22  1   
 46  20  53  1   
 47  20  54  1   
 48  22  23  ar  
 49  22  24  ar  
 50  23  25  ar  
 51  23  26  ar  
 52  24  27  ar  
 53  24  55  1   
 54  25  28  ar  
 55  25  29  ar  
 56  26  30  ar  
 57  26  56  1   
 58  27  28  ar  
 59  27  57  1   
 60  29  31  ar  
 61  29  58  1   
 62  30  31  ar  
 63  30  59  1   
 64  31  60  1   
@<TRIPOS>SUBSTRUCTURE
  1 ****  15 GROUP 4 **** **** 0

# MOE 2024.06 (io_trps.svl 2023.06)
