@<TRIPOS>MOLECULE
NONAME
50 52 1 0 0 
SMALL
USER_CHARGES


@<TRIPOS>ATOM
  1 O       -0.8700    -0.0260     0.7110 O.2   1 <1>  -0.5700 
  2 C       -1.4140     0.6580    -0.1330 C.2   1 <1>   0.5440 
  3 N       -2.0930     0.0470    -1.1490 N.am  1 <1>  -0.7300 
  4 C       -1.3820     2.0930    -0.0580 C.ar  1 <1>   0.0860 
  5 C       -2.6350    -1.3420    -1.1140 C.3   1 <1>   0.2200 
  6 C       -0.2300     2.8520     0.0940 C.ar  1 <1>   0.1660 
  7 C       -2.5570     2.8160    -0.1340 C.ar  1 <1>   0.1600 
  8 C       -3.5640    -1.5590     0.0940 C.3   1 <1>   0.2000 
  9 C       -1.5290    -2.4080    -1.1110 C.3   1 <1>   0.1200 
 10 N       -0.2560     4.1600     0.1490 N.ar  1 <1>  -0.6200 
 11 C        1.1420     2.2080     0.2010 C.3   1 <1>  -0.0960 
 12 N       -2.6100     4.1220    -0.0880 N.ar  1 <1>  -0.6200 
 13 O       -4.6500    -0.6770     0.0040 O.3   1 <1>  -0.5600 
 14 C       -4.0660    -3.0060     0.1170 C.3   1 <1>  -0.1600 
 15 O       -2.1130    -3.6820    -1.1030 O.3   1 <1>  -0.5600 
 16 C       -1.4450     4.7560     0.0540 C.ar  1 <1>   0.7200 
 17 C       -5.2210    -0.3220     1.2240 C.3   1 <1>   0.0400 
 18 C       -2.8770    -3.9720     0.0300 C.3   1 <1>   0.1200 
 19 N       -1.4720     6.1270     0.1060 N.pl3 1 <1>  -0.8380 
 20 C       -0.2810     6.9080     0.5570 C.3   1 <1>   0.2090 
 21 C       -2.6930     6.8980    -0.2790 C.3   1 <1>   0.2090 
 22 C       -0.7150     8.2360     1.1870 C.3   1 <1>  -0.1600 
 23 C       -2.3080     8.2810    -0.8130 C.3   1 <1>  -0.1600 
 24 C       -1.5230     9.1140     0.2150 C.3   1 <1>  -0.1600 
 25 H       -2.5830     0.6380    -1.8220 H     1 <1>   0.3700 
 26 H       -3.2130    -1.4930    -2.0080 H     1 <1>   0.0800 
 27 H       -3.4890     2.2840    -0.2340 H     1 <1>   0.1500 
 28 H       -3.0140    -1.3550     0.9980 H     1 <1>   0.0800 
 29 H       -0.8950    -2.3200    -0.2470 H     1 <1>   0.0800 
 30 H       -0.9330    -2.3270    -2.0020 H     1 <1>   0.0800 
 31 H        1.2360     1.3930    -0.4930 H     1 <1>   0.0800 
 32 H        1.2860     1.8350     1.1990 H     1 <1>   0.0800 
 33 H        1.9120     2.9270    -0.0130 H     1 <1>   0.0800 
 34 H       -4.6060    -3.1980     1.0250 H     1 <1>   0.0800 
 35 H       -4.7200    -3.1820    -0.7190 H     1 <1>   0.0800 
 36 H       -6.0310     0.3580     1.0290 H     1 <1>   0.0800 
 37 H       -4.4790     0.1640     1.8350 H     1 <1>   0.0800 
 38 H       -5.5990    -1.2020     1.7150 H     1 <1>   0.0800 
 39 H       -3.2220    -4.9880    -0.0610 H     1 <1>   0.0800 
 40 H       -2.2440    -3.8950     0.8980 H     1 <1>   0.0800 
 41 H        0.2760     6.3410     1.2850 H     1 <1>   0.0800 
 42 H        0.3580     7.0920    -0.2890 H     1 <1>   0.0800 
 43 H       -3.2390     6.3670    -1.0410 H     1 <1>   0.0800 
 44 H       -3.3290     6.9990     0.5840 H     1 <1>   0.0800 
 45 H       -1.3140     8.0100     2.0510 H     1 <1>   0.0800 
 46 H        0.1520     8.7740     1.5260 H     1 <1>   0.0800 
 47 H       -1.7070     8.1370    -1.6940 H     1 <1>   0.0800 
 48 H       -3.1940     8.8130    -1.1100 H     1 <1>   0.0800 
 49 H       -0.8590     9.7760    -0.3140 H     1 <1>   0.0800 
 50 H       -2.2040     9.7210     0.7860 H     1 <1>   0.0800 
@<TRIPOS>BOND
  1   1   2  2   
  2   2   3  am  
  3   2   4  1   
  4   3   5  1   
  5   3  25  1   
  6   4   6  ar  
  7   4   7  ar  
  8   5   8  1   
  9   5   9  1   
 10   5  26  1   
 11   6  10  ar  
 12   6  11  1   
 13   7  12  ar  
 14   7  27  1   
 15   8  13  1   
 16   8  14  1   
 17   8  28  1   
 18   9  15  1   
 19   9  29  1   
 20   9  30  1   
 21  10  16  ar  
 22  11  31  1   
 23  11  32  1   
 24  11  33  1   
 25  12  16  ar  
 26  13  17  1   
 27  14  18  1   
 28  14  34  1   
 29  14  35  1   
 30  15  18  1   
 31  16  19  1   
 32  17  36  1   
 33  17  37  1   
 34  17  38  1   
 35  18  39  1   
 36  18  40  1   
 37  19  20  1   
 38  19  21  1   
 39  20  22  1   
 40  20  41  1   
 41  20  42  1   
 42  21  23  1   
 43  21  43  1   
 44  21  44  1   
 45  22  24  1   
 46  22  45  1   
 47  22  46  1   
 48  23  24  1   
 49  23  47  1   
 50  23  48  1   
 51  24  49  1   
 52  24  50  1   
@<TRIPOS>SUBSTRUCTURE
  1 ****   4 GROUP 4 **** **** 0

# MOE 2024.06 (io_trps.svl 2023.06)
