@<TRIPOS>MOLECULE
NONAME
42 43 1 0 0 
SMALL
USER_CHARGES


@<TRIPOS>ATOM
  1 S       -0.3270     0.1030    -1.5680 S.o2  1 <1>   1.5000 
  2 O        0.3010    -0.8560    -2.4520 O.2   1 <1>  -0.6500 
  3 O       -1.0900     1.1890    -2.1490 O.2   1 <1>  -0.6500 
  4 N       -1.3750    -0.7420    -0.5420 N.am  1 <1>  -0.8490 
  5 C        0.9070     0.7330    -0.4040 C.2   1 <1>  -0.0220 
  6 C       -2.0810    -1.8440    -1.2310 C.3   1 <1>   0.1960 
  7 C       -2.2870     0.1410     0.1960 C.3   1 <1>   0.1960 
  8 S        1.6780     2.2780    -0.7540 S.3   1 <1>  -0.0800 
  9 C        1.4150     0.2330     0.7420 C.2   1 <1>  -0.1500 
 10 C       -3.0070    -2.6600    -0.3000 C.3   1 <1>   0.2000 
 11 C       -3.1400    -0.6580     1.1870 C.3   1 <1>  -0.1600 
 12 C        2.6660     2.1880     0.6930 C.2   1 <1>  -0.1400 
 13 C        2.4070     1.0530     1.3650 C.2   1 <1>  -0.1500 
 14 O       -2.2050    -3.3860     0.5770 O.3   1 <1>  -0.6800 
 15 C       -3.9880    -1.7610     0.4930 C.3   1 <1>  -0.1060 
 16 C        3.6160     3.3370     0.9560 C.3   1 <1>  -0.0600 
 17 C       -4.6810    -2.6660     1.5340 C.2   1 <1>   0.9060 
 18 C       -5.0240    -1.1290    -0.5000 C.3   1 <1>  -0.1600 
 19 O       -5.8610    -3.0050     1.3920 O.co2 1 <1>  -0.9000 
 20 O       -4.0010    -3.1030     2.4740 O.co2 1 <1>  -0.9000 
 21 C       -5.9920    -0.1030     0.1180 C.3   1 <1>  -0.1600 
 22 C       -7.0360     0.3500    -0.9060 C.3   1 <1>  -0.2400 
 23 H       -2.6530    -1.4420    -2.0480 H     1 <1>   0.0800 
 24 H       -1.3610    -2.5260    -1.6510 H     1 <1>   0.0800 
 25 H       -1.7120     0.8670     0.7450 H     1 <1>   0.0800 
 26 H       -2.9230     0.6750    -0.4890 H     1 <1>   0.0800 
 27 H        1.1160    -0.7070     1.1770 H     1 <1>   0.1500 
 28 H       -3.5650    -3.3800    -0.8730 H     1 <1>   0.0800 
 29 H       -2.4750    -1.1100     1.9040 H     1 <1>   0.0800 
 30 H       -3.7740     0.0030     1.7460 H     1 <1>   0.0800 
 31 H        2.8750     0.7480     2.2860 H     1 <1>   0.1500 
 32 H       -2.7120    -3.4600     1.4420 H     1 <1>   0.4000 
 33 H        4.1630     3.1660     1.8650 H     1 <1>   0.0800 
 34 H        3.0640     4.2550     1.0480 H     1 <1>   0.0800 
 35 H        4.3130     3.4300     0.1430 H     1 <1>   0.0800 
 36 H       -4.5290    -0.6510    -1.3230 H     1 <1>   0.0800 
 37 H       -5.6110    -1.9310    -0.9180 H     1 <1>   0.0800 
 38 H       -6.4970    -0.5430     0.9620 H     1 <1>   0.0800 
 39 H       -5.4530     0.7600     0.4630 H     1 <1>   0.0800 
 40 H       -7.6150    -0.4940    -1.2390 H     1 <1>   0.0800 
 41 H       -6.5600     0.8050    -1.7560 H     1 <1>   0.0800 
 42 H       -7.7020     1.0650    -0.4570 H     1 <1>   0.0800 
@<TRIPOS>BOND
  1   1   2  2   
  2   1   3  2   
  3   1   4  am  
  4   1   5  1   
  5   4   6  1   
  6   4   7  1   
  7   5   8  1   
  8   5   9  2   
  9   6  10  1   
 10   6  23  1   
 11   6  24  1   
 12   7  11  1   
 13   7  25  1   
 14   7  26  1   
 15   8  12  1   
 16   9  13  1   
 17   9  27  1   
 18  10  14  1   
 19  10  15  1   
 20  10  28  1   
 21  11  15  1   
 22  11  29  1   
 23  11  30  1   
 24  12  13  2   
 25  12  16  1   
 26  13  31  1   
 27  14  32  1   
 28  15  17  1   
 29  15  18  1   
 30  16  33  1   
 31  16  34  1   
 32  16  35  1   
 33  17  19  ar  
 34  17  20  ar  
 35  18  21  1   
 36  18  36  1   
 37  18  37  1   
 38  21  22  1   
 39  21  38  1   
 40  21  39  1   
 41  22  40  1   
 42  22  41  1   
 43  22  42  1   
@<TRIPOS>SUBSTRUCTURE
  1 ****   4 GROUP 4 **** **** 0

# MOE 2024.06 (io_trps.svl 2023.06)
