@<TRIPOS>MOLECULE
NONAME
50 54 1 0 0 
SMALL
USER_CHARGES


@<TRIPOS>ATOM
  1 S        2.7840     1.9260    -2.3190 S.3   1 <1>   0.1810 
  2 N        4.4150     1.5410    -1.9080 N.2   1 <1>  -0.5100 
  3 C        2.0720     0.8410    -1.1400 C.ar  1 <1>   0.0400 
  4 C        4.3920     0.6770    -0.9610 C.2   1 <1>   0.3720 
  5 C        3.1070     0.2180    -0.4820 C.ar  1 <1>   0.0000 
  6 C        0.7350     0.6040    -0.8800 C.ar  1 <1>  -0.1500 
  7 N        5.5670     0.1990    -0.3880 N.pl3 1 <1>  -0.8210 
  8 C        2.7760    -0.7240     0.4910 C.ar  1 <1>  -0.1500 
  9 C        0.4270    -0.3240     0.0990 C.ar  1 <1>  -0.1500 
 10 C        6.7960     0.1440    -1.2460 C.3   1 <1>   0.2090 
 11 C        5.8650     0.6650     1.0040 C.3   1 <1>   0.2090 
 12 C        1.4460    -0.9860     0.7780 C.ar  1 <1>  -0.1500 
 13 C        7.6080     1.4570    -1.2070 C.3   1 <1>   0.2090 
 14 C        6.6690     1.9800     1.0190 C.3   1 <1>   0.2090 
 15 N        7.9180     1.8790     0.1950 N.pl3 1 <1>  -0.8380 
 16 C        8.9110     2.8300     0.3670 C.ar  1 <1>   0.4100 
 17 N        8.5240     4.0300     0.7620 N.ar  1 <1>  -0.6200 
 18 C       10.2550     2.5170     0.1160 C.ar  1 <1>   0.1600 
 19 C        9.5240     4.9200     0.8810 C.ar  1 <1>   0.3960 
 20 N       11.2630     3.3580     0.2250 N.ar  1 <1>  -0.6200 
 21 C        9.2650     6.3020     1.2950 C.2   1 <1>   0.5440 
 22 C       10.8490     4.5570     0.6170 C.ar  1 <1>   0.1600 
 23 O       10.1470     6.9250     1.8650 O.2   1 <1>  -0.5700 
 24 N        8.0770     6.9730     1.0600 N.am  1 <1>  -0.6600 
 25 C        7.8360     8.3580     1.5210 C.3   1 <1>   0.1400 
 26 C        6.9290     6.4750     0.2670 C.3   1 <1>   0.1400 
 27 C        6.3760     8.6380     1.1810 C.3   1 <1>  -0.1600 
 28 C        6.0670     7.7050     0.0140 C.3   1 <1>  -0.1600 
 29 H       -0.0330     1.1240    -1.4240 H     1 <1>   0.1500 
 30 H        3.5630    -1.2440     1.0070 H     1 <1>   0.1500 
 31 H       -0.6010    -0.5400     0.3350 H     1 <1>   0.1500 
 32 H        6.5140    -0.0680    -2.2630 H     1 <1>   0.0800 
 33 H        7.4210    -0.6620    -0.9070 H     1 <1>   0.0800 
 34 H        6.4290    -0.0950     1.5150 H     1 <1>   0.0800 
 35 H        4.9470     0.8140     1.5440 H     1 <1>   0.0800 
 36 H        1.1950    -1.7130     1.5320 H     1 <1>   0.1500 
 37 H        7.0390     2.2320    -1.6920 H     1 <1>   0.0800 
 38 H        8.5200     1.3230    -1.7610 H     1 <1>   0.0800 
 39 H        6.9290     2.2270     2.0330 H     1 <1>   0.0800 
 40 H        6.0510     2.7720     0.6310 H     1 <1>   0.0800 
 41 H       10.4770     1.5110    -0.1860 H     1 <1>   0.1500 
 42 H       11.6100     5.3080     0.7370 H     1 <1>   0.1500 
 43 H        8.4870     9.0250     0.9820 H     1 <1>   0.0800 
 44 H        8.0250     8.4470     2.5780 H     1 <1>   0.0800 
 45 H        6.3870     5.7510     0.8520 H     1 <1>   0.0800 
 46 H        7.2570     6.0240    -0.6540 H     1 <1>   0.0800 
 47 H        6.2140     9.6720     0.9360 H     1 <1>   0.0800 
 48 H        5.7660     8.3780     2.0290 H     1 <1>   0.0800 
 49 H        5.0220     7.4540    -0.0480 H     1 <1>   0.0800 
 50 H        6.3740     8.1620    -0.9110 H     1 <1>   0.0800 
@<TRIPOS>BOND
  1   1   2  1   
  2   1   3  1   
  3   2   4  2   
  4   3   5  ar  
  5   3   6  ar  
  6   4   5  1   
  7   4   7  1   
  8   5   8  ar  
  9   6   9  ar  
 10   6  29  1   
 11   7  10  1   
 12   7  11  1   
 13   8  12  ar  
 14   8  30  1   
 15   9  12  ar  
 16   9  31  1   
 17  10  13  1   
 18  10  32  1   
 19  10  33  1   
 20  11  14  1   
 21  11  34  1   
 22  11  35  1   
 23  12  36  1   
 24  13  15  1   
 25  13  37  1   
 26  13  38  1   
 27  14  15  1   
 28  14  39  1   
 29  14  40  1   
 30  15  16  1   
 31  16  17  ar  
 32  16  18  ar  
 33  17  19  ar  
 34  18  20  ar  
 35  18  41  1   
 36  19  21  1   
 37  19  22  ar  
 38  20  22  ar  
 39  21  23  2   
 40  21  24  am  
 41  22  42  1   
 42  24  25  1   
 43  24  26  1   
 44  25  27  1   
 45  25  43  1   
 46  25  44  1   
 47  26  28  1   
 48  26  45  1   
 49  26  46  1   
 50  27  28  1   
 51  27  47  1   
 52  27  48  1   
 53  28  49  1   
 54  28  50  1   
@<TRIPOS>SUBSTRUCTURE
  1 ****  14 GROUP 4 **** **** 0

# MOE 2024.06 (io_trps.svl 2023.06)
