@<TRIPOS>MOLECULE
NONAME
50 53 1 0 0 
SMALL
USER_CHARGES


@<TRIPOS>ATOM
  1 O       -2.4780     0.6600    -2.0420 O.2   1 <1>  -0.5700 
  2 C       -2.1910     1.0970    -0.9440 C.2   1 <1>   0.5440 
  3 N       -2.3690     0.2480     0.1260 N.am  1 <1>  -0.6600 
  4 C       -1.7690     2.4750    -0.7670 C.ar  1 <1>   0.0860 
  5 C       -3.2860     0.6400     1.2360 C.3   1 <1>   0.1400 
  6 C       -2.3080    -1.2240    -0.1000 C.3   1 <1>   0.1400 
  7 C       -0.9450     2.8610     0.2820 C.ar  1 <1>  -0.1500 
  8 C       -2.2010     3.4730    -1.6680 C.ar  1 <1>  -0.1500 
  9 C       -4.7100     0.0660     1.0180 C.3   1 <1>   0.4230 
 10 C       -3.7200    -1.7660    -0.3830 C.3   1 <1>   0.3430 
 11 C       -0.5840     4.1980     0.4410 C.ar  1 <1>  -0.1520 
 12 C       -1.8490     4.7930    -1.5180 C.ar  1 <1>  -0.1500 
 13 N       -4.6930    -1.4300     0.7300 N.4   1 <1>  -0.9590 
 14 C       -5.4520     0.8350    -0.1010 C.3   1 <1>   0.1200 
 15 N        0.2050     4.8130     1.3820 N.pl3 1 <1>   0.0330 
 16 C       -1.0330     5.1690    -0.4480 C.ar  1 <1>   0.0000 
 17 C       -6.0970    -1.8990     0.4540 C.3   1 <1>   0.4230 
 18 O       -6.7410     0.3190    -0.2650 O.3   1 <1>  -0.5600 
 19 C        0.2460     6.1470     1.0970 C.2   1 <1>  -0.3020 
 20 C       -0.4960     6.3960    -0.0090 C.2   1 <1>  -0.1500 
 21 C       -6.7860    -1.0320    -0.6280 C.3   1 <1>   0.1200 
 22 C       -6.1130    -3.4000     0.1180 C.3   1 <1>  -0.1600 
 23 C       -7.5220    -4.0070     0.2100 C.3   1 <1>  -0.1600 
 24 C       -7.4830    -5.5150    -0.0500 C.3   1 <1>  -0.2400 
 25 H       -2.8890     0.2740     2.1660 H     1 <1>   0.0800 
 26 H       -3.3420     1.7130     1.3110 H     1 <1>   0.0800 
 27 H       -1.6690    -1.4370    -0.9420 H     1 <1>   0.0800 
 28 H       -1.8850    -1.7090     0.7620 H     1 <1>   0.0800 
 29 H       -0.5720     2.1300     0.9770 H     1 <1>   0.1500 
 30 H       -2.8220     3.1800    -2.4970 H     1 <1>   0.1500 
 31 H       -5.2660     0.2370     1.9240 H     1 <1>   0.0800 
 32 H       -3.6620    -2.8330    -0.5150 H     1 <1>   0.0800 
 33 H       -4.0610    -1.3360    -1.3120 H     1 <1>   0.0800 
 34 H       -2.1830     5.5460    -2.2090 H     1 <1>   0.1500 
 35 H       -4.3700    -1.9060     1.5790 H     1 <1>   0.4500 
 36 H       -4.9340     0.7730    -1.0420 H     1 <1>   0.0800 
 37 H       -5.5520     1.8740     0.1640 H     1 <1>   0.0800 
 38 H        0.6900     4.3440     2.1540 H     1 <1>   0.2700 
 39 H       -6.6720    -1.7730     1.3580 H     1 <1>   0.0800 
 40 H        0.8050     6.8440     1.6970 H     1 <1>   0.1500 
 41 H       -0.6670     7.3400    -0.4960 H     1 <1>   0.1500 
 42 H       -7.8230    -1.3010    -0.7200 H     1 <1>   0.0800 
 43 H       -6.3170    -1.1510    -1.5890 H     1 <1>   0.0800 
 44 H       -5.7360    -3.5630    -0.8770 H     1 <1>   0.0800 
 45 H       -5.4820    -3.9230     0.8150 H     1 <1>   0.0800 
 46 H       -7.9360    -3.8350     1.1900 H     1 <1>   0.0800 
 47 H       -8.1790    -3.5540    -0.5130 H     1 <1>   0.0800 
 48 H       -6.8650    -6.0140     0.6760 H     1 <1>   0.0800 
 49 H       -7.1000    -5.7230    -1.0340 H     1 <1>   0.0800 
 50 H       -8.4770    -5.9240     0.0170 H     1 <1>   0.0800 
@<TRIPOS>BOND
  1   1   2  2   
  2   2   3  am  
  3   2   4  1   
  4   3   5  1   
  5   3   6  1   
  6   4   7  ar  
  7   4   8  ar  
  8   5   9  1   
  9   5  25  1   
 10   5  26  1   
 11   6  10  1   
 12   6  27  1   
 13   6  28  1   
 14   7  11  ar  
 15   7  29  1   
 16   8  12  ar  
 17   8  30  1   
 18   9  13  1   
 19   9  14  1   
 20   9  31  1   
 21  10  13  1   
 22  10  32  1   
 23  10  33  1   
 24  11  15  1   
 25  11  16  ar  
 26  12  16  ar  
 27  12  34  1   
 28  13  17  1   
 29  13  35  1   
 30  14  18  1   
 31  14  36  1   
 32  14  37  1   
 33  15  19  1   
 34  15  38  1   
 35  16  20  1   
 36  17  21  1   
 37  17  22  1   
 38  17  39  1   
 39  18  21  1   
 40  19  20  2   
 41  19  40  1   
 42  20  41  1   
 43  21  42  1   
 44  21  43  1   
 45  22  23  1   
 46  22  44  1   
 47  22  45  1   
 48  23  24  1   
 49  23  46  1   
 50  23  47  1   
 51  24  48  1   
 52  24  49  1   
 53  24  50  1   
@<TRIPOS>SUBSTRUCTURE
  1 ****   3 GROUP 4 **** **** 0

# MOE 2024.06 (io_trps.svl 2023.06)
