@<TRIPOS>MOLECULE
NONAME
57 60 1 0 0 
SMALL
USER_CHARGES


@<TRIPOS>ATOM
  1 O        1.7980    -0.7520     1.8670 O.co2 1 <1>  -0.9000 
  2 C        1.5370     0.2730     1.2160 C.2   1 <1>   0.9060 
  3 O        0.8230     1.1610     1.6780 O.co2 1 <1>  -0.9000 
  4 C        2.1410     0.4160    -0.1950 C.3   1 <1>  -0.1060 
  5 C        3.5910    -0.1070    -0.1530 C.3   1 <1>   0.4230 
  6 C        2.2300     1.9030    -0.6290 C.3   1 <1>  -0.1600 
  7 C        1.2810    -0.3840    -1.2170 C.3   1 <1>  -0.1600 
  8 N        3.5820    -1.5840     0.1250 N.4   1 <1>  -0.9590 
  9 C        4.4380     0.7390     0.8310 C.3   1 <1>   0.1100 
 10 C        3.1220     2.7290     0.3100 C.3   1 <1>   0.1100 
 11 C        2.0650    -1.5220    -1.8910 C.3   1 <1>  -0.1600 
 12 C        2.8230    -2.3900    -0.8760 C.3   1 <1>   0.3430 
 13 C        4.8820    -2.2000     0.4960 C.3   1 <1>   0.2630 
 14 N        4.4840     2.1520     0.3950 N.3   1 <1>  -0.8100 
 15 C        5.3110     2.9450     1.3200 C.3   1 <1>   0.2530 
 16 C        5.5840     4.3290     0.7600 C.ar  1 <1>  -0.1440 
 17 C        6.0430     4.5090    -0.5230 C.ar  1 <1>   0.1600 
 18 C        5.3900     5.4640     1.5100 C.ar  1 <1>   0.1600 
 19 N        6.3040     5.6960    -1.0180 N.ar  1 <1>  -0.6200 
 20 N        5.6400     6.6650     1.0470 N.ar  1 <1>  -0.6200 
 21 C        6.1080     6.7350    -0.2030 C.ar  1 <1>   0.6200 
 22 C        6.3890     8.0490    -0.7300 C.ar  1 <1>   0.0000 
 23 C        7.6260     8.6720    -0.5280 C.ar  1 <1>   0.0820 
 24 C        5.4180     8.7320    -1.4620 C.ar  1 <1>  -0.1500 
 25 O        8.5620     7.9930     0.1820 O.3   1 <1>  -0.3620 
 26 C        7.8620     9.9430    -1.0490 C.ar  1 <1>  -0.1500 
 27 C        5.6560     9.9910    -1.9770 C.ar  1 <1>  -0.1500 
 28 C        9.8460     8.5140     0.4390 C.3   1 <1>   0.0400 
 29 C        6.8820    10.5990    -1.7690 C.ar  1 <1>  -0.1500 
 30 H        4.0250     0.0420    -1.1260 H     1 <1>   0.0800 
 31 H        1.2430     2.3360    -0.6230 H     1 <1>   0.0800 
 32 H        2.6150     1.9840    -1.6290 H     1 <1>   0.0800 
 33 H        0.4330    -0.8090    -0.7030 H     1 <1>   0.0800 
 34 H        0.8810     0.2680    -1.9740 H     1 <1>   0.0800 
 35 H        2.9630    -1.5910     0.9820 H     1 <1>   0.4500 
 36 H        5.4440     0.3640     0.8460 H     1 <1>   0.0800 
 37 H        4.0280     0.6770     1.8260 H     1 <1>   0.0800 
 38 H        2.6770     2.7730     1.2910 H     1 <1>   0.0800 
 39 H        3.1740     3.7360    -0.0700 H     1 <1>   0.0800 
 40 H        2.7650    -1.1130    -2.5980 H     1 <1>   0.0800 
 41 H        1.3840    -2.1450    -2.4450 H     1 <1>   0.0800 
 42 H        3.4950    -3.0410    -1.4100 H     1 <1>   0.0800 
 43 H        2.1120    -3.0060    -0.3480 H     1 <1>   0.0800 
 44 H        5.5780    -2.1240    -0.3230 H     1 <1>   0.0800 
 45 H        4.7400    -3.2390     0.7420 H     1 <1>   0.0800 
 46 H        5.2960    -1.7030     1.3580 H     1 <1>   0.0800 
 47 H        4.8190     3.0170     2.2760 H     1 <1>   0.0800 
 48 H        6.2560     2.4520     1.4670 H     1 <1>   0.0800 
 49 H        6.1950     3.6520    -1.1570 H     1 <1>   0.1500 
 50 H        5.0210     5.3880     2.5190 H     1 <1>   0.1500 
 51 H        4.4650     8.2590    -1.6240 H     1 <1>   0.1500 
 52 H        8.8030    10.4370    -0.9040 H     1 <1>   0.1500 
 53 H        4.8910    10.4990    -2.5390 H     1 <1>   0.1500 
 54 H       10.3920     7.7860     1.0110 H     1 <1>   0.0800 
 55 H        9.7460     9.4240     1.0040 H     1 <1>   0.0800 
 56 H       10.3440     8.6910    -0.4980 H     1 <1>   0.0800 
 57 H        7.0690    11.5800    -2.1690 H     1 <1>   0.1500 
@<TRIPOS>BOND
  1   1   2  ar  
  2   2   3  ar  
  3   2   4  1   
  4   4   5  1   
  5   4   6  1   
  6   4   7  1   
  7   5   8  1   
  8   5   9  1   
  9   5  30  1   
 10   6  10  1   
 11   6  31  1   
 12   6  32  1   
 13   7  11  1   
 14   7  33  1   
 15   7  34  1   
 16   8  12  1   
 17   8  13  1   
 18   8  35  1   
 19   9  14  1   
 20   9  36  1   
 21   9  37  1   
 22  10  14  1   
 23  10  38  1   
 24  10  39  1   
 25  11  12  1   
 26  11  40  1   
 27  11  41  1   
 28  12  42  1   
 29  12  43  1   
 30  13  44  1   
 31  13  45  1   
 32  13  46  1   
 33  14  15  1   
 34  15  16  1   
 35  15  47  1   
 36  15  48  1   
 37  16  17  ar  
 38  16  18  ar  
 39  17  19  ar  
 40  17  49  1   
 41  18  20  ar  
 42  18  50  1   
 43  19  21  ar  
 44  20  21  ar  
 45  21  22  1   
 46  22  23  ar  
 47  22  24  ar  
 48  23  25  1   
 49  23  26  ar  
 50  24  27  ar  
 51  24  51  1   
 52  25  28  1   
 53  26  29  ar  
 54  26  52  1   
 55  27  29  ar  
 56  27  53  1   
 57  28  54  1   
 58  28  55  1   
 59  28  56  1   
 60  29  57  1   
@<TRIPOS>SUBSTRUCTURE
  1 ****  16 GROUP 4 **** **** 0

# MOE 2024.06 (io_trps.svl 2023.06)
