@<TRIPOS>MOLECULE
NONAME
50 52 1 0 0 
SMALL
USER_CHARGES


@<TRIPOS>ATOM
  1 O       -2.0070     1.4030    -2.0990 O.2   1 <1>  -0.5700 
  2 C       -2.4330     1.4850    -0.9620 C.2   1 <1>   0.5440 
  3 N       -1.9670     2.5020    -0.1490 N.am  1 <1>  -0.6600 
  4 C       -3.3970     0.5100    -0.5070 C.ar  1 <1>   0.0860 
  5 C       -1.1880     3.6420    -0.7080 C.3   1 <1>   0.0600 
  6 C       -2.0000     2.4500     1.3390 C.3   1 <1>   0.0600 
  7 C       -3.2220    -0.8400    -0.8000 C.ar  1 <1>   0.1600 
  8 C       -4.5340     0.8500     0.2210 C.ar  1 <1>  -0.1500 
  9 N       -4.0210    -1.8270    -0.4310 N.ar  1 <1>  -0.6200 
 10 C       -5.3790    -0.1610     0.6080 C.ar  1 <1>  -0.1500 
 11 C       -5.0940    -1.4810     0.2680 C.ar  1 <1>   0.4100 
 12 N       -5.9430    -2.4760     0.6630 N.pl3 1 <1>  -0.8690 
 13 C       -5.9570    -3.8320     0.0840 C.3   1 <1>   0.4330 
 14 C       -7.3900    -4.2170    -0.2500 C.ar  1 <1>  -0.1430 
 15 C       -5.3540    -4.7830     1.1110 C.3   1 <1>  -0.1600 
 16 C       -7.8670    -5.4770     0.0960 C.ar  1 <1>   0.0830 
 17 C       -8.2320    -3.3340    -0.9130 C.ar  1 <1>  -0.1500 
 18 C       -5.6860    -6.2430     0.7830 C.3   1 <1>   0.2800 
 19 O       -7.0880    -6.4000     0.7120 O.3   1 <1>  -0.3630 
 20 C       -9.1750    -5.8280    -0.1900 C.ar  1 <1>  -0.1500 
 21 C       -9.5400    -3.6860    -1.2070 C.ar  1 <1>  -0.1430 
 22 C       -5.2060    -7.1580     1.9110 C.3   1 <1>  -0.2400 
 23 C       -5.0880    -6.7120    -0.5510 C.3   1 <1>  -0.2400 
 24 C      -10.0100    -4.9360    -0.8370 C.ar  1 <1>  -0.1500 
 25 C      -10.4530    -2.7100    -1.9270 C.3   1 <1>  -0.0970 
 26 H       -1.3610     3.7350    -1.7670 H     1 <1>   0.0800 
 27 H       -0.1370     3.4780    -0.5430 H     1 <1>   0.0800 
 28 H       -1.4860     4.5590    -0.2320 H     1 <1>   0.0800 
 29 H       -2.2700     1.4680     1.6850 H     1 <1>   0.0800 
 30 H       -2.7130     3.1650     1.7110 H     1 <1>   0.0800 
 31 H       -1.0270     2.6890     1.7330 H     1 <1>   0.0800 
 32 H       -2.3560    -1.1100    -1.3800 H     1 <1>   0.1500 
 33 H       -4.7380     1.8780     0.4630 H     1 <1>   0.1500 
 34 H       -6.2660     0.0520     1.1740 H     1 <1>   0.1500 
 35 H       -6.8490    -2.2230     1.0560 H     1 <1>   0.4000 
 36 H       -5.3790    -3.8620    -0.8240 H     1 <1>   0.0800 
 37 H       -5.7490    -4.5520     2.0830 H     1 <1>   0.0800 
 38 H       -4.2900    -4.6400     1.1350 H     1 <1>   0.0800 
 39 H       -7.8640    -2.3660    -1.2040 H     1 <1>   0.1500 
 40 H       -9.5300    -6.8020     0.0950 H     1 <1>   0.1500 
 41 H       -5.6580    -6.8690     2.8430 H     1 <1>   0.0800 
 42 H       -4.1390    -7.0940     2.0150 H     1 <1>   0.0800 
 43 H       -5.4680    -8.1800     1.7000 H     1 <1>   0.0800 
 44 H       -5.4800    -6.1470    -1.3760 H     1 <1>   0.0800 
 45 H       -5.3160    -7.7500    -0.7120 H     1 <1>   0.0800 
 46 H       -4.0200    -6.5980    -0.5380 H     1 <1>   0.0800 
 47 H      -11.0250    -5.2200    -1.0540 H     1 <1>   0.1500 
 48 H       -9.8790    -2.0380    -2.5400 H     1 <1>   0.0800 
 49 H      -11.0110    -2.1370    -1.2090 H     1 <1>   0.0800 
 50 H      -11.1420    -3.2400    -2.5610 H     1 <1>   0.0800 
@<TRIPOS>BOND
  1   1   2  2   
  2   2   3  am  
  3   2   4  1   
  4   3   5  1   
  5   3   6  1   
  6   4   7  ar  
  7   4   8  ar  
  8   5  26  1   
  9   5  27  1   
 10   5  28  1   
 11   6  29  1   
 12   6  30  1   
 13   6  31  1   
 14   7   9  ar  
 15   7  32  1   
 16   8  10  ar  
 17   8  33  1   
 18   9  11  ar  
 19  10  11  ar  
 20  10  34  1   
 21  11  12  1   
 22  12  13  1   
 23  12  35  1   
 24  13  14  1   
 25  13  15  1   
 26  13  36  1   
 27  14  16  ar  
 28  14  17  ar  
 29  15  18  1   
 30  15  37  1   
 31  15  38  1   
 32  16  19  1   
 33  16  20  ar  
 34  17  21  ar  
 35  17  39  1   
 36  18  19  1   
 37  18  22  1   
 38  18  23  1   
 39  20  24  ar  
 40  20  40  1   
 41  21  24  ar  
 42  21  25  1   
 43  22  41  1   
 44  22  42  1   
 45  22  43  1   
 46  23  44  1   
 47  23  45  1   
 48  23  46  1   
 49  24  47  1   
 50  25  48  1   
 51  25  49  1   
 52  25  50  1   
@<TRIPOS>SUBSTRUCTURE
  1 ****  12 GROUP 4 **** **** 0

# MOE 2024.06 (io_trps.svl 2023.06)
