@<TRIPOS>MOLECULE
NONAME
36 37 1 0 0 
SMALL
USER_CHARGES


@<TRIPOS>ATOM
  1 S       -2.1000    -1.1470    -1.6310 S.3   1 <1>  -0.0800 
  2 C       -1.8630    -0.3500    -0.0810 C.2   1 <1>  -0.1400 
  3 C       -0.3730    -1.1770    -1.9330 C.2   1 <1>  -0.1100 
  4 C       -0.5520    -0.1420     0.1410 C.2   1 <1>  -0.1500 
  5 C       -3.0890    -0.0180     0.7590 C.3   1 <1>   0.0810 
  6 C        0.2960    -0.6130    -0.9120 C.2   1 <1>  -0.1500 
  7 C       -3.6590    -1.2550     1.4460 C.2   1 <1>   0.5690 
  8 O       -3.1840    -1.5410     2.5210 O.2   1 <1>  -0.5700 
  9 N       -4.6650    -2.0160     0.8970 N.am  1 <1>  -0.6600 
 10 C       -5.0840    -3.2890     1.5470 C.3   1 <1>   0.3200 
 11 C       -5.3640    -1.7110    -0.3980 C.3   1 <1>   0.1400 
 12 C       -4.6950    -4.4590     0.6650 C.2   1 <1>  -0.3320 
 13 C       -6.7430    -1.0810    -0.1620 C.3   1 <1>   0.1200 
 14 N       -3.4260    -4.8240     0.3870 N.pl3 1 <1>   0.0480 
 15 C       -5.4960    -5.3280     0.0090 C.2   1 <1>   0.0770 
 16 O       -6.6350    -0.0400     0.7490 O.3   1 <1>  -0.6800 
 17 C       -3.5510    -5.8920    -0.4320 C.2   1 <1>   0.0360 
 18 C       -2.1680    -4.2190     0.8670 C.3   1 <1>   0.0160 
 19 N       -4.7750    -6.2260    -0.6840 N.2   1 <1>  -0.5650 
 20 H       -0.0390    -1.6180    -2.8560 H     1 <1>   0.1500 
 21 H       -0.1330     0.3260     1.0150 H     1 <1>   0.1500 
 22 H       -3.8300     0.4820     0.1670 H     1 <1>   0.0800 
 23 H       -2.7930     0.6710     1.5290 H     1 <1>   0.0800 
 24 H        1.3650    -0.5040    -0.8480 H     1 <1>   0.1500 
 25 H       -6.1500    -3.2800     1.6920 H     1 <1>   0.0800 
 26 H       -4.6280    -3.4050     2.5160 H     1 <1>   0.0800 
 27 H       -5.4800    -2.6130    -0.9740 H     1 <1>   0.0800 
 28 H       -4.7840    -1.0420    -1.0020 H     1 <1>   0.0800 
 29 H       -7.4300    -1.8080     0.2350 H     1 <1>   0.0800 
 30 H       -7.1430    -0.6870    -1.0800 H     1 <1>   0.0800 
 31 H       -6.5730    -5.3570    -0.0060 H     1 <1>   0.1500 
 32 H       -6.2020    -0.3710     1.5620 H     1 <1>   0.4000 
 33 H       -2.6940    -6.4070    -0.8290 H     1 <1>   0.1500 
 34 H       -2.2510    -4.0000     1.9160 H     1 <1>   0.0800 
 35 H       -1.9810    -3.3100     0.3270 H     1 <1>   0.0800 
 36 H       -1.3540    -4.9020     0.7090 H     1 <1>   0.0800 
@<TRIPOS>BOND
  1   1   2  1   
  2   1   3  1   
  3   2   4  2   
  4   2   5  1   
  5   3   6  2   
  6   3  20  1   
  7   4   6  1   
  8   4  21  1   
  9   5   7  1   
 10   5  22  1   
 11   5  23  1   
 12   6  24  1   
 13   7   8  2   
 14   7   9  am  
 15   9  10  1   
 16   9  11  1   
 17  10  12  1   
 18  10  25  1   
 19  10  26  1   
 20  11  13  1   
 21  11  27  1   
 22  11  28  1   
 23  12  14  1   
 24  12  15  2   
 25  13  16  1   
 26  13  29  1   
 27  13  30  1   
 28  14  17  1   
 29  14  18  1   
 30  15  19  1   
 31  15  31  1   
 32  16  32  1   
 33  17  19  2   
 34  17  33  1   
 35  18  34  1   
 36  18  35  1   
 37  18  36  1   
@<TRIPOS>SUBSTRUCTURE
  1 ****   9 GROUP 4 **** **** 0

# MOE 2024.06 (io_trps.svl 2023.06)
