@<TRIPOS>MOLECULE
NONAME
39 40 1 0 0 
SMALL
USER_CHARGES


@<TRIPOS>ATOM
  1 O       -0.3130    -0.3080     0.3320 O.2   1 <1>  -0.5700 
  2 C       -0.2530    -1.5200     0.2720 C.2   1 <1>   0.5440 
  3 N       -1.4360    -2.1650     0.3420 N.am  1 <1>  -0.8000 
  4 C        1.0120    -2.2160     0.1520 C.ar  1 <1>   0.0860 
  5 C        1.1390    -3.5250    -0.3620 C.ar  1 <1>   0.4100 
  6 C        2.1770    -1.5850     0.5660 C.ar  1 <1>  -0.1500 
  7 N        2.2990    -4.1730    -0.4390 N.ar  1 <1>  -0.6200 
  8 N        0.0630    -4.2410    -0.8700 N.pl3 1 <1>  -0.8380 
  9 C        3.3800    -2.2510     0.4780 C.ar  1 <1>  -0.1430 
 10 C        3.3800    -3.5460    -0.0270 C.ar  1 <1>   0.1670 
 11 C       -0.0450    -5.6890    -0.5170 C.3   1 <1>   0.2090 
 12 C       -0.3380    -3.9180    -2.2670 C.3   1 <1>   0.1290 
 13 C        4.6530    -1.5490     0.9330 C.3   1 <1>  -0.0970 
 14 C        4.6690    -4.3390    -0.1420 C.3   1 <1>  -0.0970 
 15 C       -1.5080    -6.1110    -0.3360 C.3   1 <1>   0.0000 
 16 C       -2.2400    -5.4790     0.8770 C.3   1 <1>   0.0000 
 17 C       -1.6900    -7.4830     0.3650 C.3   1 <1>   0.0000 
 18 C       -2.9090    -6.8610     1.0940 C.3   1 <1>   0.0000 
 19 H       -2.3080    -1.6400     0.3480 H     1 <1>   0.3700 
 20 H       -1.4620    -3.1610     0.0930 H     1 <1>   0.3700 
 21 H        2.1270    -0.5820     0.9540 H     1 <1>   0.1500 
 22 H        0.4910    -5.8690     0.4010 H     1 <1>   0.0800 
 23 H        0.4180    -6.2820    -1.2870 H     1 <1>   0.0800 
 24 H       -0.0790    -2.8990    -2.5020 H     1 <1>   0.0800 
 25 H       -1.4000    -4.0380    -2.3850 H     1 <1>   0.0800 
 26 H        0.1740    -4.5690    -2.9550 H     1 <1>   0.0800 
 27 H        4.4580    -0.5220     1.1830 H     1 <1>   0.0800 
 28 H        5.3880    -1.5680     0.1490 H     1 <1>   0.0800 
 29 H        5.0530    -2.0390     1.8020 H     1 <1>   0.0800 
 30 H        4.4560    -5.3680    -0.3680 H     1 <1>   0.0800 
 31 H        5.2160    -4.3040     0.7810 H     1 <1>   0.0800 
 32 H        5.2730    -3.9340    -0.9330 H     1 <1>   0.0800 
 33 H       -2.0870    -6.0570    -1.2430 H     1 <1>   0.0000 
 34 H       -2.9340    -4.7010     0.6090 H     1 <1>   0.0000 
 35 H       -1.5770    -5.2100     1.6810 H     1 <1>   0.0000 
 36 H       -0.8890    -7.7280     1.0420 H     1 <1>   0.0000 
 37 H       -1.9470    -8.2840    -0.3050 H     1 <1>   0.0000 
 38 H       -3.8250    -6.9710     0.5390 H     1 <1>   0.0000 
 39 H       -2.9920    -7.1470     2.1270 H     1 <1>   0.0000 
@<TRIPOS>BOND
  1   1   2  2   
  2   2   3  am  
  3   2   4  1   
  4   3  19  1   
  5   3  20  1   
  6   4   5  ar  
  7   4   6  ar  
  8   5   7  ar  
  9   5   8  1   
 10   6   9  ar  
 11   6  21  1   
 12   7  10  ar  
 13   8  11  1   
 14   8  12  1   
 15   9  10  ar  
 16   9  13  1   
 17  10  14  1   
 18  11  15  1   
 19  11  22  1   
 20  11  23  1   
 21  12  24  1   
 22  12  25  1   
 23  12  26  1   
 24  13  27  1   
 25  13  28  1   
 26  13  29  1   
 27  14  30  1   
 28  14  31  1   
 29  14  32  1   
 30  15  16  1   
 31  15  17  1   
 32  15  33  1   
 33  16  18  1   
 34  16  34  1   
 35  16  35  1   
 36  17  18  1   
 37  17  36  1   
 38  17  37  1   
 39  18  38  1   
 40  18  39  1   
@<TRIPOS>SUBSTRUCTURE
  1 ****   5 GROUP 4 **** **** 0

# MOE 2024.06 (io_trps.svl 2023.06)
