@<TRIPOS>MOLECULE
NONAME
39 41 1 0 0 
SMALL
USER_CHARGES


@<TRIPOS>ATOM
  1 O        0.1240    -2.5540     2.0120 O.co2 1 <1>  -0.9000 
  2 C       -0.0740    -2.0640     0.8870 C.2   1 <1>   1.0330 
  3 O       -1.0070    -1.2560     0.7400 O.co2 1 <1>  -0.9000 
  4 C        0.7450    -2.4270    -0.2200 C.2   1 <1>  -0.2330 
  5 C        0.5440    -3.5300    -1.0500 C.2   1 <1>   0.3720 
  6 C        1.8630    -1.8440    -0.7200 C.2   1 <1>   0.0870 
  7 N        1.4600    -3.6040    -1.9510 N.2   1 <1>  -0.4100 
  8 N       -0.4960    -4.4600    -0.9720 N.pl3 1 <1>  -0.8210 
  9 O        2.2460    -2.5810    -1.7370 O.3   1 <1>  -0.0190 
 10 C        2.6170    -0.6670    -0.3510 C.ar  1 <1>   0.0530 
 11 C       -0.4860    -5.2510     0.2860 C.3   1 <1>   0.2090 
 12 C       -1.8310    -3.8680    -1.2300 C.3   1 <1>   0.2090 
 13 C        2.0560     0.3680     0.3990 C.ar  1 <1>  -0.1500 
 14 C        3.9500    -0.5190    -0.7400 C.ar  1 <1>  -0.1500 
 15 C       -1.4680    -6.4270     0.1770 C.3   1 <1>  -0.0800 
 16 C       -2.8470    -5.0000    -1.4070 C.3   1 <1>  -0.1600 
 17 C        2.7860     1.4890     0.7460 C.ar  1 <1>  -0.1500 
 18 C        4.6860     0.6010    -0.3990 C.ar  1 <1>  -0.1500 
 19 C       -2.8840    -5.9180    -0.1740 C.3   1 <1>  -0.1600 
 20 C       -1.4390    -7.2140     1.4950 C.3   1 <1>   0.1200 
 21 C        4.1050     1.6100     0.3470 C.ar  1 <1>  -0.1500 
 22 O       -2.2920    -8.3020     1.4150 O.3   1 <1>  -0.6800 
 23 H       -0.7750    -4.6260     1.1130 H     1 <1>   0.0800 
 24 H        0.5120    -5.6130     0.4680 H     1 <1>   0.0800 
 25 H       -1.7890    -3.2630    -2.1200 H     1 <1>   0.0800 
 26 H       -2.1240    -3.2390    -0.4060 H     1 <1>   0.0800 
 27 H        1.0290     0.3000     0.7150 H     1 <1>   0.1500 
 28 H        4.4140    -1.2980    -1.3180 H     1 <1>   0.1500 
 29 H       -1.1100    -7.0690    -0.6090 H     1 <1>   0.0800 
 30 H       -2.5760    -5.5680    -2.2790 H     1 <1>   0.0800 
 31 H       -3.8200    -4.5750    -1.5740 H     1 <1>   0.0800 
 32 H        2.3220     2.2660     1.3270 H     1 <1>   0.1500 
 33 H        5.7120     0.6860    -0.7130 H     1 <1>   0.1500 
 34 H       -3.2790    -5.3630     0.6600 H     1 <1>   0.0800 
 35 H       -3.5410    -6.7460    -0.3750 H     1 <1>   0.0800 
 36 H       -1.7550    -6.5950     2.3180 H     1 <1>   0.0800 
 37 H       -0.4480    -7.5860     1.6950 H     1 <1>   0.0800 
 38 H        4.6740     2.4820     0.6180 H     1 <1>   0.1500 
 39 H       -3.1890    -7.9990     1.1790 H     1 <1>   0.4000 
@<TRIPOS>BOND
  1   1   2  ar  
  2   2   3  ar  
  3   2   4  1   
  4   4   5  1   
  5   4   6  2   
  6   5   7  2   
  7   5   8  1   
  8   6   9  1   
  9   6  10  1   
 10   7   9  1   
 11   8  11  1   
 12   8  12  1   
 13  10  13  ar  
 14  10  14  ar  
 15  11  15  1   
 16  11  23  1   
 17  11  24  1   
 18  12  16  1   
 19  12  25  1   
 20  12  26  1   
 21  13  17  ar  
 22  13  27  1   
 23  14  18  ar  
 24  14  28  1   
 25  15  19  1   
 26  15  20  1   
 27  15  29  1   
 28  16  19  1   
 29  16  30  1   
 30  16  31  1   
 31  17  21  ar  
 32  17  32  1   
 33  18  21  ar  
 34  18  33  1   
 35  19  34  1   
 36  19  35  1   
 37  20  22  1   
 38  20  36  1   
 39  20  37  1   
 40  21  38  1   
 41  22  39  1   
@<TRIPOS>SUBSTRUCTURE
  1 ****   4 GROUP 4 **** **** 0

# MOE 2024.06 (io_trps.svl 2023.06)
