@<TRIPOS>MOLECULE
NONAME
50 53 1 0 0 
SMALL
USER_CHARGES


@<TRIPOS>ATOM
  1 O        0.3890     0.7900    -0.6350 O.2   1 <1>  -0.5700 
  2 C       -0.2700     1.7030    -0.1930 C.2   1 <1>   0.5690 
  3 N       -1.6420     1.6610    -0.1860 N.am  1 <1>  -0.6600 
  4 C        0.4640     2.9220     0.3460 C.3   1 <1>  -0.0990 
  5 C       -2.5480     2.7760     0.2380 C.3   1 <1>   0.1400 
  6 C       -2.3810     0.4430    -0.6230 C.3   1 <1>   0.1400 
  7 C        1.9720     2.7050     0.5310 C.3   1 <1>   0.0200 
  8 C       -3.4750     3.1960    -0.9200 C.3   1 <1>   0.1440 
  9 C       -3.3170     0.7880    -1.7870 C.3   1 <1>  -0.1600 
 10 C        2.6280     3.9830     1.0300 C.2   1 <1>  -0.3320 
 11 C       -4.4540     4.2610    -0.4610 C.ar  1 <1>   0.1670 
 12 C       -4.2490     1.9680    -1.4510 C.3   1 <1>  -0.1600 
 13 C       -2.7050     3.9260    -2.0540 C.3   1 <1>  -0.1600 
 14 N        3.0370     5.0080     0.2470 N.pl3 1 <1>   0.3140 
 15 C        2.9180     4.3280     2.3030 C.2   1 <1>  -0.1500 
 16 N       -5.1700     4.2140     0.6400 N.ar  1 <1>  -0.6200 
 17 C       -4.5130     5.3020    -1.3390 C.ar  1 <1>  -0.1440 
 18 C       -3.5900     5.0980    -2.5130 C.3   1 <1>  -0.0170 
 19 N        3.5700     6.0000     0.9790 N.2   1 <1>  -0.7070 
 20 C        2.9690     5.1040    -1.2170 C.3   1 <1>   0.0160 
 21 C        3.4980     5.5860     2.2060 C.2   1 <1>   0.1390 
 22 C       -5.9590     5.2630     0.8260 C.ar  1 <1>   0.4770 
 23 C       -5.3650     6.3380    -1.0460 C.ar  1 <1>   0.1600 
 24 N       -6.0990     6.3280     0.0470 N.ar  1 <1>  -0.6200 
 25 C       -6.8060     5.2510     2.0750 C.3   1 <1>  -0.0970 
 26 H        0.0500     3.1820     1.3020 H     1 <1>   0.0800 
 27 H        0.3010     3.7400    -0.3290 H     1 <1>   0.0800 
 28 H       -1.9970     3.6330     0.5780 H     1 <1>   0.0800 
 29 H       -3.1500     2.4330     1.0620 H     1 <1>   0.0800 
 30 H       -2.9550     0.0680     0.2080 H     1 <1>   0.0800 
 31 H       -1.6990    -0.3330    -0.9270 H     1 <1>   0.0800 
 32 H        2.4260     2.3930    -0.3940 H     1 <1>   0.0800 
 33 H        2.1280     1.9190     1.2500 H     1 <1>   0.0800 
 34 H       -3.9100    -0.0770    -2.0260 H     1 <1>   0.0800 
 35 H       -2.7190     1.0130    -2.6510 H     1 <1>   0.0800 
 36 H       -4.8240     2.2410    -2.3180 H     1 <1>   0.0800 
 37 H       -4.9440     1.6490    -0.6920 H     1 <1>   0.0800 
 38 H       -2.4510     3.2790    -2.8730 H     1 <1>   0.0800 
 39 H       -1.7920     4.3350    -1.6580 H     1 <1>   0.0800 
 40 H        2.7500     3.7770     3.2100 H     1 <1>   0.1500 
 41 H       -4.1650     4.8240    -3.3800 H     1 <1>   0.0800 
 42 H       -3.0080     5.9790    -2.7220 H     1 <1>   0.0800 
 43 H        1.9410     5.1240    -1.5230 H     1 <1>   0.0800 
 44 H        3.4680     4.2580    -1.6500 H     1 <1>   0.0800 
 45 H        3.4570     6.0080    -1.5320 H     1 <1>   0.0800 
 46 H        3.8510     6.1600     3.0460 H     1 <1>   0.1500 
 47 H       -5.4480     7.1820    -1.7090 H     1 <1>   0.1500 
 48 H       -6.4740     4.4820     2.7480 H     1 <1>   0.0800 
 49 H       -7.8290     5.0670     1.8070 H     1 <1>   0.0800 
 50 H       -6.7360     6.2020     2.5690 H     1 <1>   0.0800 
@<TRIPOS>BOND
  1   1   2  2   
  2   2   3  am  
  3   2   4  1   
  4   3   5  1   
  5   3   6  1   
  6   4   7  1   
  7   4  26  1   
  8   4  27  1   
  9   5   8  1   
 10   5  28  1   
 11   5  29  1   
 12   6   9  1   
 13   6  30  1   
 14   6  31  1   
 15   7  10  1   
 16   7  32  1   
 17   7  33  1   
 18   8  11  1   
 19   8  12  1   
 20   8  13  1   
 21   9  12  1   
 22   9  34  1   
 23   9  35  1   
 24  10  14  1   
 25  10  15  2   
 26  11  16  ar  
 27  11  17  ar  
 28  12  36  1   
 29  12  37  1   
 30  13  18  1   
 31  13  38  1   
 32  13  39  1   
 33  14  19  1   
 34  14  20  1   
 35  15  21  1   
 36  15  40  1   
 37  16  22  ar  
 38  17  18  1   
 39  17  23  ar  
 40  18  41  1   
 41  18  42  1   
 42  19  21  2   
 43  20  43  1   
 44  20  44  1   
 45  20  45  1   
 46  21  46  1   
 47  22  24  ar  
 48  22  25  1   
 49  23  24  ar  
 50  23  47  1   
 51  25  48  1   
 52  25  49  1   
 53  25  50  1   
@<TRIPOS>SUBSTRUCTURE
  1 ****   5 GROUP 4 **** **** 0

# MOE 2024.06 (io_trps.svl 2023.06)
