@<TRIPOS>MOLECULE
NONAME
42 43 1 0 0 
SMALL
USER_CHARGES


@<TRIPOS>ATOM
  1 S        0.5710    -0.0610     1.6820 S.3   1 <1>  -0.0800 
  2 C        1.7010    -0.6620     0.5000 C.2   1 <1>  -0.1400 
  3 C       -0.6350    -1.1550     1.0450 C.2   1 <1>   0.1980 
  4 C        1.0870    -1.5960    -0.2460 C.2   1 <1>   0.0460 
  5 C        3.0960    -0.0760     0.5070 C.3   1 <1>   0.3890 
  6 N       -0.2350    -1.8680     0.0720 N.2   1 <1>  -0.5650 
  7 C       -1.9970    -1.1460     1.6960 C.3   1 <1>  -0.0600 
  8 C        1.6890    -2.3750    -1.4040 C.3   1 <1>   0.0210 
  9 N        3.0190     1.3030    -0.0020 N.pl3 1 <1>  -0.8690 
 10 C        1.9340    -3.8390    -1.0240 C.3   1 <1>  -0.2400 
 11 C        4.0360     2.2090     0.1450 C.ar  1 <1>   0.4100 
 12 N        5.2130     1.7270     0.4870 N.ar  1 <1>  -0.6200 
 13 C        3.8340     3.5690    -0.0580 C.ar  1 <1>  -0.1430 
 14 C        6.1800     2.6090     0.6240 C.ar  1 <1>   0.4770 
 15 C        4.9280     4.3800     0.1230 C.ar  1 <1>   0.1600 
 16 C        2.4500     4.0900    -0.4610 C.3   1 <1>  -0.0170 
 17 N        6.1130     3.9160     0.4660 N.ar  1 <1>  -0.6200 
 18 C        7.5280     2.0570     1.0170 C.3   1 <1>  -0.0970 
 19 C        2.3630     5.6030    -0.7100 C.3   1 <1>  -0.1600 
 20 C        0.9470     6.0190    -1.1230 C.3   1 <1>  -0.2400 
 21 H        3.7530    -0.6490    -0.1230 H     1 <1>   0.0800 
 22 H        3.4920    -0.0780     1.5090 H     1 <1>   0.0800 
 23 H       -1.9050    -1.4020     2.7350 H     1 <1>   0.0800 
 24 H       -2.6340    -1.8640     1.2130 H     1 <1>   0.0800 
 25 H       -2.4370    -0.1700     1.6070 H     1 <1>   0.0800 
 26 H        2.6170    -1.9250    -1.7050 H     1 <1>   0.0800 
 27 H        1.0150    -2.3260    -2.2410 H     1 <1>   0.0800 
 28 H        2.0620     1.6550    -0.0350 H     1 <1>   0.4000 
 29 H        2.6070    -3.8970    -0.1870 H     1 <1>   0.0800 
 30 H        2.3610    -4.3720    -1.8540 H     1 <1>   0.0800 
 31 H        1.0040    -4.3070    -0.7520 H     1 <1>   0.0800 
 32 H        4.8580     5.4440    -0.0120 H     1 <1>   0.1500 
 33 H        1.7510     3.8290     0.3160 H     1 <1>   0.0800 
 34 H        2.1470     3.5780    -1.3590 H     1 <1>   0.0800 
 35 H        7.6720     1.0890     0.5750 H     1 <1>   0.0800 
 36 H        7.5760     1.9690     2.0860 H     1 <1>   0.0800 
 37 H        8.3100     2.7120     0.6810 H     1 <1>   0.0800 
 38 H        3.0490     5.8800    -1.4920 H     1 <1>   0.0800 
 39 H        2.6330     6.1340     0.1870 H     1 <1>   0.0800 
 40 H        0.6560     5.5200    -2.0310 H     1 <1>   0.0800 
 41 H        0.9110     7.0810    -1.2920 H     1 <1>   0.0800 
 42 H        0.2400     5.7740    -0.3490 H     1 <1>   0.0800 
@<TRIPOS>BOND
  1   1   2  1   
  2   1   3  1   
  3   2   4  2   
  4   2   5  1   
  5   3   6  2   
  6   3   7  1   
  7   4   6  1   
  8   4   8  1   
  9   5   9  1   
 10   5  21  1   
 11   5  22  1   
 12   7  23  1   
 13   7  24  1   
 14   7  25  1   
 15   8  10  1   
 16   8  26  1   
 17   8  27  1   
 18   9  11  1   
 19   9  28  1   
 20  10  29  1   
 21  10  30  1   
 22  10  31  1   
 23  11  12  ar  
 24  11  13  ar  
 25  12  14  ar  
 26  13  15  ar  
 27  13  16  1   
 28  14  17  ar  
 29  14  18  1   
 30  15  17  ar  
 31  15  32  1   
 32  16  19  1   
 33  16  33  1   
 34  16  34  1   
 35  18  35  1   
 36  18  36  1   
 37  18  37  1   
 38  19  20  1   
 39  19  38  1   
 40  19  39  1   
 41  20  40  1   
 42  20  41  1   
 43  20  42  1   
@<TRIPOS>SUBSTRUCTURE
  1 ****   9 GROUP 4 **** **** 0

# MOE 2024.06 (io_trps.svl 2023.06)
