@<TRIPOS>MOLECULE
NONAME
53 55 1 0 0 
SMALL
USER_CHARGES


@<TRIPOS>ATOM
  1 O        2.8590    -1.0000     2.2600 O.2   1 <1>  -0.5700 
  2 C        2.8300    -1.1360     1.0510 C.2   1 <1>   0.5440 
  3 N        3.1840    -0.0670     0.2520 N.am  1 <1>  -0.6600 
  4 C        2.4550    -2.4210     0.4950 C.ar  1 <1>   0.0860 
  5 C        3.4510    -0.1610    -1.2200 C.3   1 <1>   0.1400 
  6 C        3.4750     1.2680     0.8390 C.3   1 <1>   0.1400 
  7 C        1.3430    -2.5640    -0.3310 C.ar  1 <1>  -0.1500 
  8 C        3.2020    -3.5630     0.7790 C.ar  1 <1>  -0.1500 
  9 C        4.9510    -0.2660    -1.5390 C.3   1 <1>   0.1400 
 10 C        4.9050     1.3450     1.3940 C.3   1 <1>  -0.1600 
 11 C        0.9960    -3.7870    -0.8760 C.ar  1 <1>   0.0830 
 12 C        2.8650    -4.7940     0.2440 C.ar  1 <1>  -0.1500 
 13 N        5.7480     0.8310    -0.9050 N.am  1 <1>  -0.6600 
 14 C        5.9750     0.6350     0.5540 C.3   1 <1>   0.1400 
 15 O       -0.0980    -3.8090    -1.6770 O.3   1 <1>  -0.3630 
 16 C        1.7650    -4.9100    -0.5870 C.ar  1 <1>  -0.1500 
 17 C        6.1960     1.9010    -1.6440 C.2   1 <1>   0.5690 
 18 C       -0.5860    -5.0150    -2.2220 C.3   1 <1>   0.0400 
 19 O        5.9110     2.0090    -2.8150 O.2   1 <1>  -0.5700 
 20 C        7.0280     3.0220    -1.0270 C.3   1 <1>   0.0820 
 21 C        8.3960     2.5840    -0.5120 C.2   1 <1>  -0.1810 
 22 C        8.9400     2.8600     0.7420 C.2   1 <1>   0.1080 
 23 C        9.3430     1.8510    -1.1410 C.2   1 <1>  -0.3320 
 24 N       10.1120     2.3330     0.8960 N.2   1 <1>  -0.7070 
 25 C        8.2930     3.6720     1.8430 C.3   1 <1>  -0.0590 
 26 N       10.3620     1.7120    -0.2690 N.pl3 1 <1>   0.3000 
 27 C        9.3660     1.2550    -2.5390 C.3   1 <1>  -0.0600 
 28 H        3.0530     0.7100    -1.7110 H     1 <1>   0.0800 
 29 H        2.9540    -1.0130    -1.6430 H     1 <1>   0.0800 
 30 H        2.7720     1.4740     1.6290 H     1 <1>   0.0800 
 31 H        3.3450     2.0230     0.0830 H     1 <1>   0.0800 
 32 H        0.7360    -1.7050    -0.5520 H     1 <1>   0.1500 
 33 H        4.0530    -3.4750     1.4320 H     1 <1>   0.1500 
 34 H        5.0790    -0.2420    -2.6080 H     1 <1>   0.0800 
 35 H        5.3190    -1.2180    -1.2000 H     1 <1>   0.0800 
 36 H        4.9110     0.9110     2.3770 H     1 <1>   0.0800 
 37 H        5.1690     2.3790     1.5120 H     1 <1>   0.0800 
 38 H        3.4580    -5.6620     0.4770 H     1 <1>   0.1500 
 39 H        5.9370    -0.4190     0.7740 H     1 <1>   0.0800 
 40 H        6.9550     0.9710     0.8390 H     1 <1>   0.0800 
 41 H        1.5230    -5.8750    -0.9920 H     1 <1>   0.1500 
 42 H       -1.4700    -4.7910    -2.7910 H     1 <1>   0.0800 
 43 H       -0.8290    -5.6880    -1.4180 H     1 <1>   0.0800 
 44 H        0.1660    -5.4370    -2.8650 H     1 <1>   0.0800 
 45 H        6.4550     3.4630    -0.2370 H     1 <1>   0.0800 
 46 H        7.1800     3.7820    -1.7710 H     1 <1>   0.0800 
 47 H        7.8820     4.5790     1.4410 H     1 <1>   0.0800 
 48 H        9.0300     3.9270     2.5830 H     1 <1>   0.0800 
 49 H        7.5180     3.0980     2.3120 H     1 <1>   0.0800 
 50 H       11.2400     1.2070    -0.4400 H     1 <1>   0.2700 
 51 H        8.5460     1.6260    -3.1270 H     1 <1>   0.0800 
 52 H        9.2900     0.1840    -2.4860 H     1 <1>   0.0800 
 53 H       10.2800     1.5180    -3.0410 H     1 <1>   0.0800 
@<TRIPOS>BOND
  1   1   2  2   
  2   2   3  am  
  3   2   4  1   
  4   3   5  1   
  5   3   6  1   
  6   4   7  ar  
  7   4   8  ar  
  8   5   9  1   
  9   5  28  1   
 10   5  29  1   
 11   6  10  1   
 12   6  30  1   
 13   6  31  1   
 14   7  11  ar  
 15   7  32  1   
 16   8  12  ar  
 17   8  33  1   
 18   9  13  1   
 19   9  34  1   
 20   9  35  1   
 21  10  14  1   
 22  10  36  1   
 23  10  37  1   
 24  11  15  1   
 25  11  16  ar  
 26  12  16  ar  
 27  12  38  1   
 28  13  14  1   
 29  13  17  am  
 30  14  39  1   
 31  14  40  1   
 32  15  18  1   
 33  16  41  1   
 34  17  19  2   
 35  17  20  1   
 36  18  42  1   
 37  18  43  1   
 38  18  44  1   
 39  20  21  1   
 40  20  45  1   
 41  20  46  1   
 42  21  22  1   
 43  21  23  2   
 44  22  24  2   
 45  22  25  1   
 46  23  26  1   
 47  23  27  1   
 48  24  26  1   
 49  25  47  1   
 50  25  48  1   
 51  25  49  1   
 52  26  50  1   
 53  27  51  1   
 54  27  52  1   
 55  27  53  1   
@<TRIPOS>SUBSTRUCTURE
  1 ****   9 GROUP 4 **** **** 0

# MOE 2024.06 (io_trps.svl 2023.06)
