@<TRIPOS>MOLECULE
NONAME
48 50 1 0 0 
SMALL
USER_CHARGES


@<TRIPOS>ATOM
  1 S       -0.2140     0.2890    -1.2070 S.3   1 <1>  -0.0800 
  2 C       -1.5210     0.7530    -0.1270 C.2   1 <1>  -0.1400 
  3 C        0.8900     1.4050    -0.4240 C.2   1 <1>  -0.1100 
  4 C       -1.1000     1.6900     0.7430 C.2   1 <1>  -0.1500 
  5 C       -2.8670     0.0810    -0.3200 C.3   1 <1>   0.0200 
  6 C        0.2720     2.0610     0.5760 C.2   1 <1>  -0.1500 
  7 C       -2.8250    -1.3900     0.1160 C.3   1 <1>  -0.1600 
  8 C       -4.1920    -2.0780    -0.0660 C.3   1 <1>  -0.0990 
  9 C       -4.2240    -3.5420     0.3600 C.2   1 <1>   0.5690 
 10 O       -3.2640    -4.0230     0.9150 O.2   1 <1>  -0.5700 
 11 N       -5.3420    -4.2860     0.1080 N.am  1 <1>  -0.6600 
 12 C       -6.5760    -3.8450    -0.5900 C.3   1 <1>   0.1400 
 13 C       -5.4810    -5.6910     0.5470 C.3   1 <1>   0.1400 
 14 C       -7.5550    -5.0240    -0.4870 C.3   1 <1>   0.2000 
 15 C       -6.6480    -6.2420    -0.2760 C.3   1 <1>  -0.0800 
 16 O       -8.3690    -4.8660     0.6400 O.3   1 <1>  -0.5600 
 17 C       -7.3420    -7.4530     0.3740 C.3   1 <1>   0.0200 
 18 C       -9.5280    -4.1200     0.4390 C.3   1 <1>   0.0400 
 19 C       -6.4720    -8.6990     0.4060 C.2   1 <1>  -0.0400 
 20 O       -6.9320    -9.7700     0.9970 O.3   1 <1>  -0.0190 
 21 C       -5.2490    -8.9890    -0.0680 C.2   1 <1>  -0.1500 
 22 N       -6.0850   -10.7570     0.9460 N.2   1 <1>  -0.4100 
 23 C       -5.0610   -10.3150     0.3110 C.2   1 <1>   0.1080 
 24 C       -3.8210   -11.1320     0.0210 C.3   1 <1>  -0.0590 
 25 H        1.8970     1.4510    -0.7990 H     1 <1>   0.1500 
 26 H       -1.7020     2.1450     1.5100 H     1 <1>   0.1500 
 27 H       -3.6020     0.6050     0.2650 H     1 <1>   0.0800 
 28 H       -3.1490     0.1530    -1.3550 H     1 <1>   0.0800 
 29 H        0.7260     2.7990     1.2130 H     1 <1>   0.1500 
 30 H       -2.0840    -1.9170    -0.4620 H     1 <1>   0.0800 
 31 H       -2.5300    -1.4430     1.1500 H     1 <1>   0.0800 
 32 H       -4.4700    -2.0230    -1.1010 H     1 <1>   0.0800 
 33 H       -4.9290    -1.5540     0.5130 H     1 <1>   0.0800 
 34 H       -6.9790    -2.9560    -0.1390 H     1 <1>   0.0800 
 35 H       -6.3410    -3.6590    -1.6230 H     1 <1>   0.0800 
 36 H       -4.5690    -6.2370     0.3800 H     1 <1>   0.0800 
 37 H       -5.7190    -5.7020     1.5970 H     1 <1>   0.0800 
 38 H       -8.1740    -5.1320    -1.3620 H     1 <1>   0.0800 
 39 H       -6.2640    -6.5350    -1.2370 H     1 <1>   0.0800 
 40 H       -8.2390    -7.6830    -0.1720 H     1 <1>   0.0800 
 41 H       -7.6290    -7.2110     1.3830 H     1 <1>   0.0800 
 42 H      -10.0510    -4.0600     1.3770 H     1 <1>   0.0800 
 43 H      -10.1480    -4.6170    -0.2870 H     1 <1>   0.0800 
 44 H       -9.2690    -3.1310     0.1060 H     1 <1>   0.0800 
 45 H       -4.5490    -8.3850    -0.6130 H     1 <1>   0.1500 
 46 H       -2.9630   -10.6590     0.4610 H     1 <1>   0.0800 
 47 H       -3.6790   -11.2120    -1.0410 H     1 <1>   0.0800 
 48 H       -3.9270   -12.1180     0.4350 H     1 <1>   0.0800 
@<TRIPOS>BOND
  1   1   2  1   
  2   1   3  1   
  3   2   4  2   
  4   2   5  1   
  5   3   6  2   
  6   3  25  1   
  7   4   6  1   
  8   4  26  1   
  9   5   7  1   
 10   5  27  1   
 11   5  28  1   
 12   6  29  1   
 13   7   8  1   
 14   7  30  1   
 15   7  31  1   
 16   8   9  1   
 17   8  32  1   
 18   8  33  1   
 19   9  10  2   
 20   9  11  am  
 21  11  12  1   
 22  11  13  1   
 23  12  14  1   
 24  12  34  1   
 25  12  35  1   
 26  13  15  1   
 27  13  36  1   
 28  13  37  1   
 29  14  15  1   
 30  14  16  1   
 31  14  38  1   
 32  15  17  1   
 33  15  39  1   
 34  16  18  1   
 35  17  19  1   
 36  17  40  1   
 37  17  41  1   
 38  18  42  1   
 39  18  43  1   
 40  18  44  1   
 41  19  20  1   
 42  19  21  2   
 43  20  22  1   
 44  21  23  1   
 45  21  45  1   
 46  22  23  2   
 47  23  24  1   
 48  24  46  1   
 49  24  47  1   
 50  24  48  1   
@<TRIPOS>SUBSTRUCTURE
  1 ****  11 GROUP 4 **** **** 0

# MOE 2024.06 (io_trps.svl 2023.06)
