@<TRIPOS>MOLECULE
NONAME
38 40 1 0 0 
SMALL
USER_CHARGES


@<TRIPOS>ATOM
  1 S        0.6770    -0.2940     0.4340 S.o2  1 <1>   1.5760 
  2 O        0.7230     0.0400    -0.9640 O.2   1 <1>  -0.6500 
  3 O        1.8410    -0.4340     1.2630 O.2   1 <1>  -0.6500 
  4 N       -0.3210    -1.5940     0.7000 N.am  1 <1>  -0.9140 
  5 N       -0.2540     0.8220     1.1960 N.am  1 <1>  -0.9780 
  6 C       -1.4140    -1.6940    -0.2550 C.3   1 <1>   0.2760 
  7 C       -2.4530    -2.6500     0.3160 C.3   1 <1>  -0.0800 
  8 C       -0.9680    -2.4570    -1.5030 C.3   1 <1>   0.1200 
  9 C       -1.9430    -4.0240    -0.1510 C.3   1 <1>   0.1200 
 10 C       -3.8640    -2.3420    -0.2310 C.3   1 <1>  -0.0170 
 11 O       -0.9640    -3.7950    -1.1210 O.3   1 <1>  -0.5600 
 12 C       -5.0030    -3.2330     0.2820 C.ar  1 <1>  -0.1430 
 13 C       -6.2790    -3.1680    -0.3310 C.ar  1 <1>   0.0000 
 14 C       -4.8640    -4.1030     1.3270 C.ar  1 <1>  -0.1500 
 15 C       -7.2980    -4.0230     0.1580 C.ar  1 <1>   0.3100 
 16 C       -6.6100    -2.2990    -1.3990 C.ar  1 <1>  -0.1500 
 17 C       -5.9400    -4.8990     1.7380 C.ar  1 <1>   0.1600 
 18 N       -7.1110    -4.8810     1.1900 N.ar  1 <1>  -0.6200 
 19 C       -8.5670    -3.9890    -0.4430 C.ar  1 <1>  -0.1500 
 20 C       -7.8580    -2.2870    -1.9600 C.ar  1 <1>  -0.1500 
 21 C       -8.8500    -3.1430    -1.4800 C.ar  1 <1>  -0.1500 
 22 H        0.2660    -2.4100     0.5290 H     1 <1>   0.4200 
 23 H        0.2780     1.6790     1.0970 H     1 <1>   0.4200 
 24 H       -0.1560     0.5550     2.1690 H     1 <1>   0.4200 
 25 H       -1.8230    -0.7210    -0.4780 H     1 <1>   0.0800 
 26 H       -2.4740    -2.5800     1.3900 H     1 <1>   0.0800 
 27 H        0.0090    -2.1800    -1.8570 H     1 <1>   0.0800 
 28 H       -1.6810    -2.3420    -2.3000 H     1 <1>   0.0800 
 29 H       -2.7220    -4.6270    -0.5870 H     1 <1>   0.0800 
 30 H       -1.4820    -4.5630     0.6590 H     1 <1>   0.0800 
 31 H       -3.8300    -2.4240    -1.3030 H     1 <1>   0.0800 
 32 H       -4.1110    -1.3230     0.0120 H     1 <1>   0.0800 
 33 H       -3.9470    -4.2180     1.8720 H     1 <1>   0.1500 
 34 H       -5.8700    -1.6240    -1.7840 H     1 <1>   0.1500 
 35 H       -5.7810    -5.5720     2.5640 H     1 <1>   0.1500 
 36 H       -9.3150    -4.6550    -0.0540 H     1 <1>   0.1500 
 37 H       -8.0910    -1.6210    -2.7730 H     1 <1>   0.1500 
 38 H       -9.8280    -3.1270    -1.9310 H     1 <1>   0.1500 
@<TRIPOS>BOND
  1   1   2  2   
  2   1   3  2   
  3   1   4  am  
  4   1   5  am  
  5   4   6  1   
  6   4  22  1   
  7   5  23  1   
  8   5  24  1   
  9   6   7  1   
 10   6   8  1   
 11   6  25  1   
 12   7   9  1   
 13   7  10  1   
 14   7  26  1   
 15   8  11  1   
 16   8  27  1   
 17   8  28  1   
 18   9  11  1   
 19   9  29  1   
 20   9  30  1   
 21  10  12  1   
 22  10  31  1   
 23  10  32  1   
 24  12  13  ar  
 25  12  14  ar  
 26  13  15  ar  
 27  13  16  ar  
 28  14  17  ar  
 29  14  33  1   
 30  15  18  ar  
 31  15  19  ar  
 32  16  20  ar  
 33  16  34  1   
 34  17  18  ar  
 35  17  35  1   
 36  19  21  ar  
 37  19  36  1   
 38  20  21  ar  
 39  20  37  1   
 40  21  38  1   
@<TRIPOS>SUBSTRUCTURE
  1 ****  10 GROUP 4 **** **** 0

# MOE 2024.06 (io_trps.svl 2023.06)
