@<TRIPOS>MOLECULE
NONAME
52 55 1 0 0 
SMALL
USER_CHARGES


@<TRIPOS>ATOM
  1 O       -2.6370     0.9180     2.7890 O.2   1 <1>  -0.5700 
  2 C       -2.2480     1.3760     1.7310 C.2   1 <1>   0.5440 
  3 N       -2.2050     0.5460     0.6340 N.am  1 <1>  -0.6600 
  4 C       -1.8610     2.7740     1.6420 C.ar  1 <1>   0.0860 
  5 C       -2.2990     1.0030    -0.7780 C.3   1 <1>   0.1400 
  6 C       -2.5110    -0.9050     0.7160 C.3   1 <1>   0.1400 
  7 C       -0.7370     3.1730     0.9240 C.ar  1 <1>  -0.1500 
  8 C       -2.6080     3.7680     2.2720 C.ar  1 <1>  -0.1500 
  9 C       -3.1650    -0.0570    -1.4560 C.3   1 <1>   0.2000 
 10 C       -2.7790    -1.3480    -0.7270 C.3   1 <1>  -0.0800 
 11 C       -0.3740     4.5080     0.7990 C.ar  1 <1>  -0.0230 
 12 C       -2.2650     5.1040     2.1630 C.ar  1 <1>  -0.1500 
 13 O       -4.4940     0.2420    -1.1930 O.3   1 <1>  -0.6800 
 14 C       -3.7930    -2.5010    -0.8460 C.3   1 <1>  -0.0170 
 15 N        0.7710     4.8610     0.0330 N.pl3 1 <1>   0.5930 
 16 C       -1.1570     5.4740     1.4220 C.ar  1 <1>  -0.1500 
 17 C       -3.2720    -3.7530    -0.1570 C.ar  1 <1>  -0.1430 
 18 N        0.9070     4.4930    -1.2660 N.2   1 <1>  -0.7070 
 19 C        1.8840     5.5300     0.4450 C.2   1 <1>  -0.3320 
 20 C       -2.4130    -4.6280    -0.7900 C.ar  1 <1>  -0.1500 
 21 C       -3.6280    -4.0780     1.1370 C.ar  1 <1>  -0.1500 
 22 C        2.0600     4.9430    -1.6370 C.2   1 <1>   0.1080 
 23 C        2.7230     5.6010    -0.6090 C.2   1 <1>  -0.1500 
 24 C        2.1070     6.0630     1.8520 C.3   1 <1>  -0.0600 
 25 C       -1.9600    -5.7510    -0.1180 C.ar  1 <1>   0.1600 
 26 C       -3.1170    -5.2270     1.7190 C.ar  1 <1>   0.1600 
 27 C        2.5960     4.7510    -3.0360 C.3   1 <1>  -0.0590 
 28 N       -2.2900    -6.0700     1.1230 N.ar  1 <1>  -0.6200 
 29 H       -2.7340     1.9850    -0.8640 H     1 <1>   0.0800 
 30 H       -1.3150     1.0060    -1.2130 H     1 <1>   0.0800 
 31 H       -1.6830    -1.4430     1.1470 H     1 <1>   0.0800 
 32 H       -3.3840    -1.0490     1.3300 H     1 <1>   0.0800 
 33 H       -0.1280     2.4260     0.4450 H     1 <1>   0.1500 
 34 H       -3.4690     3.4810     2.8510 H     1 <1>   0.1500 
 35 H       -3.0260    -0.1030    -2.5220 H     1 <1>   0.0800 
 36 H       -1.8410    -1.6820    -1.1360 H     1 <1>   0.0800 
 37 H       -2.8630     5.8540     2.6510 H     1 <1>   0.1500 
 38 H       -4.5830     0.4380    -0.2370 H     1 <1>   0.4000 
 39 H       -3.9720    -2.7140    -1.8850 H     1 <1>   0.0800 
 40 H       -4.7350    -2.2190    -0.4100 H     1 <1>   0.0800 
 41 H       -0.9020     6.5150     1.3250 H     1 <1>   0.1500 
 42 H       -2.0910    -4.4470    -1.7990 H     1 <1>   0.1500 
 43 H       -4.2950    -3.4510     1.6990 H     1 <1>   0.1500 
 44 H        3.6970     6.0530    -0.6710 H     1 <1>   0.1500 
 45 H        3.1030     6.4560     1.9460 H     1 <1>   0.0800 
 46 H        1.9820     5.2740     2.5730 H     1 <1>   0.0800 
 47 H        1.4090     6.8510     2.0710 H     1 <1>   0.0800 
 48 H       -1.2910    -6.4220    -0.6280 H     1 <1>   0.1500 
 49 H       -3.4040    -5.4630     2.7290 H     1 <1>   0.1500 
 50 H        3.5480     5.2350    -3.1450 H     1 <1>   0.0800 
 51 H        1.9040     5.1690    -3.7450 H     1 <1>   0.0800 
 52 H        2.7080     3.7010    -3.2360 H     1 <1>   0.0800 
@<TRIPOS>BOND
  1   1   2  2   
  2   2   3  am  
  3   2   4  1   
  4   3   5  1   
  5   3   6  1   
  6   4   7  ar  
  7   4   8  ar  
  8   5   9  1   
  9   5  29  1   
 10   5  30  1   
 11   6  10  1   
 12   6  31  1   
 13   6  32  1   
 14   7  11  ar  
 15   7  33  1   
 16   8  12  ar  
 17   8  34  1   
 18   9  10  1   
 19   9  13  1   
 20   9  35  1   
 21  10  14  1   
 22  10  36  1   
 23  11  15  1   
 24  11  16  ar  
 25  12  16  ar  
 26  12  37  1   
 27  13  38  1   
 28  14  17  1   
 29  14  39  1   
 30  14  40  1   
 31  15  18  1   
 32  15  19  1   
 33  16  41  1   
 34  17  20  ar  
 35  17  21  ar  
 36  18  22  2   
 37  19  23  2   
 38  19  24  1   
 39  20  25  ar  
 40  20  42  1   
 41  21  26  ar  
 42  21  43  1   
 43  22  23  1   
 44  22  27  1   
 45  23  44  1   
 46  24  45  1   
 47  24  46  1   
 48  24  47  1   
 49  25  28  ar  
 50  25  48  1   
 51  26  28  ar  
 52  26  49  1   
 53  27  50  1   
 54  27  51  1   
 55  27  52  1   
@<TRIPOS>SUBSTRUCTURE
  1 ****   3 GROUP 4 **** **** 0

# MOE 2024.06 (io_trps.svl 2023.06)
