@<TRIPOS>MOLECULE
NONAME
52 55 1 0 0 
SMALL
USER_CHARGES


@<TRIPOS>ATOM
  1 O        0.2970     0.0990    -0.5600 O.3   1 <1>  -0.5600 
  2 C        1.5290    -0.5580    -0.6800 C.3   1 <1>   0.3440 
  3 C        0.3070     1.4600    -0.8780 C.3   1 <1>   0.2950 
  4 C        1.3660    -2.0260    -0.3140 C.ar  1 <1>  -0.1440 
  5 C        2.5600     0.0870     0.2740 C.3   1 <1>   0.3430 
  6 C       -1.1420     1.9550    -0.7750 C.3   1 <1>  -0.1950 
  7 C        1.2770     2.2040     0.0730 C.3   1 <1>   0.3430 
  8 C        2.1290    -2.9850    -0.9660 C.ar  1 <1>  -0.1500 
  9 C        0.4800    -2.4280     0.6780 C.ar  1 <1>  -0.1500 
 10 N        2.6620     1.5880     0.1180 N.4   1 <1>  -0.9590 
 11 C       -1.5040     3.3810    -0.4860 C.3   1 <1>  -0.2000 
 12 C       -1.8120     2.3050     0.5190 C.3   1 <1>  -0.2000 
 13 C        2.0180    -4.3210    -0.6250 C.ar  1 <1>  -0.1500 
 14 C        0.3690    -3.7650     1.0190 C.ar  1 <1>  -0.1500 
 15 C        3.5110     2.1920     1.1890 C.3   1 <1>   0.4860 
 16 C        1.1400    -4.7120     0.3700 C.ar  1 <1>  -0.1500 
 17 C        3.6060     3.6820     0.9590 C.ar  1 <1>  -0.1430 
 18 C        2.8670     4.5710     1.7070 C.ar  1 <1>   0.1600 
 19 C        4.4160     4.2130    -0.0200 C.ar  1 <1>   0.1600 
 20 N        2.8880     5.8570     1.4780 N.ar  1 <1>  -0.6200 
 21 N        4.4550     5.4960    -0.2660 N.ar  1 <1>  -0.6200 
 22 C        3.6780     6.2600     0.4940 C.ar  1 <1>   0.7200 
 23 N        3.6610     7.5890     0.2670 N.pl3 1 <1>  -0.8690 
 24 C        4.7020     8.3180    -0.4750 C.3   1 <1>   0.2090 
 25 C        4.3010     9.7860    -0.5440 C.3   1 <1>  -0.2400 
 26 H        1.8530    -0.4790    -1.7030 H     1 <1>   0.0800 
 27 H        0.6340     1.5690    -1.8980 H     1 <1>   0.0800 
 28 H        3.5210    -0.3710     0.1050 H     1 <1>   0.0800 
 29 H        2.2600    -0.1550     1.2800 H     1 <1>   0.0800 
 30 H       -1.7570     1.4580    -1.5070 H     1 <1>   0.1000 
 31 H        0.8440     2.1890     1.0580 H     1 <1>   0.0800 
 32 H        1.3410     3.2340    -0.2380 H     1 <1>   0.0800 
 33 H        2.8160    -2.7100    -1.7480 H     1 <1>   0.1500 
 34 H       -0.1370    -1.7090     1.1880 H     1 <1>   0.1500 
 35 H        3.1080     1.7910    -0.7860 H     1 <1>   0.4500 
 36 H       -0.7610     4.1150    -0.2240 H     1 <1>   0.1000 
 37 H       -2.3260     3.8220    -1.0250 H     1 <1>   0.1000 
 38 H       -2.8390     2.0070     0.6540 H     1 <1>   0.1000 
 39 H       -1.2660     2.2850     1.4440 H     1 <1>   0.1000 
 40 H        2.6110    -5.0620    -1.1330 H     1 <1>   0.1500 
 41 H       -0.3210    -4.0700     1.7870 H     1 <1>   0.1500 
 42 H        3.0790     2.0000     2.1580 H     1 <1>   0.0800 
 43 H        4.5000     1.7610     1.1680 H     1 <1>   0.0800 
 44 H        1.0520    -5.7520     0.6340 H     1 <1>   0.1500 
 45 H        2.2320     4.2290     2.5090 H     1 <1>   0.1500 
 46 H        5.0450     3.5820    -0.6250 H     1 <1>   0.1500 
 47 H        3.1770     8.1140     0.9930 H     1 <1>   0.4000 
 48 H        5.6480     8.2110     0.0300 H     1 <1>   0.0800 
 49 H        4.7900     7.9100    -1.4680 H     1 <1>   0.0800 
 50 H        4.2340    10.2030     0.4450 H     1 <1>   0.0800 
 51 H        3.3550     9.8870    -1.0450 H     1 <1>   0.0800 
 52 H        5.0410    10.3350    -1.0970 H     1 <1>   0.0800 
@<TRIPOS>BOND
  1   1   2  1   
  2   1   3  1   
  3   2   4  1   
  4   2   5  1   
  5   2  26  1   
  6   3   6  1   
  7   3   7  1   
  8   3  27  1   
  9   4   8  ar  
 10   4   9  ar  
 11   5  10  1   
 12   5  28  1   
 13   5  29  1   
 14   6  11  1   
 15   6  12  1   
 16   6  30  1   
 17   7  10  1   
 18   7  31  1   
 19   7  32  1   
 20   8  13  ar  
 21   8  33  1   
 22   9  14  ar  
 23   9  34  1   
 24  10  15  1   
 25  10  35  1   
 26  11  12  1   
 27  11  36  1   
 28  11  37  1   
 29  12  38  1   
 30  12  39  1   
 31  13  16  ar  
 32  13  40  1   
 33  14  16  ar  
 34  14  41  1   
 35  15  17  1   
 36  15  42  1   
 37  15  43  1   
 38  16  44  1   
 39  17  18  ar  
 40  17  19  ar  
 41  18  20  ar  
 42  18  45  1   
 43  19  21  ar  
 44  19  46  1   
 45  20  22  ar  
 46  21  22  ar  
 47  22  23  1   
 48  23  24  1   
 49  23  47  1   
 50  24  25  1   
 51  24  48  1   
 52  24  49  1   
 53  25  50  1   
 54  25  51  1   
 55  25  52  1   
@<TRIPOS>SUBSTRUCTURE
  1 ****   7 GROUP 4 **** **** 0

# MOE 2024.06 (io_trps.svl 2023.06)
