@<TRIPOS>MOLECULE
NONAME
52 54 1 0 0 
SMALL
USER_CHARGES


@<TRIPOS>ATOM
  1 O        0.0510     0.1020     0.3240 O.3   1 <1>  -0.3630 
  2 C       -1.1840    -0.4390     0.1670 C.ar  1 <1>   0.0830 
  3 C        0.2340     1.2950     1.0560 C.3   1 <1>   0.1200 
  4 C       -2.3500     0.1250     0.6800 C.ar  1 <1>  -0.1500 
  5 C       -1.2580    -1.6230    -0.5490 C.ar  1 <1>  -0.1500 
  6 C        1.7240     1.6630     1.0580 C.3   1 <1>  -0.0800 
  7 C       -3.5680    -0.5000     0.4710 C.ar  1 <1>  -0.1500 
  8 C       -2.4760    -2.2480    -0.7570 C.ar  1 <1>  -0.1500 
  9 C        1.9630     2.9200     1.9150 C.3   1 <1>  -0.1600 
 10 C        2.2570     1.8920    -0.3710 C.3   1 <1>  -0.1600 
 11 C       -3.6420    -1.6840    -0.2450 C.ar  1 <1>   0.0830 
 12 C        3.4310     3.3550     1.8820 C.3   1 <1>   0.2090 
 13 C        3.7170     2.3480    -0.3620 C.3   1 <1>   0.2090 
 14 O       -4.8780    -2.2270    -0.4010 O.3   1 <1>  -0.3630 
 15 N        3.8420     3.5630     0.4750 N.pl3 1 <1>  -0.8380 
 16 C       -5.0580    -3.4300    -1.1140 C.3   1 <1>   0.0400 
 17 C        4.9320     4.3660     0.2400 C.ar  1 <1>   0.4100 
 18 N        6.0390     4.0550     0.8830 N.ar  1 <1>  -0.6200 
 19 C        4.8720     5.4410    -0.6380 C.ar  1 <1>  -0.1430 
 20 C        7.0800     4.8200     0.6350 C.ar  1 <1>   0.4770 
 21 C        6.0330     6.1560    -0.8050 C.ar  1 <1>   0.1600 
 22 C        3.5570     5.7700    -1.3500 C.3   1 <1>  -0.0170 
 23 N        7.1520     5.8580    -0.1750 N.ar  1 <1>  -0.6200 
 24 C        8.3540     4.4720     1.3660 C.3   1 <1>  -0.0970 
 25 C        3.5660     7.0620    -2.1770 C.3   1 <1>  -0.2400 
 26 H       -0.1130     1.1280     2.0600 H     1 <1>   0.0800 
 27 H       -0.3450     2.0720     0.5880 H     1 <1>   0.0800 
 28 H       -2.3330     1.0400     1.2380 H     1 <1>   0.1500 
 29 H       -0.3540    -2.0520    -0.9400 H     1 <1>   0.1500 
 30 H        2.2680     0.8480     1.5040 H     1 <1>   0.0800 
 31 H       -4.4730    -0.0720     0.8620 H     1 <1>   0.1500 
 32 H       -2.4960    -3.1640    -1.3160 H     1 <1>   0.1500 
 33 H        1.6800     2.7280     2.9340 H     1 <1>   0.0800 
 34 H        1.3620     3.7350     1.5510 H     1 <1>   0.0800 
 35 H        1.6660     2.6400    -0.8690 H     1 <1>   0.0800 
 36 H        2.1820     0.9810    -0.9390 H     1 <1>   0.0800 
 37 H        4.0560     2.5990     2.3280 H     1 <1>   0.0800 
 38 H        3.5600     4.2710     2.4340 H     1 <1>   0.0800 
 39 H        4.0440     2.5620    -1.3660 H     1 <1>   0.0800 
 40 H        4.3480     1.5740     0.0410 H     1 <1>   0.0800 
 41 H       -6.1070    -3.6660    -1.1090 H     1 <1>   0.0800 
 42 H       -4.5050    -4.2120    -0.6240 H     1 <1>   0.0800 
 43 H       -4.7190    -3.2910    -2.1250 H     1 <1>   0.0800 
 44 H        6.0690     7.0010    -1.4680 H     1 <1>   0.1500 
 45 H        2.7810     5.8460    -0.6070 H     1 <1>   0.0800 
 46 H        3.3020     4.9470    -1.9940 H     1 <1>   0.0800 
 47 H        8.2600     3.5210     1.8560 H     1 <1>   0.0800 
 48 H        8.5580     5.2280     2.1000 H     1 <1>   0.0800 
 49 H        9.1690     4.4270     0.6680 H     1 <1>   0.0800 
 50 H        3.8050     7.9050    -1.5530 H     1 <1>   0.0800 
 51 H        2.5940     7.2230    -2.6080 H     1 <1>   0.0800 
 52 H        4.2820     6.9940    -2.9760 H     1 <1>   0.0800 
@<TRIPOS>BOND
  1   1   2  1   
  2   1   3  1   
  3   2   4  ar  
  4   2   5  ar  
  5   3   6  1   
  6   3  26  1   
  7   3  27  1   
  8   4   7  ar  
  9   4  28  1   
 10   5   8  ar  
 11   5  29  1   
 12   6   9  1   
 13   6  10  1   
 14   6  30  1   
 15   7  11  ar  
 16   7  31  1   
 17   8  11  ar  
 18   8  32  1   
 19   9  12  1   
 20   9  33  1   
 21   9  34  1   
 22  10  13  1   
 23  10  35  1   
 24  10  36  1   
 25  11  14  1   
 26  12  15  1   
 27  12  37  1   
 28  12  38  1   
 29  13  15  1   
 30  13  39  1   
 31  13  40  1   
 32  14  16  1   
 33  15  17  1   
 34  16  41  1   
 35  16  42  1   
 36  16  43  1   
 37  17  18  ar  
 38  17  19  ar  
 39  18  20  ar  
 40  19  21  ar  
 41  19  22  1   
 42  20  23  ar  
 43  20  24  1   
 44  21  23  ar  
 45  21  44  1   
 46  22  25  1   
 47  22  45  1   
 48  22  46  1   
 49  24  47  1   
 50  24  48  1   
 51  24  49  1   
 52  25  50  1   
 53  25  51  1   
 54  25  52  1   
@<TRIPOS>SUBSTRUCTURE
  1 ****  10 GROUP 4 **** **** 0

# MOE 2024.06 (io_trps.svl 2023.06)
