@<TRIPOS>MOLECULE
NONAME
47 50 1 0 0 
SMALL
USER_CHARGES


@<TRIPOS>ATOM
  1 S       -0.3320    -0.2250     1.1630 S.3   1 <1>  -0.0800 
  2 C       -1.5290     0.7350     0.3270 C.2   1 <1>  -0.1400 
  3 C        0.5160     1.2220     1.6530 C.2   1 <1>  -0.1100 
  4 C       -1.2780     2.0480     0.4460 C.2   1 <1>  -0.1810 
  5 C       -2.6710     0.0600    -0.4000 C.3   1 <1>   0.0200 
  6 C       -0.0780     2.3540     1.1940 C.2   1 <1>  -0.0860 
  7 C       -2.2110     3.0810    -0.1750 C.3   1 <1>   0.0210 
  8 C       -3.3600     1.0880    -1.3140 C.3   1 <1>  -0.1600 
  9 C        0.4350     3.6930     1.4060 C.2   1 <1>   0.7160 
 10 C       -3.5490     2.4440    -0.6050 C.3   1 <1>  -0.1600 
 11 O       -0.3030     4.6120     1.7070 O.2   1 <1>  -0.5700 
 12 N        1.7710     3.9850     1.2210 N.am  1 <1>  -0.6600 
 13 C        2.3990     5.1670     1.8990 C.3   1 <1>   0.1400 
 14 C        2.6300     3.2550     0.2430 C.3   1 <1>   0.1400 
 15 C        2.8600     6.3220     0.9650 C.3   1 <1>   0.4230 
 16 C        2.9620     4.1360    -0.9810 C.3   1 <1>  -0.0800 
 17 N        2.0950     6.4840    -0.3370 N.4   1 <1>  -0.9590 
 18 C        4.3830     6.2740     0.7100 C.3   1 <1>   0.1200 
 19 C        4.4190     4.6240    -1.0030 C.3   1 <1>   0.1200 
 20 C        1.9300     5.2570    -1.1930 C.3   1 <1>   0.3430 
 21 C        0.7470     7.0790    -0.0690 C.3   1 <1>   0.2630 
 22 O        4.8240     5.0300     0.2630 O.3   1 <1>  -0.5600 
 23 H        1.4010     1.0880     2.2480 H     1 <1>   0.1500 
 24 H       -2.3020    -0.7630    -0.9870 H     1 <1>   0.0800 
 25 H       -3.3680    -0.3190     0.3250 H     1 <1>   0.0800 
 26 H       -2.4220     3.8630     0.5330 H     1 <1>   0.0800 
 27 H       -1.7270     3.5160    -1.0300 H     1 <1>   0.0800 
 28 H       -2.7560     1.2360    -2.1920 H     1 <1>   0.0800 
 29 H       -4.3140     0.7030    -1.6300 H     1 <1>   0.0800 
 30 H       -4.1550     2.2910     0.2720 H     1 <1>   0.0800 
 31 H       -4.0780     3.1240    -1.2500 H     1 <1>   0.0800 
 32 H        1.7050     5.5770     2.6130 H     1 <1>   0.0800 
 33 H        3.2400     4.8200     2.4750 H     1 <1>   0.0800 
 34 H        3.5300     2.9180     0.7320 H     1 <1>   0.0800 
 35 H        2.1170     2.3760    -0.1070 H     1 <1>   0.0800 
 36 H        2.7110     7.2280     1.5290 H     1 <1>   0.0800 
 37 H        2.8660     3.4920    -1.8380 H     1 <1>   0.0800 
 38 H        2.6260     7.1620    -0.8960 H     1 <1>   0.4500 
 39 H        4.8960     6.4580     1.6380 H     1 <1>   0.0800 
 40 H        4.6920     7.0290     0.0100 H     1 <1>   0.0800 
 41 H        4.5770     5.4220    -1.7090 H     1 <1>   0.0800 
 42 H        5.0630     3.8040    -1.2760 H     1 <1>   0.0800 
 43 H        0.9540     4.8340    -1.0120 H     1 <1>   0.0800 
 44 H        1.9550     5.5550    -2.2280 H     1 <1>   0.0800 
 45 H        0.1470     6.4040     0.5170 H     1 <1>   0.0800 
 46 H        0.2320     7.2750    -0.9950 H     1 <1>   0.0800 
 47 H        0.8430     8.0050     0.4730 H     1 <1>   0.0800 
@<TRIPOS>BOND
  1   1   2  1   
  2   1   3  1   
  3   2   4  2   
  4   2   5  1   
  5   3   6  2   
  6   3  23  1   
  7   4   6  1   
  8   4   7  1   
  9   5   8  1   
 10   5  24  1   
 11   5  25  1   
 12   6   9  1   
 13   7  10  1   
 14   7  26  1   
 15   7  27  1   
 16   8  10  1   
 17   8  28  1   
 18   8  29  1   
 19   9  11  2   
 20   9  12  am  
 21  10  30  1   
 22  10  31  1   
 23  12  13  1   
 24  12  14  1   
 25  13  15  1   
 26  13  32  1   
 27  13  33  1   
 28  14  16  1   
 29  14  34  1   
 30  14  35  1   
 31  15  17  1   
 32  15  18  1   
 33  15  36  1   
 34  16  19  1   
 35  16  20  1   
 36  16  37  1   
 37  17  20  1   
 38  17  21  1   
 39  17  38  1   
 40  18  22  1   
 41  18  39  1   
 42  18  40  1   
 43  19  22  1   
 44  19  41  1   
 45  19  42  1   
 46  20  43  1   
 47  20  44  1   
 48  21  45  1   
 49  21  46  1   
 50  21  47  1   
@<TRIPOS>SUBSTRUCTURE
  1 ****   9 GROUP 4 **** **** 0

# MOE 2024.06 (io_trps.svl 2023.06)
