@<TRIPOS>MOLECULE
NONAME
57 60 1 0 0 
SMALL
USER_CHARGES


@<TRIPOS>ATOM
  1 O        0.2610    -0.1100    -0.7410 O.2   1 <1>  -0.5700 
  2 C        1.3010    -0.7290    -0.7000 C.2   1 <1>   0.9370 
  3 N        2.5130    -0.0330    -0.5830 N.pl3 1 <1>  -0.5760 
  4 C        1.3170    -2.1400    -0.7640 C.2   1 <1>  -0.1360 
  5 C        3.6800    -0.7250    -0.5240 C.cat 1 <1>   0.7390 
  6 C        2.5330     1.3410    -0.5270 C.2   1 <1>   0.1910 
  7 C        2.4810    -2.8150    -0.7000 C.2   1 <1>   0.2030 
  8 N        3.6410    -2.0780    -0.5820 N.pl3 1 <1>  -0.6450 
  9 C        4.9080    -0.0350    -0.4060 C.2   1 <1>  -0.1680 
 10 C        3.7070     2.0280    -0.4120 C.2   1 <1>  -0.1500 
 11 C        2.5960    -4.3420    -0.7660 C.3   1 <1>   0.2480 
 12 C        4.9190     1.3360    -0.3500 C.2   1 <1>  -0.1500 
 13 C        6.2390    -0.7830    -0.3380 C.3   1 <1>  -0.1020 
 14 N        1.3060    -5.0060    -0.5160 N.3   1 <1>  -0.8100 
 15 C        1.3130    -6.3580    -1.1400 C.3   1 <1>   0.1100 
 16 C        0.9790    -5.0580     0.9160 C.3   1 <1>   0.1100 
 17 C        0.2660    -7.3650    -0.5750 C.3   1 <1>   0.0000 
 18 C       -0.4610    -5.5480     1.1090 C.3   1 <1>  -0.1600 
 19 C       -0.8990    -6.5240     0.0070 C.3   1 <1>   0.2000 
 20 C       -0.3270    -8.1670    -1.7620 C.3   1 <1>   0.1200 
 21 C        0.8360    -8.3600     0.5010 C.3   1 <1>  -0.0170 
 22 O       -1.9150    -7.3300     0.5000 O.3   1 <1>  -0.6800 
 23 O        0.6710    -8.8000    -2.4910 O.3   1 <1>  -0.6800 
 24 C        2.3530    -8.4530     0.6780 C.ar  1 <1>  -0.1440 
 25 C        2.9600    -7.9540     1.8220 C.ar  1 <1>  -0.1500 
 26 C        3.1440    -9.0580    -0.2880 C.ar  1 <1>  -0.1500 
 27 C        4.3330    -8.0330     1.9850 C.ar  1 <1>  -0.1500 
 28 C        4.5160    -9.1360    -0.1290 C.ar  1 <1>  -0.1500 
 29 C        5.1130    -8.6210     1.0070 C.ar  1 <1>  -0.1500 
 30 H        0.3640    -2.6250    -0.8660 H     1 <1>   0.1500 
 31 H        1.5970     1.8800    -0.5750 H     1 <1>   0.1500 
 32 H        4.5420    -2.5630    -0.5370 H     1 <1>   0.4500 
 33 H        3.7140     3.1040    -0.3690 H     1 <1>   0.1500 
 34 H        3.3220    -4.6970    -0.0530 H     1 <1>   0.0800 
 35 H        2.9460    -4.6010    -1.7510 H     1 <1>   0.0800 
 36 H        5.8350     1.8990    -0.2600 H     1 <1>   0.1500 
 37 H        6.2670    -1.4310     0.5210 H     1 <1>   0.0800 
 38 H        7.0620    -0.0940    -0.2520 H     1 <1>   0.0800 
 39 H        6.3940    -1.3650    -1.2300 H     1 <1>   0.0800 
 40 H        1.1080    -6.2100    -2.1870 H     1 <1>   0.0800 
 41 H        2.2990    -6.7810    -1.0990 H     1 <1>   0.0800 
 42 H        1.6630    -5.7220     1.4120 H     1 <1>   0.0800 
 43 H        1.0800    -4.0850     1.3650 H     1 <1>   0.0800 
 44 H       -1.1210    -4.7000     1.0910 H     1 <1>   0.0800 
 45 H       -0.5350    -6.0010     2.0810 H     1 <1>   0.0800 
 46 H       -1.3260    -5.9440    -0.7950 H     1 <1>   0.0800 
 47 H       -0.8530    -7.5090    -2.4340 H     1 <1>   0.0800 
 48 H       -1.0160    -8.9170    -1.4120 H     1 <1>   0.0800 
 49 H        0.4250    -8.1240     1.4640 H     1 <1>   0.0800 
 50 H        0.4820    -9.3530     0.2850 H     1 <1>   0.0800 
 51 H       -1.6280    -7.7840     1.3140 H     1 <1>   0.4000 
 52 H        0.2820    -9.3320    -3.2150 H     1 <1>   0.4000 
 53 H        2.3700    -7.5070     2.6020 H     1 <1>   0.1500 
 54 H        2.6940    -9.4730    -1.1720 H     1 <1>   0.1500 
 55 H        4.7940    -7.6450     2.8770 H     1 <1>   0.1500 
 56 H        5.1170    -9.6050    -0.8890 H     1 <1>   0.1500 
 57 H        6.1800    -8.6870     1.1320 H     1 <1>   0.1500 
@<TRIPOS>BOND
  1   1   2  2   
  2   2   3  1   
  3   2   4  1   
  4   3   5  ar  
  5   3   6  1   
  6   4   7  2   
  7   4  30  1   
  8   5   8  ar  
  9   5   9  1   
 10   6  10  2   
 11   6  31  1   
 12   7   8  1   
 13   7  11  1   
 14   8  32  1   
 15   9  12  2   
 16   9  13  1   
 17  10  12  1   
 18  10  33  1   
 19  11  14  1   
 20  11  34  1   
 21  11  35  1   
 22  12  36  1   
 23  13  37  1   
 24  13  38  1   
 25  13  39  1   
 26  14  15  1   
 27  14  16  1   
 28  15  17  1   
 29  15  40  1   
 30  15  41  1   
 31  16  18  1   
 32  16  42  1   
 33  16  43  1   
 34  17  19  1   
 35  17  20  1   
 36  17  21  1   
 37  18  19  1   
 38  18  44  1   
 39  18  45  1   
 40  19  22  1   
 41  19  46  1   
 42  20  23  1   
 43  20  47  1   
 44  20  48  1   
 45  21  24  1   
 46  21  49  1   
 47  21  50  1   
 48  22  51  1   
 49  23  52  1   
 50  24  25  ar  
 51  24  26  ar  
 52  25  27  ar  
 53  25  53  1   
 54  26  28  ar  
 55  26  54  1   
 56  27  29  ar  
 57  27  55  1   
 58  28  29  ar  
 59  28  56  1   
 60  29  57  1   
@<TRIPOS>SUBSTRUCTURE
  1 ****  11 GROUP 4 **** **** 0

# MOE 2024.06 (io_trps.svl 2023.06)
