@<TRIPOS>MOLECULE
NONAME
62 65 1 0 0 
SMALL
USER_CHARGES


@<TRIPOS>ATOM
  1 O        1.5110    -2.5170    -0.4750 O.3   1 <1>  -0.5600 
  2 C        1.4680    -3.2120    -1.6870 C.3   1 <1>   0.1200 
  3 C        0.2720    -2.3330     0.1450 C.3   1 <1>   0.1200 
  4 C        0.8700    -4.6160    -1.4740 C.3   1 <1>   0.3430 
  5 C       -0.3820    -3.6970     0.4420 C.3   1 <1>   0.3430 
  6 N       -0.4750    -4.5510    -0.7980 N.4   1 <1>  -0.9590 
  7 C       -0.9740    -5.9370    -0.5080 C.3   1 <1>   0.3430 
  8 C       -2.4320    -5.9660    -0.0360 C.3   1 <1>   0.1200 
  9 O       -2.7800    -7.3130     0.1820 O.3   1 <1>  -0.3630 
 10 C       -3.9840    -7.6530     0.7050 C.ar  1 <1>   0.0820 
 11 C       -4.1570    -8.9820     1.0580 C.ar  1 <1>  -0.1500 
 12 C       -5.0250    -6.7500     0.9010 C.ar  1 <1>  -0.1500 
 13 C       -5.3530    -9.4190     1.6090 C.ar  1 <1>  -0.1430 
 14 C       -6.2160    -7.1810     1.4560 C.ar  1 <1>  -0.1500 
 15 C       -6.3800    -8.5080     1.8120 C.ar  1 <1>  -0.1500 
 16 C       -5.5440   -10.8750     1.9930 C.3   1 <1>   0.4860 
 17 N       -5.7370   -11.6840     0.7600 N.4   1 <1>  -0.9590 
 18 C       -6.9950   -11.2970     0.0370 C.3   1 <1>   0.3430 
 19 C       -5.8530   -13.1370     1.0890 C.3   1 <1>   0.3430 
 20 C       -7.9490   -12.4910     0.1710 C.3   1 <1>   0.2000 
 21 C       -7.0060   -13.6870     0.2390 C.3   1 <1>  -0.0800 
 22 O       -8.6010   -12.3880     1.3940 O.3   1 <1>  -0.6800 
 23 C       -6.5700   -14.1460    -1.1700 C.3   1 <1>   0.0200 
 24 C       -5.4420   -15.1560    -1.1090 C.2   1 <1>  -0.0400 
 25 O       -4.2240   -14.7480    -0.8790 O.3   1 <1>  -0.0190 
 26 C       -5.4090   -16.4890    -1.2540 C.2   1 <1>  -0.1500 
 27 N       -3.3810   -15.7340    -0.8400 N.2   1 <1>  -0.4100 
 28 C       -4.0640   -16.7980    -1.0700 C.2   1 <1>   0.1080 
 29 C       -3.4760   -18.1910    -1.1310 C.3   1 <1>  -0.0590 
 30 H        0.8920    -2.6420    -2.3950 H     1 <1>   0.0800 
 31 H        2.4780    -3.2910    -2.0530 H     1 <1>   0.0800 
 32 H        0.4440    -1.7970     1.0620 H     1 <1>   0.0800 
 33 H       -0.3500    -1.7290    -0.4930 H     1 <1>   0.0800 
 34 H        1.5560    -5.1850    -0.8680 H     1 <1>   0.0800 
 35 H        0.7820    -5.1120    -2.4270 H     1 <1>   0.0800 
 36 H       -1.3630    -3.5330     0.8570 H     1 <1>   0.0800 
 37 H        0.2120    -4.1990     1.1870 H     1 <1>   0.0800 
 38 H       -1.1190    -4.0900    -1.4550 H     1 <1>   0.4500 
 39 H       -0.9010    -6.5350    -1.4030 H     1 <1>   0.0800 
 40 H       -0.3540    -6.3900     0.2490 H     1 <1>   0.0800 
 41 H       -3.0880    -5.5710    -0.7910 H     1 <1>   0.0800 
 42 H       -2.5510    -5.4400     0.8940 H     1 <1>   0.0800 
 43 H       -3.3380    -9.6620     0.9010 H     1 <1>   0.1500 
 44 H       -4.9360    -5.7140     0.6350 H     1 <1>   0.1500 
 45 H       -7.0200    -6.4800     1.6150 H     1 <1>   0.1500 
 46 H       -7.3150    -8.8170     2.2500 H     1 <1>   0.1500 
 47 H       -6.4040   -10.9740     2.6360 H     1 <1>   0.0800 
 48 H       -4.6750   -11.2180     2.5300 H     1 <1>   0.0800 
 49 H       -4.9290   -11.5210     0.1460 H     1 <1>   0.4500 
 50 H       -7.4450   -10.4060     0.4410 H     1 <1>   0.0800 
 51 H       -6.7720   -11.1340    -1.0040 H     1 <1>   0.0800 
 52 H       -4.9270   -13.6610     0.9280 H     1 <1>   0.0800 
 53 H       -6.1260   -13.2450     2.1270 H     1 <1>   0.0800 
 54 H       -8.6830   -12.5350    -0.6170 H     1 <1>   0.0800 
 55 H       -7.4640   -14.5230     0.7380 H     1 <1>   0.0800 
 56 H       -9.3580   -13.0100     1.4510 H     1 <1>   0.4000 
 57 H       -6.2440   -13.3170    -1.7730 H     1 <1>   0.0800 
 58 H       -7.4100   -14.6000    -1.6680 H     1 <1>   0.0800 
 59 H       -6.1990   -17.1890    -1.4590 H     1 <1>   0.1500 
 60 H       -3.6370   -18.6120    -2.1060 H     1 <1>   0.0800 
 61 H       -3.9390   -18.8180    -0.3920 H     1 <1>   0.0800 
 62 H       -2.4180   -18.1530    -0.9410 H     1 <1>   0.0800 
@<TRIPOS>BOND
  1   1   2  1   
  2   1   3  1   
  3   2   4  1   
  4   2  30  1   
  5   2  31  1   
  6   3   5  1   
  7   3  32  1   
  8   3  33  1   
  9   4   6  1   
 10   4  34  1   
 11   4  35  1   
 12   5   6  1   
 13   5  36  1   
 14   5  37  1   
 15   6   7  1   
 16   6  38  1   
 17   7   8  1   
 18   7  39  1   
 19   7  40  1   
 20   8   9  1   
 21   8  41  1   
 22   8  42  1   
 23   9  10  1   
 24  10  11  ar  
 25  10  12  ar  
 26  11  13  ar  
 27  11  43  1   
 28  12  14  ar  
 29  12  44  1   
 30  13  15  ar  
 31  13  16  1   
 32  14  15  ar  
 33  14  45  1   
 34  15  46  1   
 35  16  17  1   
 36  16  47  1   
 37  16  48  1   
 38  17  18  1   
 39  17  19  1   
 40  17  49  1   
 41  18  20  1   
 42  18  50  1   
 43  18  51  1   
 44  19  21  1   
 45  19  52  1   
 46  19  53  1   
 47  20  21  1   
 48  20  22  1   
 49  20  54  1   
 50  21  23  1   
 51  21  55  1   
 52  22  56  1   
 53  23  24  1   
 54  23  57  1   
 55  23  58  1   
 56  24  25  1   
 57  24  26  2   
 58  25  27  1   
 59  26  28  1   
 60  26  59  1   
 61  27  28  2   
 62  28  29  1   
 63  29  60  1   
 64  29  61  1   
 65  29  62  1   
@<TRIPOS>SUBSTRUCTURE
  1 ****  11 GROUP 4 **** **** 0

# MOE 2024.06 (io_trps.svl 2023.06)
