@<TRIPOS>MOLECULE
NONAME
44 46 1 0 0 
SMALL
USER_CHARGES


@<TRIPOS>ATOM
  1 CL       0.9280     0.3750    -1.8710 Cl    1 <1>  -0.1230 
  2 C        2.4710    -0.1200    -1.1970 C.2   1 <1>   0.1230 
  3 C        3.4760     0.7220    -0.7180 C.2   1 <1>   0.2030 
  4 C        2.8900    -1.3840    -1.0320 C.2   1 <1>  -0.3020 
  5 N        4.4840    -0.0190    -0.2660 N.2   1 <1>  -0.7070 
  6 C        3.3840     2.1750    -0.7490 C.2   1 <1>   0.7160 
  7 N        4.1090    -1.2980    -0.4700 N.pl3 1 <1>   0.3140 
  8 O        3.0290     2.7350    -1.7720 O.2   1 <1>  -0.5700 
  9 N        3.7530     2.9830     0.3210 N.am  1 <1>  -0.6600 
 10 C        4.9600    -2.4400    -0.1090 C.3   1 <1>   0.0160 
 11 C        4.6280     2.4980     1.4240 C.3   1 <1>   0.1400 
 12 C        3.5050     4.4510     0.3150 C.3   1 <1>   0.1400 
 13 C        6.0840     2.3660     0.9320 C.3   1 <1>   0.3430 
 14 C        4.8150     5.2380     0.1850 C.3   1 <1>  -0.1600 
 15 N        6.7150     3.6580     0.4860 N.4   1 <1>  -0.9590 
 16 C        5.9420     4.4700    -0.5100 C.3   1 <1>   0.3430 
 17 C        8.1090     3.4440     0.0060 C.3   1 <1>   0.5230 
 18 C        8.9000     4.7230     0.2370 C.2   1 <1>   0.0060 
 19 N       10.0790     5.0180    -0.3210 N.pl3 1 <1>   0.0330 
 20 N        8.5040     5.6720     1.0170 N.2   1 <1>  -0.3380 
 21 C       10.3580     6.2210     0.1790 C.2   1 <1>   0.0060 
 22 N        9.4310     6.6250     0.9740 N.2   1 <1>  -0.3380 
 23 C       11.6120     7.0070    -0.1510 C.3   1 <1>  -0.0600 
 24 H        2.4000    -2.3080    -1.2750 H     1 <1>   0.1500 
 25 H        4.4340    -3.0670     0.5870 H     1 <1>   0.0800 
 26 H        5.8660    -2.0830     0.3430 H     1 <1>   0.0800 
 27 H        5.1950    -2.9990    -0.9960 H     1 <1>   0.0800 
 28 H        4.2760     1.5410     1.7670 H     1 <1>   0.0800 
 29 H        4.5820     3.1720     2.2620 H     1 <1>   0.0800 
 30 H        2.9930     4.7330     1.2210 H     1 <1>   0.0800 
 31 H        2.8530     4.7110    -0.5030 H     1 <1>   0.0800 
 32 H        6.1000     1.6620     0.1170 H     1 <1>   0.0800 
 33 H        6.6700     1.9430     1.7320 H     1 <1>   0.0800 
 34 H        5.1390     5.5880     1.1490 H     1 <1>   0.0800 
 35 H        4.5990     6.1160    -0.3980 H     1 <1>   0.0800 
 36 H        6.8430     4.2830     1.3000 H     1 <1>   0.4500 
 37 H        6.6020     5.1950    -0.9600 H     1 <1>   0.0800 
 38 H        5.5430     3.8450    -1.2940 H     1 <1>   0.0800 
 39 H        8.1070     3.1810    -1.0390 H     1 <1>   0.0800 
 40 H        8.5730     2.6480     0.5650 H     1 <1>   0.0800 
 41 H       10.6580     4.4810    -0.9730 H     1 <1>   0.2700 
 42 H       11.6590     7.2100    -1.2060 H     1 <1>   0.0800 
 43 H       12.4860     6.4570     0.1460 H     1 <1>   0.0800 
 44 H       11.6030     7.9440     0.3770 H     1 <1>   0.0800 
@<TRIPOS>BOND
  1   1   2  1   
  2   2   3  1   
  3   2   4  2   
  4   3   5  2   
  5   3   6  1   
  6   4   7  1   
  7   4  24  1   
  8   5   7  1   
  9   6   8  2   
 10   6   9  am  
 11   7  10  1   
 12   9  11  1   
 13   9  12  1   
 14  10  25  1   
 15  10  26  1   
 16  10  27  1   
 17  11  13  1   
 18  11  28  1   
 19  11  29  1   
 20  12  14  1   
 21  12  30  1   
 22  12  31  1   
 23  13  15  1   
 24  13  32  1   
 25  13  33  1   
 26  14  16  1   
 27  14  34  1   
 28  14  35  1   
 29  15  16  1   
 30  15  17  1   
 31  15  36  1   
 32  16  37  1   
 33  16  38  1   
 34  17  18  1   
 35  17  39  1   
 36  17  40  1   
 37  18  19  1   
 38  18  20  2   
 39  19  21  1   
 40  19  41  1   
 41  20  22  1   
 42  21  22  2   
 43  21  23  1   
 44  23  42  1   
 45  23  43  1   
 46  23  44  1   
@<TRIPOS>SUBSTRUCTURE
  1 ****  13 GROUP 4 **** **** 0

# MOE 2024.06 (io_trps.svl 2023.06)
