@<TRIPOS>MOLECULE
NONAME
27 29 1 0 0 
SMALL
USER_CHARGES


@<TRIPOS>ATOM
  1 F       -0.8480     0.9130     0.7730 F     1 <1>  -0.3400 
  2 C       -1.8440     1.0200    -0.1080 C.3   1 <1>   0.2600 
  3 C       -3.0420     1.6140     0.6260 C.3   1 <1>   0.2000 
  4 C       -2.2870    -0.3970    -0.4950 C.3   1 <1>   0.2090 
  5 O       -3.9620     2.0800    -0.3110 O.3   1 <1>  -0.6800 
  6 C       -3.6500     0.3960     1.3240 C.3   1 <1>   0.2090 
  7 N       -3.4670    -0.7330     0.3640 N.pl3 1 <1>  -0.8380 
  8 C       -4.5880    -1.2180    -0.2660 C.ar  1 <1>   0.4100 
  9 N       -5.2610    -0.3910    -1.0350 N.ar  1 <1>  -0.6200 
 10 C       -4.9930    -2.5470    -0.1000 C.ar  1 <1>   0.0000 
 11 C       -6.3480    -0.9040    -1.6350 C.ar  1 <1>   0.4700 
 12 C       -6.1250    -2.9390    -0.7760 C.ar  1 <1>   0.1050 
 13 C       -4.5420    -3.6810     0.6130 C.2   1 <1>  -0.1500 
 14 N       -6.8300    -2.1200    -1.5620 N.ar  1 <1>  -0.5670 
 15 N       -6.3750    -4.2500    -0.5050 N.pl3 1 <1>   0.0330 
 16 C       -5.3990    -4.6970     0.3470 C.2   1 <1>  -0.3020 
 17 H       -1.4800     1.6170    -0.9230 H     1 <1>   0.0800 
 18 H       -2.7810     2.4220     1.2870 H     1 <1>   0.0800 
 19 H       -1.4930    -1.1080    -0.3470 H     1 <1>   0.0800 
 20 H       -2.5830    -0.4090    -1.5310 H     1 <1>   0.0800 
 21 H       -4.4430     1.2900    -0.6740 H     1 <1>   0.4000 
 22 H       -4.6860     0.5560     1.5700 H     1 <1>   0.0800 
 23 H       -3.1030     0.1770     2.2250 H     1 <1>   0.0800 
 24 H       -6.8910    -0.2140    -2.2590 H     1 <1>   0.1500 
 25 H       -3.6670    -3.6770     1.2400 H     1 <1>   0.1500 
 26 H       -7.1650    -4.7740    -0.8900 H     1 <1>   0.2700 
 27 H       -5.3780    -5.7100     0.7110 H     1 <1>   0.1500 
@<TRIPOS>BOND
  1   1   2  1   
  2   2   3  1   
  3   2   4  1   
  4   2  17  1   
  5   3   5  1   
  6   3   6  1   
  7   3  18  1   
  8   4   7  1   
  9   4  19  1   
 10   4  20  1   
 11   5  21  1   
 12   6   7  1   
 13   6  22  1   
 14   6  23  1   
 15   7   8  1   
 16   8   9  ar  
 17   8  10  ar  
 18   9  11  ar  
 19  10  12  ar  
 20  10  13  1   
 21  11  14  ar  
 22  11  24  1   
 23  12  14  ar  
 24  12  15  1   
 25  13  16  2   
 26  13  25  1   
 27  15  16  1   
 28  15  26  1   
 29  16  27  1   
@<TRIPOS>SUBSTRUCTURE
  1 ****   8 GROUP 4 **** **** 0

# MOE 2024.06 (io_trps.svl 2023.06)
