@<TRIPOS>MOLECULE
NONAME
54 56 1 0 0 
SMALL
USER_CHARGES


@<TRIPOS>ATOM
  1 O        2.0660    -1.2910     0.9350 O.co2 1 <1>  -0.9000 
  2 C        2.1210    -0.0570     1.0550 C.2   1 <1>   0.9060 
  3 O        2.0950     0.4700     2.1730 O.co2 1 <1>  -0.9000 
  4 C        2.2420     0.8030    -0.2200 C.3   1 <1>  -0.1060 
  5 C        3.3410     0.2030    -1.1350 C.3   1 <1>   0.2000 
  6 C        2.6730     2.2620     0.1100 C.3   1 <1>  -0.1600 
  7 C        0.8880     0.7900    -0.9820 C.3   1 <1>  -0.0160 
  8 O        3.0450    -1.1150    -1.4410 O.3   1 <1>  -0.6800 
  9 C        4.7350     0.2740    -0.4930 C.3   1 <1>   0.1400 
 10 C        4.0710     2.3340     0.7400 C.3   1 <1>   0.1400 
 11 C       -0.1810     1.7340    -0.4320 C.ar  1 <1>  -0.1440 
 12 N        5.0680     1.6990    -0.1710 N.am  1 <1>  -0.6600 
 13 C       -0.7690     1.4930     0.8000 C.ar  1 <1>  -0.1500 
 14 C       -0.5780     2.8440    -1.1640 C.ar  1 <1>  -0.1500 
 15 C        6.1710     2.3170    -0.7010 C.2   1 <1>   0.5690 
 16 C       -1.7380     2.3480     1.2950 C.ar  1 <1>  -0.1500 
 17 C       -1.5490     3.7000    -0.6720 C.ar  1 <1>  -0.1500 
 18 O        6.9190     1.7480    -1.4630 O.2   1 <1>  -0.5700 
 19 C        6.4770     3.7620    -0.3350 C.3   1 <1>  -0.0990 
 20 C       -2.1290     3.4530     0.5590 C.ar  1 <1>  -0.1500 
 21 C        7.7710     4.3080    -0.9570 C.3   1 <1>  -0.0170 
 22 C        8.0010     5.7490    -0.5120 C.ar  1 <1>  -0.1430 
 23 C        8.7520     6.0760     0.6150 C.ar  1 <1>  -0.1430 
 24 C        7.4260     6.7620    -1.2650 C.ar  1 <1>  -0.1500 
 25 C        8.9120     7.4090     0.9640 C.ar  1 <1>  -0.1500 
 26 C        9.4140     5.0130     1.4830 C.3   1 <1>  -0.0970 
 27 C        7.5890     8.0880    -0.9090 C.ar  1 <1>  -0.1500 
 28 C        8.3340     8.4120     0.2080 C.ar  1 <1>  -0.1500 
 29 H        3.3800     0.7360    -2.0690 H     1 <1>   0.0800 
 30 H        1.9740     2.6950     0.8050 H     1 <1>   0.0800 
 31 H        2.6580     2.8630    -0.7810 H     1 <1>   0.0800 
 32 H        1.0650     1.0440    -2.0110 H     1 <1>   0.0800 
 33 H        0.4920    -0.2120    -0.9800 H     1 <1>   0.0800 
 34 H        2.6700    -1.5080    -0.5930 H     1 <1>   0.4000 
 35 H        5.4570    -0.1390    -1.1740 H     1 <1>   0.0800 
 36 H        4.7490    -0.3030     0.4160 H     1 <1>   0.0800 
 37 H        4.0790     1.8140     1.6830 H     1 <1>   0.0800 
 38 H        4.3110     3.3610     0.9390 H     1 <1>   0.0800 
 39 H       -0.4670     0.6390     1.3850 H     1 <1>   0.1500 
 40 H       -0.1320     3.0450    -2.1210 H     1 <1>   0.1500 
 41 H       -2.1780     2.1490     2.2560 H     1 <1>   0.1500 
 42 H       -1.8510     4.5570    -1.2460 H     1 <1>   0.1500 
 43 H        5.6560     4.3740    -0.6560 H     1 <1>   0.0800 
 44 H        6.5530     3.8300     0.7340 H     1 <1>   0.0800 
 45 H       -2.8810     4.1160     0.9460 H     1 <1>   0.1500 
 46 H        7.6930     4.2700    -2.0300 H     1 <1>   0.0800 
 47 H        8.6020     3.6840    -0.6830 H     1 <1>   0.0800 
 48 H        6.8440     6.5210    -2.1370 H     1 <1>   0.1500 
 49 H        9.4900     7.6770     1.8300 H     1 <1>   0.1500 
 50 H        9.8440     5.4490     2.3660 H     1 <1>   0.0800 
 51 H       10.1980     4.5270     0.9310 H     1 <1>   0.0800 
 52 H        8.6930     4.2780     1.7910 H     1 <1>   0.0800 
 53 H        7.1390     8.8650    -1.5020 H     1 <1>   0.1500 
 54 H        8.4650     9.4420     0.4890 H     1 <1>   0.1500 
@<TRIPOS>BOND
  1   1   2  ar  
  2   2   3  ar  
  3   2   4  1   
  4   4   5  1   
  5   4   6  1   
  6   4   7  1   
  7   5   8  1   
  8   5   9  1   
  9   5  29  1   
 10   6  10  1   
 11   6  30  1   
 12   6  31  1   
 13   7  11  1   
 14   7  32  1   
 15   7  33  1   
 16   8  34  1   
 17   9  12  1   
 18   9  35  1   
 19   9  36  1   
 20  10  12  1   
 21  10  37  1   
 22  10  38  1   
 23  11  13  ar  
 24  11  14  ar  
 25  12  15  am  
 26  13  16  ar  
 27  13  39  1   
 28  14  17  ar  
 29  14  40  1   
 30  15  18  2   
 31  15  19  1   
 32  16  20  ar  
 33  16  41  1   
 34  17  20  ar  
 35  17  42  1   
 36  19  21  1   
 37  19  43  1   
 38  19  44  1   
 39  20  45  1   
 40  21  22  1   
 41  21  46  1   
 42  21  47  1   
 43  22  23  ar  
 44  22  24  ar  
 45  23  25  ar  
 46  23  26  1   
 47  24  27  ar  
 48  24  48  1   
 49  25  28  ar  
 50  25  49  1   
 51  26  50  1   
 52  26  51  1   
 53  26  52  1   
 54  27  28  ar  
 55  27  53  1   
 56  28  54  1   
@<TRIPOS>SUBSTRUCTURE
  1 ****  10 GROUP 4 **** **** 0

# MOE 2024.06 (io_trps.svl 2023.06)
