@<TRIPOS>MOLECULE
NONAME
55 56 1 0 0 
SMALL
USER_CHARGES


@<TRIPOS>ATOM
  1 O        4.4820    -1.0050    -1.7460 O.2   1 <1>  -0.5700 
  2 C        3.3690    -1.3380    -1.4100 C.2   1 <1>   0.5690 
  3 N        2.8520    -1.1620    -0.1770 N.am  1 <1>  -0.6600 
  4 C        2.3460    -1.9260    -2.3410 C.3   1 <1>  -0.0990 
  5 C        3.6420    -0.7460     1.0210 C.3   1 <1>   0.2810 
  6 C        1.4260    -1.5320    -0.0940 C.3   1 <1>   0.1400 
  7 C        1.0290    -1.7860    -1.5560 C.3   1 <1>  -0.1600 
  8 C        3.2900     0.6580     1.5870 C.2   1 <1>   0.5690 
  9 C        3.5780    -1.8740     2.0640 C.3   1 <1>  -0.2400 
 10 O        2.8480     0.7300     2.7110 O.2   1 <1>  -0.5700 
 11 N        3.5700     1.8170     0.8880 N.am  1 <1>  -0.6600 
 12 C        3.8530     1.9040    -0.5750 C.3   1 <1>   0.1400 
 13 C        3.6840     3.1190     1.5930 C.3   1 <1>   0.1400 
 14 C        5.3540     1.7690    -0.8860 C.3   1 <1>   0.3430 
 15 C        5.1330     3.3430     2.0510 C.3   1 <1>  -0.1600 
 16 N        6.2070     2.7770    -0.1530 N.4   1 <1>  -0.9590 
 17 C        6.2100     2.5260     1.3240 C.3   1 <1>   0.3430 
 18 C        7.5930     2.7380    -0.7130 C.3   1 <1>   0.3430 
 19 C        8.3900     3.9910    -0.3420 C.3   1 <1>  -0.0220 
 20 C        9.7820     3.8840    -0.9370 C.2   1 <1>  -0.2880 
 21 C       10.9270     3.5820    -0.3130 C.2   1 <1>  -0.2760 
 22 C       12.2470     3.5340    -1.0670 C.3   1 <1>  -0.1020 
 23 C       11.1080     3.2550     1.1640 C.3   1 <1>  -0.1020 
 24 H        2.3180    -1.3910    -3.2730 H     1 <1>   0.0800 
 25 H        2.5860    -2.9590    -2.5150 H     1 <1>   0.0800 
 26 H        4.6720    -0.6860     0.7200 H     1 <1>   0.0800 
 27 H        1.3150    -2.4310     0.4890 H     1 <1>   0.0800 
 28 H        0.8460    -0.7370     0.3440 H     1 <1>   0.0800 
 29 H        0.4100    -2.6610    -1.6480 H     1 <1>   0.0800 
 30 H        0.4780    -0.9360    -1.9180 H     1 <1>   0.0800 
 31 H        2.5870    -1.9580     2.4720 H     1 <1>   0.0800 
 32 H        4.2500    -1.6570     2.8740 H     1 <1>   0.0800 
 33 H        3.8680    -2.8100     1.6220 H     1 <1>   0.0800 
 34 H        3.2970     1.1570    -1.1020 H     1 <1>   0.0800 
 35 H        3.5000     2.8460    -0.9550 H     1 <1>   0.0800 
 36 H        3.3740     3.9150     0.9380 H     1 <1>   0.0800 
 37 H        3.0250     3.1410     2.4470 H     1 <1>   0.0800 
 38 H        5.4860     1.8890    -1.9490 H     1 <1>   0.0800 
 39 H        5.6730     0.7690    -0.6390 H     1 <1>   0.0800 
 40 H        5.1810     3.0720     3.0910 H     1 <1>   0.0800 
 41 H        5.3670     4.3910     2.0030 H     1 <1>   0.0800 
 42 H        5.8150     3.7110    -0.3180 H     1 <1>   0.4500 
 43 H        6.0510     1.4770     1.5130 H     1 <1>   0.0800 
 44 H        7.1690     2.7870     1.7400 H     1 <1>   0.0800 
 45 H        8.1130     1.8650    -0.3520 H     1 <1>   0.0800 
 46 H        7.5490     2.6730    -1.7880 H     1 <1>   0.0800 
 47 H        7.9130     4.8680    -0.7420 H     1 <1>   0.0800 
 48 H        8.4510     4.1010     0.7220 H     1 <1>   0.0800 
 49 H        9.7740     4.0920    -1.9960 H     1 <1>   0.1500 
 50 H       12.9390     4.2440    -0.6490 H     1 <1>   0.0800 
 51 H       12.1090     3.7720    -2.1070 H     1 <1>   0.0800 
 52 H       12.6800     2.5510    -1.0020 H     1 <1>   0.0800 
 53 H       11.5780     2.2930     1.2710 H     1 <1>   0.0800 
 54 H       10.1800     3.2290     1.6990 H     1 <1>   0.0800 
 55 H       11.7400     3.9930     1.6250 H     1 <1>   0.0800 
@<TRIPOS>BOND
  1   1   2  2   
  2   2   3  am  
  3   2   4  1   
  4   3   5  1   
  5   3   6  1   
  6   4   7  1   
  7   4  24  1   
  8   4  25  1   
  9   5   8  1   
 10   5   9  1   
 11   5  26  1   
 12   6   7  1   
 13   6  27  1   
 14   6  28  1   
 15   7  29  1   
 16   7  30  1   
 17   8  10  2   
 18   8  11  am  
 19   9  31  1   
 20   9  32  1   
 21   9  33  1   
 22  11  12  1   
 23  11  13  1   
 24  12  14  1   
 25  12  34  1   
 26  12  35  1   
 27  13  15  1   
 28  13  36  1   
 29  13  37  1   
 30  14  16  1   
 31  14  38  1   
 32  14  39  1   
 33  15  17  1   
 34  15  40  1   
 35  15  41  1   
 36  16  17  1   
 37  16  18  1   
 38  16  42  1   
 39  17  43  1   
 40  17  44  1   
 41  18  19  1   
 42  18  45  1   
 43  18  46  1   
 44  19  20  1   
 45  19  47  1   
 46  19  48  1   
 47  20  21  2   
 48  20  49  1   
 49  21  22  1   
 50  21  23  1   
 51  22  50  1   
 52  22  51  1   
 53  22  52  1   
 54  23  53  1   
 55  23  54  1   
 56  23  55  1   
@<TRIPOS>SUBSTRUCTURE
  1 ****  14 GROUP 4 **** **** 0

# MOE 2024.06 (io_trps.svl 2023.06)
