@<TRIPOS>MOLECULE
NONAME
57 60 1 0 0 
SMALL
USER_CHARGES


@<TRIPOS>ATOM
  1 O        0.2170     0.0410    -0.9280 O.2   1 <1>  -0.5700 
  2 C        1.1170    -0.6920    -0.5610 C.2   1 <1>   0.5440 
  3 N        2.3110    -0.1360    -0.1500 N.am  1 <1>  -0.6600 
  4 C        0.8950    -2.1240    -0.5630 C.ar  1 <1>   0.0860 
  5 C        3.2730    -0.8170     0.7590 C.3   1 <1>   0.1400 
  6 C        2.6450     1.2880    -0.4330 C.3   1 <1>   0.1400 
  7 C       -0.2250    -2.6930     0.0100 C.ar  1 <1>  -0.1500 
  8 C        1.7780    -3.0220    -1.1460 C.ar  1 <1>  -0.1500 
  9 C        4.6820    -0.7570     0.1570 C.3   1 <1>  -0.1600 
 10 C        4.0510     1.3760    -1.0360 C.3   1 <1>  -0.1600 
 11 C       -0.4260    -4.0690    -0.0020 C.ar  1 <1>   0.4100 
 12 C        1.5120    -4.3750    -1.1040 C.ar  1 <1>   0.1600 
 13 C        5.0990     0.6880    -0.1490 C.3   1 <1>  -0.1600 
 14 N        0.4460    -4.9130    -0.5430 N.ar  1 <1>  -0.6200 
 15 N       -1.5660    -4.6240     0.5630 N.pl3 1 <1>  -0.8380 
 16 C       -1.5030    -5.9850     1.1890 C.3   1 <1>   0.2090 
 17 C       -2.8780    -3.9260     0.4800 C.3   1 <1>   0.2090 
 18 C       -1.8200    -7.1040     0.1840 C.3   1 <1>   0.1400 
 19 C       -4.0650    -4.8520     0.1880 C.3   1 <1>  -0.1600 
 20 N       -3.2720    -7.1570    -0.1830 N.am  1 <1>  -0.6600 
 21 C       -3.7730    -5.9310    -0.8610 C.3   1 <1>   0.1400 
 22 C       -4.0360    -8.2640     0.1080 C.2   1 <1>   0.5770 
 23 O       -3.5650    -9.2150     0.6890 O.2   1 <1>  -0.5700 
 24 C       -5.5100    -8.3260    -0.3010 C.3   1 <1>   0.0530 
 25 C       -6.4590    -7.4330     0.5430 C.3   1 <1>   0.0000 
 26 C       -6.3360    -9.5390     0.2200 C.3   1 <1>   0.0000 
 27 C       -7.5190    -8.5540     0.3960 C.3   1 <1>   0.0000 
 28 H        2.9890    -1.8400     0.9320 H     1 <1>   0.0800 
 29 H        3.2670    -0.3100     1.7090 H     1 <1>   0.0800 
 30 H        2.6000     1.8470     0.4860 H     1 <1>   0.0800 
 31 H        1.9330     1.7140    -1.1200 H     1 <1>   0.0800 
 32 H       -0.9470    -2.0530     0.4770 H     1 <1>   0.1500 
 33 H        2.6640    -2.6560    -1.6300 H     1 <1>   0.1500 
 34 H        4.7030    -1.3400    -0.7470 H     1 <1>   0.0800 
 35 H        5.3810    -1.1960     0.8470 H     1 <1>   0.0800 
 36 H        4.3130     2.4100    -1.1720 H     1 <1>   0.0800 
 37 H        4.0370     0.9130    -2.0080 H     1 <1>   0.0800 
 38 H        2.2120    -5.0540    -1.5590 H     1 <1>   0.1500 
 39 H        6.0560     0.6960    -0.6420 H     1 <1>   0.0800 
 40 H        5.1950     1.2350     0.7740 H     1 <1>   0.0800 
 41 H       -2.1760    -6.0440     2.0250 H     1 <1>   0.0800 
 42 H       -0.5070    -6.1430     1.5660 H     1 <1>   0.0800 
 43 H       -2.8280    -3.1960    -0.3110 H     1 <1>   0.0800 
 44 H       -3.0540    -3.3990     1.4020 H     1 <1>   0.0800 
 45 H       -1.5160    -8.0380     0.6200 H     1 <1>   0.0800 
 46 H       -1.2310    -6.9630    -0.7040 H     1 <1>   0.0800 
 47 H       -4.8680    -4.2350    -0.1730 H     1 <1>   0.0800 
 48 H       -4.4060    -5.3040     1.1010 H     1 <1>   0.0800 
 49 H       -3.0390    -5.5790    -1.5670 H     1 <1>   0.0800 
 50 H       -4.6700    -6.1500    -1.4110 H     1 <1>   0.0800 
 51 H       -5.6580    -8.1870    -1.3590 H     1 <1>   0.0000 
 52 H       -6.7360    -6.5110     0.0640 H     1 <1>   0.0000 
 53 H       -6.1280    -7.3080     1.5600 H     1 <1>   0.0000 
 54 H       -5.9970    -9.9300     1.1650 H     1 <1>   0.0000 
 55 H       -6.5110   -10.2990    -0.5210 H     1 <1>   0.0000 
 56 H       -8.1130    -8.4510    -0.4970 H     1 <1>   0.0000 
 57 H       -8.1010    -8.7240     1.2850 H     1 <1>   0.0000 
@<TRIPOS>BOND
  1   1   2  2   
  2   2   3  am  
  3   2   4  1   
  4   3   5  1   
  5   3   6  1   
  6   4   7  ar  
  7   4   8  ar  
  8   5   9  1   
  9   5  28  1   
 10   5  29  1   
 11   6  10  1   
 12   6  30  1   
 13   6  31  1   
 14   7  11  ar  
 15   7  32  1   
 16   8  12  ar  
 17   8  33  1   
 18   9  13  1   
 19   9  34  1   
 20   9  35  1   
 21  10  13  1   
 22  10  36  1   
 23  10  37  1   
 24  11  14  ar  
 25  11  15  1   
 26  12  14  ar  
 27  12  38  1   
 28  13  39  1   
 29  13  40  1   
 30  15  16  1   
 31  15  17  1   
 32  16  18  1   
 33  16  41  1   
 34  16  42  1   
 35  17  19  1   
 36  17  43  1   
 37  17  44  1   
 38  18  20  1   
 39  18  45  1   
 40  18  46  1   
 41  19  21  1   
 42  19  47  1   
 43  19  48  1   
 44  20  21  1   
 45  20  22  am  
 46  21  49  1   
 47  21  50  1   
 48  22  23  2   
 49  22  24  1   
 50  24  25  1   
 51  24  26  1   
 52  24  51  1   
 53  25  27  1   
 54  25  52  1   
 55  25  53  1   
 56  26  27  1   
 57  26  54  1   
 58  26  55  1   
 59  27  56  1   
 60  27  57  1   
@<TRIPOS>SUBSTRUCTURE
  1 ****  11 GROUP 4 **** **** 0

# MOE 2024.06 (io_trps.svl 2023.06)
