@<TRIPOS>MOLECULE
NONAME
62 66 1 0 0 
SMALL
USER_CHARGES


@<TRIPOS>ATOM
  1 O       -2.2220     2.0900     1.8350 O.2   1 <1>  -0.5700 
  2 C       -2.4650     1.8450     0.6720 C.2   1 <1>   0.5690 
  3 N       -3.5210     1.0210     0.3400 N.am  1 <1>  -0.6600 
  4 C       -1.5570     2.4810    -0.4260 C.3   1 <1>   0.2510 
  5 C       -4.3830     0.4140     1.3980 C.3   1 <1>   0.1400 
  6 C       -4.0340     0.7550    -1.0360 C.3   1 <1>   0.1400 
  7 N       -0.1210     2.7100    -0.0330 N.3   1 <1>  -0.8100 
  8 C       -2.1910     3.8110    -0.8650 C.3   1 <1>  -0.2400 
  9 C       -4.4470    -1.1000     1.1940 C.3   1 <1>  -0.1600 
 10 C       -4.0780    -0.7560    -1.2710 C.3   1 <1>  -0.1600 
 11 C        0.7400     3.2930    -1.0870 C.3   1 <1>   0.1100 
 12 C        0.5070     1.4980     0.5440 C.3   1 <1>   0.1100 
 13 C       -4.9370    -1.4570    -0.2150 C.3   1 <1>   0.4600 
 14 C        2.1490     3.6130    -0.5460 C.3   1 <1>   0.3430 
 15 C        1.9010     1.8130     1.1170 C.3   1 <1>   0.3430 
 16 O       -6.2470    -0.9610    -0.3890 O.3   1 <1>  -0.5600 
 17 C       -4.9350    -2.9650    -0.4390 C.2   1 <1>  -0.3320 
 18 N        2.8060     2.4120     0.0760 N.4   1 <1>  -0.9590 
 19 C       -7.3180    -1.7220     0.1170 C.3   1 <1>   0.1200 
 20 N       -3.8400    -3.7830    -0.4890 N.pl3 1 <1>   0.0330 
 21 C       -6.0480    -3.7050    -0.6190 C.2   1 <1>  -0.1810 
 22 C        4.1310     2.7680     0.6640 C.3   1 <1>   0.2630 
 23 C       -7.4200    -3.0790    -0.5980 C.3   1 <1>   0.0210 
 24 C       -4.2760    -5.0660    -0.7140 C.ar  1 <1>  -0.1520 
 25 C       -5.6660    -5.0500    -0.8040 C.ar  1 <1>   0.0000 
 26 C       -3.5650    -6.2610    -0.8500 C.ar  1 <1>  -0.1500 
 27 C       -6.3590    -6.2410    -1.0360 C.ar  1 <1>  -0.1500 
 28 C       -4.2590    -7.4270    -1.0760 C.ar  1 <1>  -0.1500 
 29 C       -5.6570    -7.4170    -1.1700 C.ar  1 <1>  -0.1500 
 30 H       -1.5480     1.8120    -1.2650 H     1 <1>   0.0800 
 31 H       -5.3720     0.8370     1.3320 H     1 <1>   0.0800 
 32 H       -3.9990     0.6260     2.3820 H     1 <1>   0.0800 
 33 H       -3.4310     1.2210    -1.7900 H     1 <1>   0.0800 
 34 H       -5.0290     1.1610    -1.1200 H     1 <1>   0.0800 
 35 H       -2.0400     4.5560    -0.1040 H     1 <1>   0.0800 
 36 H       -3.2510     3.6840    -0.9960 H     1 <1>   0.0800 
 37 H       -1.7930     4.1520    -1.8010 H     1 <1>   0.0800 
 38 H       -5.0870    -1.5450     1.9310 H     1 <1>   0.0800 
 39 H       -3.4640    -1.5050     1.3440 H     1 <1>   0.0800 
 40 H       -3.0770    -1.1430    -1.2440 H     1 <1>   0.0800 
 41 H       -4.4840    -0.9650    -2.2440 H     1 <1>   0.0800 
 42 H        0.3190     4.2180    -1.4370 H     1 <1>   0.0800 
 43 H        0.8080     2.6200    -1.9240 H     1 <1>   0.0800 
 44 H        0.5800     0.7270    -0.2030 H     1 <1>   0.0800 
 45 H       -0.0870     1.1150     1.3540 H     1 <1>   0.0800 
 46 H        2.0530     4.3930     0.1910 H     1 <1>   0.0800 
 47 H        2.7590     3.9910    -1.3500 H     1 <1>   0.0800 
 48 H        2.3360     0.9080     1.5080 H     1 <1>   0.0800 
 49 H        1.7770     2.5040     1.9350 H     1 <1>   0.0800 
 50 H        2.9380     1.7100    -0.6640 H     1 <1>   0.4500 
 51 H       -8.2210    -1.1560    -0.0300 H     1 <1>   0.0800 
 52 H       -7.1680    -1.8650     1.1720 H     1 <1>   0.0800 
 53 H       -2.8600    -3.5080    -0.3790 H     1 <1>   0.2700 
 54 H        4.0090     3.5030     1.4430 H     1 <1>   0.0800 
 55 H        4.7810     3.1740    -0.0950 H     1 <1>   0.0800 
 56 H        4.6010     1.8940     1.0850 H     1 <1>   0.0800 
 57 H       -7.7720    -2.9410    -1.6040 H     1 <1>   0.0800 
 58 H       -8.1090    -3.7150    -0.0730 H     1 <1>   0.0800 
 59 H       -2.4920    -6.2610    -0.7770 H     1 <1>   0.1500 
 60 H       -7.4300    -6.2180    -1.1060 H     1 <1>   0.1500 
 61 H       -3.7350    -8.3600    -1.1840 H     1 <1>   0.1500 
 62 H       -6.1760    -8.3420    -1.3480 H     1 <1>   0.1500 
@<TRIPOS>BOND
  1   1   2  2   
  2   2   3  am  
  3   2   4  1   
  4   3   5  1   
  5   3   6  1   
  6   4   7  1   
  7   4   8  1   
  8   4  30  1   
  9   5   9  1   
 10   5  31  1   
 11   5  32  1   
 12   6  10  1   
 13   6  33  1   
 14   6  34  1   
 15   7  11  1   
 16   7  12  1   
 17   8  35  1   
 18   8  36  1   
 19   8  37  1   
 20   9  13  1   
 21   9  38  1   
 22   9  39  1   
 23  10  13  1   
 24  10  40  1   
 25  10  41  1   
 26  11  14  1   
 27  11  42  1   
 28  11  43  1   
 29  12  15  1   
 30  12  44  1   
 31  12  45  1   
 32  13  16  1   
 33  13  17  1   
 34  14  18  1   
 35  14  46  1   
 36  14  47  1   
 37  15  18  1   
 38  15  48  1   
 39  15  49  1   
 40  16  19  1   
 41  17  20  1   
 42  17  21  2   
 43  18  22  1   
 44  18  50  1   
 45  19  23  1   
 46  19  51  1   
 47  19  52  1   
 48  20  24  1   
 49  20  53  1   
 50  21  23  1   
 51  21  25  1   
 52  22  54  1   
 53  22  55  1   
 54  22  56  1   
 55  23  57  1   
 56  23  58  1   
 57  24  25  ar  
 58  24  26  ar  
 59  25  27  ar  
 60  26  28  ar  
 61  26  59  1   
 62  27  29  ar  
 63  27  60  1   
 64  28  29  ar  
 65  28  61  1   
 66  29  62  1   
@<TRIPOS>SUBSTRUCTURE
  1 ****  10 GROUP 4 **** **** 0

# MOE 2024.06 (io_trps.svl 2023.06)
