@<TRIPOS>MOLECULE
NONAME
45 46 1 0 0 
SMALL
USER_CHARGES


@<TRIPOS>ATOM
  1 S        0.0850     0.2580    -0.5570 S.o2  1 <1>   1.3330 
  2 O       -1.2980     0.6520    -0.6980 O.2   1 <1>  -0.6500 
  3 O        0.8650    -0.0360    -1.7400 O.2   1 <1>  -0.6500 
  4 N        0.0980    -1.1260     0.4310 N.am  1 <1>  -0.8490 
  5 C        0.9490     1.4860     0.4360 C.3   1 <1>  -0.0550 
  6 C        0.0610    -2.3660    -0.3510 C.3   1 <1>   0.1160 
  7 C       -0.9750    -1.1390     1.4320 C.3   1 <1>   0.1160 
  8 C        2.4940     1.4390     0.4490 C.3   1 <1>  -0.0800 
  9 C        3.1240     1.8110    -0.8960 C.3   1 <1>   0.2200 
 10 C        3.1490     0.1000     0.8060 C.3   1 <1>   0.1200 
 11 N        3.9240     3.0440    -0.7380 N.am  1 <1>  -0.7300 
 12 C        4.0310     0.6200    -1.1970 C.3   1 <1>   0.1200 
 13 O        4.3090     0.0510     0.0430 O.3   1 <1>  -0.5600 
 14 C        3.4210     4.3090    -0.6800 C.2   1 <1>   0.5440 
 15 O        2.2200     4.4420    -0.8360 O.2   1 <1>  -0.5700 
 16 C        4.2710     5.4680    -0.4510 C.ar  1 <1>   0.0860 
 17 C        5.4840     5.4250     0.2640 C.ar  1 <1>   0.0820 
 18 C        3.8610     6.7020    -0.9720 C.ar  1 <1>  -0.1500 
 19 O        5.8620     4.2230     0.7910 O.3   1 <1>  -0.3630 
 20 C        6.2180     6.6130     0.3960 C.ar  1 <1>   0.1900 
 21 C        4.6000     7.8590    -0.8210 C.ar  1 <1>  -0.1500 
 22 C        6.9740     4.0110     1.6350 C.3   1 <1>   0.0400 
 23 F        7.3620     6.6490     1.0310 F     1 <1>  -0.1900 
 24 C        5.7950     7.8160    -0.1300 C.ar  1 <1>  -0.1500 
 25 H        0.6680     2.4580     0.0780 H     1 <1>   0.0800 
 26 H        0.5980     1.4200     1.4460 H     1 <1>   0.0800 
 27 H        0.0780    -3.2210     0.3030 H     1 <1>   0.0800 
 28 H        0.9210    -2.4220    -0.9970 H     1 <1>   0.0800 
 29 H       -0.8290    -2.3990    -0.9570 H     1 <1>   0.0800 
 30 H       -0.8580    -1.9850     2.0880 H     1 <1>   0.0800 
 31 H       -1.9380    -1.1990     0.9510 H     1 <1>   0.0800 
 32 H       -0.9420    -0.2420     2.0260 H     1 <1>   0.0800 
 33 H        2.8170     2.1470     1.1920 H     1 <1>   0.0800 
 34 H        2.4040     1.9520    -1.6850 H     1 <1>   0.0800 
 35 H        2.5530    -0.7480     0.5280 H     1 <1>   0.0800 
 36 H        3.4120     0.0350     1.8480 H     1 <1>   0.0800 
 37 H        4.8650     2.9020    -0.3520 H     1 <1>   0.3700 
 38 H        4.9480     0.9020    -1.6830 H     1 <1>   0.0800 
 39 H        3.5100    -0.1130    -1.7880 H     1 <1>   0.0800 
 40 H        2.9300     6.7480    -1.5140 H     1 <1>   0.1500 
 41 H        4.2470     8.7870    -1.2380 H     1 <1>   0.1500 
 42 H        6.9690     2.9810     1.9440 H     1 <1>   0.0800 
 43 H        6.8900     4.6490     2.4970 H     1 <1>   0.0800 
 44 H        7.8760     4.2200     1.0870 H     1 <1>   0.0800 
 45 H        6.3900     8.7020    -0.0020 H     1 <1>   0.1500 
@<TRIPOS>BOND
  1   1   2  2   
  2   1   3  2   
  3   1   4  am  
  4   1   5  1   
  5   4   6  1   
  6   4   7  1   
  7   5   8  1   
  8   5  25  1   
  9   5  26  1   
 10   6  27  1   
 11   6  28  1   
 12   6  29  1   
 13   7  30  1   
 14   7  31  1   
 15   7  32  1   
 16   8   9  1   
 17   8  10  1   
 18   8  33  1   
 19   9  11  1   
 20   9  12  1   
 21   9  34  1   
 22  10  13  1   
 23  10  35  1   
 24  10  36  1   
 25  11  14  am  
 26  11  37  1   
 27  12  13  1   
 28  12  38  1   
 29  12  39  1   
 30  14  15  2   
 31  14  16  1   
 32  16  17  ar  
 33  16  18  ar  
 34  17  19  1   
 35  17  20  ar  
 36  18  21  ar  
 37  18  40  1   
 38  19  22  1   
 39  20  23  1   
 40  20  24  ar  
 41  21  24  ar  
 42  21  41  1   
 43  22  42  1   
 44  22  43  1   
 45  22  44  1   
 46  24  45  1   
@<TRIPOS>SUBSTRUCTURE
  1 ****  11 GROUP 4 **** **** 0

# MOE 2024.06 (io_trps.svl 2023.06)
