@<TRIPOS>MOLECULE
NONAME
45 46 1 0 0 
SMALL
USER_CHARGES


@<TRIPOS>ATOM
  1 S       -0.5110     0.3690     1.4650 S.o2  1 <1>   1.4470 
  2 O       -0.9520     1.6410     1.9990 O.2   1 <1>  -0.6500 
  3 O       -0.2530    -0.6840     2.4210 O.2   1 <1>  -0.6500 
  4 N       -1.7150    -0.1460     0.3830 N.am  1 <1>  -0.8490 
  5 C        0.9710     0.6410     0.4670 C.ar  1 <1>  -0.0090 
  6 C       -1.4050    -1.1390    -0.6750 C.3   1 <1>   0.1960 
  7 C       -3.0670    -0.2190     0.9300 C.3   1 <1>   0.1960 
  8 C        0.9820     1.5480    -0.5800 C.ar  1 <1>   0.1900 
  9 C        2.1530    -0.0520     0.7080 C.ar  1 <1>  -0.1500 
 10 C       -1.7900    -2.6080    -0.3670 C.3   1 <1>  -0.1060 
 11 C       -3.4290    -1.6420     1.3510 C.3   1 <1>  -0.1600 
 12 F       -0.0930     2.2360    -0.8540 F     1 <1>  -0.1900 
 13 C        2.0940     1.7700    -1.3710 C.ar  1 <1>  -0.1500 
 14 C        3.2840     0.1450    -0.0710 C.ar  1 <1>  -0.1440 
 15 C       -1.8090    -3.3760    -1.6930 C.2   1 <1>   0.9060 
 16 C       -3.2410    -2.5830     0.1630 C.3   1 <1>   0.2000 
 17 C       -0.8060    -3.3190     0.6160 C.3   1 <1>  -0.1600 
 18 C        3.2530     1.0610    -1.1110 C.ar  1 <1>  -0.1500 
 19 C        4.5480    -0.6440     0.2180 C.3   1 <1>  -0.0970 
 20 O       -1.2240    -2.9120    -2.6790 O.co2 1 <1>  -0.9000 
 21 O       -2.4230    -4.4520    -1.7520 O.co2 1 <1>  -0.9000 
 22 O       -3.6480    -3.8490     0.5310 O.3   1 <1>  -0.6800 
 23 C        0.6530    -3.3940     0.1310 C.3   1 <1>  -0.1600 
 24 C        1.5450    -4.0520     1.1860 C.3   1 <1>  -0.2400 
 25 H       -1.9710    -0.8390    -1.5430 H     1 <1>   0.0800 
 26 H       -0.3760    -1.0750    -0.9740 H     1 <1>   0.0800 
 27 H       -3.1710     0.4500     1.7680 H     1 <1>   0.0800 
 28 H       -3.7560     0.1050     0.1680 H     1 <1>   0.0800 
 29 H        2.1810    -0.7640     1.5170 H     1 <1>   0.1500 
 30 H       -4.4570    -1.6640     1.6600 H     1 <1>   0.0800 
 31 H       -2.8180    -1.9430     2.1820 H     1 <1>   0.0800 
 32 H        2.0480     2.4840    -2.1740 H     1 <1>   0.1500 
 33 H       -3.8940    -2.2720    -0.6360 H     1 <1>   0.0800 
 34 H       -0.8410    -2.8540     1.5790 H     1 <1>   0.0800 
 35 H       -1.1460    -4.3300     0.7590 H     1 <1>   0.0800 
 36 H        4.1250     1.2220    -1.7210 H     1 <1>   0.1500 
 37 H        5.1250    -0.7730    -0.6800 H     1 <1>   0.0800 
 38 H        4.3020    -1.6180     0.6030 H     1 <1>   0.0800 
 39 H        5.1460    -0.1230     0.9450 H     1 <1>   0.0800 
 40 H       -3.3590    -4.4370    -0.2250 H     1 <1>   0.4000 
 41 H        0.7000    -3.9670    -0.7810 H     1 <1>   0.0800 
 42 H        1.0340    -2.4150    -0.0790 H     1 <1>   0.0800 
 43 H        1.2020    -5.0510     1.3910 H     1 <1>   0.0800 
 44 H        1.5240    -3.4830     2.0990 H     1 <1>   0.0800 
 45 H        2.5580    -4.1030     0.8310 H     1 <1>   0.0800 
@<TRIPOS>BOND
  1   1   2  2   
  2   1   3  2   
  3   1   4  am  
  4   1   5  1   
  5   4   6  1   
  6   4   7  1   
  7   5   8  ar  
  8   5   9  ar  
  9   6  10  1   
 10   6  25  1   
 11   6  26  1   
 12   7  11  1   
 13   7  27  1   
 14   7  28  1   
 15   8  12  1   
 16   8  13  ar  
 17   9  14  ar  
 18   9  29  1   
 19  10  15  1   
 20  10  16  1   
 21  10  17  1   
 22  11  16  1   
 23  11  30  1   
 24  11  31  1   
 25  13  18  ar  
 26  13  32  1   
 27  14  18  ar  
 28  14  19  1   
 29  15  20  ar  
 30  15  21  ar  
 31  16  22  1   
 32  16  33  1   
 33  17  23  1   
 34  17  34  1   
 35  17  35  1   
 36  18  36  1   
 37  19  37  1   
 38  19  38  1   
 39  19  39  1   
 40  22  40  1   
 41  23  24  1   
 42  23  41  1   
 43  23  42  1   
 44  24  43  1   
 45  24  44  1   
 46  24  45  1   
@<TRIPOS>SUBSTRUCTURE
  1 ****   6 GROUP 4 **** **** 0

# MOE 2024.06 (io_trps.svl 2023.06)
