@<TRIPOS>MOLECULE
NONAME
53 57 1 0 0 
SMALL
USER_CHARGES


@<TRIPOS>ATOM
  1 O       -1.5110     0.0190     0.8010 O.3   1 <1>  -0.2800 
  2 C       -2.2200     0.8010     1.5920 C.2   1 <1>  -0.0400 
  3 C       -0.2490     0.3820     0.9040 C.2   1 <1>  -0.0400 
  4 C       -1.4180     1.6890     2.2190 C.2   1 <1>  -0.1500 
  5 C       -3.7220     0.6070     1.6710 C.3   1 <1>   0.5230 
  6 C       -0.1230     1.4120     1.7650 C.2   1 <1>  -0.1500 
  7 C        0.7960    -0.3620     0.1000 C.3   1 <1>  -0.0600 
  8 N       -4.3080     0.8130     0.3170 N.4   1 <1>  -0.9590 
  9 C       -5.7220     1.3070     0.3960 C.3   1 <1>   0.3430 
 10 C       -4.2010    -0.4280    -0.5070 C.3   1 <1>   0.3430 
 11 C       -6.3090     1.6120    -0.9940 C.3   1 <1>   0.1430 
 12 C       -4.7190    -0.1600    -1.9230 C.3   1 <1>  -0.1600 
 13 C       -7.7680     1.9650    -0.8290 C.ar  1 <1>   0.1670 
 14 C       -6.1590     0.3860    -1.9200 C.3   1 <1>  -0.1600 
 15 C       -5.7250     2.9010    -1.6350 C.3   1 <1>  -0.1600 
 16 N       -8.6160     1.2840    -0.1000 N.ar  1 <1>  -0.6200 
 17 C       -8.1000     3.0900    -1.5150 C.ar  1 <1>  -0.1430 
 18 C       -6.9150     3.6650    -2.2510 C.3   1 <1>  -0.0170 
 19 C       -9.8690     1.7630    -0.0760 C.ar  1 <1>   0.6200 
 20 C       -9.4000     3.5180    -1.4370 C.ar  1 <1>   0.1600 
 21 N      -10.2840     2.8630    -0.7190 N.ar  1 <1>  -0.6200 
 22 C      -10.8480     1.0370     0.7180 C.ar  1 <1>   0.0000 
 23 C      -11.8820     1.6970     1.3870 C.ar  1 <1>  -0.1500 
 24 C      -10.7990    -0.3540     0.8480 C.ar  1 <1>  -0.1500 
 25 C      -12.8120     1.0120     2.1470 C.ar  1 <1>  -0.1500 
 26 C      -11.7250    -1.0470     1.6070 C.ar  1 <1>  -0.1500 
 27 C      -12.7340    -0.3640     2.2600 C.ar  1 <1>  -0.1500 
 28 H       -1.6620     2.4630     2.9270 H     1 <1>   0.1500 
 29 H       -4.1260     1.3280     2.3630 H     1 <1>   0.0800 
 30 H       -3.9480    -0.3820     2.0360 H     1 <1>   0.0800 
 31 H        0.7710     1.9330     2.0660 H     1 <1>   0.1500 
 32 H        0.5850    -0.2740    -0.9500 H     1 <1>   0.0800 
 33 H        0.7950    -1.4020     0.3720 H     1 <1>   0.0800 
 34 H        1.7720     0.0450     0.2930 H     1 <1>   0.0800 
 35 H       -3.7170     1.5240    -0.1330 H     1 <1>   0.4500 
 36 H       -5.7740     2.1990     0.9990 H     1 <1>   0.0800 
 37 H       -6.3390     0.5570     0.8640 H     1 <1>   0.0800 
 38 H       -4.7840    -1.2160    -0.0570 H     1 <1>   0.0800 
 39 H       -3.1760    -0.7570    -0.5600 H     1 <1>   0.0800 
 40 H       -4.6940    -1.0810    -2.4800 H     1 <1>   0.0800 
 41 H       -4.0550     0.5250    -2.4190 H     1 <1>   0.0800 
 42 H       -6.4610     0.6390    -2.9230 H     1 <1>   0.0800 
 43 H       -6.8210    -0.3910    -1.5770 H     1 <1>   0.0800 
 44 H       -4.9720     2.7020    -2.3770 H     1 <1>   0.0800 
 45 H       -5.2940     3.5240    -0.8710 H     1 <1>   0.0800 
 46 H       -7.0060     3.4510    -3.3020 H     1 <1>   0.0800 
 47 H       -6.8290     4.7280    -2.1010 H     1 <1>   0.0800 
 48 H       -9.7210     4.4020    -1.9620 H     1 <1>   0.1500 
 49 H      -11.9600     2.7680     1.3070 H     1 <1>   0.1500 
 50 H      -10.0240    -0.9030     0.3430 H     1 <1>   0.1500 
 51 H      -13.5970     1.5490     2.6510 H     1 <1>   0.1500 
 52 H      -11.6630    -2.1180     1.6890 H     1 <1>   0.1500 
 53 H      -13.4570    -0.9000     2.8510 H     1 <1>   0.1500 
@<TRIPOS>BOND
  1   1   2  1   
  2   1   3  1   
  3   2   4  2   
  4   2   5  1   
  5   3   6  2   
  6   3   7  1   
  7   4   6  1   
  8   4  28  1   
  9   5   8  1   
 10   5  29  1   
 11   5  30  1   
 12   6  31  1   
 13   7  32  1   
 14   7  33  1   
 15   7  34  1   
 16   8   9  1   
 17   8  10  1   
 18   8  35  1   
 19   9  11  1   
 20   9  36  1   
 21   9  37  1   
 22  10  12  1   
 23  10  38  1   
 24  10  39  1   
 25  11  13  1   
 26  11  14  1   
 27  11  15  1   
 28  12  14  1   
 29  12  40  1   
 30  12  41  1   
 31  13  16  ar  
 32  13  17  ar  
 33  14  42  1   
 34  14  43  1   
 35  15  18  1   
 36  15  44  1   
 37  15  45  1   
 38  16  19  ar  
 39  17  18  1   
 40  17  20  ar  
 41  18  46  1   
 42  18  47  1   
 43  19  21  ar  
 44  19  22  1   
 45  20  21  ar  
 46  20  48  1   
 47  22  23  ar  
 48  22  24  ar  
 49  23  25  ar  
 50  23  49  1   
 51  24  26  ar  
 52  24  50  1   
 53  25  27  ar  
 54  25  51  1   
 55  26  27  ar  
 56  26  52  1   
 57  27  53  1   
@<TRIPOS>SUBSTRUCTURE
  1 ****   9 GROUP 4 **** **** 0

# MOE 2024.06 (io_trps.svl 2023.06)
