@<TRIPOS>MOLECULE
NONAME
53 54 1 0 0 
SMALL
USER_CHARGES


@<TRIPOS>ATOM
  1 F       -0.2560     0.8880     0.2040 F     1 <1>  -0.1900 
  2 C       -1.5570     1.0240     0.2410 C.ar  1 <1>   0.1900 
  3 C       -2.2280     1.9690    -0.5420 C.ar  1 <1>   0.0830 
  4 C       -2.2370     0.1830     1.1010 C.ar  1 <1>  -0.1500 
  5 O       -1.6710     2.8510    -1.4220 O.3   1 <1>  -0.3630 
  6 C       -3.6070     2.0350    -0.4290 C.ar  1 <1>  -0.1500 
  7 C       -3.6140     0.2770     1.1910 C.ar  1 <1>  -0.1500 
  8 C       -0.2870     2.9000    -1.6900 C.3   1 <1>   0.0400 
  9 C       -4.3290     1.2000     0.4260 C.ar  1 <1>   0.0530 
 10 C       -5.7630     1.3150     0.5170 C.2   1 <1>   0.0870 
 11 O       -6.3040     2.5070     0.5460 O.3   1 <1>  -0.0190 
 12 C       -6.7830     0.4140     0.5900 C.2   1 <1>  -0.0860 
 13 N       -7.6040     2.4780     0.6470 N.2   1 <1>  -0.4100 
 14 C       -7.9210     1.2320     0.6780 C.2   1 <1>   0.3720 
 15 C       -6.7710    -1.0190     0.5580 C.2   1 <1>   0.7160 
 16 N       -9.2520     0.7950     0.7960 N.pl3 1 <1>  -0.8210 
 17 O       -5.7530    -1.6470     0.3390 O.2   1 <1>  -0.5700 
 18 N       -7.9220    -1.7100     0.7680 N.am  1 <1>  -0.7300 
 19 C      -10.2070     1.5350    -0.0760 C.3   1 <1>   0.1290 
 20 C       -9.7210     0.7570     2.2090 C.3   1 <1>   0.1290 
 21 C       -8.1540    -3.1670     0.6380 C.3   1 <1>   0.1400 
 22 C       -9.0130    -3.5000    -0.6030 C.3   1 <1>   0.0000 
 23 C      -10.3410    -2.7100    -0.5880 C.3   1 <1>   0.1200 
 24 C       -8.2410    -3.1570    -1.8910 C.3   1 <1>  -0.2400 
 25 C       -9.3080    -5.0110    -0.6100 C.3   1 <1>  -0.2400 
 26 O      -11.0180    -2.9150     0.6160 O.3   1 <1>  -0.5600 
 27 C      -12.2480    -2.2720     0.6850 C.3   1 <1>   0.0400 
 28 H       -1.6960    -0.5350     1.6910 H     1 <1>   0.1500 
 29 H       -4.1350     2.7580    -1.0250 H     1 <1>   0.1500 
 30 H       -4.1430    -0.3760     1.8620 H     1 <1>   0.1500 
 31 H       -0.1170     3.6630    -2.4290 H     1 <1>   0.0800 
 32 H        0.0300     1.9460    -2.0730 H     1 <1>   0.0800 
 33 H        0.2370     3.1480    -0.7840 H     1 <1>   0.0800 
 34 H       -8.7700    -1.1300     0.8440 H     1 <1>   0.3700 
 35 H       -9.8120     1.6010    -1.0750 H     1 <1>   0.0800 
 36 H      -10.3600     2.5330     0.3010 H     1 <1>   0.0800 
 37 H      -11.1510     1.0200    -0.1090 H     1 <1>   0.0800 
 38 H       -8.9920     0.2580     2.8250 H     1 <1>   0.0800 
 39 H      -10.6510     0.2210     2.2740 H     1 <1>   0.0800 
 40 H       -9.8590     1.7590     2.5800 H     1 <1>   0.0800 
 41 H       -8.6560    -3.5110     1.5260 H     1 <1>   0.0800 
 42 H       -7.2090    -3.6800     0.5750 H     1 <1>   0.0800 
 43 H      -10.9730    -3.0350    -1.3960 H     1 <1>   0.0800 
 44 H      -10.1520    -1.6550    -0.6940 H     1 <1>   0.0800 
 45 H       -8.0430    -2.1020    -1.9480 H     1 <1>   0.0800 
 46 H       -8.8050    -3.4420    -2.7610 H     1 <1>   0.0800 
 47 H       -7.2970    -3.6740    -1.9120 H     1 <1>   0.0800 
 48 H       -9.8490    -5.2920     0.2760 H     1 <1>   0.0800 
 49 H       -8.3920    -5.5760    -0.6420 H     1 <1>   0.0800 
 50 H       -9.9030    -5.2780    -1.4650 H     1 <1>   0.0800 
 51 H      -12.6830    -2.4870     1.6450 H     1 <1>   0.0800 
 52 H      -12.8880    -2.6470    -0.0940 H     1 <1>   0.0800 
 53 H      -12.1010    -1.2120     0.5810 H     1 <1>   0.0800 
@<TRIPOS>BOND
  1   1   2  1   
  2   2   3  ar  
  3   2   4  ar  
  4   3   5  1   
  5   3   6  ar  
  6   4   7  ar  
  7   4  28  1   
  8   5   8  1   
  9   6   9  ar  
 10   6  29  1   
 11   7   9  ar  
 12   7  30  1   
 13   8  31  1   
 14   8  32  1   
 15   8  33  1   
 16   9  10  1   
 17  10  11  1   
 18  10  12  2   
 19  11  13  1   
 20  12  14  1   
 21  12  15  1   
 22  13  14  2   
 23  14  16  1   
 24  15  17  2   
 25  15  18  am  
 26  16  19  1   
 27  16  20  1   
 28  18  21  1   
 29  18  34  1   
 30  19  35  1   
 31  19  36  1   
 32  19  37  1   
 33  20  38  1   
 34  20  39  1   
 35  20  40  1   
 36  21  22  1   
 37  21  41  1   
 38  21  42  1   
 39  22  23  1   
 40  22  24  1   
 41  22  25  1   
 42  23  26  1   
 43  23  43  1   
 44  23  44  1   
 45  24  45  1   
 46  24  46  1   
 47  24  47  1   
 48  25  48  1   
 49  25  49  1   
 50  25  50  1   
 51  26  27  1   
 52  27  51  1   
 53  27  52  1   
 54  27  53  1   
@<TRIPOS>SUBSTRUCTURE
  1 ****  12 GROUP 4 **** **** 0

# MOE 2024.06 (io_trps.svl 2023.06)
