@<TRIPOS>MOLECULE
NONAME
51 55 1 0 0 
SMALL
USER_CHARGES


@<TRIPOS>ATOM
  1 O       -0.3880    -2.4240     2.1970 O.2   1 <1>  -0.5700 
  2 C       -0.2420    -2.2840     0.9960 C.2   1 <1>   0.5440 
  3 N       -1.3040    -2.5770     0.1880 N.am  1 <1>  -0.6600 
  4 C        1.0160    -1.7820     0.4820 C.ar  1 <1>   0.0860 
  5 C       -2.6460    -2.7150     0.7190 C.3   1 <1>   0.5890 
  6 C       -1.2740    -2.8160    -1.2720 C.3   1 <1>   0.2810 
  7 C        1.6730    -2.3250    -0.6360 C.ar  1 <1>   0.1170 
  8 C        1.6280    -0.7140     1.1430 C.ar  1 <1>  -0.1500 
  9 N       -3.1820    -1.3560     0.8370 N.pl3 1 <1>  -0.8690 
 10 C       -3.5060    -3.4580    -0.3330 C.3   1 <1>   0.1440 
 11 C       -0.1030    -3.7290    -1.6990 C.2   1 <1>   0.5690 
 12 C       -2.6780    -3.3470    -1.6350 C.3   1 <1>  -0.1600 
 13 N        1.1750    -3.4040    -1.3700 N.am  1 <1>  -0.5470 
 14 C        2.8940    -1.7950    -1.0400 C.ar  1 <1>  -0.1500 
 15 C        2.8370    -0.1930     0.7280 C.ar  1 <1>  -0.1500 
 16 C       -4.4340    -1.3570     0.2690 C.ar  1 <1>   0.1000 
 17 C       -4.7050    -2.5090    -0.4410 C.ar  1 <1>  -0.1440 
 18 C       -3.8140    -4.9280     0.1520 C.3   1 <1>   0.1380 
 19 O       -0.2850    -4.7260    -2.3550 O.2   1 <1>  -0.5700 
 20 C        3.4740    -0.7370    -0.3710 C.ar  1 <1>  -0.1500 
 21 C       -5.3600    -0.3300     0.3510 C.ar  1 <1>  -0.1500 
 22 C       -5.9010    -2.6180    -1.1330 C.ar  1 <1>  -0.1500 
 23 C       -4.5950    -4.9000     1.4740 C.2   1 <1>  -0.2880 
 24 C       -4.5990    -5.7720    -0.8780 C.3   1 <1>  -0.2400 
 25 C       -2.5190    -5.7240     0.4260 C.3   1 <1>  -0.2400 
 26 C       -6.5670    -0.4550    -0.3120 C.ar  1 <1>  -0.1500 
 27 C       -6.8340    -1.5930    -1.0570 C.ar  1 <1>  -0.1500 
 28 C       -5.9000    -5.1210     1.6760 C.2   1 <1>  -0.3000 
 29 H       -2.6390    -3.1920     1.6830 H     1 <1>   0.0800 
 30 H       -1.1390    -1.8650    -1.7560 H     1 <1>   0.0800 
 31 H        1.1380    -0.2910     2.0040 H     1 <1>   0.1500 
 32 H       -3.1190    -1.0180     1.7990 H     1 <1>   0.4000 
 33 H       -3.1310    -2.6350    -2.3020 H     1 <1>   0.0800 
 34 H       -2.6370    -4.2740    -2.1680 H     1 <1>   0.0800 
 35 H        1.8570    -4.0440    -1.7770 H     1 <1>   0.3700 
 36 H        3.3970    -2.2130    -1.8940 H     1 <1>   0.1500 
 37 H        3.2830     0.6320     1.2580 H     1 <1>   0.1500 
 38 H        4.4190    -0.3360    -0.6980 H     1 <1>   0.1500 
 39 H       -5.1270     0.5510     0.9190 H     1 <1>   0.1500 
 40 H       -6.1250    -3.4730    -1.7380 H     1 <1>   0.1500 
 41 H       -3.9650    -4.6670     2.3160 H     1 <1>   0.1500 
 42 H       -4.7580    -6.7630    -0.4900 H     1 <1>   0.0800 
 43 H       -4.0680    -5.8710    -1.8060 H     1 <1>   0.0800 
 44 H       -5.5630    -5.3610    -1.0830 H     1 <1>   0.0800 
 45 H       -2.7600    -6.7060     0.7960 H     1 <1>   0.0800 
 46 H       -1.9000    -5.2500     1.1650 H     1 <1>   0.0800 
 47 H       -1.9410    -5.8460    -0.4710 H     1 <1>   0.0800 
 48 H       -7.2960     0.3350    -0.2560 H     1 <1>   0.1500 
 49 H       -7.7680    -1.6810    -1.5840 H     1 <1>   0.1500 
 50 H       -6.3640    -5.0800     2.6460 H     1 <1>   0.1500 
 51 H       -6.6190    -5.3540     0.9110 H     1 <1>   0.1500 
@<TRIPOS>BOND
  1   1   2  2   
  2   2   3  am  
  3   2   4  1   
  4   3   5  1   
  5   3   6  1   
  6   4   7  ar  
  7   4   8  ar  
  8   5   9  1   
  9   5  10  1   
 10   5  29  1   
 11   6  11  1   
 12   6  12  1   
 13   6  30  1   
 14   7  13  1   
 15   7  14  ar  
 16   8  15  ar  
 17   8  31  1   
 18   9  16  1   
 19   9  32  1   
 20  10  12  1   
 21  10  17  1   
 22  10  18  1   
 23  11  13  am  
 24  11  19  2   
 25  12  33  1   
 26  12  34  1   
 27  13  35  1   
 28  14  20  ar  
 29  14  36  1   
 30  15  20  ar  
 31  15  37  1   
 32  16  17  ar  
 33  16  21  ar  
 34  17  22  ar  
 35  18  23  1   
 36  18  24  1   
 37  18  25  1   
 38  20  38  1   
 39  21  26  ar  
 40  21  39  1   
 41  22  27  ar  
 42  22  40  1   
 43  23  28  2   
 44  23  41  1   
 45  24  42  1   
 46  24  43  1   
 47  24  44  1   
 48  25  45  1   
 49  25  46  1   
 50  25  47  1   
 51  26  27  ar  
 52  26  48  1   
 53  27  49  1   
 54  28  50  1   
 55  28  51  1   
@<TRIPOS>SUBSTRUCTURE
  1 ****   3 GROUP 4 **** **** 0

# MOE 2024.06 (io_trps.svl 2023.06)
