@<TRIPOS>MOLECULE
NONAME
57 60 1 0 0 
SMALL
USER_CHARGES


@<TRIPOS>ATOM
  1 F       -1.8550    -2.0020    -3.3770 F     1 <1>  -0.1900 
  2 C       -1.6010    -2.6210    -2.2510 C.ar  1 <1>   0.1900 
  3 C       -0.3590    -2.4990    -1.6520 C.ar  1 <1>   0.1900 
  4 C       -2.5910    -3.3930    -1.6770 C.ar  1 <1>  -0.1500 
  5 F        0.5770    -1.7640    -2.2030 F     1 <1>  -0.1900 
  6 C       -0.0810    -3.1510    -0.4640 C.ar  1 <1>  -0.1500 
  7 C       -2.3320    -4.0550    -0.4810 C.ar  1 <1>   0.1000 
  8 C       -1.0740    -3.9270     0.1140 C.ar  1 <1>  -0.1500 
  9 N       -3.3310    -4.8340     0.0940 N.pl3 1 <1>  -0.8380 
 10 C       -3.6190    -4.6740     1.5360 C.3   1 <1>   0.2090 
 11 C       -3.5220    -6.1930    -0.4570 C.3   1 <1>   0.2090 
 12 C       -5.0830    -5.0390     1.7640 C.3   1 <1>  -0.1600 
 13 C       -4.9860    -6.5780    -0.2570 C.3   1 <1>  -0.1600 
 14 C       -5.3660    -6.4460     1.2270 C.3   1 <1>   0.4230 
 15 N       -6.7930    -6.7960     1.4930 N.4   1 <1>  -0.9590 
 16 C       -7.8000    -6.0360     0.7000 C.3   1 <1>   0.3430 
 17 C       -7.1170    -8.2370     1.2970 C.3   1 <1>   0.3430 
 18 C       -9.0850    -6.8430     0.8360 C.3   1 <1>  -0.0800 
 19 C       -8.6000    -8.3060     0.9160 C.3   1 <1>  -0.0800 
 20 C      -10.1310    -6.5420    -0.2690 C.3   1 <1>   0.2800 
 21 C       -8.7790    -9.0650    -0.4100 C.3   1 <1>  -0.1600 
 22 O       -9.4640    -6.2750    -1.4490 O.3   1 <1>  -0.6800 
 23 C      -11.0140    -7.7810    -0.5030 C.3   1 <1>  -0.1600 
 24 C      -11.0180    -5.3170     0.0440 C.3   1 <1>  -0.1600 
 25 C      -10.2370    -9.0550    -0.8940 C.3   1 <1>  -0.1600 
 26 C      -10.2900    -3.9750     0.2370 C.3   1 <1>  -0.2400 
 27 H       -3.5530    -3.4790    -2.1440 H     1 <1>   0.1500 
 28 H        0.8870    -3.0510    -0.0080 H     1 <1>   0.1500 
 29 H       -0.8700    -4.4450     1.0320 H     1 <1>   0.1500 
 30 H       -2.9700    -5.3140     2.1100 H     1 <1>   0.0800 
 31 H       -3.4420    -3.6510     1.8300 H     1 <1>   0.0800 
 32 H       -3.2760    -6.2020    -1.5060 H     1 <1>   0.0800 
 33 H       -2.8690    -6.8840     0.0510 H     1 <1>   0.0800 
 34 H       -5.6870    -4.3070     1.2580 H     1 <1>   0.0800 
 35 H       -5.2880    -4.9920     2.8170 H     1 <1>   0.0800 
 36 H       -5.1200    -7.5850    -0.6020 H     1 <1>   0.0800 
 37 H       -5.5740    -5.9200    -0.8710 H     1 <1>   0.0800 
 38 H       -4.7420    -7.1290     1.7810 H     1 <1>   0.0800 
 39 H       -6.9840    -6.5820     2.4790 H     1 <1>   0.4500 
 40 H       -7.9160    -5.0280     1.0580 H     1 <1>   0.0800 
 41 H       -7.5090    -6.0110    -0.3370 H     1 <1>   0.0800 
 42 H       -6.5290    -8.6460     0.4930 H     1 <1>   0.0800 
 43 H       -6.9220    -8.8030     2.1940 H     1 <1>   0.0800 
 44 H       -9.5280    -6.6020     1.7860 H     1 <1>   0.0800 
 45 H       -9.1450    -8.8290     1.6830 H     1 <1>   0.0800 
 46 H       -8.1680    -8.6020    -1.1670 H     1 <1>   0.0800 
 47 H       -8.4470   -10.0850    -0.3090 H     1 <1>   0.0800 
 48 H      -10.1150    -6.1680    -2.1690 H     1 <1>   0.4000 
 49 H      -11.5420    -7.9830     0.4120 H     1 <1>   0.0800 
 50 H      -11.7620    -7.5750    -1.2480 H     1 <1>   0.0800 
 51 H      -11.7330    -5.1990    -0.7530 H     1 <1>   0.0800 
 52 H      -11.5890    -5.5200     0.9340 H     1 <1>   0.0800 
 53 H      -10.7570    -9.9100    -0.4950 H     1 <1>   0.0800 
 54 H      -10.2380    -9.1570    -1.9670 H     1 <1>   0.0800 
 55 H       -9.6470    -3.7610    -0.5990 H     1 <1>   0.0800 
 56 H       -9.7130    -3.9720     1.1430 H     1 <1>   0.0800 
 57 H      -11.0140    -3.1820     0.3100 H     1 <1>   0.0800 
@<TRIPOS>BOND
  1   1   2  1   
  2   2   3  ar  
  3   2   4  ar  
  4   3   5  1   
  5   3   6  ar  
  6   4   7  ar  
  7   4  27  1   
  8   6   8  ar  
  9   6  28  1   
 10   7   8  ar  
 11   7   9  1   
 12   8  29  1   
 13   9  10  1   
 14   9  11  1   
 15  10  12  1   
 16  10  30  1   
 17  10  31  1   
 18  11  13  1   
 19  11  32  1   
 20  11  33  1   
 21  12  14  1   
 22  12  34  1   
 23  12  35  1   
 24  13  14  1   
 25  13  36  1   
 26  13  37  1   
 27  14  15  1   
 28  14  38  1   
 29  15  16  1   
 30  15  17  1   
 31  15  39  1   
 32  16  18  1   
 33  16  40  1   
 34  16  41  1   
 35  17  19  1   
 36  17  42  1   
 37  17  43  1   
 38  18  19  1   
 39  18  20  1   
 40  18  44  1   
 41  19  21  1   
 42  19  45  1   
 43  20  22  1   
 44  20  23  1   
 45  20  24  1   
 46  21  25  1   
 47  21  46  1   
 48  21  47  1   
 49  22  48  1   
 50  23  25  1   
 51  23  49  1   
 52  23  50  1   
 53  24  26  1   
 54  24  51  1   
 55  24  52  1   
 56  25  53  1   
 57  25  54  1   
 58  26  55  1   
 59  26  56  1   
 60  26  57  1   
@<TRIPOS>SUBSTRUCTURE
  1 ****  13 GROUP 4 **** **** 0

# MOE 2024.06 (io_trps.svl 2023.06)
