@<TRIPOS>MOLECULE
NONAME
50 54 1 0 0 
SMALL
USER_CHARGES


@<TRIPOS>ATOM
  1 O       -0.2690    -1.3620     1.4210 O.2   1 <1>  -0.5700 
  2 C       -0.5350    -2.3800     0.8340 C.2   1 <1>   0.4230 
  3 C       -1.8630    -2.6860     0.3610 C.ar  1 <1>   0.0860 
  4 C        0.6120    -3.3470     0.6100 C.3   1 <1>  -0.1790 
  5 C       -2.2000    -3.9020    -0.2410 C.ar  1 <1>   0.1600 
  6 C       -2.8970    -1.7610     0.4850 C.ar  1 <1>  -0.1500 
  7 N       -3.3900    -4.2510    -0.6890 N.ar  1 <1>  -0.6200 
  8 C       -4.1420    -2.1040     0.0210 C.ar  1 <1>  -0.1500 
  9 C       -4.3620    -3.3530    -0.5550 C.ar  1 <1>   0.4100 
 10 N       -5.6160    -3.7040    -1.0000 N.pl3 1 <1>  -0.8380 
 11 C       -5.7980    -4.6390    -2.1440 C.3   1 <1>   0.2090 
 12 C       -6.8000    -3.6020    -0.1120 C.3   1 <1>   0.2090 
 13 C       -6.1140    -6.0350    -1.6120 C.3   1 <1>  -0.1600 
 14 C       -7.1060    -4.9860     0.4560 C.3   1 <1>  -0.1600 
 15 C       -7.3130    -6.0150    -0.6610 C.3   1 <1>   0.4600 
 16 O       -8.4330    -5.6410    -1.4370 O.3   1 <1>  -0.5600 
 17 C       -7.5460    -7.4060    -0.0830 C.2   1 <1>  -0.3320 
 18 C       -9.7140    -5.9720    -0.9570 C.3   1 <1>   0.1200 
 19 N       -6.6340    -8.1610     0.6020 N.pl3 1 <1>   0.0330 
 20 C       -8.7060    -8.0860    -0.1760 C.2   1 <1>  -0.1810 
 21 C       -9.9030    -7.4960    -0.8770 C.3   1 <1>   0.0210 
 22 C       -7.2370    -9.3480     0.9430 C.ar  1 <1>  -0.1520 
 23 C       -8.5450    -9.3320     0.4640 C.ar  1 <1>   0.0000 
 24 C       -6.7440   -10.4530     1.6410 C.ar  1 <1>  -0.1500 
 25 C       -9.3750   -10.4360     0.6820 C.ar  1 <1>  -0.1500 
 26 C       -7.5720   -11.5320     1.8490 C.ar  1 <1>  -0.1500 
 27 C       -8.8880   -11.5240     1.3690 C.ar  1 <1>  -0.1500 
 28 H        0.7280    -3.5500    -0.4390 H     1 <1>   0.0800 
 29 H        0.4340    -4.2620     1.1430 H     1 <1>   0.0800 
 30 H        1.5270    -2.9150     0.9740 H     1 <1>   0.0800 
 31 H       -1.4320    -4.6430    -0.3600 H     1 <1>   0.1500 
 32 H       -2.7140    -0.7990     0.9340 H     1 <1>   0.1500 
 33 H       -4.9590    -1.4120     0.0860 H     1 <1>   0.1500 
 34 H       -4.9070    -4.6660    -2.7480 H     1 <1>   0.0800 
 35 H       -6.6090    -4.2890    -2.7610 H     1 <1>   0.0800 
 36 H       -7.6400    -3.2380    -0.6800 H     1 <1>   0.0800 
 37 H       -6.6100    -2.9160     0.6940 H     1 <1>   0.0800 
 38 H       -5.2460    -6.4000    -1.0970 H     1 <1>   0.0800 
 39 H       -6.3180    -6.7030    -2.4270 H     1 <1>   0.0800 
 40 H       -7.9700    -4.9460     1.0900 H     1 <1>   0.0800 
 41 H       -6.2760    -5.2890     1.0660 H     1 <1>   0.0800 
 42 H      -10.4360    -5.5430    -1.6290 H     1 <1>   0.0800 
 43 H       -9.8410    -5.5290     0.0140 H     1 <1>   0.0800 
 44 H       -5.6650    -7.9030     0.8140 H     1 <1>   0.2700 
 45 H       -9.9850    -7.9090    -1.8660 H     1 <1>   0.0800 
 46 H      -10.8010    -7.7220    -0.3320 H     1 <1>   0.0800 
 47 H       -5.7320   -10.4520     2.0050 H     1 <1>   0.1500 
 48 H      -10.3810   -10.4150     0.3070 H     1 <1>   0.1500 
 49 H       -7.2160   -12.3960     2.3830 H     1 <1>   0.1500 
 50 H       -9.5140   -12.3810     1.5440 H     1 <1>   0.1500 
@<TRIPOS>BOND
  1   1   2  2   
  2   2   3  1   
  3   2   4  1   
  4   3   5  ar  
  5   3   6  ar  
  6   4  28  1   
  7   4  29  1   
  8   4  30  1   
  9   5   7  ar  
 10   5  31  1   
 11   6   8  ar  
 12   6  32  1   
 13   7   9  ar  
 14   8   9  ar  
 15   8  33  1   
 16   9  10  1   
 17  10  11  1   
 18  10  12  1   
 19  11  13  1   
 20  11  34  1   
 21  11  35  1   
 22  12  14  1   
 23  12  36  1   
 24  12  37  1   
 25  13  15  1   
 26  13  38  1   
 27  13  39  1   
 28  14  15  1   
 29  14  40  1   
 30  14  41  1   
 31  15  16  1   
 32  15  17  1   
 33  16  18  1   
 34  17  19  1   
 35  17  20  2   
 36  18  21  1   
 37  18  42  1   
 38  18  43  1   
 39  19  22  1   
 40  19  44  1   
 41  20  21  1   
 42  20  23  1   
 43  21  45  1   
 44  21  46  1   
 45  22  23  ar  
 46  22  24  ar  
 47  23  25  ar  
 48  24  26  ar  
 49  24  47  1   
 50  25  27  ar  
 51  25  48  1   
 52  26  27  ar  
 53  26  49  1   
 54  27  50  1   
@<TRIPOS>SUBSTRUCTURE
  1 ****  14 GROUP 4 **** **** 0

# MOE 2024.06 (io_trps.svl 2023.06)
