@<TRIPOS>MOLECULE
NONAME
59 62 1 0 0 
SMALL
USER_CHARGES


@<TRIPOS>ATOM
  1 N       -0.0490    -0.1930    -0.2500 N.ar  1 <1>  -0.6200 
  2 C        1.0800     0.5060    -0.2330 C.ar  1 <1>   0.7710 
  3 C       -0.0130    -1.4790     0.0350 C.ar  1 <1>   0.4100 
  4 N        2.2480    -0.0690     0.0970 N.ar  1 <1>  -0.1790 
  5 N        1.0610     1.8290    -0.5480 N.pl3 1 <1>  -0.8380 
  6 N       -1.1940    -2.1640    -0.0380 N.pl3 1 <1>  -0.8380 
  7 C        1.1980    -2.1040     0.3970 C.ar  1 <1>  -0.1500 
  8 C        2.3420    -1.3770     0.4230 C.ar  1 <1>   0.2180 
  9 C       -0.2190     2.5740    -0.7850 C.3   1 <1>   0.2090 
 10 C        2.2400     2.7440    -0.6810 C.3   1 <1>   0.2090 
 11 C       -1.3090    -3.6090    -0.4400 C.3   1 <1>   0.2090 
 12 C       -2.5130    -1.4340    -0.0420 C.3   1 <1>   0.2090 
 13 C        3.7040    -1.9480     0.8030 C.3   1 <1>  -0.0170 
 14 C       -0.3650     3.6680     0.2780 C.3   1 <1>  -0.1600 
 15 C        2.1550     3.8290     0.3970 C.3   1 <1>  -0.1600 
 16 C       -2.4110    -4.3440     0.3560 C.3   1 <1>   0.3430 
 17 C       -3.6010    -2.1960     0.7450 C.3   1 <1>   0.3430 
 18 C        4.7060    -1.8770    -0.3570 C.3   1 <1>  -0.2400 
 19 C        0.8420     4.6180     0.2910 C.3   1 <1>  -0.1600 
 20 N       -3.7410    -3.6290     0.3060 N.4   1 <1>  -0.9590 
 21 C       -4.7900    -4.3410     1.0900 C.3   1 <1>   0.4860 
 22 C       -4.9880    -5.7200     0.5000 C.ar  1 <1>  -0.1430 
 23 C       -4.4990    -6.8330     1.1690 C.ar  1 <1>   0.1600 
 24 C       -5.6440    -5.9000    -0.7040 C.ar  1 <1>  -0.1500 
 25 N       -4.5820    -8.0720     0.7260 N.ar  1 <1>  -0.6200 
 26 C       -5.7510    -7.1940    -1.1690 C.ar  1 <1>  -0.1500 
 27 C       -5.2080    -8.2300    -0.4290 C.ar  1 <1>   0.1600 
 28 H        3.0510     0.5440     0.1030 H     1 <1>   0.4570 
 29 H        1.2020    -3.1420     0.6620 H     1 <1>   0.1500 
 30 H       -1.0800     1.9290    -0.7470 H     1 <1>   0.0800 
 31 H       -0.1950     3.0220    -1.7650 H     1 <1>   0.0800 
 32 H        2.2170     3.2080    -1.6540 H     1 <1>   0.0800 
 33 H        3.1750     2.2210    -0.5970 H     1 <1>   0.0800 
 34 H       -0.3790    -4.1280    -0.3030 H     1 <1>   0.0800 
 35 H       -1.5430    -3.6580    -1.4900 H     1 <1>   0.0800 
 36 H       -2.8330    -1.2890    -1.0600 H     1 <1>   0.0800 
 37 H       -2.4050    -0.4600     0.4050 H     1 <1>   0.0800 
 38 H        3.5920    -2.9780     1.0980 H     1 <1>   0.0800 
 39 H        4.0960    -1.4150     1.6540 H     1 <1>   0.0800 
 40 H       -0.4740     3.2050     1.2430 H     1 <1>   0.0800 
 41 H       -1.2610     4.2320     0.0860 H     1 <1>   0.0800 
 42 H        2.9840     4.5060     0.2880 H     1 <1>   0.0800 
 43 H        2.2270     3.3750     1.3700 H     1 <1>   0.0800 
 44 H       -2.0870    -4.4310     1.3790 H     1 <1>   0.0800 
 45 H       -2.5160    -5.3410    -0.0410 H     1 <1>   0.0800 
 46 H       -4.5400    -1.6800     0.6260 H     1 <1>   0.0800 
 47 H       -3.3390    -2.1630     1.7900 H     1 <1>   0.0800 
 48 H        4.3290    -2.4070    -1.2150 H     1 <1>   0.0800 
 49 H        5.6340    -2.3370    -0.0630 H     1 <1>   0.0800 
 50 H        4.9150    -0.8610    -0.6390 H     1 <1>   0.0800 
 51 H        0.7580     5.3030     1.1170 H     1 <1>   0.0800 
 52 H        0.8460     5.1970    -0.6180 H     1 <1>   0.0800 
 53 H       -4.0480    -3.6380    -0.6760 H     1 <1>   0.4500 
 54 H       -5.7220    -3.7990     1.0440 H     1 <1>   0.0800 
 55 H       -4.4940    -4.4210     2.1240 H     1 <1>   0.0800 
 56 H       -4.0060    -6.7100     2.1190 H     1 <1>   0.1500 
 57 H       -6.0650    -5.0850    -1.2690 H     1 <1>   0.1500 
 58 H       -6.2520    -7.4070    -2.0980 H     1 <1>   0.1500 
 59 H       -5.2960    -9.2370    -0.8020 H     1 <1>   0.1500 
@<TRIPOS>BOND
  1   1   2  ar  
  2   1   3  ar  
  3   2   4  ar  
  4   2   5  1   
  5   3   6  1   
  6   3   7  ar  
  7   4   8  ar  
  8   4  28  1   
  9   5   9  1   
 10   5  10  1   
 11   6  11  1   
 12   6  12  1   
 13   7   8  ar  
 14   7  29  1   
 15   8  13  1   
 16   9  14  1   
 17   9  30  1   
 18   9  31  1   
 19  10  15  1   
 20  10  32  1   
 21  10  33  1   
 22  11  16  1   
 23  11  34  1   
 24  11  35  1   
 25  12  17  1   
 26  12  36  1   
 27  12  37  1   
 28  13  18  1   
 29  13  38  1   
 30  13  39  1   
 31  14  19  1   
 32  14  40  1   
 33  14  41  1   
 34  15  19  1   
 35  15  42  1   
 36  15  43  1   
 37  16  20  1   
 38  16  44  1   
 39  16  45  1   
 40  17  20  1   
 41  17  46  1   
 42  17  47  1   
 43  18  48  1   
 44  18  49  1   
 45  18  50  1   
 46  19  51  1   
 47  19  52  1   
 48  20  21  1   
 49  20  53  1   
 50  21  22  1   
 51  21  54  1   
 52  21  55  1   
 53  22  23  ar  
 54  22  24  ar  
 55  23  25  ar  
 56  23  56  1   
 57  24  26  ar  
 58  24  57  1   
 59  25  27  ar  
 60  26  27  ar  
 61  26  58  1   
 62  27  59  1   
@<TRIPOS>SUBSTRUCTURE
  1 ****   6 GROUP 4 **** **** 0

# MOE 2024.06 (io_trps.svl 2023.06)
