@<TRIPOS>MOLECULE
NONAME
56 58 1 0 0 
SMALL
USER_CHARGES


@<TRIPOS>ATOM
  1 O       -3.2370     0.5570     0.5450 O.2   1 <1>  -0.5700 
  2 C       -3.1210     1.2420    -0.4580 C.2   1 <1>   0.5440 
  3 N       -3.7950     0.7940    -1.5680 N.am  1 <1>  -0.6600 
  4 C       -2.3590     2.4800    -0.4630 C.ar  1 <1>   0.0860 
  5 C       -5.2380     1.1710    -1.6770 C.3   1 <1>   0.1400 
  6 C       -3.5340    -0.6130    -2.0180 C.3   1 <1>   0.1400 
  7 C       -2.1440     3.2120    -1.6340 C.ar  1 <1>  -0.1500 
  8 C       -1.8080     2.9940     0.7140 C.ar  1 <1>  -0.1500 
  9 C       -6.1410     0.2280    -0.8330 C.3   1 <1>   0.4230 
 10 C       -4.5860    -1.6100    -1.4730 C.3   1 <1>   0.3430 
 11 C       -1.4260     4.3930    -1.6270 C.ar  1 <1>  -0.1500 
 12 C       -1.0880     4.1740     0.7300 C.ar  1 <1>  -0.1500 
 13 N       -5.3930    -1.0000    -0.3600 N.4   1 <1>  -0.9590 
 14 C       -7.4200    -0.1700    -1.6040 C.3   1 <1>   0.1200 
 15 C       -0.8920     4.8860    -0.4490 C.ar  1 <1>   0.0830 
 16 C       -6.3070    -1.9180     0.3910 C.3   1 <1>   0.4230 
 17 O       -8.2070    -1.0440    -0.8450 O.3   1 <1>  -0.5600 
 18 O       -0.2040     6.0470    -0.5270 O.3   1 <1>  -0.3630 
 19 C       -7.5750    -2.2290    -0.4410 C.3   1 <1>   0.1200 
 20 C       -5.5570    -3.1800     0.8440 C.3   1 <1>  -0.1600 
 21 C        0.3970     6.6330     0.6050 C.3   1 <1>   0.1200 
 22 C       -6.3320    -3.9740     1.9070 C.3   1 <1>  -0.1600 
 23 C        1.0940     7.9200     0.1640 C.3   1 <1>  -0.1600 
 24 C       -5.5160    -5.1760     2.3920 C.3   1 <1>  -0.2400 
 25 C        1.7760     8.6200     1.3450 C.3   1 <1>  -0.2400 
 26 H       -5.3760     2.1860    -1.3410 H     1 <1>   0.0800 
 27 H       -5.5270     1.1390    -2.7140 H     1 <1>   0.0800 
 28 H       -3.5170    -0.6520    -3.0940 H     1 <1>   0.0800 
 29 H       -2.5590    -0.9170    -1.6740 H     1 <1>   0.0800 
 30 H       -2.5400     2.8550    -2.5680 H     1 <1>   0.1500 
 31 H       -1.9470     2.4550     1.6360 H     1 <1>   0.1500 
 32 H       -6.4590     0.7840     0.0340 H     1 <1>   0.0800 
 33 H       -4.0710    -2.4900    -1.1240 H     1 <1>   0.0800 
 34 H       -5.2400    -1.9110    -2.2740 H     1 <1>   0.0800 
 35 H       -1.2690     4.9450    -2.5370 H     1 <1>   0.1500 
 36 H       -0.6860     4.5240     1.6620 H     1 <1>   0.1500 
 37 H       -4.6750    -0.6200     0.2960 H     1 <1>   0.4500 
 38 H       -7.1830    -0.6480    -2.5390 H     1 <1>   0.0800 
 39 H       -8.0160     0.7030    -1.8090 H     1 <1>   0.0800 
 40 H       -6.6350    -1.4050     1.2810 H     1 <1>   0.0800 
 41 H       -8.2840    -2.7800     0.1520 H     1 <1>   0.0800 
 42 H       -7.3370    -2.8110    -1.3140 H     1 <1>   0.0800 
 43 H       -5.3690    -3.8250     0.0040 H     1 <1>   0.0800 
 44 H       -4.6130    -2.8870     1.2720 H     1 <1>   0.0800 
 45 H       -0.3730     6.8460     1.3260 H     1 <1>   0.0800 
 46 H        1.1080     5.9350     1.0110 H     1 <1>   0.0800 
 47 H       -6.5530    -3.3420     2.7510 H     1 <1>   0.0800 
 48 H       -7.2650    -4.3350     1.5060 H     1 <1>   0.0800 
 49 H        1.8330     7.6820    -0.5830 H     1 <1>   0.0800 
 50 H        0.3670     8.5840    -0.2710 H     1 <1>   0.0800 
 51 H       -4.5890    -4.8540     2.8330 H     1 <1>   0.0800 
 52 H       -5.2990    -5.8440     1.5770 H     1 <1>   0.0800 
 53 H       -6.0720    -5.7200     3.1360 H     1 <1>   0.0800 
 54 H        2.5200     7.9790     1.7850 H     1 <1>   0.0800 
 55 H        1.0520     8.8820     2.0970 H     1 <1>   0.0800 
 56 H        2.2580     9.5200     1.0080 H     1 <1>   0.0800 
@<TRIPOS>BOND
  1   1   2  2   
  2   2   3  am  
  3   2   4  1   
  4   3   5  1   
  5   3   6  1   
  6   4   7  ar  
  7   4   8  ar  
  8   5   9  1   
  9   5  26  1   
 10   5  27  1   
 11   6  10  1   
 12   6  28  1   
 13   6  29  1   
 14   7  11  ar  
 15   7  30  1   
 16   8  12  ar  
 17   8  31  1   
 18   9  13  1   
 19   9  14  1   
 20   9  32  1   
 21  10  13  1   
 22  10  33  1   
 23  10  34  1   
 24  11  15  ar  
 25  11  35  1   
 26  12  15  ar  
 27  12  36  1   
 28  13  16  1   
 29  13  37  1   
 30  14  17  1   
 31  14  38  1   
 32  14  39  1   
 33  15  18  1   
 34  16  19  1   
 35  16  20  1   
 36  16  40  1   
 37  17  19  1   
 38  18  21  1   
 39  19  41  1   
 40  19  42  1   
 41  20  22  1   
 42  20  43  1   
 43  20  44  1   
 44  21  23  1   
 45  21  45  1   
 46  21  46  1   
 47  22  24  1   
 48  22  47  1   
 49  22  48  1   
 50  23  25  1   
 51  23  49  1   
 52  23  50  1   
 53  24  51  1   
 54  24  52  1   
 55  24  53  1   
 56  25  54  1   
 57  25  55  1   
 58  25  56  1   
@<TRIPOS>SUBSTRUCTURE
  1 ****   2 GROUP 4 **** **** 0

# MOE 2024.06 (io_trps.svl 2023.06)
