@<TRIPOS>MOLECULE
NONAME
55 58 1 0 0 
SMALL
USER_CHARGES


@<TRIPOS>ATOM
  1 F        4.5410     2.5620     2.7920 F     1 <1>  -0.1900 
  2 C        3.6930     3.1150     1.9690 C.ar  1 <1>   0.1900 
  3 C        2.4100     3.3780     2.4100 C.ar  1 <1>  -0.1500 
  4 C        4.1130     3.4290     0.6910 C.ar  1 <1>  -0.1500 
  5 C        1.5190     3.9820     1.5390 C.ar  1 <1>  -0.1500 
  6 C        3.2140     4.0350    -0.1700 C.ar  1 <1>  -0.1500 
  7 C        1.9180     4.3140     0.2480 C.ar  1 <1>  -0.1430 
  8 C        0.9490     4.9830    -0.7180 C.3   1 <1>   0.2840 
  9 N        1.2930     6.4230    -0.8490 N.am  1 <1>  -0.6600 
 10 C        2.0070     6.8850    -1.9270 C.2   1 <1>   0.5690 
 11 C        1.0670     7.2580     0.3740 C.3   1 <1>   0.1400 
 12 O        2.2740     6.1740    -2.8690 O.2   1 <1>  -0.5700 
 13 C        2.4980     8.3420    -1.9750 C.3   1 <1>   0.2700 
 14 C        1.2810     8.7680     0.1440 C.3   1 <1>   0.2090 
 15 N        2.5240     9.0390    -0.6380 N.pl3 1 <1>  -0.8380 
 16 C        3.7100     9.2300    -0.0140 C.ar  1 <1>   0.4100 
 17 N        4.0090     8.3730     0.9380 N.ar  1 <1>  -0.6200 
 18 C        4.5830    10.2810    -0.3830 C.ar  1 <1>  -0.1430 
 19 C        5.1870     8.4710     1.5290 C.ar  1 <1>   0.7710 
 20 C        5.7770    10.3730     0.2620 C.ar  1 <1>   0.2180 
 21 C        4.1710    11.2980    -1.4500 C.3   1 <1>  -0.0160 
 22 N        6.0560     9.4410     1.2040 N.ar  1 <1>  -0.1790 
 23 N        5.5350     7.5630     2.4830 N.pl3 1 <1>  -0.8380 
 24 C        6.8130    11.4580    -0.0160 C.3   1 <1>  -0.0170 
 25 C        5.3520    12.1380    -1.9560 C.3   1 <1>  -0.1600 
 26 C        6.7020     7.6350     3.4170 C.3   1 <1>   0.1290 
 27 C        4.6980     6.3380     2.7240 C.3   1 <1>   0.1290 
 28 C        6.2150    12.6370    -0.7930 C.3   1 <1>  -0.1600 
 29 H        2.1200     3.1120     3.4110 H     1 <1>   0.1500 
 30 H        5.1170     3.2050     0.3790 H     1 <1>   0.1500 
 31 H        0.5160     4.1890     1.8680 H     1 <1>   0.1500 
 32 H        3.5200     4.2940    -1.1710 H     1 <1>   0.1500 
 33 H       -0.0620     4.8880    -0.3640 H     1 <1>   0.0800 
 34 H        1.0050     4.4950    -1.6760 H     1 <1>   0.0800 
 35 H        1.7460     6.9320     1.1420 H     1 <1>   0.0800 
 36 H        0.0660     7.1010     0.7330 H     1 <1>   0.0800 
 37 H        1.8560     8.8870    -2.6420 H     1 <1>   0.0800 
 38 H        3.4860     8.3390    -2.3980 H     1 <1>   0.0800 
 39 H        1.3360     9.2670     1.0970 H     1 <1>   0.0800 
 40 H        0.4350     9.1710    -0.3870 H     1 <1>   0.0800 
 41 H        3.4240    11.9480    -1.0280 H     1 <1>   0.0800 
 42 H        3.7250    10.8030    -2.2940 H     1 <1>   0.0800 
 43 H        6.9360     9.4130     1.6980 H     1 <1>   0.4570 
 44 H        7.6160    11.0290    -0.5910 H     1 <1>   0.0800 
 45 H        7.2230    11.8290     0.9070 H     1 <1>   0.0800 
 46 H        4.9760    12.9770    -2.5180 H     1 <1>   0.0800 
 47 H        5.9550    11.5440    -2.6220 H     1 <1>   0.0800 
 48 H        7.0970     8.6320     3.4890 H     1 <1>   0.0800 
 49 H        7.4770     6.9640     3.0870 H     1 <1>   0.0800 
 50 H        6.3930     7.3350     4.4060 H     1 <1>   0.0800 
 51 H        4.0880     6.0990     1.8680 H     1 <1>   0.0800 
 52 H        4.0530     6.4950     3.5710 H     1 <1>   0.0800 
 53 H        5.3290     5.4880     2.9200 H     1 <1>   0.0800 
 54 H        7.0070    13.2640    -1.1690 H     1 <1>   0.0800 
 55 H        5.6080    13.2360    -0.1340 H     1 <1>   0.0800 
@<TRIPOS>BOND
  1   1   2  1   
  2   2   3  ar  
  3   2   4  ar  
  4   3   5  ar  
  5   3  29  1   
  6   4   6  ar  
  7   4  30  1   
  8   5   7  ar  
  9   5  31  1   
 10   6   7  ar  
 11   6  32  1   
 12   7   8  1   
 13   8   9  1   
 14   8  33  1   
 15   8  34  1   
 16   9  10  am  
 17   9  11  1   
 18  10  12  2   
 19  10  13  1   
 20  11  14  1   
 21  11  35  1   
 22  11  36  1   
 23  13  15  1   
 24  13  37  1   
 25  13  38  1   
 26  14  15  1   
 27  14  39  1   
 28  14  40  1   
 29  15  16  1   
 30  16  17  ar  
 31  16  18  ar  
 32  17  19  ar  
 33  18  20  ar  
 34  18  21  1   
 35  19  22  ar  
 36  19  23  1   
 37  20  22  ar  
 38  20  24  1   
 39  21  25  1   
 40  21  41  1   
 41  21  42  1   
 42  22  43  1   
 43  23  26  1   
 44  23  27  1   
 45  24  28  1   
 46  24  44  1   
 47  24  45  1   
 48  25  28  1   
 49  25  46  1   
 50  25  47  1   
 51  26  48  1   
 52  26  49  1   
 53  26  50  1   
 54  27  51  1   
 55  27  52  1   
 56  27  53  1   
 57  28  54  1   
 58  28  55  1   
@<TRIPOS>SUBSTRUCTURE
  1 ****  17 GROUP 4 **** **** 0

# MOE 2024.06 (io_trps.svl 2023.06)
