@<TRIPOS>MOLECULE
NONAME
44 45 1 0 0 
SMALL
USER_CHARGES


@<TRIPOS>ATOM
  1 O       -2.2920    -1.9620     0.3710 O.3   1 <1>  -0.5600 
  2 C       -0.9460    -1.6590     0.1470 C.3   1 <1>   0.1200 
  3 C       -3.0380    -0.8460     0.7590 C.3   1 <1>   0.0400 
  4 C       -0.1810    -2.9300    -0.2580 C.3   1 <1>   0.0000 
  5 C        0.2170    -3.8450     0.9470 C.3   1 <1>   0.0000 
  6 C        1.3460    -2.6370    -0.4000 C.3   1 <1>   0.0000 
  7 C       -0.7570    -3.6080    -1.5340 C.3   1 <1>   0.2090 
  8 C        1.6080    -4.0040     0.2820 C.3   1 <1>   0.0000 
  9 N       -1.3480    -4.9590    -1.3160 N.pl3 1 <1>  -0.8690 
 10 C       -2.4320    -5.3710    -0.6510 C.ar  1 <1>   0.7710 
 11 N       -2.7290    -6.6470    -0.7600 N.ar  1 <1>  -0.6200 
 12 N       -3.1500    -4.5160     0.0870 N.ar  1 <1>  -0.1790 
 13 C       -3.7810    -7.0930    -0.0980 C.ar  1 <1>   0.4100 
 14 C       -4.2520    -4.9220     0.7530 C.ar  1 <1>   0.2110 
 15 N       -4.0290    -8.4250    -0.1950 N.pl3 1 <1>  -0.8380 
 16 C       -4.6050    -6.2290     0.6710 C.ar  1 <1>  -0.1430 
 17 C       -4.0830    -9.3180     0.9950 C.3   1 <1>   0.1290 
 18 C       -3.8630    -9.1500    -1.4870 C.3   1 <1>   0.1290 
 19 C       -5.8740    -6.7270     1.3620 C.3   1 <1>  -0.0970 
 20 H       -0.5310    -1.2390     1.0490 H     1 <1>   0.0800 
 21 H       -0.8860    -0.9250    -0.6400 H     1 <1>   0.0800 
 22 H       -4.0600    -1.1460     0.9070 H     1 <1>   0.0800 
 23 H       -2.9920    -0.0970    -0.0140 H     1 <1>   0.0800 
 24 H       -2.6420    -0.4530     1.6820 H     1 <1>   0.0800 
 25 H       -0.3160    -4.7710     1.0520 H     1 <1>   0.0000 
 26 H        0.2810    -3.3070     1.8780 H     1 <1>   0.0000 
 27 H        1.6800    -1.8150     0.2110 H     1 <1>   0.0000 
 28 H        1.7120    -2.5790    -1.4100 H     1 <1>   0.0000 
 29 H        0.0240    -3.7130    -2.2690 H     1 <1>   0.0800 
 30 H       -1.5030    -2.9690    -1.9790 H     1 <1>   0.0800 
 31 H        1.6460    -4.8210    -0.4170 H     1 <1>   0.0000 
 32 H        2.4270    -3.9930     0.9790 H     1 <1>   0.0000 
 33 H       -0.8610    -5.7190    -1.8050 H     1 <1>   0.4000 
 34 H       -2.7990    -3.5530     0.1300 H     1 <1>   0.4570 
 35 H       -4.8110    -4.1940     1.3170 H     1 <1>   0.1500 
 36 H       -3.8570    -8.7670     1.8910 H     1 <1>   0.0800 
 37 H       -3.3580   -10.1080     0.8940 H     1 <1>   0.0800 
 38 H       -5.0640    -9.7520     1.0810 H     1 <1>   0.0800 
 39 H       -3.9090    -8.4590    -2.3120 H     1 <1>   0.0800 
 40 H       -4.6470    -9.8770    -1.6040 H     1 <1>   0.0800 
 41 H       -2.9090    -9.6480    -1.5070 H     1 <1>   0.0800 
 42 H       -6.4290    -7.3660     0.6960 H     1 <1>   0.0800 
 43 H       -6.5120    -5.9080     1.6450 H     1 <1>   0.0800 
 44 H       -5.6270    -7.2830     2.2470 H     1 <1>   0.0800 
@<TRIPOS>BOND
  1   1   2  1   
  2   1   3  1   
  3   2   4  1   
  4   2  20  1   
  5   2  21  1   
  6   3  22  1   
  7   3  23  1   
  8   3  24  1   
  9   4   5  1   
 10   4   6  1   
 11   4   7  1   
 12   5   8  1   
 13   5  25  1   
 14   5  26  1   
 15   6   8  1   
 16   6  27  1   
 17   6  28  1   
 18   7   9  1   
 19   7  29  1   
 20   7  30  1   
 21   8  31  1   
 22   8  32  1   
 23   9  10  1   
 24   9  33  1   
 25  10  11  ar  
 26  10  12  ar  
 27  11  13  ar  
 28  12  14  ar  
 29  12  34  1   
 30  13  15  1   
 31  13  16  ar  
 32  14  16  ar  
 33  14  35  1   
 34  15  17  1   
 35  15  18  1   
 36  16  19  1   
 37  17  36  1   
 38  17  37  1   
 39  17  38  1   
 40  18  39  1   
 41  18  40  1   
 42  18  41  1   
 43  19  42  1   
 44  19  43  1   
 45  19  44  1   
@<TRIPOS>SUBSTRUCTURE
  1 ****  10 GROUP 4 **** **** 0

# MOE 2024.06 (io_trps.svl 2023.06)
