@<TRIPOS>MOLECULE
NONAME
52 54 1 0 0 
SMALL
USER_CHARGES


@<TRIPOS>ATOM
  1 S        1.0190     0.0950     0.0970 S.o2  1 <1>   1.3330 
  2 O        0.7890    -0.1190     1.5080 O.2   1 <1>  -0.6500 
  3 O        1.0740    -1.0440    -0.7930 O.2   1 <1>  -0.6500 
  4 N       -0.1860     1.1480    -0.4680 N.am  1 <1>  -0.8490 
  5 C        2.5250     1.0340    -0.1250 C.3   1 <1>  -0.0550 
  6 C       -0.5590     2.1790     0.5070 C.3   1 <1>   0.1160 
  7 C       -1.3810     0.4280    -0.9150 C.3   1 <1>   0.1160 
  8 C        3.7950     0.2400     0.2420 C.3   1 <1>  -0.0800 
  9 C        5.0990     0.9630    -0.0440 C.3   1 <1>   0.2890 
 10 C        3.9180    -0.1040     1.7310 C.3   1 <1>   0.1200 
 11 N        4.9920     2.3910     0.3380 N.pl3 1 <1>  -0.8690 
 12 C        6.0400     0.2460     0.9160 C.3   1 <1>   0.1200 
 13 O        5.2790    -0.0520     2.0490 O.3   1 <1>  -0.5600 
 14 C        5.0080     3.4400    -0.5110 C.ar  1 <1>   0.7200 
 15 N        5.2680     4.5980     0.0610 N.ar  1 <1>  -0.6200 
 16 N        4.7540     3.2030    -1.7920 N.ar  1 <1>  -0.6200 
 17 C        5.2790     5.6510    -0.7350 C.ar  1 <1>   0.3100 
 18 C        4.7670     4.2570    -2.5690 C.ar  1 <1>   0.1600 
 19 C        5.5540     6.9550    -0.1800 C.ar  1 <1>   0.0000 
 20 C        5.0260     5.5130    -2.0850 C.ar  1 <1>  -0.1500 
 21 C        6.8470     7.3790     0.1460 C.ar  1 <1>   0.1670 
 22 C        4.5150     7.8480     0.0360 C.ar  1 <1>  -0.1500 
 23 N        7.1500     8.5720     0.6300 N.ar  1 <1>  -0.6200 
 24 C        8.0280     6.4440    -0.0470 C.3   1 <1>  -0.0970 
 25 C        4.8220     9.0900     0.5450 C.ar  1 <1>  -0.1500 
 26 C        6.1420     9.4030     0.8220 C.ar  1 <1>   0.1670 
 27 C        6.5050    10.7620     1.3810 C.3   1 <1>  -0.0970 
 28 H        2.5970     1.3340    -1.1530 H     1 <1>   0.0800 
 29 H        2.4760     1.9250     0.4690 H     1 <1>   0.0800 
 30 H       -1.2660     2.8630     0.0680 H     1 <1>   0.0800 
 31 H        0.3100     2.7380     0.8080 H     1 <1>   0.0800 
 32 H       -1.0020     1.7300     1.3810 H     1 <1>   0.0800 
 33 H       -2.1190     1.1200    -1.2840 H     1 <1>   0.0800 
 34 H       -1.8020    -0.1400    -0.1020 H     1 <1>   0.0800 
 35 H       -1.1260    -0.2480    -1.7140 H     1 <1>   0.0800 
 36 H        3.7950    -0.6850    -0.3110 H     1 <1>   0.0800 
 37 H        5.4170     0.8570    -1.0680 H     1 <1>   0.0800 
 38 H        3.5410    -1.0880     1.9520 H     1 <1>   0.0800 
 39 H        3.4150     0.6230     2.3460 H     1 <1>   0.0800 
 40 H        5.2520     2.6150     1.2990 H     1 <1>   0.4000 
 41 H        6.8870     0.8470     1.1940 H     1 <1>   0.0800 
 42 H        6.3730    -0.6860     0.4930 H     1 <1>   0.0800 
 43 H        4.5660     4.1140    -3.6180 H     1 <1>   0.1500 
 44 H        5.0340     6.3690    -2.7320 H     1 <1>   0.1500 
 45 H        3.4990     7.5730    -0.1850 H     1 <1>   0.1500 
 46 H        8.0160     6.0190    -1.0340 H     1 <1>   0.0800 
 47 H        7.9830     5.6540     0.6790 H     1 <1>   0.0800 
 48 H        8.9540     6.9750     0.0820 H     1 <1>   0.0800 
 49 H        4.0430     9.8060     0.7260 H     1 <1>   0.1500 
 50 H        5.6330    11.3780     1.5070 H     1 <1>   0.0800 
 51 H        7.1860    11.2540     0.7120 H     1 <1>   0.0800 
 52 H        6.9850    10.6390     2.3340 H     1 <1>   0.0800 
@<TRIPOS>BOND
  1   1   2  2   
  2   1   3  2   
  3   1   4  am  
  4   1   5  1   
  5   4   6  1   
  6   4   7  1   
  7   5   8  1   
  8   5  28  1   
  9   5  29  1   
 10   6  30  1   
 11   6  31  1   
 12   6  32  1   
 13   7  33  1   
 14   7  34  1   
 15   7  35  1   
 16   8   9  1   
 17   8  10  1   
 18   8  36  1   
 19   9  11  1   
 20   9  12  1   
 21   9  37  1   
 22  10  13  1   
 23  10  38  1   
 24  10  39  1   
 25  11  14  1   
 26  11  40  1   
 27  12  13  1   
 28  12  41  1   
 29  12  42  1   
 30  14  15  ar  
 31  14  16  ar  
 32  15  17  ar  
 33  16  18  ar  
 34  17  19  1   
 35  17  20  ar  
 36  18  20  ar  
 37  18  43  1   
 38  19  21  ar  
 39  19  22  ar  
 40  20  44  1   
 41  21  23  ar  
 42  21  24  1   
 43  22  25  ar  
 44  22  45  1   
 45  23  26  ar  
 46  24  46  1   
 47  24  47  1   
 48  24  48  1   
 49  25  26  ar  
 50  25  49  1   
 51  26  27  1   
 52  27  50  1   
 53  27  51  1   
 54  27  52  1   
@<TRIPOS>SUBSTRUCTURE
  1 ****  14 GROUP 4 **** **** 0

# MOE 2024.06 (io_trps.svl 2023.06)
