@<TRIPOS>MOLECULE
NONAME
52 54 1 0 0 
SMALL
USER_CHARGES


@<TRIPOS>ATOM
  1 O       -2.4010     1.7450     2.3270 O.2   1 <1>  -0.5700 
  2 C       -2.5290     1.3270     1.2030 C.2   1 <1>   0.5690 
  3 N       -1.6050     1.4910     0.2080 N.am  1 <1>  -0.5470 
  4 C       -3.7860     0.5690     0.8730 C.3   1 <1>  -0.0380 
  5 C       -0.3360     2.0920     0.1810 C.ar  1 <1>   0.1170 
  6 C       -3.4080    -0.7380     0.2320 C.2   1 <1>   0.5690 
  7 C        0.5940     1.6960    -0.7890 C.ar  1 <1>  -0.1440 
  8 C        0.0100     3.0870     1.0880 C.ar  1 <1>  -0.1500 
  9 O       -3.0700    -0.7340    -0.9280 O.2   1 <1>  -0.5700 
 10 N       -3.4440    -1.8760     0.9640 N.am  1 <1>  -0.7300 
 11 C        1.8480     2.3040    -0.8350 C.ar  1 <1>  -0.1430 
 12 C        0.2020     0.5930    -1.7780 C.3   1 <1>  -0.0970 
 13 C        1.2540     3.6820     1.0440 C.ar  1 <1>  -0.1500 
 14 C       -3.0000    -3.2080     0.4900 C.3   1 <1>   0.2200 
 15 C        2.1670     3.2910     0.0850 C.ar  1 <1>  -0.1500 
 16 C        2.9050     1.9330    -1.8670 C.3   1 <1>  -0.0970 
 17 C       -4.1820    -4.1460     0.2810 C.3   1 <1>  -0.0800 
 18 C       -2.2800    -3.9150     1.6290 C.3   1 <1>   0.1200 
 19 C       -4.4240    -4.7180     1.6840 C.3   1 <1>   0.1200 
 20 C       -5.4280    -3.5240    -0.3740 C.3   1 <1>  -0.0170 
 21 O       -3.2990    -4.3950     2.4510 O.3   1 <1>  -0.5600 
 22 C       -6.4950    -4.5790    -0.6200 C.ar  1 <1>  -0.1430 
 23 C       -7.5620    -4.7580     0.2380 C.ar  1 <1>  -0.1500 
 24 C       -6.4490    -5.4140    -1.7170 C.ar  1 <1>  -0.1500 
 25 C       -8.5000    -5.7410    -0.0330 C.ar  1 <1>   0.1600 
 26 C       -7.4400    -6.3650    -1.8960 C.ar  1 <1>   0.1600 
 27 N       -8.4640    -6.5500    -1.0790 N.ar  1 <1>  -0.6200 
 28 H       -1.8240     0.9660    -0.6440 H     1 <1>   0.3700 
 29 H       -4.3550     0.3960     1.7670 H     1 <1>   0.0800 
 30 H       -4.3810     1.1470     0.1920 H     1 <1>   0.0800 
 31 H       -0.6940     3.4050     1.8330 H     1 <1>   0.1500 
 32 H       -3.6990    -1.8640     1.9560 H     1 <1>   0.3700 
 33 H        1.0220     0.2620    -2.3840 H     1 <1>   0.0800 
 34 H       -0.5720     0.9500    -2.4330 H     1 <1>   0.0800 
 35 H       -0.1640    -0.2670    -1.2450 H     1 <1>   0.0800 
 36 H        1.5090     4.4480     1.7540 H     1 <1>   0.1500 
 37 H       -2.3820    -3.1160    -0.3880 H     1 <1>   0.0800 
 38 H        3.1320     3.7660     0.0630 H     1 <1>   0.1500 
 39 H        3.7750     2.5580    -1.7740 H     1 <1>   0.0800 
 40 H        2.5120     2.0570    -2.8600 H     1 <1>   0.0800 
 41 H        3.2100     0.9120    -1.7300 H     1 <1>   0.0800 
 42 H       -3.8480    -4.9580    -0.3400 H     1 <1>   0.0800 
 43 H       -1.6370    -3.2600     2.1910 H     1 <1>   0.0800 
 44 H       -1.7200    -4.7590     1.2660 H     1 <1>   0.0800 
 45 H       -4.5380    -5.7880     1.6630 H     1 <1>   0.0800 
 46 H       -5.2800    -4.2700     2.1580 H     1 <1>   0.0800 
 47 H       -5.1510    -3.0730    -1.3120 H     1 <1>   0.0800 
 48 H       -5.8340    -2.7470     0.2500 H     1 <1>   0.0800 
 49 H       -7.6750    -4.1460     1.1130 H     1 <1>   0.1500 
 50 H       -5.6540    -5.3350    -2.4350 H     1 <1>   0.1500 
 51 H       -9.3250    -5.8670     0.6470 H     1 <1>   0.1500 
 52 H       -7.3870    -7.0080    -2.7580 H     1 <1>   0.1500 
@<TRIPOS>BOND
  1   1   2  2   
  2   2   3  am  
  3   2   4  1   
  4   3   5  1   
  5   3  28  1   
  6   4   6  1   
  7   4  29  1   
  8   4  30  1   
  9   5   7  ar  
 10   5   8  ar  
 11   6   9  2   
 12   6  10  am  
 13   7  11  ar  
 14   7  12  1   
 15   8  13  ar  
 16   8  31  1   
 17  10  14  1   
 18  10  32  1   
 19  11  15  ar  
 20  11  16  1   
 21  12  33  1   
 22  12  34  1   
 23  12  35  1   
 24  13  15  ar  
 25  13  36  1   
 26  14  17  1   
 27  14  18  1   
 28  14  37  1   
 29  15  38  1   
 30  16  39  1   
 31  16  40  1   
 32  16  41  1   
 33  17  19  1   
 34  17  20  1   
 35  17  42  1   
 36  18  21  1   
 37  18  43  1   
 38  18  44  1   
 39  19  21  1   
 40  19  45  1   
 41  19  46  1   
 42  20  22  1   
 43  20  47  1   
 44  20  48  1   
 45  22  23  ar  
 46  22  24  ar  
 47  23  25  ar  
 48  23  49  1   
 49  24  26  ar  
 50  24  50  1   
 51  25  27  ar  
 52  25  51  1   
 53  26  27  ar  
 54  26  52  1   
@<TRIPOS>SUBSTRUCTURE
  1 ****   6 GROUP 4 **** **** 0

# MOE 2024.06 (io_trps.svl 2023.06)
