@<TRIPOS>MOLECULE
NONAME
51 53 1 0 0 
SMALL
USER_CHARGES


@<TRIPOS>ATOM
  1 F       -2.7710    -1.2170    -1.2840 F     1 <1>  -0.1900 
  2 C       -2.6110    -2.4150    -0.7820 C.ar  1 <1>   0.1900 
  3 C       -1.4910    -2.7560    -0.0160 C.ar  1 <1>   0.0820 
  4 C       -3.6080    -3.3320    -1.0510 C.ar  1 <1>  -0.1500 
  5 O       -0.4440    -1.9460     0.3150 O.3   1 <1>  -0.3630 
  6 C       -1.4160    -4.0520     0.4700 C.ar  1 <1>  -0.1500 
  7 C       -3.4990    -4.6170    -0.5520 C.ar  1 <1>  -0.1500 
  8 C       -0.3640    -0.5940    -0.0790 C.3   1 <1>   0.0400 
  9 C       -2.4050    -5.0070     0.2230 C.ar  1 <1>   0.0530 
 10 C       -2.2730    -6.3420     0.7590 C.2   1 <1>   0.0870 
 11 O       -1.0760    -6.8640     0.8980 O.3   1 <1>  -0.0190 
 12 C       -3.1570    -7.2740     1.2020 C.2   1 <1>  -0.2330 
 13 N       -1.0970    -8.0660     1.4120 N.2   1 <1>  -0.4100 
 14 C       -2.3350    -8.3240     1.6260 C.2   1 <1>   0.3720 
 15 C       -4.5850    -7.3210     1.2120 C.2   1 <1>   1.0330 
 16 N       -2.7720    -9.5080     2.2190 N.pl3 1 <1>  -0.8520 
 17 O       -5.2360    -7.2950     0.1450 O.co2 1 <1>  -0.9000 
 18 O       -5.2260    -7.6360     2.2280 O.co2 1 <1>  -0.9000 
 19 C       -3.0260   -10.6580     1.3100 C.3   1 <1>   0.2090 
 20 C       -4.2220   -10.2690     0.4460 C.3   1 <1>  -0.1600 
 21 C       -5.1580   -11.2850    -0.2220 C.3   1 <1>  -0.0800 
 22 C       -6.0740   -10.4990    -1.1870 C.3   1 <1>   0.3430 
 23 C       -6.0250   -12.0320     0.8190 C.3   1 <1>  -0.1600 
 24 N       -6.8530    -9.4430    -0.4550 N.4   1 <1>  -0.9590 
 25 C       -7.4100   -11.3790     1.0370 C.3   1 <1>  -0.1600 
 26 C       -7.4120    -9.8500     0.8730 C.3   1 <1>   0.3430 
 27 C       -7.8490    -8.7510    -1.3050 C.3   1 <1>   0.2630 
 28 H       -4.4570    -3.0440    -1.6430 H     1 <1>   0.1500 
 29 H       -0.5620    -4.3250     1.0630 H     1 <1>   0.1500 
 30 H       -4.2740    -5.3250    -0.7750 H     1 <1>   0.1500 
 31 H        0.5480    -0.1840     0.3170 H     1 <1>   0.0800 
 32 H       -1.2080    -0.0620     0.3220 H     1 <1>   0.0800 
 33 H       -0.3490    -0.5430    -1.1540 H     1 <1>   0.0800 
 34 H       -3.6460    -9.2750     2.7150 H     1 <1>   0.4000 
 35 H       -3.2430   -11.5290     1.9020 H     1 <1>   0.0800 
 36 H       -2.1550   -10.8510     0.7050 H     1 <1>   0.0800 
 37 H       -3.8630    -9.5840    -0.3040 H     1 <1>   0.0800 
 38 H       -4.8570    -9.7520     1.1200 H     1 <1>   0.0800 
 39 H       -4.5680   -11.9890    -0.7840 H     1 <1>   0.0800 
 40 H       -6.7550   -11.1860    -1.6600 H     1 <1>   0.0800 
 41 H       -5.4750   -10.0330    -1.9520 H     1 <1>   0.0800 
 42 H       -5.5040   -12.0830     1.7600 H     1 <1>   0.0800 
 43 H       -6.1770   -13.0470     0.4930 H     1 <1>   0.0800 
 44 H       -6.1630    -8.6790    -0.2000 H     1 <1>   0.4500 
 45 H       -7.7650   -11.6230     2.0230 H     1 <1>   0.0800 
 46 H       -8.1170   -11.7910     0.3380 H     1 <1>   0.0800 
 47 H       -8.4110    -9.4670     0.9880 H     1 <1>   0.0800 
 48 H       -6.8090    -9.4090     1.6530 H     1 <1>   0.0800 
 49 H       -8.6340    -9.4300    -1.5940 H     1 <1>   0.0800 
 50 H       -7.3710    -8.3620    -2.1880 H     1 <1>   0.0800 
 51 H       -8.2780    -7.9240    -0.7610 H     1 <1>   0.0800 
@<TRIPOS>BOND
  1   1   2  1   
  2   2   3  ar  
  3   2   4  ar  
  4   3   5  1   
  5   3   6  ar  
  6   4   7  ar  
  7   4  28  1   
  8   5   8  1   
  9   6   9  ar  
 10   6  29  1   
 11   7   9  ar  
 12   7  30  1   
 13   8  31  1   
 14   8  32  1   
 15   8  33  1   
 16   9  10  1   
 17  10  11  1   
 18  10  12  2   
 19  11  13  1   
 20  12  14  1   
 21  12  15  1   
 22  13  14  2   
 23  14  16  1   
 24  15  17  ar  
 25  15  18  ar  
 26  16  19  1   
 27  16  34  1   
 28  19  20  1   
 29  19  35  1   
 30  19  36  1   
 31  20  21  1   
 32  20  37  1   
 33  20  38  1   
 34  21  22  1   
 35  21  23  1   
 36  21  39  1   
 37  22  24  1   
 38  22  40  1   
 39  22  41  1   
 40  23  25  1   
 41  23  42  1   
 42  23  43  1   
 43  24  26  1   
 44  24  27  1   
 45  24  44  1   
 46  25  26  1   
 47  25  45  1   
 48  25  46  1   
 49  26  47  1   
 50  26  48  1   
 51  27  49  1   
 52  27  50  1   
 53  27  51  1   
@<TRIPOS>SUBSTRUCTURE
  1 ****  12 GROUP 4 **** **** 0

# MOE 2024.06 (io_trps.svl 2023.06)
