@<TRIPOS>MOLECULE
NONAME
47 50 1 0 0 
SMALL
USER_CHARGES


@<TRIPOS>ATOM
  1 CL       0.7170    -0.1240    -2.4930 Cl    1 <1>  -0.1770 
  2 C        1.8330    -0.9920    -1.4730 C.ar  1 <1>   0.1770 
  3 C        1.6480    -2.3280    -1.2360 C.ar  1 <1>  -0.1500 
  4 C        2.9050    -0.3000    -0.9220 C.ar  1 <1>  -0.1500 
  5 C        2.5120    -3.0560    -0.3890 C.ar  1 <1>   0.0000 
  6 C        3.8130    -0.9890    -0.1600 C.ar  1 <1>  -0.1500 
  7 C        3.6570    -2.3660     0.0750 C.ar  1 <1>   0.3610 
  8 C        2.3350    -4.4360    -0.0160 C.ar  1 <1>   0.1000 
  9 N        4.6540    -3.0660     0.7140 N.ar  1 <1>  -0.1790 
 10 N        1.1600    -5.1200    -0.1170 N.pl3 1 <1>  -0.8380 
 11 C        3.4500    -5.0760     0.5380 C.ar  1 <1>  -0.1500 
 12 C        4.5770    -4.3930     0.9010 C.ar  1 <1>   0.2110 
 13 C       -0.2050    -4.5270    -0.2320 C.3   1 <1>   0.2090 
 14 C        0.9920    -6.5960     0.0690 C.3   1 <1>   0.2090 
 15 C       -1.1560    -5.5270     0.4270 C.3   1 <1>  -0.0800 
 16 C       -0.5110    -6.8840     0.1170 C.3   1 <1>  -0.0800 
 17 C       -2.6590    -5.4010     0.0290 C.3   1 <1>   0.2800 
 18 C       -1.0530    -7.4660    -1.1990 C.3   1 <1>  -0.1600 
 19 O       -2.7770    -4.7920    -1.2060 O.3   1 <1>  -0.6800 
 20 C       -3.2940    -6.7970    -0.1090 C.3   1 <1>  -0.1600 
 21 C       -3.4690    -4.5470     1.0290 C.3   1 <1>  -0.1600 
 22 C       -2.5730    -7.7050    -1.1290 C.3   1 <1>  -0.1600 
 23 C       -2.9960    -3.0920     1.1980 C.3   1 <1>  -0.2400 
 24 H        0.8310    -2.8110    -1.7320 H     1 <1>   0.1500 
 25 H        3.0020     0.7560    -1.1190 H     1 <1>   0.1500 
 26 H        4.6580    -0.4620     0.2470 H     1 <1>   0.1500 
 27 H        5.4850    -2.5480     1.0090 H     1 <1>   0.4570 
 28 H        3.4230    -6.1330     0.7180 H     1 <1>   0.1500 
 29 H        5.4110    -4.9090     1.3520 H     1 <1>   0.1500 
 30 H       -0.2620    -3.5660     0.2440 H     1 <1>   0.0800 
 31 H       -0.4370    -4.4330    -1.2780 H     1 <1>   0.0800 
 32 H        1.4690    -7.1330    -0.7330 H     1 <1>   0.0800 
 33 H        1.4260    -6.8920     1.0080 H     1 <1>   0.0800 
 34 H       -1.0770    -5.3900     1.4910 H     1 <1>   0.0800 
 35 H       -0.7120    -7.5870     0.9070 H     1 <1>   0.0800 
 36 H       -0.8480    -6.7710    -1.9970 H     1 <1>   0.0800 
 37 H       -0.5540    -8.3890    -1.4370 H     1 <1>   0.0800 
 38 H       -3.7150    -4.7760    -1.4680 H     1 <1>   0.4000 
 39 H       -3.2510    -7.2750     0.8540 H     1 <1>   0.0800 
 40 H       -4.3340    -6.7160    -0.3680 H     1 <1>   0.0800 
 41 H       -4.5010    -4.5370     0.7230 H     1 <1>   0.0800 
 42 H       -3.4380    -5.0250     1.9930 H     1 <1>   0.0800 
 43 H       -2.7650    -8.7330    -0.8700 H     1 <1>   0.0800 
 44 H       -2.9870    -7.5400    -2.1100 H     1 <1>   0.0800 
 45 H       -2.9690    -2.5860     0.2490 H     1 <1>   0.0800 
 46 H       -2.0180    -3.0550     1.6420 H     1 <1>   0.0800 
 47 H       -3.6740    -2.5620     1.8440 H     1 <1>   0.0800 
@<TRIPOS>BOND
  1   1   2  1   
  2   2   3  ar  
  3   2   4  ar  
  4   3   5  ar  
  5   3  24  1   
  6   4   6  ar  
  7   4  25  1   
  8   5   7  ar  
  9   5   8  ar  
 10   6   7  ar  
 11   6  26  1   
 12   7   9  ar  
 13   8  10  1   
 14   8  11  ar  
 15   9  12  ar  
 16   9  27  1   
 17  10  13  1   
 18  10  14  1   
 19  11  12  ar  
 20  11  28  1   
 21  12  29  1   
 22  13  15  1   
 23  13  30  1   
 24  13  31  1   
 25  14  16  1   
 26  14  32  1   
 27  14  33  1   
 28  15  16  1   
 29  15  17  1   
 30  15  34  1   
 31  16  18  1   
 32  16  35  1   
 33  17  19  1   
 34  17  20  1   
 35  17  21  1   
 36  18  22  1   
 37  18  36  1   
 38  18  37  1   
 39  19  38  1   
 40  20  22  1   
 41  20  39  1   
 42  20  40  1   
 43  21  23  1   
 44  21  41  1   
 45  21  42  1   
 46  22  43  1   
 47  22  44  1   
 48  23  45  1   
 49  23  46  1   
 50  23  47  1   
@<TRIPOS>SUBSTRUCTURE
  1 ****  13 GROUP 4 **** **** 0

# MOE 2024.06 (io_trps.svl 2023.06)
