@<TRIPOS>MOLECULE
NONAME
53 56 1 0 0 
SMALL
USER_CHARGES


@<TRIPOS>ATOM
  1 O       -1.3060     0.2490     2.4060 O.2   1 <1>  -0.5700 
  2 C       -1.7730    -0.1710     1.3620 C.2   1 <1>   0.5440 
  3 N       -1.3890    -1.4200     0.9270 N.am  1 <1>  -0.6600 
  4 C       -2.7250     0.6050     0.6120 C.ar  1 <1>   0.0860 
  5 C       -1.8020    -2.0490    -0.3460 C.3   1 <1>   0.1400 
  6 C       -0.3970    -2.2510     1.6420 C.3   1 <1>   0.1400 
  7 C       -2.3650     1.7130    -0.1870 C.ar  1 <1>   0.4100 
  8 C       -4.0660     0.2480     0.6750 C.ar  1 <1>  -0.1500 
  9 C       -0.7800    -3.1570    -0.5690 C.3   1 <1>  -0.1600 
 10 C       -0.3180    -3.5430     0.8350 C.3   1 <1>  -0.1600 
 11 N       -3.2620     2.4150    -0.8850 N.ar  1 <1>  -0.6200 
 12 N       -1.0610     2.1770    -0.3250 N.pl3 1 <1>  -0.8380 
 13 C       -4.9760     0.9830    -0.0460 C.ar  1 <1>  -0.1500 
 14 C       -4.5230     2.0460    -0.8020 C.ar  1 <1>   0.1600 
 15 C       -0.8130     3.6470    -0.5080 C.3   1 <1>   0.2090 
 16 C        0.1260     1.2750    -0.4240 C.3   1 <1>   0.2090 
 17 C        0.5710     4.0430     0.0400 C.3   1 <1>   0.2000 
 18 C        1.2370     1.9280    -1.2530 C.3   1 <1>  -0.1600 
 19 O        0.8120     5.4050    -0.1630 O.3   1 <1>  -0.5600 
 20 C        1.7060     3.2680    -0.6520 C.3   1 <1>  -0.1600 
 21 C        0.2360     6.2600     0.7910 C.3   1 <1>   0.2630 
 22 C        0.5570     7.7300     0.5230 C.ar  1 <1>   0.1670 
 23 N        0.0200     8.5910     1.3790 N.ar  1 <1>  -0.6200 
 24 C        1.3580     8.1150    -0.5470 C.ar  1 <1>  -0.1500 
 25 C        0.2880     9.8690     1.1630 C.ar  1 <1>   0.1600 
 26 C        1.6290     9.4500    -0.7590 C.ar  1 <1>  -0.1500 
 27 C        1.0720    10.3450     0.1270 C.ar  1 <1>  -0.1500 
 28 H       -1.8010    -1.3390    -1.1560 H     1 <1>   0.0800 
 29 H       -2.7870    -2.4670    -0.2270 H     1 <1>   0.0800 
 30 H       -0.7100    -2.4290     2.6570 H     1 <1>   0.0800 
 31 H        0.5520    -1.7410     1.6430 H     1 <1>   0.0800 
 32 H       -4.3760    -0.5860     1.2810 H     1 <1>   0.1500 
 33 H        0.0480    -2.7610    -1.1300 H     1 <1>   0.0800 
 34 H       -1.2020    -3.9890    -1.1050 H     1 <1>   0.0800 
 35 H       -0.9990    -4.2600     1.2600 H     1 <1>   0.0800 
 36 H        0.6740    -3.9580     0.8430 H     1 <1>   0.0800 
 37 H       -6.0240     0.7410    -0.0240 H     1 <1>   0.1500 
 38 H       -5.2370     2.6220    -1.3660 H     1 <1>   0.1500 
 39 H       -1.5800     4.1960     0.0080 H     1 <1>   0.0800 
 40 H       -0.8670     3.8800    -1.5570 H     1 <1>   0.0800 
 41 H       -0.1630     0.3470    -0.8830 H     1 <1>   0.0800 
 42 H        0.4950     1.0680     0.5670 H     1 <1>   0.0800 
 43 H        0.5960     3.8370     1.0970 H     1 <1>   0.0800 
 44 H        0.8590     2.0900    -2.2480 H     1 <1>   0.0800 
 45 H        2.0720     1.2550    -1.3300 H     1 <1>   0.0800 
 46 H        2.4720     3.0790     0.0790 H     1 <1>   0.0800 
 47 H        2.1340     3.8630    -1.4400 H     1 <1>   0.0800 
 48 H        0.6140     5.9920     1.7620 H     1 <1>   0.0800 
 49 H       -0.8310     6.1300     0.7770 H     1 <1>   0.0800 
 50 H        1.7700     7.3780    -1.2120 H     1 <1>   0.1500 
 51 H       -0.1430    10.5770     1.8500 H     1 <1>   0.1500 
 52 H        2.2450     9.7740    -1.5790 H     1 <1>   0.1500 
 53 H        1.2430    11.4010     0.0200 H     1 <1>   0.1500 
@<TRIPOS>BOND
  1   1   2  2   
  2   2   3  am  
  3   2   4  1   
  4   3   5  1   
  5   3   6  1   
  6   4   7  ar  
  7   4   8  ar  
  8   5   9  1   
  9   5  28  1   
 10   5  29  1   
 11   6  10  1   
 12   6  30  1   
 13   6  31  1   
 14   7  11  ar  
 15   7  12  1   
 16   8  13  ar  
 17   8  32  1   
 18   9  10  1   
 19   9  33  1   
 20   9  34  1   
 21  10  35  1   
 22  10  36  1   
 23  11  14  ar  
 24  12  15  1   
 25  12  16  1   
 26  13  14  ar  
 27  13  37  1   
 28  14  38  1   
 29  15  17  1   
 30  15  39  1   
 31  15  40  1   
 32  16  18  1   
 33  16  41  1   
 34  16  42  1   
 35  17  19  1   
 36  17  20  1   
 37  17  43  1   
 38  18  20  1   
 39  18  44  1   
 40  18  45  1   
 41  19  21  1   
 42  20  46  1   
 43  20  47  1   
 44  21  22  1   
 45  21  48  1   
 46  21  49  1   
 47  22  23  ar  
 48  22  24  ar  
 49  23  25  ar  
 50  24  26  ar  
 51  24  50  1   
 52  25  27  ar  
 53  25  51  1   
 54  26  27  ar  
 55  26  52  1   
 56  27  53  1   
@<TRIPOS>SUBSTRUCTURE
  1 ****  12 GROUP 4 **** **** 0

# MOE 2024.06 (io_trps.svl 2023.06)
