@<TRIPOS>MOLECULE
NONAME
62 65 1 0 0 
SMALL
USER_CHARGES


@<TRIPOS>ATOM
  1 O        1.8580    -0.5340    -2.2570 O.3   1 <1>  -0.0190 
  2 N        2.2230     0.5610    -1.6680 N.2   1 <1>  -0.4100 
  3 C        1.2150    -1.1920    -1.3250 C.2   1 <1>   0.2980 
  4 C        1.8010     0.5060    -0.4690 C.2   1 <1>   0.3350 
  5 N        1.1330    -0.6090    -0.1970 N.2   1 <1>  -0.5650 
  6 C        0.6330    -2.5530    -1.6660 C.3   1 <1>   0.1000 
  7 C        2.0130     1.5910     0.5740 C.3   1 <1>   0.0210 
  8 C       -0.2160    -3.0700    -0.4830 C.3   1 <1>   0.3430 
  9 C        1.7320    -3.5640    -2.0470 C.3   1 <1>  -0.1600 
 10 C        3.3730     1.4780     1.2930 C.3   1 <1>  -0.0800 
 11 N       -0.2290    -4.5710    -0.3640 N.4   1 <1>  -0.9590 
 12 C        1.1360    -4.9470    -2.3860 C.3   1 <1>  -0.1600 
 13 C        3.4980     0.1750     2.0960 C.3   1 <1>  -0.2400 
 14 C        3.5820     2.6780     2.2270 C.3   1 <1>  -0.2400 
 15 C       -0.1920    -5.2630    -1.6840 C.3   1 <1>   0.3430 
 16 C       -1.3550    -5.0680     0.5100 C.3   1 <1>   0.4860 
 17 C       -1.2190    -6.5580     0.8410 C.ar  1 <1>   0.4770 
 18 N       -2.2320    -7.3270     0.5560 N.ar  1 <1>  -0.6200 
 19 N       -0.0770    -6.9420     1.3440 N.ar  1 <1>  -0.6200 
 20 C       -2.0380    -8.6010     0.8290 C.ar  1 <1>   0.7200 
 21 C       -0.0140    -8.2310     1.5660 C.ar  1 <1>   0.7200 
 22 N       -0.9430    -9.1040     1.3340 N.ar  1 <1>  -0.6200 
 23 N       -3.1000    -9.4080     0.5510 N.pl3 1 <1>  -0.6000 
 24 N        1.1220    -8.6940     2.0820 N.pl3 1 <1>  -0.9000 
 25 C       -3.2670   -10.7970     0.6070 C.ar  1 <1>   0.1000 
 26 C       -4.5160   -11.3090     0.9430 C.ar  1 <1>  -0.1500 
 27 C       -2.2430   -11.6910     0.3130 C.ar  1 <1>  -0.1500 
 28 C       -4.7430   -12.6740     0.9950 C.ar  1 <1>  -0.1440 
 29 C       -2.4600   -13.0560     0.3630 C.ar  1 <1>  -0.1500 
 30 C       -3.7080   -13.5470     0.7030 C.ar  1 <1>  -0.1500 
 31 C       -6.1100   -13.2210     1.3660 C.3   1 <1>  -0.0960 
 32 H       -0.0180    -2.4160    -2.5110 H     1 <1>   0.0800 
 33 H        1.2140     1.5510     1.2910 H     1 <1>   0.0800 
 34 H        1.9570     2.5410     0.0750 H     1 <1>   0.0800 
 35 H       -1.2190    -2.6960    -0.6000 H     1 <1>   0.0800 
 36 H        0.1760    -2.6610     0.4350 H     1 <1>   0.0800 
 37 H        2.4150    -3.6610    -1.2190 H     1 <1>   0.0800 
 38 H        2.3000    -3.1990    -2.8880 H     1 <1>   0.0800 
 39 H        4.1510     1.4950     0.5470 H     1 <1>   0.0800 
 40 H        0.6340    -4.8640     0.1240 H     1 <1>   0.4500 
 41 H        1.8560    -5.7100    -2.1420 H     1 <1>   0.0800 
 42 H        0.9690    -5.0140    -3.4480 H     1 <1>   0.0800 
 43 H        2.7140     0.1040     2.8290 H     1 <1>   0.0800 
 44 H        4.4460     0.1410     2.6040 H     1 <1>   0.0800 
 45 H        3.4420    -0.6790     1.4450 H     1 <1>   0.0800 
 46 H        2.8260     2.7000     2.9940 H     1 <1>   0.0800 
 47 H        3.5370     3.5990     1.6730 H     1 <1>   0.0800 
 48 H        4.5460     2.6190     2.7000 H     1 <1>   0.0800 
 49 H       -1.0140    -4.9200    -2.2930 H     1 <1>   0.0800 
 50 H       -0.2860    -6.3310    -1.5610 H     1 <1>   0.0800 
 51 H       -2.3000    -4.9090     0.0200 H     1 <1>   0.0800 
 52 H       -1.3610    -4.5230     1.4390 H     1 <1>   0.0800 
 53 H       -3.9390    -8.8780     0.3410 H     1 <1>   0.4000 
 54 H        1.1120    -9.6570     2.4180 H     1 <1>   0.4000 
 55 H        1.7420    -8.0550     2.5720 H     1 <1>   0.4000 
 56 H       -5.3160   -10.6300     1.1700 H     1 <1>   0.1500 
 57 H       -1.2720   -11.3230     0.0400 H     1 <1>   0.1500 
 58 H       -1.6590   -13.7370     0.1360 H     1 <1>   0.1500 
 59 H       -3.8700   -14.6100     0.7390 H     1 <1>   0.1500 
 60 H       -6.7150   -12.4590     1.8230 H     1 <1>   0.0800 
 61 H       -6.0060   -14.0340     2.0620 H     1 <1>   0.0800 
 62 H       -6.6100   -13.5790     0.4850 H     1 <1>   0.0800 
@<TRIPOS>BOND
  1   1   2  1   
  2   1   3  1   
  3   2   4  2   
  4   3   5  2   
  5   3   6  1   
  6   4   5  1   
  7   4   7  1   
  8   6   8  1   
  9   6   9  1   
 10   6  32  1   
 11   7  10  1   
 12   7  33  1   
 13   7  34  1   
 14   8  11  1   
 15   8  35  1   
 16   8  36  1   
 17   9  12  1   
 18   9  37  1   
 19   9  38  1   
 20  10  13  1   
 21  10  14  1   
 22  10  39  1   
 23  11  15  1   
 24  11  16  1   
 25  11  40  1   
 26  12  15  1   
 27  12  41  1   
 28  12  42  1   
 29  13  43  1   
 30  13  44  1   
 31  13  45  1   
 32  14  46  1   
 33  14  47  1   
 34  14  48  1   
 35  15  49  1   
 36  15  50  1   
 37  16  17  1   
 38  16  51  1   
 39  16  52  1   
 40  17  18  ar  
 41  17  19  ar  
 42  18  20  ar  
 43  19  21  ar  
 44  20  22  ar  
 45  20  23  1   
 46  21  22  ar  
 47  21  24  1   
 48  23  25  1   
 49  23  53  1   
 50  24  54  1   
 51  24  55  1   
 52  25  26  ar  
 53  25  27  ar  
 54  26  28  ar  
 55  26  56  1   
 56  27  29  ar  
 57  27  57  1   
 58  28  30  ar  
 59  28  31  1   
 60  29  30  ar  
 61  29  58  1   
 62  30  59  1   
 63  31  60  1   
 64  31  61  1   
 65  31  62  1   
@<TRIPOS>SUBSTRUCTURE
  1 ****  16 GROUP 4 **** **** 0

# MOE 2024.06 (io_trps.svl 2023.06)
