@<TRIPOS>MOLECULE
NONAME
44 46 1 0 0 
SMALL
USER_CHARGES


@<TRIPOS>ATOM
  1 S       -0.3250    -0.1490     0.4080 S.3   1 <1>  -0.0800 
  2 C       -0.7540     1.4320    -0.2340 C.2   1 <1>  -0.0130 
  3 C       -1.5780    -0.9810    -0.5100 C.2   1 <1>  -0.0450 
  4 C        0.0180     2.5680     0.2000 C.ar  1 <1>   0.0530 
  5 C       -1.8010     1.2850    -1.0880 C.2   1 <1>  -0.1810 
  6 C       -1.7230    -2.4080    -0.3750 C.2   1 <1>   0.7150 
  7 C       -2.2470    -0.0540    -1.2430 C.2   1 <1>  -0.1500 
  8 C        0.5210     3.4900    -0.7170 C.ar  1 <1>  -0.1500 
  9 C        0.2910     2.7850     1.5490 C.ar  1 <1>  -0.1500 
 10 C       -2.5010     2.4050    -1.8380 C.3   1 <1>  -0.0590 
 11 O       -0.8630    -3.0930     0.1530 O.2   1 <1>  -0.5700 
 12 N       -2.8690    -3.0420    -0.7980 N.am  1 <1>  -0.6600 
 13 C        1.2570     4.5870    -0.3050 C.ar  1 <1>  -0.1500 
 14 C        1.0270     3.8780     1.9680 C.ar  1 <1>  -0.1500 
 15 C       -2.8190    -4.4590    -1.2870 C.3   1 <1>   0.1400 
 16 C       -4.1640    -2.6420    -0.2000 C.3   1 <1>   0.1400 
 17 C        1.5100     4.7840     1.0410 C.ar  1 <1>  -0.1500 
 18 C       -3.7000    -5.4040    -0.4390 C.3   1 <1>  -0.0800 
 19 C       -4.4260    -3.4760     1.0650 C.3   1 <1>  -0.1600 
 20 C       -3.8440    -4.9000     1.0080 C.3   1 <1>   0.2000 
 21 C       -3.1570    -6.8390    -0.4740 C.3   1 <1>   0.1200 
 22 O       -2.5990    -4.8930     1.6110 O.3   1 <1>  -0.6800 
 23 O       -3.1810    -7.3060    -1.7800 O.3   1 <1>  -0.6800 
 24 H       -3.0610    -0.2920    -1.9060 H     1 <1>   0.1500 
 25 H        0.3370     3.3370    -1.7640 H     1 <1>   0.1500 
 26 H       -0.0820     2.0860     2.2770 H     1 <1>   0.1500 
 27 H       -3.5620     2.3460    -1.6780 H     1 <1>   0.0800 
 28 H       -2.3020     2.3210    -2.8910 H     1 <1>   0.0800 
 29 H       -2.1630     3.3660    -1.4960 H     1 <1>   0.0800 
 30 H        1.6350     5.2860    -1.0310 H     1 <1>   0.1500 
 31 H        1.2240     4.0260     3.0160 H     1 <1>   0.1500 
 32 H       -3.1420    -4.4930    -2.3140 H     1 <1>   0.0800 
 33 H       -1.8000    -4.8100    -1.2670 H     1 <1>   0.0800 
 34 H       -4.1670    -1.5940     0.0470 H     1 <1>   0.0800 
 35 H       -4.9430    -2.8170    -0.9230 H     1 <1>   0.0800 
 36 H        2.0820     5.6360     1.3640 H     1 <1>   0.1500 
 37 H       -4.6860    -5.4190    -0.8660 H     1 <1>   0.0800 
 38 H       -5.4910    -3.5440     1.1920 H     1 <1>   0.0800 
 39 H       -4.0430    -2.9610     1.9290 H     1 <1>   0.0800 
 40 H       -4.4630    -5.5690     1.5820 H     1 <1>   0.0800 
 41 H       -3.7510    -7.4990     0.1350 H     1 <1>   0.0800 
 42 H       -2.1370    -6.8680    -0.1280 H     1 <1>   0.0800 
 43 H       -1.9870    -4.2920     1.1180 H     1 <1>   0.4000 
 44 H       -4.0940    -7.5040    -2.0640 H     1 <1>   0.4000 
@<TRIPOS>BOND
  1   1   2  1   
  2   1   3  1   
  3   2   4  1   
  4   2   5  2   
  5   3   6  1   
  6   3   7  2   
  7   4   8  ar  
  8   4   9  ar  
  9   5   7  1   
 10   5  10  1   
 11   6  11  2   
 12   6  12  am  
 13   7  24  1   
 14   8  13  ar  
 15   8  25  1   
 16   9  14  ar  
 17   9  26  1   
 18  10  27  1   
 19  10  28  1   
 20  10  29  1   
 21  12  15  1   
 22  12  16  1   
 23  13  17  ar  
 24  13  30  1   
 25  14  17  ar  
 26  14  31  1   
 27  15  18  1   
 28  15  32  1   
 29  15  33  1   
 30  16  19  1   
 31  16  34  1   
 32  16  35  1   
 33  17  36  1   
 34  18  20  1   
 35  18  21  1   
 36  18  37  1   
 37  19  20  1   
 38  19  38  1   
 39  19  39  1   
 40  20  22  1   
 41  20  40  1   
 42  21  23  1   
 43  21  41  1   
 44  21  42  1   
 45  22  43  1   
 46  23  44  1   
@<TRIPOS>SUBSTRUCTURE
  1 ****   3 GROUP 4 **** **** 0

# MOE 2024.06 (io_trps.svl 2023.06)
