@<TRIPOS>MOLECULE
NONAME
45 46 1 0 0 
SMALL
USER_CHARGES


@<TRIPOS>ATOM
  1 F        0.3480    -0.6780     2.6240 F     1 <1>  -0.3400 
  2 C        0.3370    -1.8000     1.9150 C.3   1 <1>   1.0200 
  3 F        1.3820    -1.7270     1.0970 F     1 <1>  -0.3400 
  4 F        0.5990    -2.7830     2.7650 F     1 <1>  -0.3400 
  5 C       -0.9960    -1.9720     1.1480 C.3   1 <1>   0.1400 
  6 N       -1.1480    -3.2310     0.3190 N.am  1 <1>  -0.6600 
  7 C       -1.7540    -4.3420     0.8620 C.2   1 <1>   0.5690 
  8 C       -0.5630    -3.1850    -1.0530 C.3   1 <1>   0.0600 
  9 O       -2.0940    -4.3410     2.0250 O.2   1 <1>  -0.5700 
 10 C       -2.0450    -5.5820     0.0000 C.3   1 <1>   0.2610 
 11 O       -0.9150    -6.4360    -0.0790 O.3   1 <1>  -0.5600 
 12 C       -3.2870    -6.3450     0.5200 C.3   1 <1>   0.3640 
 13 C       -1.0670    -7.5370    -0.9520 C.3   1 <1>   0.1810 
 14 N       -3.4160    -7.6700    -0.1290 N.am  1 <1>  -0.7300 
 15 C       -4.5490    -5.5300     0.2530 C.ar  1 <1>  -0.1440 
 16 C       -2.4000    -8.2760    -0.7830 C.2   1 <1>   0.5690 
 17 C       -5.0600    -5.3960    -1.0300 C.ar  1 <1>  -0.1500 
 18 C       -5.1890    -4.8820     1.2960 C.ar  1 <1>  -0.1500 
 19 O       -2.5420    -9.3750    -1.2540 O.2   1 <1>  -0.5700 
 20 C       -6.1800    -4.6240    -1.2850 C.ar  1 <1>   0.0820 
 21 C       -6.3100    -4.1050     1.0620 C.ar  1 <1>  -0.1500 
 22 O       -6.5570    -4.5860    -2.5940 O.3   1 <1>  -0.3630 
 23 C       -6.8160    -3.9530    -0.2270 C.ar  1 <1>   0.0820 
 24 C       -7.9140    -4.4700    -2.9590 C.3   1 <1>   0.0400 
 25 O       -7.8930    -3.1520    -0.4760 O.3   1 <1>  -0.3620 
 26 C       -8.4760    -2.3430     0.5220 C.3   1 <1>   0.0400 
 27 H       -1.1190    -1.1200     0.5070 H     1 <1>   0.0800 
 28 H       -1.7860    -1.9330     1.8750 H     1 <1>   0.0800 
 29 H        0.2680    -2.5020    -1.0860 H     1 <1>   0.0800 
 30 H       -1.3100    -2.8580    -1.7560 H     1 <1>   0.0800 
 31 H       -0.2030    -4.1570    -1.3430 H     1 <1>   0.0800 
 32 H       -2.2590    -5.2450    -0.9970 H     1 <1>   0.0800 
 33 H       -3.1820    -6.5060     1.5800 H     1 <1>   0.0800 
 34 H       -0.9870    -7.1790    -1.9620 H     1 <1>   0.0800 
 35 H       -0.2580    -8.2180    -0.7620 H     1 <1>   0.0800 
 36 H       -4.3050    -8.1610    -0.0240 H     1 <1>   0.3700 
 37 H       -4.5900    -5.8950    -1.8590 H     1 <1>   0.1500 
 38 H       -4.8100    -4.9680     2.3020 H     1 <1>   0.1500 
 39 H       -6.7660    -3.6220     1.9040 H     1 <1>   0.1500 
 40 H       -8.0200    -4.8220    -3.9690 H     1 <1>   0.0800 
 41 H       -8.2010    -3.4350    -2.9030 H     1 <1>   0.0800 
 42 H       -8.5110    -5.0690    -2.2940 H     1 <1>   0.0800 
 43 H       -9.2610    -1.7670     0.0680 H     1 <1>   0.0800 
 44 H       -7.7250    -1.6850     0.9220 H     1 <1>   0.0800 
 45 H       -8.8860    -2.9760     1.2900 H     1 <1>   0.0800 
@<TRIPOS>BOND
  1   1   2  1   
  2   2   3  1   
  3   2   4  1   
  4   2   5  1   
  5   5   6  1   
  6   5  27  1   
  7   5  28  1   
  8   6   7  am  
  9   6   8  1   
 10   7   9  2   
 11   7  10  1   
 12   8  29  1   
 13   8  30  1   
 14   8  31  1   
 15  10  11  1   
 16  10  12  1   
 17  10  32  1   
 18  11  13  1   
 19  12  14  1   
 20  12  15  1   
 21  12  33  1   
 22  13  16  1   
 23  13  34  1   
 24  13  35  1   
 25  14  16  am  
 26  14  36  1   
 27  15  17  ar  
 28  15  18  ar  
 29  16  19  2   
 30  17  20  ar  
 31  17  37  1   
 32  18  21  ar  
 33  18  38  1   
 34  20  22  1   
 35  20  23  ar  
 36  21  23  ar  
 37  21  39  1   
 38  22  24  1   
 39  23  25  1   
 40  24  40  1   
 41  24  41  1   
 42  24  42  1   
 43  25  26  1   
 44  26  43  1   
 45  26  44  1   
 46  26  45  1   
@<TRIPOS>SUBSTRUCTURE
  1 ****  10 GROUP 4 **** **** 0

# MOE 2024.06 (io_trps.svl 2023.06)
