@<TRIPOS>MOLECULE
NONAME
50 52 1 0 0 
SMALL
USER_CHARGES


@<TRIPOS>ATOM
  1 O       -2.3860    -3.5070    -0.1640 O.co2 1 <1>  -0.9000 
  2 C       -3.0040    -2.6530    -0.8250 C.2   1 <1>   1.0330 
  3 O       -3.9050    -3.0960    -1.5720 O.co2 1 <1>  -0.9000 
  4 C       -3.1210    -1.2750    -0.3400 C.2   1 <1>   0.0560 
  5 N       -2.6700    -0.1350    -0.8350 N.2   1 <1>  -0.7070 
  6 C       -3.8760    -1.0300     0.8180 C.2   1 <1>  -0.1810 
  7 N       -3.1220     0.8190    -0.0100 N.pl3 1 <1>   0.3000 
  8 C       -3.8590     0.3080     0.9960 C.2   1 <1>  -0.3020 
  9 C       -4.5070    -2.1550     1.6210 C.3   1 <1>   0.5240 
 10 N       -5.3810    -2.9470     0.7250 N.4   1 <1>  -0.9590 
 11 C       -5.2900    -4.4230     0.9540 C.3   1 <1>   0.3430 
 12 C       -6.7660    -2.4560     0.5000 C.3   1 <1>   0.3430 
 13 C       -6.1000    -5.2030    -0.1010 C.3   1 <1>   0.3430 
 14 C       -7.4870    -3.3360    -0.5520 C.3   1 <1>   0.2000 
 15 O       -7.4100    -4.6880    -0.1630 O.3   1 <1>  -0.5600 
 16 C       -6.1330    -6.6820     0.2660 C.ar  1 <1>  -0.1430 
 17 C       -8.9750    -2.9420    -0.7710 C.3   1 <1>   0.0000 
 18 C       -5.0470    -7.4770    -0.0730 C.ar  1 <1>  -0.1500 
 19 C       -7.2030    -7.2550     0.9420 C.ar  1 <1>  -0.1500 
 20 C       -9.0820    -1.4780    -1.2390 C.3   1 <1>  -0.2400 
 21 C       -9.5870    -3.8300    -1.8700 C.3   1 <1>  -0.2400 
 22 C       -9.8110    -3.1090     0.5120 C.3   1 <1>  -0.2400 
 23 C       -5.0280    -8.8210     0.2600 C.ar  1 <1>  -0.1500 
 24 C       -7.1850    -8.5990     1.2750 C.ar  1 <1>  -0.1500 
 25 C       -6.0970    -9.3830     0.9340 C.ar  1 <1>  -0.1500 
 26 H       -2.9060     1.8130    -0.1620 H     1 <1>   0.2700 
 27 H       -4.3040     0.9200     1.7590 H     1 <1>   0.1500 
 28 H       -5.0660    -1.7660     2.4550 H     1 <1>   0.0800 
 29 H       -3.7120    -2.7820     1.9930 H     1 <1>   0.0800 
 30 H       -4.9240    -2.8710    -0.2160 H     1 <1>   0.4500 
 31 H       -4.2580    -4.7340     0.8880 H     1 <1>   0.0800 
 32 H       -5.6600    -4.6760     1.9310 H     1 <1>   0.0800 
 33 H       -7.3210    -2.4830     1.4210 H     1 <1>   0.0800 
 34 H       -6.7340    -1.4390     0.1480 H     1 <1>   0.0800 
 35 H       -5.6440    -5.0860    -1.0710 H     1 <1>   0.0800 
 36 H       -6.9700    -3.2380    -1.4930 H     1 <1>   0.0800 
 37 H       -4.2060    -7.0540    -0.6000 H     1 <1>   0.1500 
 38 H       -8.0590    -6.6600     1.2090 H     1 <1>   0.1500 
 39 H      -10.1040    -1.2350    -1.4750 H     1 <1>   0.0800 
 40 H       -8.4910    -1.3200    -2.1240 H     1 <1>   0.0800 
 41 H       -8.7530    -0.7930    -0.4790 H     1 <1>   0.0800 
 42 H      -10.6070    -3.5520    -2.0650 H     1 <1>   0.0800 
 43 H       -9.5740    -4.8650    -1.5720 H     1 <1>   0.0800 
 44 H       -9.0300    -3.7390    -2.7860 H     1 <1>   0.0800 
 45 H      -10.8450    -2.8800     0.3160 H     1 <1>   0.0800 
 46 H       -9.4710    -2.4570     1.2950 H     1 <1>   0.0800 
 47 H       -9.7590    -4.1240     0.8650 H     1 <1>   0.0800 
 48 H       -4.1810    -9.4280    -0.0090 H     1 <1>   0.1500 
 49 H       -8.0190    -9.0350     1.7960 H     1 <1>   0.1500 
 50 H       -6.0830   -10.4270     1.1920 H     1 <1>   0.1500 
@<TRIPOS>BOND
  1   1   2  ar  
  2   2   3  ar  
  3   2   4  1   
  4   4   5  2   
  5   4   6  1   
  6   5   7  1   
  7   6   8  2   
  8   6   9  1   
  9   7   8  1   
 10   7  26  1   
 11   8  27  1   
 12   9  10  1   
 13   9  28  1   
 14   9  29  1   
 15  10  11  1   
 16  10  12  1   
 17  10  30  1   
 18  11  13  1   
 19  11  31  1   
 20  11  32  1   
 21  12  14  1   
 22  12  33  1   
 23  12  34  1   
 24  13  15  1   
 25  13  16  1   
 26  13  35  1   
 27  14  15  1   
 28  14  17  1   
 29  14  36  1   
 30  16  18  ar  
 31  16  19  ar  
 32  17  20  1   
 33  17  21  1   
 34  17  22  1   
 35  18  23  ar  
 36  18  37  1   
 37  19  24  ar  
 38  19  38  1   
 39  20  39  1   
 40  20  40  1   
 41  20  41  1   
 42  21  42  1   
 43  21  43  1   
 44  21  44  1   
 45  22  45  1   
 46  22  46  1   
 47  22  47  1   
 48  23  25  ar  
 49  23  48  1   
 50  24  25  ar  
 51  24  49  1   
 52  25  50  1   
@<TRIPOS>SUBSTRUCTURE
  1 ****  10 GROUP 4 **** **** 0

# MOE 2024.06 (io_trps.svl 2023.06)
