@<TRIPOS>MOLECULE
NONAME
54 56 1 0 0 
SMALL
USER_CHARGES


@<TRIPOS>ATOM
  1 O        2.4920    -1.1750     1.3120 O.co2 1 <1>  -0.9000 
  2 C        2.7410    -0.6760     0.2180 C.2   1 <1>   0.9060 
  3 O        3.5490    -1.2100    -0.5620 O.co2 1 <1>  -0.9000 
  4 C        2.2460     0.7540    -0.0760 C.3   1 <1>  -0.1060 
  5 C        2.7130     1.2680    -1.4730 C.3   1 <1>   0.2000 
  6 C        2.9250     1.6770     0.9730 C.3   1 <1>  -0.1600 
  7 C        0.7020     0.7680     0.0470 C.3   1 <1>  -0.0160 
  8 O        2.5440     0.2780    -2.4270 O.3   1 <1>  -0.6800 
  9 C        4.1940     1.7230    -1.4820 C.3   1 <1>   0.3430 
 10 C        4.4590     1.5070     0.9720 C.3   1 <1>   0.3430 
 11 C        0.0610     2.1390    -0.1520 C.ar  1 <1>  -0.1440 
 12 N        4.9620     1.0770    -0.3740 N.4   1 <1>  -0.9590 
 13 C       -0.3870     2.5270    -1.4060 C.ar  1 <1>  -0.1500 
 14 C       -0.0960     3.0040     0.9200 C.ar  1 <1>  -0.1500 
 15 C        6.4450     1.1610    -0.5040 C.3   1 <1>   0.4860 
 16 C       -0.9670     3.7700    -1.5900 C.ar  1 <1>  -0.1500 
 17 C       -0.6760     4.2480     0.7390 C.ar  1 <1>  -0.1500 
 18 C        6.9420     2.5780    -0.8120 C.ar  1 <1>   0.1670 
 19 C       -1.1090     4.6330    -0.5180 C.ar  1 <1>  -0.1500 
 20 N        6.6800     3.5420     0.0490 N.ar  1 <1>  -0.6200 
 21 C        7.6420     2.8260    -1.9710 C.ar  1 <1>  -0.1500 
 22 C        7.1280     4.7510    -0.2650 C.ar  1 <1>   0.4770 
 23 C        8.0580     4.1150    -2.2000 C.ar  1 <1>   0.1600 
 24 N        7.8040     5.0850    -1.3550 N.ar  1 <1>  -0.6200 
 25 C        6.8210     5.8710     0.7410 C.3   1 <1>   0.0630 
 26 C        5.8950     6.9390     0.1370 C.3   1 <1>  -0.2400 
 27 C        8.1030     6.5260     1.2810 C.3   1 <1>  -0.2400 
 28 H        2.1250     2.1070    -1.7950 H     1 <1>   0.0800 
 29 H        2.5600     1.4450     1.9590 H     1 <1>   0.0800 
 30 H        2.6860     2.7070     0.7770 H     1 <1>   0.0800 
 31 H        0.2910     0.0800    -0.6720 H     1 <1>   0.0800 
 32 H        0.4210     0.3940     1.0170 H     1 <1>   0.0800 
 33 H        2.8840    -0.5720    -2.0210 H     1 <1>   0.4000 
 34 H        4.2320     2.7910    -1.3500 H     1 <1>   0.0800 
 35 H        4.6240     1.4810    -2.4390 H     1 <1>   0.0800 
 36 H        4.7210     0.7520     1.6960 H     1 <1>   0.0800 
 37 H        4.9190     2.4350     1.2700 H     1 <1>   0.0800 
 38 H        4.6980     0.0590    -0.4440 H     1 <1>   0.4500 
 39 H       -0.2850     1.8590    -2.2440 H     1 <1>   0.1500 
 40 H        0.2300     2.7090     1.9020 H     1 <1>   0.1500 
 41 H        6.9030     0.8200     0.4090 H     1 <1>   0.0800 
 42 H        6.7610     0.5050    -1.2960 H     1 <1>   0.0800 
 43 H       -1.3090     4.0640    -2.5670 H     1 <1>   0.1500 
 44 H       -0.7940     4.9140     1.5760 H     1 <1>   0.1500 
 45 H       -1.5610     5.5990    -0.6600 H     1 <1>   0.1500 
 46 H        7.8640     2.0520    -2.6820 H     1 <1>   0.1500 
 47 H        8.6110     4.3580    -3.0930 H     1 <1>   0.1500 
 48 H        6.3080     5.4310     1.5780 H     1 <1>   0.0800 
 49 H        6.3770     7.4270    -0.6920 H     1 <1>   0.0800 
 50 H        5.6440     7.6800     0.8750 H     1 <1>   0.0800 
 51 H        4.9870     6.4830    -0.2150 H     1 <1>   0.0800 
 52 H        8.6410     7.0120     0.4860 H     1 <1>   0.0800 
 53 H        8.7420     5.7800     1.7180 H     1 <1>   0.0800 
 54 H        7.8650     7.2570     2.0330 H     1 <1>   0.0800 
@<TRIPOS>BOND
  1   1   2  ar  
  2   2   3  ar  
  3   2   4  1   
  4   4   5  1   
  5   4   6  1   
  6   4   7  1   
  7   5   8  1   
  8   5   9  1   
  9   5  28  1   
 10   6  10  1   
 11   6  29  1   
 12   6  30  1   
 13   7  11  1   
 14   7  31  1   
 15   7  32  1   
 16   8  33  1   
 17   9  12  1   
 18   9  34  1   
 19   9  35  1   
 20  10  12  1   
 21  10  36  1   
 22  10  37  1   
 23  11  13  ar  
 24  11  14  ar  
 25  12  15  1   
 26  12  38  1   
 27  13  16  ar  
 28  13  39  1   
 29  14  17  ar  
 30  14  40  1   
 31  15  18  1   
 32  15  41  1   
 33  15  42  1   
 34  16  19  ar  
 35  16  43  1   
 36  17  19  ar  
 37  17  44  1   
 38  18  20  ar  
 39  18  21  ar  
 40  19  45  1   
 41  20  22  ar  
 42  21  23  ar  
 43  21  46  1   
 44  22  24  ar  
 45  22  25  1   
 46  23  24  ar  
 47  23  47  1   
 48  25  26  1   
 49  25  27  1   
 50  25  48  1   
 51  26  49  1   
 52  26  50  1   
 53  26  51  1   
 54  27  52  1   
 55  27  53  1   
 56  27  54  1   
@<TRIPOS>SUBSTRUCTURE
  1 ****   9 GROUP 4 **** **** 0

# MOE 2024.06 (io_trps.svl 2023.06)
