@<TRIPOS>MOLECULE
NONAME
48 50 1 0 0 
SMALL
USER_CHARGES


@<TRIPOS>ATOM
  1 O       -2.1720     2.0920     2.1650 O.2   1 <1>  -0.5700 
  2 C       -2.3530     1.8210     0.9930 C.2   1 <1>   0.5440 
  3 N       -1.7970     2.6370     0.0300 N.am  1 <1>  -0.6600 
  4 C       -3.1440     0.6620     0.6540 C.ar  1 <1>   0.0860 
  5 C       -0.7480     3.6510     0.3650 C.3   1 <1>   0.1400 
  6 C       -2.3730     2.8260    -1.3370 C.3   1 <1>   0.1400 
  7 C       -2.7410    -0.2240    -0.3430 C.ar  1 <1>   0.1600 
  8 C       -4.3350     0.3650     1.3110 C.ar  1 <1>  -0.1500 
  9 C       -1.2450     5.0690     0.0470 C.3   1 <1>   0.1200 
 10 C       -2.7620     4.2980    -1.5660 C.3   1 <1>   0.1200 
 11 N       -3.3940    -1.3040    -0.7380 N.ar  1 <1>  -0.6200 
 12 C       -5.0270    -0.7560     0.9200 C.ar  1 <1>  -0.1500 
 13 O       -1.6880     5.1480    -1.2790 O.3   1 <1>  -0.5600 
 14 C       -4.5230    -1.5570    -0.1010 C.ar  1 <1>   0.4100 
 15 N       -5.1520    -2.6800    -0.5230 N.pl3 1 <1>  -0.8690 
 16 C       -5.4680    -3.7620     0.4590 C.3   1 <1>   0.4940 
 17 C       -5.0170    -5.0710    -0.1910 C.ar  1 <1>  -0.1430 
 18 C       -6.9500    -3.7470     0.9110 C.2   1 <1>   0.5690 
 19 C       -5.9140    -6.0190    -0.6730 C.ar  1 <1>  -0.1500 
 20 C       -3.6550    -5.3160    -0.3150 C.ar  1 <1>  -0.1500 
 21 O       -7.2580    -4.2460     1.9700 O.2   1 <1>  -0.5700 
 22 N       -7.8840    -3.1490     0.1120 N.am  1 <1>  -0.7300 
 23 C       -5.4550    -7.1860    -1.2600 C.ar  1 <1>  -0.1500 
 24 C       -3.1960    -6.4830    -0.9010 C.ar  1 <1>  -0.1500 
 25 C       -9.3390    -3.0470     0.3820 C.3   1 <1>   0.0600 
 26 C       -4.0970    -7.4190    -1.3750 C.ar  1 <1>  -0.1500 
 27 H        0.1350     3.4490    -0.2150 H     1 <1>   0.0800 
 28 H       -0.4770     3.5930     1.4050 H     1 <1>   0.0800 
 29 H       -3.2460     2.2140    -1.4730 H     1 <1>   0.0800 
 30 H       -1.6430     2.5380    -2.0730 H     1 <1>   0.0800 
 31 H       -1.8100    -0.0180    -0.8430 H     1 <1>   0.1500 
 32 H       -4.6890     1.0040     2.1020 H     1 <1>   0.1500 
 33 H       -0.4470     5.7790     0.1710 H     1 <1>   0.0800 
 34 H       -2.0550     5.3400     0.7020 H     1 <1>   0.0800 
 35 H       -3.5930     4.5720    -0.9400 H     1 <1>   0.0800 
 36 H       -3.0380     4.4550    -2.5940 H     1 <1>   0.0800 
 37 H       -5.9540    -1.0200     1.3930 H     1 <1>   0.1500 
 38 H       -4.6540    -3.0910    -1.3180 H     1 <1>   0.4000 
 39 H       -4.8740    -3.6120     1.3430 H     1 <1>   0.0800 
 40 H       -6.9770    -5.8670    -0.6000 H     1 <1>   0.1500 
 41 H       -2.9410    -4.5930     0.0450 H     1 <1>   0.1500 
 42 H       -7.5280    -2.6850    -0.7330 H     1 <1>   0.3700 
 43 H       -6.1580    -7.9140    -1.6270 H     1 <1>   0.1500 
 44 H       -2.1390    -6.6610    -0.9910 H     1 <1>   0.1500 
 45 H       -9.5870    -3.5670     1.2930 H     1 <1>   0.0800 
 46 H       -9.8910    -3.4870    -0.4300 H     1 <1>   0.0800 
 47 H       -9.6180    -2.0130     0.4840 H     1 <1>   0.0800 
 48 H       -3.7420    -8.3270    -1.8310 H     1 <1>   0.1500 
@<TRIPOS>BOND
  1   1   2  2   
  2   2   3  am  
  3   2   4  1   
  4   3   5  1   
  5   3   6  1   
  6   4   7  ar  
  7   4   8  ar  
  8   5   9  1   
  9   5  27  1   
 10   5  28  1   
 11   6  10  1   
 12   6  29  1   
 13   6  30  1   
 14   7  11  ar  
 15   7  31  1   
 16   8  12  ar  
 17   8  32  1   
 18   9  13  1   
 19   9  33  1   
 20   9  34  1   
 21  10  13  1   
 22  10  35  1   
 23  10  36  1   
 24  11  14  ar  
 25  12  14  ar  
 26  12  37  1   
 27  14  15  1   
 28  15  16  1   
 29  15  38  1   
 30  16  17  1   
 31  16  18  1   
 32  16  39  1   
 33  17  19  ar  
 34  17  20  ar  
 35  18  21  2   
 36  18  22  am  
 37  19  23  ar  
 38  19  40  1   
 39  20  24  ar  
 40  20  41  1   
 41  22  25  1   
 42  22  42  1   
 43  23  26  ar  
 44  23  43  1   
 45  24  26  ar  
 46  24  44  1   
 47  25  45  1   
 48  25  46  1   
 49  25  47  1   
 50  26  48  1   
@<TRIPOS>SUBSTRUCTURE
  1 ****  14 GROUP 4 **** **** 0

# MOE 2024.06 (io_trps.svl 2023.06)
