@<TRIPOS>MOLECULE
NONAME
49 52 1 0 0 
SMALL
USER_CHARGES


@<TRIPOS>ATOM
  1 S       -0.3830    -0.5720    -0.9130 S.o2  1 <1>   1.4470 
  2 O       -1.0700    -1.8410    -1.0660 O.2   1 <1>  -0.6500 
  3 O       -0.4430     0.3350    -2.0380 O.2   1 <1>  -0.6500 
  4 N       -1.0760     0.1800     0.4500 N.am  1 <1>  -0.8490 
  5 C        1.2960    -0.9760    -0.3600 C.ar  1 <1>  -0.0090 
  6 C       -2.4300    -0.2480     0.8490 C.3   1 <1>   0.1960 
  7 C       -0.8700     1.6250     0.5730 C.3   1 <1>   0.1960 
  8 C        2.3560    -0.0520    -0.4860 C.ar  1 <1>   0.3100 
  9 C        1.5390    -2.2010     0.2210 C.ar  1 <1>  -0.1500 
 10 C       -3.5730     0.4890     0.1110 C.3   1 <1>   0.0000 
 11 C       -1.9380     2.4340    -0.1760 C.3   1 <1>  -0.1600 
 12 N        2.1440     1.1790    -1.0260 N.ar  1 <1>  -0.6200 
 13 C        3.6460    -0.4290    -0.0350 C.ar  1 <1>   0.0000 
 14 C        2.8050    -2.5740     0.6760 C.ar  1 <1>  -0.1430 
 15 C       -4.9320     0.0200     0.6680 C.3   1 <1>   0.2000 
 16 C       -3.3600     2.0220     0.2370 C.3   1 <1>  -0.1600 
 17 C       -3.7220     0.0830    -1.3680 C.3   1 <1>  -0.1600 
 18 C        3.1460     1.9920    -1.1480 C.ar  1 <1>   0.1600 
 19 C        3.8410    -1.6950     0.5440 C.ar  1 <1>  -0.1500 
 20 C        4.7080     0.4820    -0.1790 C.ar  1 <1>  -0.1500 
 21 C        2.9920    -3.9440     1.3020 C.3   1 <1>  -0.0970 
 22 O       -5.2830     0.6470     1.8490 O.3   1 <1>  -0.6800 
 23 C       -5.9690     0.3110    -0.4140 C.3   1 <1>  -0.1600 
 24 C       -5.1890     0.3370    -1.7340 C.3   1 <1>  -0.1600 
 25 C        4.4510     1.6930    -0.7410 C.ar  1 <1>  -0.1500 
 26 H       -2.5380    -1.3120     0.7340 H     1 <1>   0.0800 
 27 H       -2.5380    -0.0450     1.9020 H     1 <1>   0.0800 
 28 H       -0.9130     1.8840     1.6180 H     1 <1>   0.0800 
 29 H        0.1060     1.8980     0.2170 H     1 <1>   0.0800 
 30 H        0.7320    -2.9070     0.3340 H     1 <1>   0.1500 
 31 H       -1.7950     3.4770     0.0410 H     1 <1>   0.0800 
 32 H       -1.8030     2.3170    -1.2350 H     1 <1>   0.0800 
 33 H       -4.9040    -1.0410     0.8530 H     1 <1>   0.0800 
 34 H       -4.0770     2.5600    -0.3570 H     1 <1>   0.0800 
 35 H       -3.4890     2.3210     1.2620 H     1 <1>   0.0800 
 36 H       -3.0580     0.6100    -2.0290 H     1 <1>   0.0800 
 37 H       -3.5260    -0.9710    -1.4710 H     1 <1>   0.0800 
 38 H        2.9640     2.9570    -1.5900 H     1 <1>   0.1500 
 39 H        4.8280    -1.9560     0.8820 H     1 <1>   0.1500 
 40 H        5.6940     0.2090     0.1520 H     1 <1>   0.1500 
 41 H        4.0120    -4.0930     1.6070 H     1 <1>   0.0800 
 42 H        2.7330    -4.7090     0.5920 H     1 <1>   0.0800 
 43 H        2.3580    -4.0430     2.1650 H     1 <1>   0.0800 
 44 H       -5.3950     1.6020     1.6880 H     1 <1>   0.4000 
 45 H       -6.7210    -0.4590    -0.4270 H     1 <1>   0.0800 
 46 H       -6.4370     1.2670    -0.2560 H     1 <1>   0.0800 
 47 H       -5.5450    -0.4120    -2.4200 H     1 <1>   0.0800 
 48 H       -5.2880     1.3040    -2.1970 H     1 <1>   0.0800 
 49 H        5.2240     2.4270    -0.8790 H     1 <1>   0.1500 
@<TRIPOS>BOND
  1   1   2  2   
  2   1   3  2   
  3   1   4  am  
  4   1   5  1   
  5   4   6  1   
  6   4   7  1   
  7   5   8  ar  
  8   5   9  ar  
  9   6  10  1   
 10   6  26  1   
 11   6  27  1   
 12   7  11  1   
 13   7  28  1   
 14   7  29  1   
 15   8  12  ar  
 16   8  13  ar  
 17   9  14  ar  
 18   9  30  1   
 19  10  15  1   
 20  10  16  1   
 21  10  17  1   
 22  11  16  1   
 23  11  31  1   
 24  11  32  1   
 25  12  18  ar  
 26  13  19  ar  
 27  13  20  ar  
 28  14  19  ar  
 29  14  21  1   
 30  15  22  1   
 31  15  23  1   
 32  15  33  1   
 33  16  34  1   
 34  16  35  1   
 35  17  24  1   
 36  17  36  1   
 37  17  37  1   
 38  18  25  ar  
 39  18  38  1   
 40  19  39  1   
 41  20  25  ar  
 42  20  40  1   
 43  21  41  1   
 44  21  42  1   
 45  21  43  1   
 46  22  44  1   
 47  23  24  1   
 48  23  45  1   
 49  23  46  1   
 50  24  47  1   
 51  24  48  1   
 52  25  49  1   
@<TRIPOS>SUBSTRUCTURE
  1 ****   1 GROUP 4 **** **** 0

# MOE 2024.06 (io_trps.svl 2023.06)
