@<TRIPOS>MOLECULE
NONAME
51 54 1 0 0 
SMALL
USER_CHARGES


@<TRIPOS>ATOM
  1 F       -2.2370    -1.3210    -2.4880 F     1 <1>  -0.1900 
  2 C       -2.5690    -1.5790    -1.2520 C.ar  1 <1>   0.1900 
  3 C       -2.5330    -2.8890    -0.8130 C.ar  1 <1>  -0.1500 
  4 C       -2.9470    -0.5340    -0.4310 C.ar  1 <1>  -0.1500 
  5 C       -2.8880    -3.1660     0.4990 C.ar  1 <1>  -0.1440 
  6 C       -3.3010    -0.8160     0.8770 C.ar  1 <1>  -0.1500 
  7 C       -3.2720    -2.1250     1.3360 C.ar  1 <1>  -0.1500 
  8 C       -2.8650    -4.5980     1.0030 C.3   1 <1>   0.2840 
  9 N       -4.0990    -5.2520     0.5480 N.am  1 <1>  -0.7300 
 10 C       -4.2040    -6.5810     0.3330 C.2   1 <1>   0.6900 
 11 O       -3.2890    -7.3160     0.6550 O.2   1 <1>  -0.5700 
 12 N       -5.3310    -7.0750    -0.2630 N.am  1 <1>  -0.6600 
 13 C       -6.6720    -6.4180    -0.1840 C.3   1 <1>   0.1400 
 14 C       -5.4010    -8.4890    -0.7390 C.3   1 <1>   0.1400 
 15 C       -7.6550    -7.2780     0.6350 C.3   1 <1>   0.1900 
 16 C       -6.4200    -9.2950     0.0820 C.3   1 <1>   0.1100 
 17 N       -7.7530    -8.6500     0.0760 N.3   1 <1>  -0.8100 
 18 C       -9.0440    -6.6120     0.6790 C.3   1 <1>   0.1200 
 19 C       -8.7470    -9.4360     0.8450 C.3   1 <1>   0.3330 
 20 O       -9.9380    -7.3890     1.4250 O.3   1 <1>  -0.5600 
 21 C       -8.9670   -10.8120     0.2170 C.ar  1 <1>  -0.1430 
 22 C      -10.0960    -8.6880     0.9180 C.3   1 <1>   0.1200 
 23 C       -9.1860   -10.9460    -1.1470 C.ar  1 <1>  -0.1500 
 24 C       -8.9540   -11.9490     1.0120 C.ar  1 <1>  -0.1500 
 25 C       -9.3910   -12.1940    -1.7080 C.ar  1 <1>  -0.1500 
 26 C       -9.1590   -13.1990     0.4530 C.ar  1 <1>  -0.1500 
 27 C       -9.3780   -13.3220    -0.9070 C.ar  1 <1>  -0.1500 
 28 H       -2.2330    -3.6710    -1.4890 H     1 <1>   0.1500 
 29 H       -2.9610     0.4720    -0.8100 H     1 <1>   0.1500 
 30 H       -3.5980    -0.0190     1.5370 H     1 <1>   0.1500 
 31 H       -3.5530    -2.3310     2.3550 H     1 <1>   0.1500 
 32 H       -2.8220    -4.6250     2.0780 H     1 <1>   0.0800 
 33 H       -2.0060    -5.1170     0.6120 H     1 <1>   0.0800 
 34 H       -4.7190    -4.6470     0.0180 H     1 <1>   0.3700 
 35 H       -6.5940    -5.4490     0.2740 H     1 <1>   0.0800 
 36 H       -7.0570    -6.2890    -1.1810 H     1 <1>   0.0800 
 37 H       -5.6980    -8.4980    -1.7720 H     1 <1>   0.0800 
 38 H       -4.4360    -8.9610    -0.6710 H     1 <1>   0.0800 
 39 H       -7.2830    -7.3290     1.6450 H     1 <1>   0.0800 
 40 H       -6.0590    -9.3920     1.0920 H     1 <1>   0.0800 
 41 H       -6.4900   -10.2820    -0.3420 H     1 <1>   0.0800 
 42 H       -9.4400    -6.4920    -0.3140 H     1 <1>   0.0800 
 43 H       -8.9830    -5.6480     1.1510 H     1 <1>   0.0800 
 44 H       -8.3880    -9.5640     1.8510 H     1 <1>   0.0800 
 45 H      -10.7720    -9.2140     1.5670 H     1 <1>   0.0800 
 46 H      -10.5400    -8.6230    -0.0590 H     1 <1>   0.0800 
 47 H       -9.1900   -10.0710    -1.7750 H     1 <1>   0.1500 
 48 H       -8.7850   -11.8680     2.0720 H     1 <1>   0.1500 
 49 H       -9.5590   -12.2870    -2.7670 H     1 <1>   0.1500 
 50 H       -9.1480   -14.0760     1.0770 H     1 <1>   0.1500 
 51 H       -9.5370   -14.2930    -1.3420 H     1 <1>   0.1500 
@<TRIPOS>BOND
  1   1   2  1   
  2   2   3  ar  
  3   2   4  ar  
  4   3   5  ar  
  5   3  28  1   
  6   4   6  ar  
  7   4  29  1   
  8   5   7  ar  
  9   5   8  1   
 10   6   7  ar  
 11   6  30  1   
 12   7  31  1   
 13   8   9  1   
 14   8  32  1   
 15   8  33  1   
 16   9  10  am  
 17   9  34  1   
 18  10  11  2   
 19  10  12  am  
 20  12  13  1   
 21  12  14  1   
 22  13  15  1   
 23  13  35  1   
 24  13  36  1   
 25  14  16  1   
 26  14  37  1   
 27  14  38  1   
 28  15  17  1   
 29  15  18  1   
 30  15  39  1   
 31  16  17  1   
 32  16  40  1   
 33  16  41  1   
 34  17  19  1   
 35  18  20  1   
 36  18  42  1   
 37  18  43  1   
 38  19  21  1   
 39  19  22  1   
 40  19  44  1   
 41  20  22  1   
 42  21  23  ar  
 43  21  24  ar  
 44  22  45  1   
 45  22  46  1   
 46  23  25  ar  
 47  23  47  1   
 48  24  26  ar  
 49  24  48  1   
 50  25  27  ar  
 51  25  49  1   
 52  26  27  ar  
 53  26  50  1   
 54  27  51  1   
@<TRIPOS>SUBSTRUCTURE
  1 ****  13 GROUP 4 **** **** 0

# MOE 2024.06 (io_trps.svl 2023.06)
