@<TRIPOS>MOLECULE
NONAME
41 42 1 0 0 
SMALL
USER_CHARGES


@<TRIPOS>ATOM
  1 O        1.4150    -0.3580     2.7410 O.2   1 <1>  -0.5700 
  2 C        1.4530    -0.9210     1.6720 C.2   1 <1>   0.5690 
  3 N        1.8550    -0.3190     0.5180 N.am  1 <1>  -0.4930 
  4 C        1.0260    -2.3810     1.6210 C.3   1 <1>   0.1810 
  5 C        2.2950     1.0090     0.2920 C.2   1 <1>   0.0630 
  6 O        1.1300    -2.9040     0.3010 O.3   1 <1>  -0.3630 
  7 C        2.6810     1.5380    -0.8900 C.2   1 <1>  -0.3320 
  8 C        2.4320     2.0510     1.2090 C.2   1 <1>   0.1390 
  9 C        0.7970    -4.1810     0.0170 C.ar  1 <1>   0.0830 
 10 N        3.0190     2.8290    -0.6410 N.pl3 1 <1>   0.3140 
 11 C        2.7510     0.8920    -2.2660 C.3   1 <1>  -0.0600 
 12 N        2.8650     3.1440     0.6550 N.2   1 <1>  -0.7070 
 13 C        0.9260    -4.5870    -1.3010 C.ar  1 <1>  -0.1500 
 14 C        0.3380    -5.0950     0.9600 C.ar  1 <1>  -0.1500 
 15 C        3.5030     3.8240    -1.6070 C.3   1 <1>   0.0160 
 16 C        0.6070    -5.8780    -1.6700 C.ar  1 <1>  -0.1500 
 17 C        0.0190    -6.3860     0.5800 C.ar  1 <1>  -0.1500 
 18 C        0.1480    -6.8200    -0.7450 C.ar  1 <1>   0.0860 
 19 C       -0.1720    -8.1660    -1.1780 C.2   1 <1>   0.4230 
 20 O       -0.2910    -8.4550    -2.3430 O.2   1 <1>  -0.5700 
 21 C       -0.3730    -9.2720    -0.1390 C.3   1 <1>  -0.0990 
 22 C       -0.2920   -10.7010    -0.7030 C.3   1 <1>  -0.2400 
 23 H        1.8350    -0.9180    -0.3080 H     1 <1>   0.3700 
 24 H        0.0030    -2.4610     1.9400 H     1 <1>   0.0800 
 25 H        1.6600    -2.9580     2.2680 H     1 <1>   0.0800 
 26 H        2.2050     1.9660     2.2580 H     1 <1>   0.1500 
 27 H        2.4350    -0.1340    -2.2220 H     1 <1>   0.0800 
 28 H        3.7610     0.9200    -2.6370 H     1 <1>   0.0800 
 29 H        2.1110     1.4150    -2.9530 H     1 <1>   0.0800 
 30 H        1.2780    -3.8860    -2.0370 H     1 <1>   0.1500 
 31 H        0.2200    -4.8200     1.9920 H     1 <1>   0.1500 
 32 H        4.4160     3.4730    -2.0470 H     1 <1>   0.0800 
 33 H        3.6820     4.7510    -1.0950 H     1 <1>   0.0800 
 34 H        2.7580     3.9700    -2.3650 H     1 <1>   0.0800 
 35 H        0.7130    -6.1720    -2.7020 H     1 <1>   0.1500 
 36 H       -0.3410    -7.0610     1.3350 H     1 <1>   0.1500 
 37 H       -1.3360    -9.1350     0.3190 H     1 <1>   0.0800 
 38 H        0.3800    -9.1730     0.6220 H     1 <1>   0.0800 
 39 H       -1.0630   -10.8550    -1.4380 H     1 <1>   0.0800 
 40 H       -0.4180   -11.4220     0.0850 H     1 <1>   0.0800 
 41 H        0.6620   -10.8620    -1.1720 H     1 <1>   0.0800 
@<TRIPOS>BOND
  1   1   2  2   
  2   2   3  am  
  3   2   4  1   
  4   3   5  1   
  5   3  23  1   
  6   4   6  1   
  7   4  24  1   
  8   4  25  1   
  9   5   7  2   
 10   5   8  1   
 11   6   9  1   
 12   7  10  1   
 13   7  11  1   
 14   8  12  2   
 15   8  26  1   
 16   9  13  ar  
 17   9  14  ar  
 18  10  12  1   
 19  10  15  1   
 20  11  27  1   
 21  11  28  1   
 22  11  29  1   
 23  13  16  ar  
 24  13  30  1   
 25  14  17  ar  
 26  14  31  1   
 27  15  32  1   
 28  15  33  1   
 29  15  34  1   
 30  16  18  ar  
 31  16  35  1   
 32  17  18  ar  
 33  17  36  1   
 34  18  19  1   
 35  19  20  2   
 36  19  21  1   
 37  21  22  1   
 38  21  37  1   
 39  21  38  1   
 40  22  39  1   
 41  22  40  1   
 42  22  41  1   
@<TRIPOS>SUBSTRUCTURE
  1 ****   6 GROUP 4 **** **** 0

# MOE 2024.06 (io_trps.svl 2023.06)
