@<TRIPOS>MOLECULE
NONAME
32 33 1 0 0 
SMALL
USER_CHARGES


@<TRIPOS>ATOM
  1 CL      -0.0760    -0.3600    -1.9170 Cl    1 <1>  -0.1770 
  2 C        1.3370    -1.1440    -1.2250 C.ar  1 <1>   0.1770 
  3 C        1.2500    -2.2810    -0.4230 C.ar  1 <1>   0.4100 
  4 C        2.5770    -0.6320    -1.4920 C.ar  1 <1>   0.1600 
  5 N        2.3550    -2.8410     0.0440 N.ar  1 <1>  -0.6200 
  6 N        0.0500    -2.8780    -0.0670 N.pl3 1 <1>  -0.8380 
  7 N        3.6820    -1.1820    -1.0180 N.ar  1 <1>  -0.6200 
  8 C        3.4970    -2.2600    -0.2750 C.ar  1 <1>   0.4770 
  9 C       -0.0290    -4.3590     0.1640 C.3   1 <1>   0.2090 
 10 C       -1.0120    -2.0800     0.6060 C.3   1 <1>   0.1290 
 11 C        4.7430    -2.9120     0.2730 C.3   1 <1>  -0.0960 
 12 C       -1.2970    -4.9990    -0.4350 C.3   1 <1>   0.2000 
 13 O       -2.4370    -4.6910     0.3070 O.3   1 <1>  -0.5600 
 14 C       -1.2710    -6.5220    -0.4380 C.3   1 <1>  -0.1600 
 15 C       -3.4460    -5.6070     0.0300 C.3   1 <1>   0.1200 
 16 C       -2.7450    -6.8940    -0.4010 C.3   1 <1>  -0.1600 
 17 H        2.6710     0.2440    -2.1080 H     1 <1>   0.1500 
 18 H        0.0190    -4.5650     1.2180 H     1 <1>   0.0800 
 19 H        0.8230    -4.8260    -0.2990 H     1 <1>   0.0800 
 20 H       -0.6770    -1.0720     0.7800 H     1 <1>   0.0800 
 21 H       -1.2650    -2.5260     1.5530 H     1 <1>   0.0800 
 22 H       -1.8920    -2.0570    -0.0120 H     1 <1>   0.0800 
 23 H        4.5420    -3.3370     1.2390 H     1 <1>   0.0800 
 24 H        5.5300    -2.1880     0.3680 H     1 <1>   0.0800 
 25 H        5.0590    -3.6900    -0.3960 H     1 <1>   0.0800 
 26 H       -1.4470    -4.6340    -1.4370 H     1 <1>   0.0800 
 27 H       -0.7790    -6.8790     0.4500 H     1 <1>   0.0800 
 28 H       -0.7670    -6.9100    -1.3050 H     1 <1>   0.0800 
 29 H       -4.0520    -5.2060    -0.7640 H     1 <1>   0.0800 
 30 H       -4.0390    -5.7420     0.9180 H     1 <1>   0.0800 
 31 H       -2.9350    -7.6900     0.2970 H     1 <1>   0.0800 
 32 H       -3.0980    -7.1890    -1.3730 H     1 <1>   0.0800 
@<TRIPOS>BOND
  1   1   2  1   
  2   2   3  ar  
  3   2   4  ar  
  4   3   5  ar  
  5   3   6  1   
  6   4   7  ar  
  7   4  17  1   
  8   5   8  ar  
  9   6   9  1   
 10   6  10  1   
 11   7   8  ar  
 12   8  11  1   
 13   9  12  1   
 14   9  18  1   
 15   9  19  1   
 16  10  20  1   
 17  10  21  1   
 18  10  22  1   
 19  11  23  1   
 20  11  24  1   
 21  11  25  1   
 22  12  13  1   
 23  12  14  1   
 24  12  26  1   
 25  13  15  1   
 26  14  16  1   
 27  14  27  1   
 28  14  28  1   
 29  15  16  1   
 30  15  29  1   
 31  15  30  1   
 32  16  31  1   
 33  16  32  1   
@<TRIPOS>SUBSTRUCTURE
  1 ****   6 GROUP 4 **** **** 0

# MOE 2024.06 (io_trps.svl 2023.06)
