@<TRIPOS>MOLECULE
NONAME
44 45 1 0 0 
SMALL
USER_CHARGES


@<TRIPOS>ATOM
  1 CL      -0.1440    -0.2530    -0.1210 Cl    1 <1>  -0.1770 
  2 C       -1.7700     0.3140     0.1540 C.ar  1 <1>   0.1770 
  3 C       -2.7190     0.1690    -0.8390 C.ar  1 <1>  -0.1500 
  4 C       -2.0900     0.9030     1.3620 C.ar  1 <1>  -0.1500 
  5 C       -4.0070     0.6210    -0.6160 C.ar  1 <1>  -0.1500 
  6 C       -3.3830     1.3490     1.5740 C.ar  1 <1>  -0.1500 
  7 C       -4.3700     1.2140     0.5950 C.ar  1 <1>   0.0530 
  8 C       -5.7050     1.6950     0.8420 C.2   1 <1>   0.0870 
  9 O       -5.8670     2.8860     1.3610 O.3   1 <1>  -0.0190 
 10 C       -6.9490     1.1630     0.6740 C.2   1 <1>  -0.0860 
 11 N       -7.1210     3.2020     1.5400 N.2   1 <1>  -0.4100 
 12 C       -7.7880     2.1920     1.1230 C.2   1 <1>   0.3720 
 13 C       -7.3720    -0.1250     0.2110 C.2   1 <1>   0.7160 
 14 N       -9.1760     2.2110     1.1500 N.pl3 1 <1>  -0.8520 
 15 O       -6.6320    -0.8410    -0.4330 O.2   1 <1>  -0.5700 
 16 N       -8.6330    -0.5580     0.4950 N.am  1 <1>  -0.7300 
 17 C       -9.8070     2.4300    -0.1820 C.3   1 <1>   0.2090 
 18 C       -9.3530    -1.7490    -0.0100 C.3   1 <1>   0.2200 
 19 C      -11.2800     2.0240    -0.1400 C.3   1 <1>   0.1200 
 20 C       -8.5160    -3.0380     0.1230 C.3   1 <1>   0.1200 
 21 C       -9.7870    -1.4790    -1.4520 C.3   1 <1>  -0.2400 
 22 O      -11.7990     2.1160    -1.4280 O.3   1 <1>  -0.5600 
 23 O       -9.3260    -4.1600    -0.0400 O.3   1 <1>  -0.6800 
 24 C      -13.1420     1.7660    -1.5250 C.3   1 <1>   0.0400 
 25 H       -2.4500    -0.2920    -1.7730 H     1 <1>   0.1500 
 26 H       -1.3360     1.0090     2.1200 H     1 <1>   0.1500 
 27 H       -4.7440     0.5130    -1.3930 H     1 <1>   0.1500 
 28 H       -3.6370     1.8100     2.5140 H     1 <1>   0.1500 
 29 H       -9.4420     2.9930     1.7620 H     1 <1>   0.4000 
 30 H       -9.2210     0.1510     0.9520 H     1 <1>   0.3700 
 31 H       -9.7270     3.4700    -0.4520 H     1 <1>   0.0800 
 32 H       -9.3020     1.8390    -0.9280 H     1 <1>   0.0800 
 33 H      -10.2320    -1.8680     0.5990 H     1 <1>   0.0800 
 34 H      -11.8330     2.6860     0.5040 H     1 <1>   0.0800 
 35 H      -11.3760     1.0060     0.1950 H     1 <1>   0.0800 
 36 H       -8.0560    -3.0970     1.0940 H     1 <1>   0.0800 
 37 H       -7.7540    -3.0740    -0.6360 H     1 <1>   0.0800 
 38 H       -8.9260    -1.3560    -2.0840 H     1 <1>   0.0800 
 39 H      -10.3990    -0.5980    -1.5070 H     1 <1>   0.0800 
 40 H      -10.3580    -2.3120    -1.8220 H     1 <1>   0.0800 
 41 H       -9.8950    -4.2950     0.7410 H     1 <1>   0.4000 
 42 H      -13.4420     1.8720    -2.5530 H     1 <1>   0.0800 
 43 H      -13.7280     2.4260    -0.9080 H     1 <1>   0.0800 
 44 H      -13.2680     0.7430    -1.2150 H     1 <1>   0.0800 
@<TRIPOS>BOND
  1   1   2  1   
  2   2   3  ar  
  3   2   4  ar  
  4   3   5  ar  
  5   3  25  1   
  6   4   6  ar  
  7   4  26  1   
  8   5   7  ar  
  9   5  27  1   
 10   6   7  ar  
 11   6  28  1   
 12   7   8  1   
 13   8   9  1   
 14   8  10  2   
 15   9  11  1   
 16  10  12  1   
 17  10  13  1   
 18  11  12  2   
 19  12  14  1   
 20  13  15  2   
 21  13  16  am  
 22  14  17  1   
 23  14  29  1   
 24  16  18  1   
 25  16  30  1   
 26  17  19  1   
 27  17  31  1   
 28  17  32  1   
 29  18  20  1   
 30  18  21  1   
 31  18  33  1   
 32  19  22  1   
 33  19  34  1   
 34  19  35  1   
 35  20  23  1   
 36  20  36  1   
 37  20  37  1   
 38  21  38  1   
 39  21  39  1   
 40  21  40  1   
 41  22  24  1   
 42  23  41  1   
 43  24  42  1   
 44  24  43  1   
 45  24  44  1   
@<TRIPOS>SUBSTRUCTURE
  1 ****  10 GROUP 4 **** **** 0

# MOE 2024.06 (io_trps.svl 2023.06)
