@<TRIPOS>MOLECULE
NONAME
54 57 1 0 0 
SMALL
USER_CHARGES


@<TRIPOS>ATOM
  1 O       -1.7760     0.3090    -1.7970 O.2   1 <1>  -0.5700 
  2 C       -1.7640     0.7630    -0.6660 C.2   1 <1>   0.7160 
  3 N       -1.8680    -0.1040     0.4050 N.am  1 <1>  -0.6600 
  4 C       -1.6200     2.1660    -0.4580 C.2   1 <1>  -0.0860 
  5 C       -2.0270    -1.5720     0.1950 C.3   1 <1>   0.1400 
  6 C       -1.7390     0.3430     1.8230 C.3   1 <1>   0.0600 
  7 C       -2.6130     3.1540    -0.5160 C.2   1 <1>   0.3720 
  8 C       -0.5010     2.8480    -0.1030 C.2   1 <1>   0.0870 
  9 C       -3.5010    -1.9270    -0.0380 C.3   1 <1>   0.0000 
 10 N       -2.1160     4.3040    -0.2120 N.2   1 <1>  -0.4100 
 11 N       -3.9680     2.9820    -0.8570 N.pl3 1 <1>  -0.8210 
 12 O       -0.8480     4.1010     0.0330 O.3   1 <1>  -0.0190 
 13 C        0.8540     2.4240     0.1380 C.ar  1 <1>   0.0530 
 14 C       -4.4350    -1.8180     1.1970 C.3   1 <1>   0.0000 
 15 C       -3.8010    -3.4490    -0.0320 C.3   1 <1>   0.0000 
 16 C       -4.9290     4.0870    -0.5980 C.3   1 <1>   0.2090 
 17 C       -4.6470     1.6750    -0.6820 C.3   1 <1>   0.2090 
 18 C        1.6430     3.0640     1.0940 C.ar  1 <1>  -0.1500 
 19 C        1.4270     1.3620    -0.5620 C.ar  1 <1>  -0.1500 
 20 C       -5.1350    -3.1000     0.6780 C.3   1 <1>   0.0000 
 21 C       -6.1950     3.4140    -0.0840 C.3   1 <1>  -0.1600 
 22 C       -6.1330     1.9990    -0.6430 C.3   1 <1>  -0.1600 
 23 C        2.9370     2.6520     1.3500 C.ar  1 <1>  -0.1500 
 24 C        2.7210     0.9430    -0.3120 C.ar  1 <1>  -0.1500 
 25 C        3.4880     1.5880     0.6540 C.ar  1 <1>   0.0820 
 26 O        4.7590     1.2430     0.9640 O.3   1 <1>  -0.3630 
 27 C        5.4260     0.1970     0.2930 C.3   1 <1>   0.0400 
 28 H       -1.6440    -2.1050     1.0480 H     1 <1>   0.0800 
 29 H       -1.4530    -1.8750    -0.6650 H     1 <1>   0.0800 
 30 H       -2.0950     1.3520     1.9400 H     1 <1>   0.0800 
 31 H       -0.7060     0.2990     2.1210 H     1 <1>   0.0800 
 32 H       -2.3170    -0.2930     2.4700 H     1 <1>   0.0800 
 33 H       -3.9180    -1.4540    -0.9110 H     1 <1>   0.0000 
 34 H       -5.0650    -0.9470     1.1950 H     1 <1>   0.0000 
 35 H       -3.9280    -1.9820     2.1330 H     1 <1>   0.0000 
 36 H       -3.1340    -4.0130     0.5990 H     1 <1>   0.0000 
 37 H       -3.9270    -3.8720    -1.0120 H     1 <1>   0.0000 
 38 H       -5.1230     4.5970    -1.5260 H     1 <1>   0.0800 
 39 H       -4.5530     4.7930     0.1230 H     1 <1>   0.0800 
 40 H       -4.3430     1.2330     0.2510 H     1 <1>   0.0800 
 41 H       -4.4150     1.0110    -1.4980 H     1 <1>   0.0800 
 42 H        1.2360     3.8930     1.6450 H     1 <1>   0.1500 
 43 H        0.8560     0.8580    -1.3220 H     1 <1>   0.1500 
 44 H       -5.9320    -2.8870    -0.0150 H     1 <1>   0.0000 
 45 H       -5.4100    -3.7910     1.4540 H     1 <1>   0.0000 
 46 H       -7.0800     3.9410    -0.3930 H     1 <1>   0.0800 
 47 H       -6.1600     3.3850     0.9910 H     1 <1>   0.0800 
 48 H       -6.6810     1.2920    -0.0460 H     1 <1>   0.0800 
 49 H       -6.5150     1.9850    -1.6490 H     1 <1>   0.0800 
 50 H        3.5330     3.1530     2.0910 H     1 <1>   0.1500 
 51 H        3.1150     0.1200    -0.8760 H     1 <1>   0.1500 
 52 H        6.4170     0.1180     0.7010 H     1 <1>   0.0800 
 53 H        5.4790     0.4330    -0.7550 H     1 <1>   0.0800 
 54 H        4.8890    -0.7210     0.4560 H     1 <1>   0.0800 
@<TRIPOS>BOND
  1   1   2  2   
  2   2   3  am  
  3   2   4  1   
  4   3   5  1   
  5   3   6  1   
  6   4   7  1   
  7   4   8  2   
  8   5   9  1   
  9   5  28  1   
 10   5  29  1   
 11   6  30  1   
 12   6  31  1   
 13   6  32  1   
 14   7  10  2   
 15   7  11  1   
 16   8  12  1   
 17   8  13  1   
 18   9  14  1   
 19   9  15  1   
 20   9  33  1   
 21  10  12  1   
 22  11  16  1   
 23  11  17  1   
 24  13  18  ar  
 25  13  19  ar  
 26  14  20  1   
 27  14  34  1   
 28  14  35  1   
 29  15  20  1   
 30  15  36  1   
 31  15  37  1   
 32  16  21  1   
 33  16  38  1   
 34  16  39  1   
 35  17  22  1   
 36  17  40  1   
 37  17  41  1   
 38  18  23  ar  
 39  18  42  1   
 40  19  24  ar  
 41  19  43  1   
 42  20  44  1   
 43  20  45  1   
 44  21  22  1   
 45  21  46  1   
 46  21  47  1   
 47  22  48  1   
 48  22  49  1   
 49  23  25  ar  
 50  23  50  1   
 51  24  25  ar  
 52  24  51  1   
 53  25  26  1   
 54  26  27  1   
 55  27  52  1   
 56  27  53  1   
 57  27  54  1   
@<TRIPOS>SUBSTRUCTURE
  1 ****   2 GROUP 4 **** **** 0

# MOE 2024.06 (io_trps.svl 2023.06)
