@<TRIPOS>MOLECULE
NONAME
54 56 1 0 0 
SMALL
USER_CHARGES


@<TRIPOS>ATOM
  1 O        0.6280     0.1020    -0.8290 O.3   1 <1>  -0.5600 
  2 C        1.8880    -0.5280    -0.8620 C.3   1 <1>   0.2000 
  3 C        0.6490     1.4940    -0.9500 C.3   1 <1>   0.1200 
  4 C        2.8340     0.0480     0.2260 C.3   1 <1>   0.5660 
  5 C        1.6840    -2.0380    -0.6520 C.3   1 <1>   0.1200 
  6 C        1.4500     2.1120     0.2090 C.3   1 <1>   0.3430 
  7 N        2.8340     1.5450     0.2790 N.4   1 <1>  -0.9590 
  8 C        4.2700    -0.4080     0.0020 C.ar  1 <1>  -0.1430 
  9 O        1.3990    -2.3050     0.6860 O.3   1 <1>  -0.6800 
 10 C        3.5930     2.0530     1.4480 C.3   1 <1>   0.4870 
 11 C        4.8540    -1.2680     0.9210 C.ar  1 <1>  -0.1500 
 12 C        5.0120     0.0230    -1.0930 C.ar  1 <1>  -0.1500 
 13 C        3.9420     3.4950     1.1480 C.ar  1 <1>  -0.1430 
 14 C        6.1640    -1.6810     0.7580 C.ar  1 <1>  -0.1500 
 15 C        6.3220    -0.3910    -1.2530 C.ar  1 <1>  -0.1500 
 16 C        4.9090     3.7730     0.1950 C.ar  1 <1>  -0.1500 
 17 C        3.3000     4.5420     1.7910 C.ar  1 <1>  -0.1500 
 18 C        6.8990    -1.2420    -0.3280 C.ar  1 <1>  -0.1500 
 19 C        5.2200     5.0790    -0.1420 C.ar  1 <1>  -0.1430 
 20 C        3.6090     5.8510     1.4650 C.ar  1 <1>  -0.1500 
 21 C        4.5650     6.1300     0.4910 C.ar  1 <1>   0.0820 
 22 C        6.2740     5.3190    -1.2120 C.3   1 <1>   0.2640 
 23 O        4.8990     7.3930     0.1150 O.3   1 <1>  -0.3630 
 24 O        5.7130     4.9790    -2.4300 O.3   1 <1>  -0.6800 
 25 C        4.3170     8.5580     0.6630 C.3   1 <1>   0.1200 
 26 C        2.9740     8.8230    -0.0190 C.3   1 <1>  -0.2400 
 27 H        2.3020    -0.3690    -1.8420 H     1 <1>   0.0800 
 28 H        1.0720     1.7570    -1.9040 H     1 <1>   0.0800 
 29 H       -0.3700     1.8380    -0.9200 H     1 <1>   0.0800 
 30 H        2.4970    -0.3310     1.1760 H     1 <1>   0.0800 
 31 H        2.5770    -2.5810    -0.9130 H     1 <1>   0.0800 
 32 H        0.8670    -2.3890    -1.2600 H     1 <1>   0.0800 
 33 H        0.9240     1.9120     1.1280 H     1 <1>   0.0800 
 34 H        1.4980     3.1820     0.0790 H     1 <1>   0.0800 
 35 H        3.3540     1.8680    -0.5420 H     1 <1>   0.4500 
 36 H        1.0300    -3.2090     0.7850 H     1 <1>   0.4000 
 37 H        3.0050     1.9790     2.3490 H     1 <1>   0.0800 
 38 H        4.5060     1.4940     1.5820 H     1 <1>   0.0800 
 39 H        4.2980    -1.6300     1.7710 H     1 <1>   0.1500 
 40 H        4.5940     0.6780    -1.8370 H     1 <1>   0.1500 
 41 H        6.6150    -2.3490     1.4730 H     1 <1>   0.1500 
 42 H        6.8980    -0.0560    -2.1010 H     1 <1>   0.1500 
 43 H        5.4350     2.9750    -0.3040 H     1 <1>   0.1500 
 44 H        2.5560     4.3560     2.5470 H     1 <1>   0.1500 
 45 H        7.9190    -1.5650    -0.4550 H     1 <1>   0.1500 
 46 H        3.0950     6.6400     1.9800 H     1 <1>   0.1500 
 47 H        7.1320     4.6890    -1.0510 H     1 <1>   0.0800 
 48 H        6.5960     6.3450    -1.2560 H     1 <1>   0.0800 
 49 H        4.9920     5.6110    -2.6220 H     1 <1>   0.4000 
 50 H        4.2270     8.4490     1.7290 H     1 <1>   0.0800 
 51 H        4.9920     9.3720     0.4630 H     1 <1>   0.0800 
 52 H        2.2860     8.0160     0.1540 H     1 <1>   0.0800 
 53 H        3.1180     8.9480    -1.0770 H     1 <1>   0.0800 
 54 H        2.5430     9.7260     0.3730 H     1 <1>   0.0800 
@<TRIPOS>BOND
  1   1   2  1   
  2   1   3  1   
  3   2   4  1   
  4   2   5  1   
  5   2  27  1   
  6   3   6  1   
  7   3  28  1   
  8   3  29  1   
  9   4   7  1   
 10   4   8  1   
 11   4  30  1   
 12   5   9  1   
 13   5  31  1   
 14   5  32  1   
 15   6   7  1   
 16   6  33  1   
 17   6  34  1   
 18   7  10  1   
 19   7  35  1   
 20   8  11  ar  
 21   8  12  ar  
 22   9  36  1   
 23  10  13  1   
 24  10  37  1   
 25  10  38  1   
 26  11  14  ar  
 27  11  39  1   
 28  12  15  ar  
 29  12  40  1   
 30  13  16  ar  
 31  13  17  ar  
 32  14  18  ar  
 33  14  41  1   
 34  15  18  ar  
 35  15  42  1   
 36  16  19  ar  
 37  16  43  1   
 38  17  20  ar  
 39  17  44  1   
 40  18  45  1   
 41  19  21  ar  
 42  19  22  1   
 43  20  21  ar  
 44  20  46  1   
 45  21  23  1   
 46  22  24  1   
 47  22  47  1   
 48  22  48  1   
 49  23  25  1   
 50  24  49  1   
 51  25  26  1   
 52  25  50  1   
 53  25  51  1   
 54  26  52  1   
 55  26  53  1   
 56  26  54  1   
@<TRIPOS>SUBSTRUCTURE
  1 ****   7 GROUP 4 **** **** 0

# MOE 2024.06 (io_trps.svl 2023.06)
