@<TRIPOS>MOLECULE
NONAME
48 51 1 0 0 
SMALL
USER_CHARGES


@<TRIPOS>ATOM
  1 O        1.7040     0.5180     0.7190 O.2   1 <1>  -0.5700 
  2 C        2.5070    -0.3700     0.9640 C.2   1 <1>   0.7160 
  3 N        3.2300    -0.2880     2.1460 N.am  1 <1>  -0.6600 
  4 C        2.6900    -1.4380    -0.0090 C.2   1 <1>   0.2030 
  5 C        4.4600    -1.1020     2.3820 C.3   1 <1>   0.1400 
  6 C        3.1310     0.9110     3.0190 C.3   1 <1>   0.1400 
  7 N        2.9180    -2.7020     0.2140 N.2   1 <1>  -0.4100 
  8 C        2.6500    -1.2470    -1.3820 C.2   1 <1>  -0.1500 
  9 C        5.6040    -0.7100     1.4280 C.3   1 <1>   0.1400 
 10 C        4.0180     2.0520     2.4980 C.3   1 <1>  -0.1600 
 11 O        3.0380    -3.3520    -0.9180 O.3   1 <1>  -0.0190 
 12 C        2.8770    -2.4660    -1.8770 C.2   1 <1>  -0.0400 
 13 N        5.6300     0.7550     1.0970 N.am  1 <1>  -0.6600 
 14 C        5.4910     1.6840     2.2580 C.3   1 <1>   0.1400 
 15 C        2.9710    -2.9250    -3.3160 C.3   1 <1>  -0.0600 
 16 C        5.7200     1.1720    -0.2130 C.2   1 <1>   0.5690 
 17 O        5.7290     0.3780    -1.1270 O.2   1 <1>  -0.5700 
 18 C        5.7940     2.6420    -0.5910 C.3   1 <1>   0.0820 
 19 C        7.1210     3.2710    -0.2100 C.2   1 <1>   0.1080 
 20 N        7.2070     4.3370     0.5180 N.2   1 <1>  -0.7070 
 21 C        8.3790     2.7790    -0.6080 C.ar  1 <1>   0.0000 
 22 N        8.5340     4.5820     0.6190 N.pl3 1 <1>   0.3000 
 23 C        9.2810     3.6580    -0.0470 C.ar  1 <1>  -0.1520 
 24 C        8.8540     1.7020    -1.3720 C.ar  1 <1>  -0.1500 
 25 C       10.6600     3.5000    -0.2180 C.ar  1 <1>  -0.1500 
 26 C       10.2080     1.5400    -1.5450 C.ar  1 <1>  -0.1500 
 27 C       11.1140     2.4410    -0.9670 C.ar  1 <1>  -0.1500 
 28 H        4.2420    -2.1500     2.2780 H     1 <1>   0.0800 
 29 H        4.7940    -0.9610     3.3950 H     1 <1>   0.0800 
 30 H        3.4190     0.6490     4.0220 H     1 <1>   0.0800 
 31 H        2.1070     1.2440     3.0560 H     1 <1>   0.0800 
 32 H        2.4810    -0.3090    -1.8770 H     1 <1>   0.1500 
 33 H        5.5000    -1.2920     0.5290 H     1 <1>   0.0800 
 34 H        6.5450    -0.9870     1.8690 H     1 <1>   0.0800 
 35 H        3.9860     2.8460     3.2210 H     1 <1>   0.0800 
 36 H        3.5880     2.4410     1.5930 H     1 <1>   0.0800 
 37 H        5.9070     1.2270     3.1400 H     1 <1>   0.0800 
 38 H        6.0540     2.5810     2.0790 H     1 <1>   0.0800 
 39 H        2.8220    -2.0940    -3.9810 H     1 <1>   0.0800 
 40 H        2.2200    -3.6690    -3.5110 H     1 <1>   0.0800 
 41 H        3.9410    -3.3490    -3.4990 H     1 <1>   0.0800 
 42 H        4.9910     3.1770    -0.1250 H     1 <1>   0.0800 
 43 H        5.6680     2.7360    -1.6530 H     1 <1>   0.0800 
 44 H        8.9120     5.3840     1.1350 H     1 <1>   0.2700 
 45 H        8.1530     1.0150    -1.8130 H     1 <1>   0.1500 
 46 H       11.3460     4.1980     0.2290 H     1 <1>   0.1500 
 47 H       10.5870     0.7180    -2.1270 H     1 <1>   0.1500 
 48 H       12.1690     2.2900    -1.1190 H     1 <1>   0.1500 
@<TRIPOS>BOND
  1   1   2  2   
  2   2   3  am  
  3   2   4  1   
  4   3   5  1   
  5   3   6  1   
  6   4   7  2   
  7   4   8  1   
  8   5   9  1   
  9   5  28  1   
 10   5  29  1   
 11   6  10  1   
 12   6  30  1   
 13   6  31  1   
 14   7  11  1   
 15   8  12  2   
 16   8  32  1   
 17   9  13  1   
 18   9  33  1   
 19   9  34  1   
 20  10  14  1   
 21  10  35  1   
 22  10  36  1   
 23  11  12  1   
 24  12  15  1   
 25  13  14  1   
 26  13  16  am  
 27  14  37  1   
 28  14  38  1   
 29  15  39  1   
 30  15  40  1   
 31  15  41  1   
 32  16  17  2   
 33  16  18  1   
 34  18  19  1   
 35  18  42  1   
 36  18  43  1   
 37  19  20  2   
 38  19  21  1   
 39  20  22  1   
 40  21  23  ar  
 41  21  24  ar  
 42  22  23  1   
 43  22  44  1   
 44  23  25  ar  
 45  24  26  ar  
 46  24  45  1   
 47  25  27  ar  
 48  25  46  1   
 49  26  27  ar  
 50  26  47  1   
 51  27  48  1   
@<TRIPOS>SUBSTRUCTURE
  1 ****  16 GROUP 4 **** **** 0

# MOE 2024.06 (io_trps.svl 2023.06)
