@<TRIPOS>MOLECULE
NONAME
47 50 1 0 0 
SMALL
USER_CHARGES


@<TRIPOS>ATOM
  1 S       -0.3630     0.7610    -2.2760 S.3   1 <1>  -0.0800 
  2 C       -0.1940     1.9380    -0.9910 C.2   1 <1>  -0.1400 
  3 C        1.2340     1.1710    -2.8850 C.2   1 <1>  -0.1100 
  4 C        0.9880     2.5640    -1.0370 C.2   1 <1>  -0.1810 
  5 C       -1.2750     2.1910     0.0250 C.3   1 <1>   0.0200 
  6 C        1.8090     2.1280    -2.1310 C.2   1 <1>  -0.1500 
  7 C        1.3600     3.6250     0.0030 C.3   1 <1>   0.4610 
  8 C       -0.9740     3.5480     0.6790 C.3   1 <1>   0.1200 
  9 O        0.3860     3.6560     1.0310 O.3   1 <1>  -0.5600 
 10 C        1.4530     5.0180    -0.6370 C.3   1 <1>  -0.1600 
 11 C        2.6830     3.2620     0.6860 C.3   1 <1>  -0.1600 
 12 C        1.8990     6.0720     0.3780 C.3   1 <1>   0.1400 
 13 C        3.1240     4.3420     1.6760 C.3   1 <1>   0.1400 
 14 N        3.2000     5.6520     0.9690 N.am  1 <1>  -0.6600 
 15 C        4.3800     6.3510     0.8900 C.2   1 <1>   0.5690 
 16 O        5.4030     5.9200     1.3700 O.2   1 <1>  -0.5700 
 17 C        4.4250     7.7000     0.1780 C.3   1 <1>  -0.0990 
 18 C        5.8090     8.3790     0.1820 C.3   1 <1>  -0.1600 
 19 C        5.7900     9.7310    -0.5430 C.3   1 <1>   0.0210 
 20 C        7.1520    10.4050    -0.5440 C.2   1 <1>  -0.1810 
 21 C        7.4450    11.6330    -1.1320 C.2   1 <1>   0.1390 
 22 C        8.3250    10.0000    -0.0100 C.2   1 <1>  -0.3020 
 23 N        8.6890    11.9710    -0.9820 N.2   1 <1>  -0.7070 
 24 N        9.2330    10.9560    -0.2850 N.pl3 1 <1>   0.3000 
 25 H        1.5790     0.6430    -3.7570 H     1 <1>   0.1500 
 26 H       -1.2740     1.4110     0.7640 H     1 <1>   0.0800 
 27 H       -2.2390     2.2200    -0.4500 H     1 <1>   0.0800 
 28 H        2.7850     2.5470    -2.3010 H     1 <1>   0.1500 
 29 H       -1.5560     3.6650     1.5770 H     1 <1>   0.0800 
 30 H       -1.2170     4.3500     0.0050 H     1 <1>   0.0800 
 31 H        0.5090     5.2910    -1.0670 H     1 <1>   0.0800 
 32 H        2.1690     4.9890    -1.4380 H     1 <1>   0.0800 
 33 H        3.4560     3.1450    -0.0500 H     1 <1>   0.0800 
 34 H        2.5720     2.3220     1.1940 H     1 <1>   0.0800 
 35 H        1.1680     6.1540     1.1650 H     1 <1>   0.0800 
 36 H        1.9730     7.0280    -0.1060 H     1 <1>   0.0800 
 37 H        4.0780     4.0750     2.0980 H     1 <1>   0.0800 
 38 H        2.4150     4.4150     2.4820 H     1 <1>   0.0800 
 39 H        3.7190     8.3520     0.6580 H     1 <1>   0.0800 
 40 H        4.1170     7.5490    -0.8400 H     1 <1>   0.0800 
 41 H        6.5230     7.7300    -0.2950 H     1 <1>   0.0800 
 42 H        6.1260     8.5270     1.2010 H     1 <1>   0.0800 
 43 H        5.0830    10.3860    -0.0640 H     1 <1>   0.0800 
 44 H        5.4780     9.5870    -1.5630 H     1 <1>   0.0800 
 45 H        6.7280    12.2430    -1.6550 H     1 <1>   0.1500 
 46 H        8.5630     9.1070     0.5390 H     1 <1>   0.1500 
 47 H       10.2240    10.9470    -0.0150 H     1 <1>   0.2700 
@<TRIPOS>BOND
  1   1   2  1   
  2   1   3  1   
  3   2   4  2   
  4   2   5  1   
  5   3   6  2   
  6   3  25  1   
  7   4   6  1   
  8   4   7  1   
  9   5   8  1   
 10   5  26  1   
 11   5  27  1   
 12   6  28  1   
 13   7   9  1   
 14   7  10  1   
 15   7  11  1   
 16   8   9  1   
 17   8  29  1   
 18   8  30  1   
 19  10  12  1   
 20  10  31  1   
 21  10  32  1   
 22  11  13  1   
 23  11  33  1   
 24  11  34  1   
 25  12  14  1   
 26  12  35  1   
 27  12  36  1   
 28  13  14  1   
 29  13  37  1   
 30  13  38  1   
 31  14  15  am  
 32  15  16  2   
 33  15  17  1   
 34  17  18  1   
 35  17  39  1   
 36  17  40  1   
 37  18  19  1   
 38  18  41  1   
 39  18  42  1   
 40  19  20  1   
 41  19  43  1   
 42  19  44  1   
 43  20  21  1   
 44  20  22  2   
 45  21  23  2   
 46  21  45  1   
 47  22  24  1   
 48  22  46  1   
 49  23  24  1   
 50  24  47  1   
@<TRIPOS>SUBSTRUCTURE
  1 ****  14 GROUP 4 **** **** 0

# MOE 2024.06 (io_trps.svl 2023.06)
