@<TRIPOS>MOLECULE
NONAME
59 63 1 0 0 
SMALL
USER_CHARGES


@<TRIPOS>ATOM
  1 O       -1.5250     1.4710    -2.6360 O.2   1 <1>  -0.5700 
  2 C       -2.3830     1.5530    -1.7870 C.2   1 <1>   0.6300 
  3 N       -3.5050     0.7610    -1.8160 N.am  1 <1>  -0.6600 
  4 C       -2.1950     2.5840    -0.6750 C.3   1 <1>  -0.1000 
  5 C       -3.6660    -0.3250    -2.8210 C.3   1 <1>   0.1400 
  6 C       -4.6640     0.8810    -0.8910 C.3   1 <1>   0.1400 
  7 C       -0.8970     2.7760     0.0550 C.3   1 <1>  -0.1900 
  8 C       -2.0510     2.1480     0.7650 C.3   1 <1>  -0.2000 
  9 C       -3.8330    -1.6610    -2.0920 C.3   1 <1>  -0.1600 
 10 C       -4.8310    -0.4360    -0.1300 C.3   1 <1>  -0.1600 
 11 C       -0.4050     4.1270     0.5550 C.3   1 <1>  -0.0650 
 12 C        0.3510     1.9240    -0.1630 C.3   1 <1>  -0.0650 
 13 C       -4.9950    -1.6290    -1.0880 C.3   1 <1>   0.4240 
 14 C        0.8050     3.7660     1.4130 C.3   1 <1>  -0.1600 
 15 C        1.4080     2.5010     0.7870 C.3   1 <1>  -0.1600 
 16 O       -6.1490    -1.4080    -1.8660 O.3   1 <1>  -0.5600 
 17 C       -5.0760    -2.9610    -0.3110 C.ar  1 <1>  -0.1440 
 18 C       -7.3770    -1.7770    -1.3190 C.3   1 <1>   0.1200 
 19 C       -6.2180    -3.7500    -0.3450 C.ar  1 <1>  -0.1440 
 20 C       -4.0000    -3.3970     0.4510 C.ar  1 <1>  -0.1500 
 21 C       -7.4110    -3.2940    -1.1610 C.3   1 <1>  -0.0170 
 22 C       -6.2750    -4.9410     0.3600 C.ar  1 <1>  -0.1500 
 23 C       -4.0350    -4.5870     1.1580 C.ar  1 <1>   0.0820 
 24 C       -5.1960    -5.3750     1.1260 C.ar  1 <1>   0.0820 
 25 O       -2.8920    -4.8750     1.8440 O.3   1 <1>  -0.3630 
 26 O       -5.2600    -6.5310     1.8510 O.3   1 <1>  -0.3620 
 27 C       -2.4850    -6.2060     2.0690 C.3   1 <1>   0.0400 
 28 C       -6.4530    -7.2730     1.9820 C.3   1 <1>   0.0400 
 29 H       -2.7590     3.4750    -0.8820 H     1 <1>   0.1000 
 30 H       -2.8100    -0.3750    -3.4720 H     1 <1>   0.0800 
 31 H       -4.5330    -0.1220    -3.4260 H     1 <1>   0.0800 
 32 H       -5.5500     1.0840    -1.4680 H     1 <1>   0.0800 
 33 H       -4.5310     1.6900    -0.1970 H     1 <1>   0.0800 
 34 H       -2.0180     1.0940     0.9810 H     1 <1>   0.1000 
 35 H       -2.5740     2.7050     1.5220 H     1 <1>   0.1000 
 36 H       -2.9110    -1.8800    -1.5880 H     1 <1>   0.0800 
 37 H       -4.0050    -2.4470    -2.8050 H     1 <1>   0.0800 
 38 H       -5.6720    -0.3760     0.5330 H     1 <1>   0.0800 
 39 H       -3.9600    -0.5830     0.4810 H     1 <1>   0.0800 
 40 H       -1.1510     4.6680     1.1100 H     1 <1>   0.0800 
 41 H       -0.0890     4.7190    -0.2870 H     1 <1>   0.0800 
 42 H        0.6840     2.0450    -1.1800 H     1 <1>   0.0800 
 43 H        0.1710     0.8790     0.0170 H     1 <1>   0.0800 
 44 H        0.4690     3.5400     2.4100 H     1 <1>   0.0800 
 45 H        1.5160     4.5730     1.4570 H     1 <1>   0.0800 
 46 H        2.2970     2.7460     0.2320 H     1 <1>   0.0800 
 47 H        1.6610     1.7890     1.5530 H     1 <1>   0.0800 
 48 H       -8.1490    -1.4510    -1.9940 H     1 <1>   0.0800 
 49 H       -7.5070    -1.2850    -0.3710 H     1 <1>   0.0800 
 50 H       -3.0990    -2.8140     0.5080 H     1 <1>   0.1500 
 51 H       -7.3850    -3.7550    -2.1320 H     1 <1>   0.0800 
 52 H       -8.3270    -3.5770    -0.6750 H     1 <1>   0.0800 
 53 H       -7.1760    -5.5190     0.3010 H     1 <1>   0.1500 
 54 H       -1.4350    -6.2020     2.2950 H     1 <1>   0.0800 
 55 H       -2.6700    -6.7860     1.1810 H     1 <1>   0.0800 
 56 H       -3.0350    -6.6000     2.9040 H     1 <1>   0.0800 
 57 H       -6.2630    -8.0940     2.6500 H     1 <1>   0.0800 
 58 H       -6.7380    -7.6490     1.0160 H     1 <1>   0.0800 
 59 H       -7.2160    -6.6370     2.3930 H     1 <1>   0.0800 
@<TRIPOS>BOND
  1   1   2  2   
  2   2   3  am  
  3   2   4  1   
  4   3   5  1   
  5   3   6  1   
  6   4   7  1   
  7   4   8  1   
  8   4  29  1   
  9   5   9  1   
 10   5  30  1   
 11   5  31  1   
 12   6  10  1   
 13   6  32  1   
 14   6  33  1   
 15   7   8  1   
 16   7  11  1   
 17   7  12  1   
 18   8  34  1   
 19   8  35  1   
 20   9  13  1   
 21   9  36  1   
 22   9  37  1   
 23  10  13  1   
 24  10  38  1   
 25  10  39  1   
 26  11  14  1   
 27  11  40  1   
 28  11  41  1   
 29  12  15  1   
 30  12  42  1   
 31  12  43  1   
 32  13  16  1   
 33  13  17  1   
 34  14  15  1   
 35  14  44  1   
 36  14  45  1   
 37  15  46  1   
 38  15  47  1   
 39  16  18  1   
 40  17  19  ar  
 41  17  20  ar  
 42  18  21  1   
 43  18  48  1   
 44  18  49  1   
 45  19  21  1   
 46  19  22  ar  
 47  20  23  ar  
 48  20  50  1   
 49  21  51  1   
 50  21  52  1   
 51  22  24  ar  
 52  22  53  1   
 53  23  24  ar  
 54  23  25  1   
 55  24  26  1   
 56  25  27  1   
 57  26  28  1   
 58  27  54  1   
 59  27  55  1   
 60  27  56  1   
 61  28  57  1   
 62  28  58  1   
 63  28  59  1   
@<TRIPOS>SUBSTRUCTURE
  1 ****  10 GROUP 4 **** **** 0

# MOE 2024.06 (io_trps.svl 2023.06)
