@<TRIPOS>MOLECULE
NONAME
51 54 1 0 0 
SMALL
USER_CHARGES


@<TRIPOS>ATOM
  1 S        0.8370     0.7580    -1.8290 S.3   1 <1>   0.1810 
  2 N        0.2360     2.0320    -0.8920 N.2   1 <1>  -0.2210 
  3 C        1.9340     0.2290    -0.5990 C.2   1 <1>  -0.0450 
  4 N        0.8160     2.0730     0.2240 N.2   1 <1>  -0.2270 
  5 C        1.7670     1.0990     0.4130 C.2   1 <1>   0.0460 
  6 C        2.7840    -0.9030    -0.8410 C.2   1 <1>   0.7150 
  7 C        2.5180     1.1120     1.7310 C.3   1 <1>  -0.0590 
  8 O        3.9510    -0.8440    -0.5040 O.2   1 <1>  -0.5700 
  9 N        2.3180    -2.0650    -1.4230 N.am  1 <1>  -0.6600 
 10 C        0.9050    -2.5310    -1.3260 C.3   1 <1>   0.1400 
 11 C        3.2490    -3.0480    -2.0450 C.3   1 <1>   0.1400 
 12 C        0.8270    -3.8530    -0.5410 C.3   1 <1>  -0.0800 
 13 C        3.2020    -4.3650    -1.2670 C.3   1 <1>  -0.1600 
 14 C        1.7700    -4.9070    -1.1570 C.3   1 <1>  -0.1600 
 15 C       -0.6320    -4.3340    -0.5030 C.3   1 <1>   0.1400 
 16 N       -0.7690    -5.5820     0.2980 N.am  1 <1>  -0.7300 
 17 C       -1.0910    -6.8090    -0.2250 C.2   1 <1>   0.7030 
 18 O       -1.2320    -6.9120    -1.4280 O.2   1 <1>  -0.5700 
 19 C       -1.2670    -7.9960     0.5980 C.2   1 <1>   0.2770 
 20 N       -1.5460    -9.2550     0.0930 N.pl3 1 <1>  -0.7000 
 21 C       -1.2120    -8.1500     1.9440 C.2   1 <1>   0.2000 
 22 C       -1.6540   -10.1310     1.0990 C.cat 1 <1>   0.7910 
 23 N       -1.4490    -9.4690     2.2630 N.pl3 1 <1>  -0.6290 
 24 C       -1.9290   -11.5170     1.0850 C.2   1 <1>  -0.1290 
 25 C       -1.5060   -10.1410     3.4650 C.2   1 <1>   0.2290 
 26 C       -1.9860   -12.1860     2.2800 C.2   1 <1>  -0.1500 
 27 C       -2.1580   -12.2470    -0.2330 C.3   1 <1>  -0.1020 
 28 C       -1.7700   -11.4790     3.4810 C.2   1 <1>  -0.1500 
 29 H        3.2240     0.3030     1.7810 H     1 <1>   0.0800 
 30 H        1.8240     1.0210     2.5470 H     1 <1>   0.0800 
 31 H        3.0510     2.0400     1.8320 H     1 <1>   0.0800 
 32 H        0.5180    -2.6700    -2.3220 H     1 <1>   0.0800 
 33 H        0.2980    -1.7950    -0.8280 H     1 <1>   0.0800 
 34 H        4.2570    -2.6670    -2.0550 H     1 <1>   0.0800 
 35 H        2.9500    -3.2160    -3.0650 H     1 <1>   0.0800 
 36 H        1.1410    -3.6460     0.4680 H     1 <1>   0.0800 
 37 H        3.6110    -4.1990    -0.2850 H     1 <1>   0.0800 
 38 H        3.8260    -5.0880    -1.7620 H     1 <1>   0.0800 
 39 H        1.4170    -5.1790    -2.1380 H     1 <1>   0.0800 
 40 H        1.7830    -5.7980    -0.5540 H     1 <1>   0.0800 
 41 H       -0.9810    -4.5000    -1.5100 H     1 <1>   0.0800 
 42 H       -1.2550    -3.5710    -0.0660 H     1 <1>   0.0800 
 43 H       -0.5600    -5.4620     1.2900 H     1 <1>   0.3700 
 44 H       -1.6540    -9.4490    -0.9070 H     1 <1>   0.4500 
 45 H       -1.0200    -7.4020     2.6960 H     1 <1>   0.1500 
 46 H       -1.3380    -9.5820     4.3730 H     1 <1>   0.1500 
 47 H       -2.1920   -13.2430     2.3320 H     1 <1>   0.1500 
 48 H       -3.0030   -11.8290    -0.7530 H     1 <1>   0.0800 
 49 H       -2.3550   -13.2920    -0.0630 H     1 <1>   0.0800 
 50 H       -1.2880   -12.1700    -0.8610 H     1 <1>   0.0800 
 51 H       -1.8180   -12.0200     4.4120 H     1 <1>   0.1500 
@<TRIPOS>BOND
  1   1   2  1   
  2   1   3  1   
  3   2   4  2   
  4   3   5  2   
  5   3   6  1   
  6   4   5  1   
  7   5   7  1   
  8   6   8  2   
  9   6   9  am  
 10   7  29  1   
 11   7  30  1   
 12   7  31  1   
 13   9  10  1   
 14   9  11  1   
 15  10  12  1   
 16  10  32  1   
 17  10  33  1   
 18  11  13  1   
 19  11  34  1   
 20  11  35  1   
 21  12  14  1   
 22  12  15  1   
 23  12  36  1   
 24  13  14  1   
 25  13  37  1   
 26  13  38  1   
 27  14  39  1   
 28  14  40  1   
 29  15  16  1   
 30  15  41  1   
 31  15  42  1   
 32  16  17  am  
 33  16  43  1   
 34  17  18  2   
 35  17  19  1   
 36  19  20  1   
 37  19  21  2   
 38  20  22  ar  
 39  20  44  1   
 40  21  23  1   
 41  21  45  1   
 42  22  23  ar  
 43  22  24  1   
 44  23  25  1   
 45  24  26  2   
 46  24  27  1   
 47  25  28  2   
 48  25  46  1   
 49  26  28  1   
 50  26  47  1   
 51  27  48  1   
 52  27  49  1   
 53  27  50  1   
 54  28  51  1   
@<TRIPOS>SUBSTRUCTURE
  1 ****  16 GROUP 4 **** **** 0

# MOE 2024.06 (io_trps.svl 2023.06)
