@<TRIPOS>MOLECULE
NONAME
52 55 1 0 0 
SMALL
USER_CHARGES


@<TRIPOS>ATOM
  1 O        0.2600     0.2850    -0.4870 O.3   1 <1>  -0.5600 
  2 C        1.4810    -0.3910    -0.5920 C.3   1 <1>   0.3440 
  3 C        0.2810     1.6340    -0.8610 C.3   1 <1>   0.2950 
  4 C        1.3020    -1.8400    -0.1680 C.ar  1 <1>  -0.1440 
  5 C        2.5250     0.2810     0.3290 C.3   1 <1>   0.3430 
  6 C       -1.1330     2.2200    -0.7250 C.3   1 <1>  -0.1950 
  7 C        1.2690     2.4070     0.0440 C.3   1 <1>   0.3430 
  8 C        2.0450    -2.8350    -0.7900 C.ar  1 <1>  -0.1500 
  9 C        0.4220    -2.1910     0.8480 C.ar  1 <1>  -0.1500 
 10 N        2.6450     1.7720     0.1100 N.4   1 <1>  -0.9590 
 11 C       -2.0490     1.8580     0.4050 C.3   1 <1>  -0.2000 
 12 C       -2.3650     1.4130    -0.9960 C.3   1 <1>  -0.2000 
 13 C        1.9180    -4.1550    -0.3950 C.ar  1 <1>  -0.1500 
 14 C        0.2960    -3.5110     1.2430 C.ar  1 <1>  -0.1500 
 15 C        3.5060     2.4060     1.1520 C.3   1 <1>   0.4860 
 16 C        1.0450    -4.4940     0.6230 C.ar  1 <1>  -0.1500 
 17 C        3.7040     3.8610     0.8040 C.ar  1 <1>  -0.1430 
 18 C        3.0070     4.8560     1.4490 C.ar  1 <1>   0.1600 
 19 C        4.5790     4.2550    -0.1800 C.ar  1 <1>   0.1600 
 20 N        3.1330     6.1140     1.1230 N.ar  1 <1>  -0.6200 
 21 N        4.7220     5.5070    -0.5210 N.ar  1 <1>  -0.6200 
 22 C        3.9920     6.4000     0.1450 C.ar  1 <1>   0.7200 
 23 N        4.1320     7.7240    -0.2100 N.pl3 1 <1>  -0.8380 
 24 C        5.2680     8.2100    -1.0440 C.3   1 <1>   0.1290 
 25 C        3.2210     8.7890     0.3000 C.3   1 <1>   0.1290 
 26 H        1.7980    -0.3550    -1.6200 H     1 <1>   0.0800 
 27 H        0.5840     1.6940    -1.8930 H     1 <1>   0.0800 
 28 H        3.4790    -0.1960     0.1750 H     1 <1>   0.0800 
 29 H        2.2270     0.0850     1.3450 H     1 <1>   0.0800 
 30 H       -1.1690     3.2420    -1.0630 H     1 <1>   0.1000 
 31 H        0.8390     2.4440     1.0310 H     1 <1>   0.0800 
 32 H        1.3470     3.4210    -0.3140 H     1 <1>   0.0800 
 33 H        2.7270    -2.6010    -1.5890 H     1 <1>   0.1500 
 34 H       -0.1790    -1.4420     1.3370 H     1 <1>   0.1500 
 35 H        3.0930     1.9320    -0.8020 H     1 <1>   0.4500 
 36 H       -1.7720     1.0930     1.1100 H     1 <1>   0.1000 
 37 H       -2.6700     2.6180     0.8470 H     1 <1>   0.1000 
 38 H       -3.1930     1.8750    -1.5070 H     1 <1>   0.1000 
 39 H       -2.2780     0.3640    -1.2270 H     1 <1>   0.1000 
 40 H        2.4950    -4.9240    -0.8810 H     1 <1>   0.1500 
 41 H       -0.3900    -3.7760     2.0290 H     1 <1>   0.1500 
 42 H        3.0430     2.3200     2.1210 H     1 <1>   0.0800 
 43 H        4.4660     1.9150     1.1900 H     1 <1>   0.0800 
 44 H        0.9450    -5.5210     0.9290 H     1 <1>   0.1500 
 45 H        2.3220     4.6270     2.2490 H     1 <1>   0.1500 
 46 H        5.1800     3.5360    -0.7120 H     1 <1>   0.1500 
 47 H        5.5760     9.1880    -0.7180 H     1 <1>   0.0800 
 48 H        4.9630     8.2610    -2.0750 H     1 <1>   0.0800 
 49 H        6.1140     7.5490    -0.9630 H     1 <1>   0.0800 
 50 H        3.1250     9.5740    -0.4290 H     1 <1>   0.0800 
 51 H        3.6210     9.1980     1.2120 H     1 <1>   0.0800 
 52 H        2.2410     8.3890     0.4970 H     1 <1>   0.0800 
@<TRIPOS>BOND
  1   1   2  1   
  2   1   3  1   
  3   2   4  1   
  4   2   5  1   
  5   2  26  1   
  6   3   6  1   
  7   3   7  1   
  8   3  27  1   
  9   4   8  ar  
 10   4   9  ar  
 11   5  10  1   
 12   5  28  1   
 13   5  29  1   
 14   6  11  1   
 15   6  12  1   
 16   6  30  1   
 17   7  10  1   
 18   7  31  1   
 19   7  32  1   
 20   8  13  ar  
 21   8  33  1   
 22   9  14  ar  
 23   9  34  1   
 24  10  15  1   
 25  10  35  1   
 26  11  12  1   
 27  11  36  1   
 28  11  37  1   
 29  12  38  1   
 30  12  39  1   
 31  13  16  ar  
 32  13  40  1   
 33  14  16  ar  
 34  14  41  1   
 35  15  17  1   
 36  15  42  1   
 37  15  43  1   
 38  16  44  1   
 39  17  18  ar  
 40  17  19  ar  
 41  18  20  ar  
 42  18  45  1   
 43  19  21  ar  
 44  19  46  1   
 45  20  22  ar  
 46  21  22  ar  
 47  22  23  1   
 48  23  24  1   
 49  23  25  1   
 50  24  47  1   
 51  24  48  1   
 52  24  49  1   
 53  25  50  1   
 54  25  51  1   
 55  25  52  1   
@<TRIPOS>SUBSTRUCTURE
  1 ****  10 GROUP 4 **** **** 0

# MOE 2024.06 (io_trps.svl 2023.06)
