@<TRIPOS>MOLECULE
NONAME
34 35 1 0 0 
SMALL
USER_CHARGES


@<TRIPOS>ATOM
  1 N        0.0030     0.0650    -0.0760 N.ar  1 <1>  -0.6200 
  2 C        1.0410     0.7970    -0.4010 C.ar  1 <1>   0.7710 
  3 C       -1.1670     0.6660     0.0140 C.ar  1 <1>   0.4100 
  4 N        0.9670     2.1170    -0.6360 N.ar  1 <1>  -0.1790 
  5 N        2.2050     0.1600    -0.4900 N.pl3 1 <1>  -0.9000 
  6 N       -2.2250    -0.1010     0.3480 N.pl3 1 <1>  -0.8690 
  7 C       -1.3280     2.0550    -0.2210 C.ar  1 <1>  -0.1430 
  8 C       -0.2180     2.7690    -0.5500 C.ar  1 <1>   0.2110 
  9 C       -2.2280    -1.5670     0.5540 C.3   1 <1>   0.2090 
 10 C       -2.7240     2.6780    -0.0970 C.3   1 <1>  -0.0170 
 11 C       -3.6180    -2.0990     0.2270 C.3   1 <1>  -0.1600 
 12 C       -2.7920     4.1850    -0.3740 C.3   1 <1>  -0.2400 
 13 C       -3.6910    -3.6210     0.4090 C.3   1 <1>   0.0080 
 14 C       -5.0850    -4.1280     0.1260 C.2   1 <1>   0.5690 
 15 N       -5.4500    -4.5920    -1.0130 N.2   1 <1>  -0.6190 
 16 N       -6.0260    -4.1230     1.0030 N.2   1 <1>  -0.6190 
 17 N       -6.6900    -4.9050    -0.8590 N.2   1 <1>  -0.2500 
 18 N       -7.0400    -4.6200     0.3650 N.2   1 <1>  -0.2500 
 19 H        1.8310     2.5920    -0.8780 H     1 <1>   0.4570 
 20 H        3.1280     0.5300    -0.7230 H     1 <1>   0.4000 
 21 H        2.2000    -0.8470    -0.3000 H     1 <1>   0.4000 
 22 H       -3.1550     0.3130     0.4550 H     1 <1>   0.4000 
 23 H       -0.2290     3.8280    -0.7480 H     1 <1>   0.1500 
 24 H       -1.9800    -1.7830     1.5800 H     1 <1>   0.0800 
 25 H       -1.4980    -2.0340    -0.0860 H     1 <1>   0.0800 
 26 H       -3.0960     2.5010     0.8990 H     1 <1>   0.0800 
 27 H       -3.3890     2.1780    -0.7830 H     1 <1>   0.0800 
 28 H       -3.8700    -1.8650    -0.7930 H     1 <1>   0.0800 
 29 H       -4.3470    -1.6430     0.8750 H     1 <1>   0.0800 
 30 H       -2.1840     4.7330     0.3240 H     1 <1>   0.0800 
 31 H       -3.8080     4.5240    -0.2630 H     1 <1>   0.0800 
 32 H       -2.4800     4.4070    -1.3790 H     1 <1>   0.0800 
 33 H       -3.4410    -3.8920     1.4180 H     1 <1>   0.0800 
 34 H       -3.0120    -4.1150    -0.2600 H     1 <1>   0.0800 
@<TRIPOS>BOND
  1   1   2  ar  
  2   1   3  ar  
  3   2   4  ar  
  4   2   5  1   
  5   3   6  1   
  6   3   7  ar  
  7   4   8  ar  
  8   4  19  1   
  9   5  20  1   
 10   5  21  1   
 11   6   9  1   
 12   6  22  1   
 13   7   8  ar  
 14   7  10  1   
 15   8  23  1   
 16   9  11  1   
 17   9  24  1   
 18   9  25  1   
 19  10  12  1   
 20  10  26  1   
 21  10  27  1   
 22  11  13  1   
 23  11  28  1   
 24  11  29  1   
 25  12  30  1   
 26  12  31  1   
 27  12  32  1   
 28  13  14  1   
 29  13  33  1   
 30  13  34  1   
 31  14  15  1   
 32  14  16  2   
 33  15  17  1   
 34  16  18  1   
 35  17  18  2   
@<TRIPOS>SUBSTRUCTURE
  1 ****   6 GROUP 4 **** **** 0

# MOE 2024.06 (io_trps.svl 2023.06)
