@<TRIPOS>MOLECULE
NONAME
58 61 1 0 0 
SMALL
USER_CHARGES


@<TRIPOS>ATOM
  1 O        2.6180    -2.8450    -2.7530 O.3   1 <1>  -0.5600 
  2 C        3.3080    -3.0410    -1.5590 C.3   1 <1>   0.2580 
  3 C        1.7240    -3.8520    -3.0930 C.3   1 <1>   0.1200 
  4 C        2.3490    -3.4560    -0.4470 C.2   1 <1>  -0.2880 
  5 C        0.5670    -3.8560    -2.0840 C.3   1 <1>  -0.0220 
  6 C        1.0740    -3.8370    -0.6330 C.2   1 <1>  -0.2760 
  7 C        0.0610    -4.2160     0.4970 C.3   1 <1>   0.1380 
  8 C       -0.2850    -5.7340     0.5780 C.3   1 <1>   0.4230 
  9 C       -1.2600    -3.4150     0.3350 C.3   1 <1>   0.1200 
 10 C        0.6380    -3.9030     1.9080 C.3   1 <1>  -0.1600 
 11 N        0.9280    -6.6260     0.6240 N.4   1 <1>  -0.9590 
 12 C       -1.3980    -6.2170    -0.3630 C.3   1 <1>  -0.1600 
 13 O       -2.3600    -4.2380     0.6080 O.3   1 <1>  -0.5600 
 14 C        1.5240    -5.0320     2.4960 C.3   1 <1>  -0.1600 
 15 C        2.0360    -6.0390     1.4540 C.3   1 <1>   0.3430 
 16 C        1.4680    -6.9930    -0.7120 C.3   1 <1>   0.5240 
 17 C       -2.5800    -5.2330    -0.3450 C.3   1 <1>   0.1200 
 18 C        2.5690    -8.0100    -0.5220 C.2   1 <1>  -0.1810 
 19 C        2.4250    -9.3620    -0.2270 C.2   1 <1>   0.1080 
 20 C        3.9050    -7.8150    -0.5900 C.2   1 <1>  -0.3020 
 21 N        3.5680    -9.9500    -0.1070 N.2   1 <1>  -0.7070 
 22 C        1.1350   -10.1360    -0.0540 C.3   1 <1>  -0.0590 
 23 N        4.4950    -9.0030    -0.3440 N.pl3 1 <1>   0.3140 
 24 C        5.9460    -9.3080    -0.3070 C.3   1 <1>   0.2340 
 25 C        6.7340    -8.4420    -1.2850 C.2   1 <1>  -0.2880 
 26 C        7.6980    -7.5770    -0.9530 C.2   1 <1>  -0.3000 
 27 H        4.0660    -3.7880    -1.7200 H     1 <1>   0.0800 
 28 H        3.7850    -2.1070    -1.3140 H     1 <1>   0.0800 
 29 H        1.3600    -3.6470    -4.0850 H     1 <1>   0.0800 
 30 H        2.2510    -4.7900    -3.0990 H     1 <1>   0.0800 
 31 H        2.8380    -3.3840     0.5070 H     1 <1>   0.1500 
 32 H       -0.0240    -2.9780    -2.2760 H     1 <1>   0.0800 
 33 H       -0.0410    -4.7090    -2.2920 H     1 <1>   0.0800 
 34 H       -0.7430    -5.8210     1.5510 H     1 <1>   0.0800 
 35 H       -1.3930    -3.0130    -0.6510 H     1 <1>   0.0800 
 36 H       -1.2950    -2.5850     1.0190 H     1 <1>   0.0800 
 37 H        1.1680    -2.9670     1.8940 H     1 <1>   0.0800 
 38 H       -0.1770    -3.7620     2.5990 H     1 <1>   0.0800 
 39 H        0.6570    -7.5050     1.0760 H     1 <1>   0.4500 
 40 H       -1.7560    -7.1710    -0.0190 H     1 <1>   0.0800 
 41 H       -1.0750    -6.3410    -1.3760 H     1 <1>   0.0800 
 42 H        0.9670    -5.5740     3.2420 H     1 <1>   0.0800 
 43 H        2.3680    -4.5940     3.0010 H     1 <1>   0.0800 
 44 H        2.5820    -6.8300     1.9430 H     1 <1>   0.0800 
 45 H        2.7280    -5.5290     0.8050 H     1 <1>   0.0800 
 46 H        0.7000    -7.4210    -1.3320 H     1 <1>   0.0800 
 47 H        1.8660    -6.1210    -1.2030 H     1 <1>   0.0800 
 48 H       -3.4940    -5.7390    -0.0790 H     1 <1>   0.0800 
 49 H       -2.7190    -4.7620    -1.3050 H     1 <1>   0.0800 
 50 H        4.4730    -6.9260    -0.8000 H     1 <1>   0.1500 
 51 H        0.2980    -9.6080    -0.4700 H     1 <1>   0.0800 
 52 H        0.9630   -10.3230     0.9900 H     1 <1>   0.0800 
 53 H        1.2240   -11.0840    -0.5550 H     1 <1>   0.0800 
 54 H        6.2950    -9.1530     0.6970 H     1 <1>   0.0800 
 55 H        6.0770   -10.3460    -0.5540 H     1 <1>   0.0800 
 56 H        6.4290    -8.6040    -2.3070 H     1 <1>   0.1500 
 57 H        8.2390    -6.9810    -1.6690 H     1 <1>   0.1500 
 58 H        8.0340    -7.3900     0.0530 H     1 <1>   0.1500 
@<TRIPOS>BOND
  1   1   2  1   
  2   1   3  1   
  3   2   4  1   
  4   2  27  1   
  5   2  28  1   
  6   3   5  1   
  7   3  29  1   
  8   3  30  1   
  9   4   6  2   
 10   4  31  1   
 11   5   6  1   
 12   5  32  1   
 13   5  33  1   
 14   6   7  1   
 15   7   8  1   
 16   7   9  1   
 17   7  10  1   
 18   8  11  1   
 19   8  12  1   
 20   8  34  1   
 21   9  13  1   
 22   9  35  1   
 23   9  36  1   
 24  10  14  1   
 25  10  37  1   
 26  10  38  1   
 27  11  15  1   
 28  11  16  1   
 29  11  39  1   
 30  12  17  1   
 31  12  40  1   
 32  12  41  1   
 33  13  17  1   
 34  14  15  1   
 35  14  42  1   
 36  14  43  1   
 37  15  44  1   
 38  15  45  1   
 39  16  18  1   
 40  16  46  1   
 41  16  47  1   
 42  17  48  1   
 43  17  49  1   
 44  18  19  1   
 45  18  20  2   
 46  19  21  2   
 47  19  22  1   
 48  20  23  1   
 49  20  50  1   
 50  21  23  1   
 51  22  51  1   
 52  22  52  1   
 53  22  53  1   
 54  23  24  1   
 55  24  25  1   
 56  24  54  1   
 57  24  55  1   
 58  25  26  2   
 59  25  56  1   
 60  26  57  1   
 61  26  58  1   
@<TRIPOS>SUBSTRUCTURE
  1 ****  16 GROUP 4 **** **** 0

# MOE 2024.06 (io_trps.svl 2023.06)
