@<TRIPOS>MOLECULE
NONAME
37 39 1 0 0 
SMALL
USER_CHARGES


@<TRIPOS>ATOM
  1 O        0.8190    -0.1200     1.5830 O.co2 1 <1>  -0.9000 
  2 C        1.5380    -0.2890     0.5960 C.2   1 <1>   0.9060 
  3 O        1.2400    -1.0650    -0.3230 O.co2 1 <1>  -0.9000 
  4 C        2.8500     0.4630     0.5070 C.3   1 <1>  -0.1860 
  5 C        4.0150    -0.5100     0.2810 C.3   1 <1>   0.2000 
  6 C        2.8230     1.5920    -0.5590 C.3   1 <1>  -0.1600 
  7 O        3.8050    -1.1570    -0.9290 O.3   1 <1>  -0.6800 
  8 C        5.3760     0.2280     0.2650 C.3   1 <1>   0.2090 
  9 C        4.1980     1.8960    -1.1750 C.3   1 <1>   0.2090 
 10 N        5.2740     1.6630    -0.1780 N.pl3 1 <1>  -0.8380 
 11 C        6.3910     2.4810    -0.1630 C.ar  1 <1>   0.4100 
 12 N        7.5430     1.9440    -0.5180 N.ar  1 <1>  -0.3100 
 13 C        6.2700     3.8450     0.2110 C.ar  1 <1>   0.0000 
 14 N        8.6360     2.6930    -0.6030 N.ar  1 <1>  -0.3100 
 15 C        7.4210     4.6360     0.0900 C.ar  1 <1>   0.0000 
 16 C        5.0910     4.4430     0.7080 C.ar  1 <1>  -0.1500 
 17 C        8.5870     3.9660    -0.3300 C.ar  1 <1>   0.1670 
 18 C        7.3340     6.0130     0.4060 C.ar  1 <1>  -0.1500 
 19 C        5.0350     5.7730     1.0190 C.ar  1 <1>  -0.1500 
 20 C        9.8910     4.7320    -0.4780 C.3   1 <1>  -0.0970 
 21 C        6.1700     6.5710     0.8580 C.ar  1 <1>  -0.1500 
 22 H        3.0090     0.9230     1.4640 H     1 <1>   0.0800 
 23 H        4.0190    -1.2690     1.0440 H     1 <1>   0.0800 
 24 H        2.4150     2.4810    -0.1150 H     1 <1>   0.0800 
 25 H        2.1620     1.3080    -1.3600 H     1 <1>   0.0800 
 26 H        2.8170    -1.3260    -0.9690 H     1 <1>   0.4000 
 27 H        6.0650    -0.3060    -0.3660 H     1 <1>   0.0800 
 28 H        5.7720     0.2260     1.2650 H     1 <1>   0.0800 
 29 H        4.2300     2.9070    -1.5430 H     1 <1>   0.0800 
 30 H        4.3640     1.2340    -2.0100 H     1 <1>   0.0800 
 31 H        4.2240     3.8220     0.8470 H     1 <1>   0.1500 
 32 H        8.2030     6.6350     0.2940 H     1 <1>   0.1500 
 33 H        4.1260     6.2150     1.3910 H     1 <1>   0.1500 
 34 H        9.7790     5.5070    -1.2130 H     1 <1>   0.0800 
 35 H       10.6800     4.0730    -0.7960 H     1 <1>   0.0800 
 36 H       10.1710     5.1660     0.4640 H     1 <1>   0.0800 
 37 H        6.1130     7.6180     1.0980 H     1 <1>   0.1500 
@<TRIPOS>BOND
  1   1   2  ar  
  2   2   3  ar  
  3   2   4  1   
  4   4   5  1   
  5   4   6  1   
  6   4  22  1   
  7   5   7  1   
  8   5   8  1   
  9   5  23  1   
 10   6   9  1   
 11   6  24  1   
 12   6  25  1   
 13   7  26  1   
 14   8  10  1   
 15   8  27  1   
 16   8  28  1   
 17   9  10  1   
 18   9  29  1   
 19   9  30  1   
 20  10  11  1   
 21  11  12  ar  
 22  11  13  ar  
 23  12  14  ar  
 24  13  15  ar  
 25  13  16  ar  
 26  14  17  ar  
 27  15  17  ar  
 28  15  18  ar  
 29  16  19  ar  
 30  16  31  1   
 31  17  20  1   
 32  18  21  ar  
 33  18  32  1   
 34  19  21  ar  
 35  19  33  1   
 36  20  34  1   
 37  20  35  1   
 38  20  36  1   
 39  21  37  1   
@<TRIPOS>SUBSTRUCTURE
  1 ****  10 GROUP 4 **** **** 0

# MOE 2024.06 (io_trps.svl 2023.06)
