@<TRIPOS>MOLECULE
NONAME
56 60 1 0 0 
SMALL
USER_CHARGES


@<TRIPOS>ATOM
  1 O        2.5080    -0.2350     2.2400 O.3   1 <1>  -0.5600 
  2 C        2.4110    -1.5960     1.9070 C.3   1 <1>   0.1200 
  3 C        2.6100     0.6040     1.1300 C.3   1 <1>   0.1200 
  4 C        3.6300    -2.0560     1.0780 C.3   1 <1>   0.3340 
  5 C        3.8710     0.2480     0.3190 C.3   1 <1>   0.1900 
  6 N        3.8340    -1.1750    -0.1030 N.3   1 <1>  -0.8100 
  7 C        3.4430    -3.5040     0.6340 C.ar  1 <1>  -0.1440 
  8 C        4.0010     1.1690    -0.9110 C.3   1 <1>   0.3430 
  9 C        5.0490    -1.5380    -0.8650 C.3   1 <1>   0.1100 
 10 C        4.2270    -4.5070     1.1870 C.ar  1 <1>  -0.1500 
 11 C        2.4970    -3.8390    -0.3250 C.ar  1 <1>  -0.1500 
 12 N        5.2000     0.8100    -1.7440 N.4   1 <1>  -0.9590 
 13 C        5.2190    -0.6430    -2.1090 C.3   1 <1>   0.3430 
 14 C        4.0700    -5.8220     0.7850 C.ar  1 <1>  -0.1500 
 15 C        2.3380    -5.1540    -0.7270 C.ar  1 <1>  -0.1500 
 16 C        5.3860     1.7210    -2.8910 C.3   1 <1>   0.5240 
 17 C        3.1250    -6.1460    -0.1720 C.ar  1 <1>  -0.1500 
 18 C        5.8910     3.0390    -2.3500 C.2   1 <1>  -0.1810 
 19 C        6.6350     3.2630    -1.2320 C.2   1 <1>  -0.0260 
 20 C        5.6980     4.2900    -2.9130 C.2   1 <1>   0.1390 
 21 N        7.1120     2.3790    -0.2830 N.2   1 <1>  -0.5760 
 22 N        6.8540     4.6240    -1.1860 N.pl3 1 <1>   0.6010 
 23 N        6.2580     5.2440    -2.2270 N.2   1 <1>  -0.7070 
 24 C        7.8110     2.8950     0.6780 C.2   1 <1>   0.3750 
 25 C        7.6030     5.1590    -0.1470 C.2   1 <1>  -0.1690 
 26 C        8.0820     4.2900     0.7830 C.2   1 <1>  -0.1360 
 27 C        8.3680     1.9810     1.7470 C.3   1 <1>  -0.1790 
 28 C        7.8400     6.6630    -0.1170 C.3   1 <1>  -0.1020 
 29 H        2.3580    -2.1570     2.8230 H     1 <1>   0.0800 
 30 H        1.4990    -1.7520     1.3590 H     1 <1>   0.0800 
 31 H        1.7200     0.4950     0.5340 H     1 <1>   0.0800 
 32 H        2.6650     1.6150     1.4950 H     1 <1>   0.0800 
 33 H        4.4960    -1.9950     1.7150 H     1 <1>   0.0800 
 34 H        4.7240     0.4150     0.9560 H     1 <1>   0.0800 
 35 H        4.0850     2.1910    -0.5770 H     1 <1>   0.0800 
 36 H        3.1050     1.0800    -1.5020 H     1 <1>   0.0800 
 37 H        5.9200    -1.4550    -0.2370 H     1 <1>   0.0800 
 38 H        4.9790    -2.5610    -1.1960 H     1 <1>   0.0800 
 39 H        4.9650    -4.2750     1.9350 H     1 <1>   0.1500 
 40 H        1.8820    -3.0730    -0.7640 H     1 <1>   0.1500 
 41 H        6.0220     1.0150    -1.1400 H     1 <1>   0.4500 
 42 H        4.4140    -0.8590    -2.7920 H     1 <1>   0.0800 
 43 H        6.1490    -0.8890    -2.5960 H     1 <1>   0.0800 
 44 H        4.6810    -6.5960     1.2180 H     1 <1>   0.1500 
 45 H        1.6010    -5.4060    -1.4700 H     1 <1>   0.1500 
 46 H        6.1200     1.3170    -3.5690 H     1 <1>   0.0800 
 47 H        4.4570     1.8550    -3.4200 H     1 <1>   0.0800 
 48 H        3.0020    -7.1690    -0.4840 H     1 <1>   0.1500 
 49 H        5.1490     4.4880    -3.8200 H     1 <1>   0.1500 
 50 H        8.6720     4.6260     1.6170 H     1 <1>   0.1500 
 51 H        9.4390     2.0590     1.7710 H     1 <1>   0.0800 
 52 H        8.1020     0.9590     1.5480 H     1 <1>   0.0800 
 53 H        7.9740     2.2600     2.7070 H     1 <1>   0.0800 
 54 H        8.3520     6.9730    -1.0120 H     1 <1>   0.0800 
 55 H        8.4340     6.9440     0.7340 H     1 <1>   0.0800 
 56 H        6.8990     7.1840    -0.0680 H     1 <1>   0.0800 
@<TRIPOS>BOND
  1   1   2  1   
  2   1   3  1   
  3   2   4  1   
  4   2  29  1   
  5   2  30  1   
  6   3   5  1   
  7   3  31  1   
  8   3  32  1   
  9   4   6  1   
 10   4   7  1   
 11   4  33  1   
 12   5   6  1   
 13   5   8  1   
 14   5  34  1   
 15   6   9  1   
 16   7  10  ar  
 17   7  11  ar  
 18   8  12  1   
 19   8  35  1   
 20   8  36  1   
 21   9  13  1   
 22   9  37  1   
 23   9  38  1   
 24  10  14  ar  
 25  10  39  1   
 26  11  15  ar  
 27  11  40  1   
 28  12  13  1   
 29  12  16  1   
 30  12  41  1   
 31  13  42  1   
 32  13  43  1   
 33  14  17  ar  
 34  14  44  1   
 35  15  17  ar  
 36  15  45  1   
 37  16  18  1   
 38  16  46  1   
 39  16  47  1   
 40  17  48  1   
 41  18  19  2   
 42  18  20  1   
 43  19  21  1   
 44  19  22  1   
 45  20  23  2   
 46  20  49  1   
 47  21  24  2   
 48  22  23  1   
 49  22  25  1   
 50  24  26  1   
 51  24  27  1   
 52  25  26  2   
 53  25  28  1   
 54  26  50  1   
 55  27  51  1   
 56  27  52  1   
 57  27  53  1   
 58  28  54  1   
 59  28  55  1   
 60  28  56  1   
@<TRIPOS>SUBSTRUCTURE
  1 ****   5 GROUP 4 **** **** 0

# MOE 2024.06 (io_trps.svl 2023.06)
