@<TRIPOS>MOLECULE
NONAME
49 51 1 0 0 
SMALL
USER_CHARGES


@<TRIPOS>ATOM
  1 F        1.8130    -0.0900     2.0880 F     1 <1>  -0.1900 
  2 C        2.5370     0.7810     1.4370 C.ar  1 <1>   0.1900 
  3 C        1.9080     1.6620     0.5790 C.ar  1 <1>  -0.1500 
  4 C        3.9040     0.7880     1.6300 C.ar  1 <1>  -0.1500 
  5 C        2.6810     2.5830    -0.1080 C.ar  1 <1>  -0.1500 
  6 C        4.6660     1.7130     0.9370 C.ar  1 <1>  -0.1500 
  7 C        4.0590     2.6110     0.0660 C.ar  1 <1>  -0.1430 
  8 C        4.9010     3.6240    -0.6920 C.3   1 <1>  -0.0160 
  9 C        5.0100     4.9330     0.0990 C.3   1 <1>  -0.1600 
 10 C        5.8700     5.9790    -0.6380 C.3   1 <1>  -0.0990 
 11 C        6.0310     7.3040     0.1060 C.2   1 <1>   0.5690 
 12 O        5.3140     7.5140     1.0560 O.2   1 <1>  -0.5700 
 13 N        6.9610     8.2270    -0.3100 N.am  1 <1>  -0.6600 
 14 C        7.8260     8.0540    -1.5190 C.3   1 <1>   0.1400 
 15 C        7.1060     9.5270     0.4180 C.3   1 <1>   0.1400 
 16 C        9.1670     7.3930    -1.1640 C.3   1 <1>   0.1400 
 17 C        8.5610     9.9530     0.6620 C.3   1 <1>  -0.1600 
 18 N       10.0670     8.3160    -0.4070 N.am  1 <1>  -0.6600 
 19 C        9.5330     8.7940     0.8990 C.3   1 <1>   0.1400 
 20 C       11.3160     8.6710    -0.8960 C.2   1 <1>   0.7150 
 21 O       11.7830     7.9950    -1.8010 O.2   1 <1>  -0.5700 
 22 C       12.1150     9.7890    -0.4120 C.2   1 <1>   0.1010 
 23 N       11.7850    10.7860     0.3860 N.2   1 <1>  -0.5650 
 24 N       13.4060     9.9010    -0.8190 N.pl3 1 <1>   0.0330 
 25 C       12.8940    11.5320     0.4830 C.2   1 <1>   0.0770 
 26 C       13.8990    11.0070    -0.2480 C.2   1 <1>  -0.3020 
 27 H        0.8410     1.6270     0.4560 H     1 <1>   0.1500 
 28 H        4.3570     0.0870     2.3080 H     1 <1>   0.1500 
 29 H        2.2060     3.2790    -0.7780 H     1 <1>   0.1500 
 30 H        5.7330     1.7340     1.0790 H     1 <1>   0.1500 
 31 H        4.4530     3.8140    -1.6520 H     1 <1>   0.0800 
 32 H        5.8830     3.2170    -0.8640 H     1 <1>   0.0800 
 33 H        5.4440     4.7320     1.0650 H     1 <1>   0.0800 
 34 H        4.0230     5.3320     0.2630 H     1 <1>   0.0800 
 35 H        5.4220     6.1890    -1.5910 H     1 <1>   0.0800 
 36 H        6.8430     5.5570    -0.8030 H     1 <1>   0.0800 
 37 H        8.0070     9.0090    -1.9820 H     1 <1>   0.0800 
 38 H        7.3170     7.4450    -2.2440 H     1 <1>   0.0800 
 39 H        6.6230     9.4510     1.3770 H     1 <1>   0.0800 
 40 H        6.5940    10.2960    -0.1340 H     1 <1>   0.0800 
 41 H        9.6370     7.0880    -2.0810 H     1 <1>   0.0800 
 42 H        8.9970     6.5060    -0.5790 H     1 <1>   0.0800 
 43 H        8.5690    10.5840     1.5320 H     1 <1>   0.0800 
 44 H        8.9100    10.5600    -0.1540 H     1 <1>   0.0800 
 45 H        9.0370     7.9870     1.4130 H     1 <1>   0.0800 
 46 H       10.3420     9.1180     1.5290 H     1 <1>   0.0800 
 47 H       13.8630     9.2430    -1.4600 H     1 <1>   0.2700 
 48 H       12.9190    12.4270     1.0830 H     1 <1>   0.1500 
 49 H       14.9070    11.3560    -0.3870 H     1 <1>   0.1500 
@<TRIPOS>BOND
  1   1   2  1   
  2   2   3  ar  
  3   2   4  ar  
  4   3   5  ar  
  5   3  27  1   
  6   4   6  ar  
  7   4  28  1   
  8   5   7  ar  
  9   5  29  1   
 10   6   7  ar  
 11   6  30  1   
 12   7   8  1   
 13   8   9  1   
 14   8  31  1   
 15   8  32  1   
 16   9  10  1   
 17   9  33  1   
 18   9  34  1   
 19  10  11  1   
 20  10  35  1   
 21  10  36  1   
 22  11  12  2   
 23  11  13  am  
 24  13  14  1   
 25  13  15  1   
 26  14  16  1   
 27  14  37  1   
 28  14  38  1   
 29  15  17  1   
 30  15  39  1   
 31  15  40  1   
 32  16  18  1   
 33  16  41  1   
 34  16  42  1   
 35  17  19  1   
 36  17  43  1   
 37  17  44  1   
 38  18  19  1   
 39  18  20  am  
 40  19  45  1   
 41  19  46  1   
 42  20  21  2   
 43  20  22  1   
 44  22  23  2   
 45  22  24  1   
 46  23  25  1   
 47  24  26  1   
 48  24  47  1   
 49  25  26  2   
 50  25  48  1   
 51  26  49  1   
@<TRIPOS>SUBSTRUCTURE
  1 ****  11 GROUP 4 **** **** 0

# MOE 2024.06 (io_trps.svl 2023.06)
