@<TRIPOS>MOLECULE
NONAME
52 54 1 0 0 
SMALL
USER_CHARGES


@<TRIPOS>ATOM
  1 O       -1.0840     0.4020     2.1490 O.2   1 <1>  -0.5700 
  2 C       -1.6780     0.8580     1.1860 C.2   1 <1>   0.5440 
  3 N       -2.2590    -0.0460     0.3100 N.am  1 <1>  -0.6600 
  4 C       -1.7010     2.3170     1.0030 C.ar  1 <1>   0.3960 
  5 C       -2.2120    -1.5250     0.5820 C.3   1 <1>   0.3640 
  6 C       -2.9810     0.3590    -0.9360 C.3   1 <1>   0.1400 
  7 N       -2.7890     2.9380     0.5060 N.ar  1 <1>  -0.6200 
  8 C       -0.5690     3.0440     1.3650 C.ar  1 <1>  -0.1500 
  9 C       -0.9690    -2.1920    -0.0390 C.ar  1 <1>  -0.1440 
 10 C       -3.5310    -2.2190     0.1200 C.3   1 <1>   0.2000 
 11 C       -3.3080    -0.8400    -1.8390 C.3   1 <1>   0.1200 
 12 C       -2.7360     4.2520     0.3840 C.ar  1 <1>   0.1600 
 13 C       -0.5210     4.4130     1.2260 C.ar  1 <1>   0.0830 
 14 C       -0.7160    -3.5250     0.2660 C.ar  1 <1>  -0.1500 
 15 C       -0.0780    -1.5290    -0.8770 C.ar  1 <1>  -0.1500 
 16 O       -4.0310    -1.8090    -1.1380 O.3   1 <1>  -0.5600 
 17 C       -4.6570    -1.9960     1.1380 C.3   1 <1>   0.1200 
 18 C       -1.6480     5.0310     0.7190 C.ar  1 <1>  -0.1500 
 19 O        0.6100     5.0530     1.5910 O.3   1 <1>  -0.3630 
 20 C        0.3730    -4.1930    -0.2660 C.ar  1 <1>   0.0830 
 21 C        1.0270    -2.1800    -1.4000 C.ar  1 <1>  -0.1500 
 22 O       -4.4340    -2.7620     2.2790 O.3   1 <1>  -0.6800 
 23 C        0.7250     6.4570     1.5150 C.3   1 <1>   0.0400 
 24 O        0.5110    -5.5050     0.0460 O.3   1 <1>  -0.3630 
 25 C        1.2690    -3.5060    -1.0910 C.ar  1 <1>   0.0830 
 26 C        0.4160    -6.4200    -1.0240 C.3   1 <1>   0.0400 
 27 O        2.3880    -4.0750    -1.6040 O.3   1 <1>  -0.3630 
 28 C        3.3850    -4.4310    -0.6720 C.3   1 <1>   0.0400 
 29 H       -2.1330    -1.6770     1.6450 H     1 <1>   0.0800 
 30 H       -3.9030     0.8460    -0.6670 H     1 <1>   0.0800 
 31 H       -2.3800     1.0620    -1.4850 H     1 <1>   0.0800 
 32 H        0.2860     2.5300     1.7650 H     1 <1>   0.1500 
 33 H       -3.3680    -3.2770     0.0380 H     1 <1>   0.0800 
 34 H       -2.4120    -1.2930    -2.2250 H     1 <1>   0.0800 
 35 H       -3.9110    -0.5220    -2.6700 H     1 <1>   0.0800 
 36 H       -3.6140     4.7380    -0.0080 H     1 <1>   0.1500 
 37 H       -1.3670    -4.0690     0.9260 H     1 <1>   0.1500 
 38 H       -0.2230    -0.4940    -1.1290 H     1 <1>   0.1500 
 39 H       -5.6060    -2.2870     0.7230 H     1 <1>   0.0800 
 40 H       -4.6940    -0.9620     1.4340 H     1 <1>   0.0800 
 41 H       -1.6970     6.0940     0.5820 H     1 <1>   0.1500 
 42 H        1.7120    -1.6580    -2.0430 H     1 <1>   0.1500 
 43 H       -4.6540    -3.7010     2.1170 H     1 <1>   0.4000 
 44 H        1.7020     6.7310     1.8690 H     1 <1>   0.0800 
 45 H       -0.0280     6.9030     2.1400 H     1 <1>   0.0800 
 46 H        0.6080     6.7630     0.4900 H     1 <1>   0.0800 
 47 H        0.4060    -7.4140    -0.6170 H     1 <1>   0.0800 
 48 H        1.2630    -6.2990    -1.6740 H     1 <1>   0.0800 
 49 H       -0.4970    -6.2310    -1.5620 H     1 <1>   0.0800 
 50 H        4.2460    -4.7740    -1.2160 H     1 <1>   0.0800 
 51 H        3.0160    -5.2140    -0.0350 H     1 <1>   0.0800 
 52 H        3.6380    -3.5640    -0.0870 H     1 <1>   0.0800 
@<TRIPOS>BOND
  1   1   2  2   
  2   2   3  am  
  3   2   4  1   
  4   3   5  1   
  5   3   6  1   
  6   4   7  ar  
  7   4   8  ar  
  8   5   9  1   
  9   5  10  1   
 10   5  29  1   
 11   6  11  1   
 12   6  30  1   
 13   6  31  1   
 14   7  12  ar  
 15   8  13  ar  
 16   8  32  1   
 17   9  14  ar  
 18   9  15  ar  
 19  10  16  1   
 20  10  17  1   
 21  10  33  1   
 22  11  16  1   
 23  11  34  1   
 24  11  35  1   
 25  12  18  ar  
 26  12  36  1   
 27  13  18  ar  
 28  13  19  1   
 29  14  20  ar  
 30  14  37  1   
 31  15  21  ar  
 32  15  38  1   
 33  17  22  1   
 34  17  39  1   
 35  17  40  1   
 36  18  41  1   
 37  19  23  1   
 38  20  24  1   
 39  20  25  ar  
 40  21  25  ar  
 41  21  42  1   
 42  22  43  1   
 43  23  44  1   
 44  23  45  1   
 45  23  46  1   
 46  24  26  1   
 47  25  27  1   
 48  26  47  1   
 49  26  48  1   
 50  26  49  1   
 51  27  28  1   
 52  28  50  1   
 53  28  51  1   
 54  28  52  1   
@<TRIPOS>SUBSTRUCTURE
  1 ****   3 GROUP 4 **** **** 0

# MOE 2024.06 (io_trps.svl 2023.06)
