@<TRIPOS>MOLECULE
NONAME
29 30 1 0 0 
SMALL
USER_CHARGES


@<TRIPOS>ATOM
  1 O        5.4400     4.5490     1.0810 O.3   1 <1>  -0.5320 
  2 C        5.3970     3.2550     0.7350 C.ar  1 <1>   0.0830 
  3 C        5.8640     2.3050     1.6240 C.ar  1 <1>  -0.1500 
  4 C        4.8930     2.8740    -0.4960 C.ar  1 <1>  -0.1500 
  5 C        5.8240     0.9650     1.2830 C.ar  1 <1>  -0.1500 
  6 C        4.8530     1.5330    -0.8340 C.ar  1 <1>  -0.1500 
  7 C        5.3140     0.5670     0.0520 C.ar  1 <1>  -0.1430 
  8 C        5.2470    -0.9060    -0.3320 C.3   1 <1>   0.0630 
  9 C        4.3680    -1.6630     0.6770 C.3   1 <1>   0.3430 
 10 C        6.6530    -1.5220    -0.4270 C.3   1 <1>  -0.1600 
 11 N        4.3470    -3.1330     0.3890 N.4   1 <1>  -0.9060 
 12 C        6.5760    -3.0370    -0.6710 C.3   1 <1>  -0.1600 
 13 C        5.7080    -3.7400     0.3770 C.3   1 <1>   0.3430 
 14 H        5.1060     5.1450     0.3880 H     1 <1>   0.4500 
 15 H        6.2560     2.6230     2.5730 H     1 <1>   0.1500 
 16 H        4.5340     3.6140    -1.1890 H     1 <1>   0.1500 
 17 H        6.2000     0.2500     1.9920 H     1 <1>   0.1500 
 18 H        4.4600     1.2560    -1.7980 H     1 <1>   0.1500 
 19 H        4.7780    -0.9850    -1.2970 H     1 <1>   0.0800 
 20 H        3.3680    -1.2620     0.6430 H     1 <1>   0.0800 
 21 H        4.7570    -1.4970     1.6680 H     1 <1>   0.0800 
 22 H        7.1980    -1.3390     0.4840 H     1 <1>   0.0800 
 23 H        7.1980    -1.0490    -1.2280 H     1 <1>   0.0800 
 24 H        3.9070    -3.2890    -0.5260 H     1 <1>   0.4500 
 25 H        3.7620    -3.6110     1.0870 H     1 <1>   0.4500 
 26 H        7.5700    -3.4510    -0.6350 H     1 <1>   0.0800 
 27 H        6.1860    -3.2340    -1.6550 H     1 <1>   0.0800 
 28 H        5.6430    -4.7930     0.1480 H     1 <1>   0.0800 
 29 H        6.1640    -3.6330     1.3490 H     1 <1>   0.0800 
@<TRIPOS>BOND
  1   1   2  1   
  2   1  14  1   
  3   2   3  ar  
  4   2   4  ar  
  5   3   5  ar  
  6   3  15  1   
  7   4   6  ar  
  8   4  16  1   
  9   5   7  ar  
 10   5  17  1   
 11   6   7  ar  
 12   6  18  1   
 13   7   8  1   
 14   8   9  1   
 15   8  10  1   
 16   8  19  1   
 17   9  11  1   
 18   9  20  1   
 19   9  21  1   
 20  10  12  1   
 21  10  22  1   
 22  10  23  1   
 23  11  13  1   
 24  11  24  1   
 25  11  25  1   
 26  12  13  1   
 27  12  26  1   
 28  12  27  1   
 29  13  28  1   
 30  13  29  1   
@<TRIPOS>SUBSTRUCTURE
  1 ****   7 GROUP 4 **** **** 0

# MOE 2024.06 (io_trps.svl 2023.06)
