@<TRIPOS>MOLECULE
NONAME
60 63 1 0 0 
SMALL
USER_CHARGES


@<TRIPOS>ATOM
  1 O       -2.6800    -1.0480     1.6280 O.2   1 <1>  -0.5700 
  2 C       -2.2930    -1.2460     0.5010 C.2   1 <1>   0.5690 
  3 N       -1.6620    -2.4240     0.1910 N.am  1 <1>  -0.6600 
  4 C       -2.5460    -0.1820    -0.5630 C.3   1 <1>  -0.0990 
  5 C       -1.1640    -3.2720     1.3250 C.3   1 <1>   0.2200 
  6 C       -1.6150    -2.9840    -1.1840 C.3   1 <1>   0.1400 
  7 C       -2.6120     1.2470     0.0070 C.3   1 <1>  -0.1600 
  8 C        0.0560    -4.1570     0.9570 C.3   1 <1>   0.1200 
  9 C       -2.3500    -4.0590     1.9330 C.3   1 <1>   0.3430 
 10 C       -1.9590    -4.4790    -1.2090 C.3   1 <1>  -0.0800 
 11 C       -2.8190     2.3010    -1.0890 C.3   1 <1>   0.0210 
 12 O       -0.3100    -5.3800     0.3710 O.3   1 <1>  -0.5600 
 13 N       -2.8530    -5.1850     1.0710 N.4   1 <1>  -0.9590 
 14 C       -0.7080    -5.3530    -0.9680 C.3   1 <1>   0.1200 
 15 C       -3.1950    -4.8180    -0.3420 C.3   1 <1>   0.3430 
 16 C       -2.8810     3.7110    -0.5240 C.2   1 <1>  -0.1810 
 17 C       -3.9110    -5.9790     1.7420 C.3   1 <1>   0.4860 
 18 C       -3.0150     4.8750    -1.2760 C.2   1 <1>   0.1390 
 19 C       -2.8260     4.1410     0.7550 C.2   1 <1>  -0.3020 
 20 C       -4.1130    -7.2600     0.9580 C.ar  1 <1>  -0.1440 
 21 N       -3.0420     5.9430    -0.5370 N.2   1 <1>  -0.7070 
 22 N       -2.9250     5.4840     0.7230 N.pl3 1 <1>   0.3000 
 23 C       -5.2560    -7.4270     0.1910 C.ar  1 <1>  -0.1500 
 24 C       -3.1570    -8.2650     0.9830 C.ar  1 <1>  -0.1500 
 25 C       -5.4440    -8.5760    -0.5580 C.ar  1 <1>   0.0820 
 26 C       -3.3410    -9.4190     0.2410 C.ar  1 <1>  -0.1500 
 27 O       -6.5840    -8.6410    -1.2870 O.3   1 <1>  -0.3620 
 28 C       -4.4790    -9.5770    -0.5310 C.ar  1 <1>  -0.1500 
 29 C       -6.9240    -9.8020    -2.0130 C.3   1 <1>   0.0400 
 30 H       -1.7540    -0.2200    -1.2880 H     1 <1>   0.0800 
 31 H       -3.4730    -0.4100    -1.0560 H     1 <1>   0.0800 
 32 H       -0.8160    -2.5940     2.0860 H     1 <1>   0.0800 
 33 H       -2.3270    -2.4660    -1.8040 H     1 <1>   0.0800 
 34 H       -0.6370    -2.8150    -1.6050 H     1 <1>   0.0800 
 35 H       -3.4240     1.3120     0.7120 H     1 <1>   0.0800 
 36 H       -1.6990     1.4620     0.5360 H     1 <1>   0.0800 
 37 H        0.5840    -4.4040     1.8610 H     1 <1>   0.0800 
 38 H        0.7410    -3.6340     0.3110 H     1 <1>   0.0800 
 39 H       -3.1490    -3.3640     2.1330 H     1 <1>   0.0800 
 40 H       -2.0270    -4.4630     2.8770 H     1 <1>   0.0800 
 41 H       -2.2500    -4.6750    -2.2260 H     1 <1>   0.0800 
 42 H       -3.7360     2.1020    -1.6150 H     1 <1>   0.0800 
 43 H       -2.0090     2.2510    -1.7960 H     1 <1>   0.0800 
 44 H       -2.0270    -5.8040     0.9610 H     1 <1>   0.4500 
 45 H        0.1250    -5.0130    -1.5620 H     1 <1>   0.0800 
 46 H       -0.9190    -6.3720    -1.2510 H     1 <1>   0.0800 
 47 H       -3.6880    -5.6560    -0.8070 H     1 <1>   0.0800 
 48 H       -3.8850    -3.9900    -0.3490 H     1 <1>   0.0800 
 49 H       -3.6120    -6.2220     2.7480 H     1 <1>   0.0800 
 50 H       -4.8300    -5.4180     1.7810 H     1 <1>   0.0800 
 51 H       -3.0890     4.9020    -2.3500 H     1 <1>   0.1500 
 52 H       -2.7260     3.5840     1.6690 H     1 <1>   0.1500 
 53 H       -2.9160     6.1110     1.5350 H     1 <1>   0.2700 
 54 H       -6.0230    -6.6730     0.1570 H     1 <1>   0.1500 
 55 H       -2.2630    -8.1670     1.5760 H     1 <1>   0.1500 
 56 H       -2.5980   -10.1990     0.2630 H     1 <1>   0.1500 
 57 H       -4.5960   -10.4810    -1.0990 H     1 <1>   0.1500 
 58 H       -7.8810    -9.6380    -2.4760 H     1 <1>   0.0800 
 59 H       -6.9860   -10.6340    -1.3330 H     1 <1>   0.0800 
 60 H       -6.1780    -9.9750    -2.7680 H     1 <1>   0.0800 
@<TRIPOS>BOND
  1   1   2  2   
  2   2   3  am  
  3   2   4  1   
  4   3   5  1   
  5   3   6  1   
  6   4   7  1   
  7   4  30  1   
  8   4  31  1   
  9   5   8  1   
 10   5   9  1   
 11   5  32  1   
 12   6  10  1   
 13   6  33  1   
 14   6  34  1   
 15   7  11  1   
 16   7  35  1   
 17   7  36  1   
 18   8  12  1   
 19   8  37  1   
 20   8  38  1   
 21   9  13  1   
 22   9  39  1   
 23   9  40  1   
 24  10  14  1   
 25  10  15  1   
 26  10  41  1   
 27  11  16  1   
 28  11  42  1   
 29  11  43  1   
 30  12  14  1   
 31  13  15  1   
 32  13  17  1   
 33  13  44  1   
 34  14  45  1   
 35  14  46  1   
 36  15  47  1   
 37  15  48  1   
 38  16  18  1   
 39  16  19  2   
 40  17  20  1   
 41  17  49  1   
 42  17  50  1   
 43  18  21  2   
 44  18  51  1   
 45  19  22  1   
 46  19  52  1   
 47  20  23  ar  
 48  20  24  ar  
 49  21  22  1   
 50  22  53  1   
 51  23  25  ar  
 52  23  54  1   
 53  24  26  ar  
 54  24  55  1   
 55  25  27  1   
 56  25  28  ar  
 57  26  28  ar  
 58  26  56  1   
 59  27  29  1   
 60  28  57  1   
 61  29  58  1   
 62  29  59  1   
 63  29  60  1   
@<TRIPOS>SUBSTRUCTURE
  1 ****   3 GROUP 4 **** **** 0

# MOE 2024.06 (io_trps.svl 2023.06)
