@<TRIPOS>MOLECULE
NONAME
41 43 1 0 0 
SMALL
USER_CHARGES


@<TRIPOS>ATOM
  1 O       -0.7010     0.2800    -1.6230 O.3   1 <1>  -0.0190 
  2 N        0.2700     1.1290    -1.4940 N.2   1 <1>  -0.4100 
  3 C       -1.6620     0.7790    -0.8900 C.2   1 <1>   0.2980 
  4 C       -0.1300     2.0690    -0.7140 C.2   1 <1>   0.4620 
  5 N       -1.3870     1.8740    -0.3050 N.2   1 <1>  -0.5650 
  6 C       -2.9890     0.0290    -0.8140 C.3   1 <1>   0.2900 
  7 C        0.6550     3.2180    -0.3070 C.ar  1 <1>   0.0540 
  8 N       -2.8790    -1.3210    -0.2030 N.3   1 <1>  -0.8100 
  9 C        0.1670     4.2100     0.5350 C.ar  1 <1>  -0.1500 
 10 C        1.9640     3.4160    -0.7300 C.ar  1 <1>  -0.1500 
 11 C       -4.1410    -2.0600    -0.3260 C.3   1 <1>   0.1100 
 12 C       -2.4160    -1.2330     1.1950 C.3   1 <1>   0.0300 
 13 C        0.9600     5.2840     0.8900 C.ar  1 <1>   0.1600 
 14 C        2.6760     4.5260    -0.3170 C.ar  1 <1>   0.1600 
 15 C       -3.8970    -3.5620    -0.1590 C.3   1 <1>  -0.1600 
 16 N        2.2050     5.4670     0.4840 N.ar  1 <1>  -0.6200 
 17 C       -5.1550    -4.3620    -0.5140 C.3   1 <1>   0.0960 
 18 N       -4.9170    -5.8040    -0.3200 N.pl3 1 <1>   0.0480 
 19 C       -5.2480    -6.5380     0.7760 C.2   1 <1>  -0.3020 
 20 C       -4.3260    -6.6510    -1.2040 C.2   1 <1>  -0.3020 
 21 C       -4.8730    -7.8300     0.5880 C.2   1 <1>  -0.1500 
 22 C       -4.2840    -7.9020    -0.6770 C.2   1 <1>  -0.1500 
 23 H       -3.3620    -0.0680    -1.8180 H     1 <1>   0.0800 
 24 H       -3.6900     0.6210    -0.2530 H     1 <1>   0.0800 
 25 H       -0.8360     4.1440     0.9150 H     1 <1>   0.1500 
 26 H        2.4290     2.7010    -1.3840 H     1 <1>   0.1500 
 27 H       -4.5500    -1.8950    -1.3090 H     1 <1>   0.0800 
 28 H       -4.8550    -1.7070     0.4010 H     1 <1>   0.0800 
 29 H       -1.4700    -0.7210     1.2440 H     1 <1>   0.0800 
 30 H       -2.2700    -2.2160     1.6060 H     1 <1>   0.0800 
 31 H       -3.1310    -0.7020     1.7990 H     1 <1>   0.0800 
 32 H        0.5500     6.0350     1.5440 H     1 <1>   0.1500 
 33 H        3.6880     4.6480    -0.6640 H     1 <1>   0.1500 
 34 H       -3.6250    -3.7800     0.8570 H     1 <1>   0.0800 
 35 H       -3.0940    -3.8610    -0.8110 H     1 <1>   0.0800 
 36 H       -5.4260    -4.1960    -1.5410 H     1 <1>   0.0800 
 37 H       -5.9760    -4.0630     0.1130 H     1 <1>   0.0800 
 38 H       -5.7320    -6.1070     1.6340 H     1 <1>   0.1500 
 39 H       -3.9640    -6.3210    -2.1610 H     1 <1>   0.1500 
 40 H       -4.9930    -8.6590     1.2640 H     1 <1>   0.1500 
 41 H       -3.8810    -8.7950    -1.1240 H     1 <1>   0.1500 
@<TRIPOS>BOND
  1   1   2  1   
  2   1   3  1   
  3   2   4  2   
  4   3   5  2   
  5   3   6  1   
  6   4   5  1   
  7   4   7  1   
  8   6   8  1   
  9   6  23  1   
 10   6  24  1   
 11   7   9  ar  
 12   7  10  ar  
 13   8  11  1   
 14   8  12  1   
 15   9  13  ar  
 16   9  25  1   
 17  10  14  ar  
 18  10  26  1   
 19  11  15  1   
 20  11  27  1   
 21  11  28  1   
 22  12  29  1   
 23  12  30  1   
 24  12  31  1   
 25  13  16  ar  
 26  13  32  1   
 27  14  16  ar  
 28  14  33  1   
 29  15  17  1   
 30  15  34  1   
 31  15  35  1   
 32  17  18  1   
 33  17  36  1   
 34  17  37  1   
 35  18  19  1   
 36  18  20  1   
 37  19  21  2   
 38  19  38  1   
 39  20  22  2   
 40  20  39  1   
 41  21  22  1   
 42  21  40  1   
 43  22  41  1   
@<TRIPOS>SUBSTRUCTURE
  1 ****   8 GROUP 4 **** **** 0

# MOE 2024.06 (io_trps.svl 2023.06)
