@<TRIPOS>MOLECULE
NONAME
50 52 1 0 0 
SMALL
USER_CHARGES


@<TRIPOS>ATOM
  1 S        0.7480     0.0700    -0.7270 S.o2  1 <1>   1.3330 
  2 O        0.0610     0.0540    -1.9950 O.2   1 <1>  -0.6500 
  3 O        2.1760     0.2960    -0.6930 O.2   1 <1>  -0.6500 
  4 N        0.3690    -1.3250     0.1550 N.am  1 <1>  -0.8490 
  5 C        0.0310     1.3870     0.2520 C.3   1 <1>  -0.0550 
  6 C       -0.9380    -1.8980    -0.1920 C.3   1 <1>   0.1160 
  7 C        1.4050    -2.3590     0.0440 C.3   1 <1>   0.1160 
  8 C        0.2060     2.7720    -0.4140 C.3   1 <1>  -0.0800 
  9 C       -0.3350     3.9590     0.3820 C.3   1 <1>   0.2000 
 10 C        1.6750     3.1330    -0.7000 C.3   1 <1>   0.3430 
 11 O        0.0240     3.8250     1.7210 O.3   1 <1>  -0.6800 
 12 C        0.4450     5.1340    -0.2130 C.3   1 <1>   0.3430 
 13 N        1.8200     4.6040    -0.4850 N.4   1 <1>  -0.9590 
 14 C        2.7360     4.8700     0.6580 C.3   1 <1>   0.5240 
 15 C        2.8800     6.3680     0.8020 C.2   1 <1>  -0.1810 
 16 C        2.3810     7.1200     1.8570 C.2   1 <1>   0.1390 
 17 C        3.4710     7.2720    -0.0090 C.2   1 <1>  -0.3020 
 18 N        2.6220     8.3810     1.7070 N.2   1 <1>  -0.7070 
 19 N        3.3050     8.5030     0.5400 N.pl3 1 <1>   0.5930 
 20 C        3.7660     9.7490     0.0380 C.ar  1 <1>  -0.0230 
 21 C        3.6500    10.0870    -1.3070 C.ar  1 <1>   0.1900 
 22 C        4.3540    10.6870     0.8830 C.ar  1 <1>  -0.1500 
 23 F        3.0880     9.2490    -2.1410 F     1 <1>  -0.1900 
 24 C        4.1010    11.2900    -1.8170 C.ar  1 <1>  -0.1500 
 25 C        4.8120    11.8990     0.3900 C.ar  1 <1>  -0.1500 
 26 C        4.6890    12.2030    -0.9570 C.ar  1 <1>  -0.1500 
 27 H       -1.0150     1.1930     0.3890 H     1 <1>   0.0800 
 28 H        0.4970     1.3810     1.2190 H     1 <1>   0.0800 
 29 H       -1.1620    -2.7290     0.4560 H     1 <1>   0.0800 
 30 H       -0.9400    -2.2410    -1.2140 H     1 <1>   0.0800 
 31 H       -1.7120    -1.1590    -0.0750 H     1 <1>   0.0800 
 32 H        1.1400    -3.2190     0.6370 H     1 <1>   0.0800 
 33 H        2.3460    -1.9810     0.4070 H     1 <1>   0.0800 
 34 H        1.5260    -2.6620    -0.9830 H     1 <1>   0.0800 
 35 H       -0.3020     2.7490    -1.3640 H     1 <1>   0.0800 
 36 H       -1.4020     4.0910     0.3120 H     1 <1>   0.0800 
 37 H        1.9390     2.8580    -1.7100 H     1 <1>   0.0800 
 38 H        2.3210     2.5960    -0.0230 H     1 <1>   0.0800 
 39 H       -0.6740     3.3620     2.2340 H     1 <1>   0.4000 
 40 H        0.4480     5.9820     0.4530 H     1 <1>   0.0800 
 41 H       -0.0160     5.4240    -1.1430 H     1 <1>   0.0800 
 42 H        2.2190     5.0720    -1.3080 H     1 <1>   0.4500 
 43 H        2.3370     4.4480     1.5660 H     1 <1>   0.0800 
 44 H        3.7030     4.4330     0.4690 H     1 <1>   0.0800 
 45 H        1.8480     6.7220     2.7070 H     1 <1>   0.1500 
 46 H        3.9980     7.1390    -0.9370 H     1 <1>   0.1500 
 47 H        4.4500    10.4690     1.9340 H     1 <1>   0.1500 
 48 H        3.9920    11.5090    -2.8640 H     1 <1>   0.1500 
 49 H        5.2640    12.6120     1.0590 H     1 <1>   0.1500 
 50 H        5.0470    13.1470    -1.3330 H     1 <1>   0.1500 
@<TRIPOS>BOND
  1   1   2  2   
  2   1   3  2   
  3   1   4  am  
  4   1   5  1   
  5   4   6  1   
  6   4   7  1   
  7   5   8  1   
  8   5  27  1   
  9   5  28  1   
 10   6  29  1   
 11   6  30  1   
 12   6  31  1   
 13   7  32  1   
 14   7  33  1   
 15   7  34  1   
 16   8   9  1   
 17   8  10  1   
 18   8  35  1   
 19   9  11  1   
 20   9  12  1   
 21   9  36  1   
 22  10  13  1   
 23  10  37  1   
 24  10  38  1   
 25  11  39  1   
 26  12  13  1   
 27  12  40  1   
 28  12  41  1   
 29  13  14  1   
 30  13  42  1   
 31  14  15  1   
 32  14  43  1   
 33  14  44  1   
 34  15  16  1   
 35  15  17  2   
 36  16  18  2   
 37  16  45  1   
 38  17  19  1   
 39  17  46  1   
 40  18  19  1   
 41  19  20  1   
 42  20  21  ar  
 43  20  22  ar  
 44  21  23  1   
 45  21  24  ar  
 46  22  25  ar  
 47  22  47  1   
 48  24  26  ar  
 49  24  48  1   
 50  25  26  ar  
 51  25  49  1   
 52  26  50  1   
@<TRIPOS>SUBSTRUCTURE
  1 ****  13 GROUP 4 **** **** 0

# MOE 2024.06 (io_trps.svl 2023.06)
