@<TRIPOS>MOLECULE
NONAME
44 46 1 0 0 
SMALL
USER_CHARGES


@<TRIPOS>ATOM
  1 CL      -0.1690    -0.0070     0.4530 Cl    1 <1>  -0.1770 
  2 C       -0.3230    -1.7360     0.2620 C.ar  1 <1>   0.1770 
  3 C       -1.4280    -2.4410     0.7400 C.ar  1 <1>  -0.0090 
  4 C        0.7170    -2.3600    -0.4050 C.ar  1 <1>  -0.1500 
  5 S       -2.8180    -1.6620     1.6080 S.o2  1 <1>   1.4470 
  6 C       -1.4580    -3.8170     0.5060 C.ar  1 <1>  -0.1500 
  7 C        0.6430    -3.7220    -0.6020 C.ar  1 <1>   0.1900 
  8 O       -2.4730    -0.4020     2.2260 O.2   1 <1>  -0.6500 
  9 O       -3.4230    -2.6800     2.4400 O.2   1 <1>  -0.6500 
 10 N       -3.9280    -1.3290     0.3690 N.am  1 <1>  -0.8490 
 11 C       -0.4310    -4.4670    -0.1590 C.ar  1 <1>  -0.1500 
 12 F        1.6160    -4.3230    -1.2290 F     1 <1>  -0.1900 
 13 C       -5.2790    -1.1130     0.9170 C.3   1 <1>   0.1960 
 14 C       -3.5330    -0.1710    -0.4410 C.3   1 <1>   0.1960 
 15 C       -6.3380    -1.0090    -0.1990 C.3   1 <1>   0.0000 
 16 C       -4.4830     0.0060    -1.6300 C.3   1 <1>  -0.1600 
 17 C       -7.7390    -0.8210     0.4110 C.3   1 <1>   0.2000 
 18 C       -5.9440     0.1330    -1.1720 C.3   1 <1>  -0.1600 
 19 C       -6.5190    -2.3370    -0.9570 C.3   1 <1>  -0.1600 
 20 O       -7.9720     0.5060     0.7790 O.3   1 <1>  -0.5600 
 21 C       -8.7200    -1.2890    -0.6660 C.3   1 <1>  -0.1600 
 22 C       -7.9460    -2.3060    -1.5180 C.3   1 <1>  -0.1600 
 23 C       -9.0790     0.7040     1.6010 C.3   1 <1>   0.0400 
 24 H        1.5620    -1.8000    -0.7610 H     1 <1>   0.1500 
 25 H       -2.3030    -4.3920     0.8530 H     1 <1>   0.1500 
 26 H       -0.4590    -5.5290    -0.3320 H     1 <1>   0.1500 
 27 H       -5.5470    -1.9330     1.5620 H     1 <1>   0.0800 
 28 H       -5.2920    -0.2130     1.5100 H     1 <1>   0.0800 
 29 H       -3.5370     0.7220     0.1640 H     1 <1>   0.0800 
 30 H       -2.5380    -0.3140    -0.8240 H     1 <1>   0.0800 
 31 H       -4.2040     0.8910    -2.1740 H     1 <1>   0.0800 
 32 H       -4.3680    -0.8290    -2.2960 H     1 <1>   0.0800 
 33 H       -7.8320    -1.4470     1.2830 H     1 <1>   0.0800 
 34 H       -6.5960     0.1520    -2.0270 H     1 <1>   0.0800 
 35 H       -6.0480     1.0790    -0.6690 H     1 <1>   0.0800 
 36 H       -5.7880    -2.4880    -1.7300 H     1 <1>   0.0800 
 37 H       -6.4400    -3.1570    -0.2630 H     1 <1>   0.0800 
 38 H       -9.5890    -1.7390    -0.2230 H     1 <1>   0.0800 
 39 H       -9.0140    -0.4560    -1.2810 H     1 <1>   0.0800 
 40 H       -8.3960    -3.2830    -1.4710 H     1 <1>   0.0800 
 41 H       -7.9320    -1.9810    -2.5440 H     1 <1>   0.0800 
 42 H       -9.1370     1.7520     1.8330 H     1 <1>   0.0800 
 43 H       -8.9540     0.1390     2.5080 H     1 <1>   0.0800 
 44 H       -9.9710     0.3990     1.0820 H     1 <1>   0.0800 
@<TRIPOS>BOND
  1   1   2  1   
  2   2   3  ar  
  3   2   4  ar  
  4   3   5  1   
  5   3   6  ar  
  6   4   7  ar  
  7   4  24  1   
  8   5   8  2   
  9   5   9  2   
 10   5  10  am  
 11   6  11  ar  
 12   6  25  1   
 13   7  11  ar  
 14   7  12  1   
 15  10  13  1   
 16  10  14  1   
 17  11  26  1   
 18  13  15  1   
 19  13  27  1   
 20  13  28  1   
 21  14  16  1   
 22  14  29  1   
 23  14  30  1   
 24  15  17  1   
 25  15  18  1   
 26  15  19  1   
 27  16  18  1   
 28  16  31  1   
 29  16  32  1   
 30  17  20  1   
 31  17  21  1   
 32  17  33  1   
 33  18  34  1   
 34  18  35  1   
 35  19  22  1   
 36  19  36  1   
 37  19  37  1   
 38  20  23  1   
 39  21  22  1   
 40  21  38  1   
 41  21  39  1   
 42  22  40  1   
 43  22  41  1   
 44  23  42  1   
 45  23  43  1   
 46  23  44  1   
@<TRIPOS>SUBSTRUCTURE
  1 ****  10 GROUP 4 **** **** 0

# MOE 2024.06 (io_trps.svl 2023.06)
