@<TRIPOS>MOLECULE
NONAME
50 52 1 0 0 
SMALL
USER_CHARGES


@<TRIPOS>ATOM
  1 F       -0.7680    -3.0300     3.1460 F     1 <1>  -0.1900 
  2 C       -1.4880    -3.5910     2.2080 C.ar  1 <1>   0.1900 
  3 C       -2.1610    -4.7630     2.4970 C.ar  1 <1>  -0.1500 
  4 C       -1.5470    -2.9920     0.9650 C.ar  1 <1>  -0.1500 
  5 C       -2.9210    -5.3500     1.5000 C.ar  1 <1>  -0.1500 
  6 C       -2.3110    -3.5900    -0.0220 C.ar  1 <1>  -0.1500 
  7 C       -3.0060    -4.7700     0.2380 C.ar  1 <1>   0.1000 
  8 N       -3.7810    -5.3780    -0.7440 N.pl3 1 <1>  -0.8380 
  9 C       -4.9710    -4.5960    -1.2320 C.3   1 <1>   0.2090 
 10 C       -3.0320    -6.0830    -1.8220 C.3   1 <1>   0.2090 
 11 C       -6.2360    -5.4830    -1.2620 C.3   1 <1>   0.3430 
 12 C       -3.6560    -7.4600    -2.0810 C.3   1 <1>  -0.1600 
 13 N       -5.8640    -6.9280    -1.1490 N.4   1 <1>  -0.9590 
 14 C       -5.1630    -7.4380    -2.3560 C.3   1 <1>   0.3430 
 15 C       -6.9780    -7.7730    -0.6440 C.3   1 <1>   0.3430 
 16 C       -6.4320    -9.0790    -0.0700 C.3   1 <1>  -0.1600 
 17 C       -7.5470    -9.8820     0.6000 C.3   1 <1>   0.3430 
 18 O       -8.1920    -9.0560     1.4930 O.3   1 <1>  -0.6800 
 19 C       -7.0080   -11.0860     1.3590 C.ar  1 <1>  -0.1430 
 20 C       -7.2420   -12.3650     0.8750 C.ar  1 <1>  -0.1500 
 21 C       -6.2790   -10.9320     2.5320 C.ar  1 <1>  -0.1500 
 22 C       -6.7550   -13.4710     1.5500 C.ar  1 <1>  -0.1500 
 23 C       -5.7920   -12.0380     3.2070 C.ar  1 <1>  -0.1500 
 24 C       -6.0300   -13.3080     2.7160 C.ar  1 <1>  -0.1500 
 25 H       -2.0870    -5.1990     3.4770 H     1 <1>   0.1500 
 26 H       -1.0050    -2.0810     0.7810 H     1 <1>   0.1500 
 27 H       -3.4520    -6.2620     1.6990 H     1 <1>   0.1500 
 28 H       -2.3680    -3.1430    -0.9970 H     1 <1>   0.1500 
 29 H       -5.1500    -3.7530    -0.5850 H     1 <1>   0.0800 
 30 H       -4.7790    -4.2070    -2.2170 H     1 <1>   0.0800 
 31 H       -3.0380    -5.4920    -2.7230 H     1 <1>   0.0800 
 32 H       -2.0030    -6.2100    -1.5240 H     1 <1>   0.0800 
 33 H       -6.8030    -5.2980    -2.1590 H     1 <1>   0.0800 
 34 H       -6.8500    -5.2080    -0.4200 H     1 <1>   0.0800 
 35 H       -3.4500    -8.1030    -1.2440 H     1 <1>   0.0800 
 36 H       -3.1620    -7.8920    -2.9330 H     1 <1>   0.0800 
 37 H       -5.1120    -6.8760    -0.4310 H     1 <1>   0.4500 
 38 H       -5.4950    -8.4390    -2.5800 H     1 <1>   0.0800 
 39 H       -5.3780    -6.8130    -3.2070 H     1 <1>   0.0800 
 40 H       -7.4970    -7.2460     0.1410 H     1 <1>   0.0800 
 41 H       -7.6830    -7.9770    -1.4340 H     1 <1>   0.0800 
 42 H       -5.6750    -8.8650     0.6620 H     1 <1>   0.0800 
 43 H       -6.0000    -9.6860    -0.8430 H     1 <1>   0.0800 
 44 H       -8.2760   -10.2000    -0.1270 H     1 <1>   0.0800 
 45 H       -8.6380    -9.6190     2.1610 H     1 <1>   0.4000 
 46 H       -7.8060   -12.5160    -0.0290 H     1 <1>   0.1500 
 47 H       -6.0870    -9.9500     2.9300 H     1 <1>   0.1500 
 48 H       -6.9410   -14.4610     1.1690 H     1 <1>   0.1500 
 49 H       -5.2280   -11.9100     4.1150 H     1 <1>   0.1500 
 50 H       -5.6510   -14.1690     3.2400 H     1 <1>   0.1500 
@<TRIPOS>BOND
  1   1   2  1   
  2   2   3  ar  
  3   2   4  ar  
  4   3   5  ar  
  5   3  25  1   
  6   4   6  ar  
  7   4  26  1   
  8   5   7  ar  
  9   5  27  1   
 10   6   7  ar  
 11   6  28  1   
 12   7   8  1   
 13   8   9  1   
 14   8  10  1   
 15   9  11  1   
 16   9  29  1   
 17   9  30  1   
 18  10  12  1   
 19  10  31  1   
 20  10  32  1   
 21  11  13  1   
 22  11  33  1   
 23  11  34  1   
 24  12  14  1   
 25  12  35  1   
 26  12  36  1   
 27  13  14  1   
 28  13  15  1   
 29  13  37  1   
 30  14  38  1   
 31  14  39  1   
 32  15  16  1   
 33  15  40  1   
 34  15  41  1   
 35  16  17  1   
 36  16  42  1   
 37  16  43  1   
 38  17  18  1   
 39  17  19  1   
 40  17  44  1   
 41  18  45  1   
 42  19  20  ar  
 43  19  21  ar  
 44  20  22  ar  
 45  20  46  1   
 46  21  23  ar  
 47  21  47  1   
 48  22  24  ar  
 49  22  48  1   
 50  23  24  ar  
 51  23  49  1   
 52  24  50  1   
@<TRIPOS>SUBSTRUCTURE
  1 ****  13 GROUP 4 **** **** 0

# MOE 2024.06 (io_trps.svl 2023.06)
