@<TRIPOS>MOLECULE
NONAME
51 55 1 0 0 
SMALL
USER_CHARGES


@<TRIPOS>ATOM
  1 O       -0.5870     0.0440    -0.6570 O.2   1 <1>  -0.5700 
  2 C       -1.5680     0.7440    -0.8280 C.2   1 <1>   0.5440 
  3 N       -2.7800     0.1380    -1.0860 N.am  1 <1>  -0.6600 
  4 C       -1.4350     2.1860    -0.7410 C.ar  1 <1>   0.0860 
  5 C       -4.1030     0.7610    -0.7760 C.3   1 <1>   0.1400 
  6 C       -2.8820    -1.3130    -1.4370 C.3   1 <1>   0.1400 
  7 C       -0.7390     2.7730     0.3210 C.ar  1 <1>  -0.1500 
  8 C       -1.9880     3.0310    -1.7130 C.ar  1 <1>  -0.1500 
  9 C       -4.8710    -0.0670     0.2750 C.3   1 <1>   0.1900 
 10 C       -3.6850    -2.0820    -0.3770 C.3   1 <1>   0.1100 
 11 C       -0.6280     4.1460     0.4010 C.ar  1 <1>  -0.1440 
 12 C       -1.8750     4.4090    -1.6290 C.ar  1 <1>  -0.1500 
 13 N       -5.0200    -1.4770    -0.1650 N.3   1 <1>  -0.8100 
 14 C       -6.2510     0.5620     0.5500 C.3   1 <1>   0.1200 
 15 C       -1.1900     4.9470    -0.5570 C.ar  1 <1>   0.0820 
 16 C        0.0500     5.0190     1.4150 C.3   1 <1>  -0.0170 
 17 C       -5.8160    -2.2350     0.8300 C.3   1 <1>   0.3330 
 18 O       -6.9500    -0.1860     1.5040 O.3   1 <1>  -0.5600 
 19 O       -0.9900     6.2510    -0.3310 O.3   1 <1>  -0.3630 
 20 C       -0.2160     6.4260     0.8480 C.3   1 <1>   0.1200 
 21 C       -6.0980    -3.6550     0.3420 C.ar  1 <1>  -0.1430 
 22 C       -7.1530    -1.5200     1.1180 C.3   1 <1>   0.1200 
 23 C       -6.5600    -3.8880    -0.9460 C.ar  1 <1>  -0.1500 
 24 C       -5.9000    -4.7350     1.1910 C.ar  1 <1>  -0.1500 
 25 C       -6.8200    -5.1760    -1.3800 C.ar  1 <1>  -0.1500 
 26 C       -6.1600    -6.0240     0.7600 C.ar  1 <1>  -0.1500 
 27 C       -6.6200    -6.2460    -0.5260 C.ar  1 <1>  -0.1500 
 28 H       -3.9710     1.7580    -0.3980 H     1 <1>   0.0800 
 29 H       -4.6850     0.8160    -1.6790 H     1 <1>   0.0800 
 30 H       -3.3750    -1.4090    -2.3880 H     1 <1>   0.0800 
 31 H       -1.9040    -1.7510    -1.5300 H     1 <1>   0.0800 
 32 H       -0.2900     2.1420     1.0690 H     1 <1>   0.1500 
 33 H       -2.5080     2.5920    -2.5460 H     1 <1>   0.1500 
 34 H       -4.3080    -0.0370     1.1920 H     1 <1>   0.0800 
 35 H       -3.1300    -2.0910     0.5460 H     1 <1>   0.0800 
 36 H       -3.7930    -3.1000    -0.7100 H     1 <1>   0.0800 
 37 H       -2.3000     5.0600    -2.3720 H     1 <1>   0.1500 
 38 H       -6.8370     0.6040    -0.3510 H     1 <1>   0.0800 
 39 H       -6.1370     1.5580     0.9400 H     1 <1>   0.0800 
 40 H        1.1050     4.8150     1.4650 H     1 <1>   0.0800 
 41 H       -0.3930     4.9050     2.3880 H     1 <1>   0.0800 
 42 H       -5.2640    -2.2850     1.7530 H     1 <1>   0.0800 
 43 H        0.6990     6.9210     0.5760 H     1 <1>   0.0800 
 44 H       -0.7800     7.0320     1.5340 H     1 <1>   0.0800 
 45 H       -7.6700    -2.0190     1.9180 H     1 <1>   0.0800 
 46 H       -7.7790    -1.5330     0.2440 H     1 <1>   0.0800 
 47 H       -6.7100    -3.0580    -1.6160 H     1 <1>   0.1500 
 48 H       -5.5430    -4.5790     2.1940 H     1 <1>   0.1500 
 49 H       -7.1770    -5.3440    -2.3810 H     1 <1>   0.1500 
 50 H       -6.0030    -6.8560     1.4250 H     1 <1>   0.1500 
 51 H       -6.8230    -7.2480    -0.8610 H     1 <1>   0.1500 
@<TRIPOS>BOND
  1   1   2  2   
  2   2   3  am  
  3   2   4  1   
  4   3   5  1   
  5   3   6  1   
  6   4   7  ar  
  7   4   8  ar  
  8   5   9  1   
  9   5  28  1   
 10   5  29  1   
 11   6  10  1   
 12   6  30  1   
 13   6  31  1   
 14   7  11  ar  
 15   7  32  1   
 16   8  12  ar  
 17   8  33  1   
 18   9  13  1   
 19   9  14  1   
 20   9  34  1   
 21  10  13  1   
 22  10  35  1   
 23  10  36  1   
 24  11  15  ar  
 25  11  16  1   
 26  12  15  ar  
 27  12  37  1   
 28  13  17  1   
 29  14  18  1   
 30  14  38  1   
 31  14  39  1   
 32  15  19  1   
 33  16  20  1   
 34  16  40  1   
 35  16  41  1   
 36  17  21  1   
 37  17  22  1   
 38  17  42  1   
 39  18  22  1   
 40  19  20  1   
 41  20  43  1   
 42  20  44  1   
 43  21  23  ar  
 44  21  24  ar  
 45  22  45  1   
 46  22  46  1   
 47  23  25  ar  
 48  23  47  1   
 49  24  26  ar  
 50  24  48  1   
 51  25  27  ar  
 52  25  49  1   
 53  26  27  ar  
 54  26  50  1   
 55  27  51  1   
@<TRIPOS>SUBSTRUCTURE
  1 ****   5 GROUP 4 **** **** 0

# MOE 2024.06 (io_trps.svl 2023.06)
