@<TRIPOS>MOLECULE
NONAME
49 51 1 0 0 
SMALL
USER_CHARGES


@<TRIPOS>ATOM
  1 O       -2.6930     0.8030    -2.2620 O.2   1 <1>  -0.5700 
  2 C       -2.4520     1.1050    -1.1070 C.2   1 <1>   0.5440 
  3 N       -2.9470     0.2970    -0.1030 N.am  1 <1>  -0.6600 
  4 C       -1.7080     2.3080    -0.8360 C.ar  1 <1>   0.0860 
  5 C       -3.7230    -0.9420    -0.4140 C.3   1 <1>   0.1400 
  6 C       -3.0030     0.7110     1.3290 C.3   1 <1>   0.1400 
  7 C       -0.4470     2.2760    -0.2100 C.ar  1 <1>   0.4100 
  8 C       -2.2250     3.5440    -1.1980 C.ar  1 <1>  -0.1500 
  9 C       -5.2350    -0.6730    -0.4950 C.3   1 <1>   0.1400 
 10 C       -4.1400     1.7110     1.5840 C.3   1 <1>  -0.1600 
 11 N        0.2550     3.3680     0.0840 N.ar  1 <1>  -0.6200 
 12 N        0.1390     1.0760     0.1380 N.pl3 1 <1>  -0.8690 
 13 C       -1.4900     4.6690    -0.9030 C.ar  1 <1>  -0.1500 
 14 N       -5.7610     0.0130     0.7320 N.am  1 <1>  -0.6600 
 15 C       -5.4290     1.4630     0.7910 C.3   1 <1>   0.1400 
 16 C       -0.2720     4.5240    -0.2650 C.ar  1 <1>   0.1600 
 17 C        1.5530     0.9320     0.5700 C.3   1 <1>   0.1290 
 18 C       -6.5290    -0.5690     1.7110 C.2   1 <1>   0.5690 
 19 O       -6.9370     0.0680     2.6540 O.2   1 <1>  -0.5700 
 20 C       -6.8980    -2.0460     1.6660 C.3   1 <1>   0.0440 
 21 C       -7.8950    -2.3880     0.5620 C.ar  1 <1>  -0.1430 
 22 C       -8.9620    -1.5450     0.2770 C.ar  1 <1>   0.1600 
 23 C       -7.7500    -3.5460    -0.1760 C.ar  1 <1>  -0.1500 
 24 N       -9.8630    -1.7570    -0.6700 N.ar  1 <1>  -0.6200 
 25 C       -8.6810    -3.7820    -1.1640 C.ar  1 <1>  -0.1500 
 26 C       -9.7010    -2.8690    -1.3670 C.ar  1 <1>   0.1600 
 27 H       -3.5310    -1.6850     0.3380 H     1 <1>   0.0800 
 28 H       -3.3930    -1.3490    -1.3550 H     1 <1>   0.0800 
 29 H       -2.0660     1.1410     1.6360 H     1 <1>   0.0800 
 30 H       -3.1660    -0.1610     1.9390 H     1 <1>   0.0800 
 31 H       -3.1760     3.6070    -1.6990 H     1 <1>   0.1500 
 32 H       -5.7420    -1.6040    -0.6600 H     1 <1>   0.0800 
 33 H       -5.4300    -0.0590    -1.3570 H     1 <1>   0.0800 
 34 H       -3.7900     2.7030     1.3640 H     1 <1>   0.0800 
 35 H       -4.3750     1.6940     2.6330 H     1 <1>   0.0800 
 36 H       -0.3010     0.2250    -0.2290 H     1 <1>   0.4000 
 37 H       -1.8520     5.6470    -1.1630 H     1 <1>   0.1500 
 38 H       -5.3110     1.8410    -0.2100 H     1 <1>   0.0800 
 39 H       -6.2420     2.0060     1.2450 H     1 <1>   0.0800 
 40 H        0.2980     5.4090    -0.0330 H     1 <1>   0.1500 
 41 H        1.7850     1.6640     1.3240 H     1 <1>   0.0800 
 42 H        2.2060     1.0800    -0.2730 H     1 <1>   0.0800 
 43 H        1.7140    -0.0500     0.9780 H     1 <1>   0.0800 
 44 H       -7.3300    -2.3190     2.6120 H     1 <1>   0.0800 
 45 H       -5.9970    -2.6170     1.5490 H     1 <1>   0.0800 
 46 H       -9.0860    -0.6450     0.8580 H     1 <1>   0.1500 
 47 H       -6.9490    -4.2420     0.0040 H     1 <1>   0.1500 
 48 H       -8.6220    -4.6660    -1.7730 H     1 <1>   0.1500 
 49 H      -10.4220    -3.0630    -2.1430 H     1 <1>   0.1500 
@<TRIPOS>BOND
  1   1   2  2   
  2   2   3  am  
  3   2   4  1   
  4   3   5  1   
  5   3   6  1   
  6   4   7  ar  
  7   4   8  ar  
  8   5   9  1   
  9   5  27  1   
 10   5  28  1   
 11   6  10  1   
 12   6  29  1   
 13   6  30  1   
 14   7  11  ar  
 15   7  12  1   
 16   8  13  ar  
 17   8  31  1   
 18   9  14  1   
 19   9  32  1   
 20   9  33  1   
 21  10  15  1   
 22  10  34  1   
 23  10  35  1   
 24  11  16  ar  
 25  12  17  1   
 26  12  36  1   
 27  13  16  ar  
 28  13  37  1   
 29  14  15  1   
 30  14  18  am  
 31  15  38  1   
 32  15  39  1   
 33  16  40  1   
 34  17  41  1   
 35  17  42  1   
 36  17  43  1   
 37  18  19  2   
 38  18  20  1   
 39  20  21  1   
 40  20  44  1   
 41  20  45  1   
 42  21  22  ar  
 43  21  23  ar  
 44  22  24  ar  
 45  22  46  1   
 46  23  25  ar  
 47  23  47  1   
 48  24  26  ar  
 49  25  26  ar  
 50  25  48  1   
 51  26  49  1   
@<TRIPOS>SUBSTRUCTURE
  1 ****   3 GROUP 4 **** **** 0

# MOE 2024.06 (io_trps.svl 2023.06)
