@<TRIPOS>MOLECULE
NONAME
48 50 1 0 0 
SMALL
USER_CHARGES


@<TRIPOS>ATOM
  1 O       -0.6140     2.9400     2.0440 O.co2 1 <1>  -0.9000 
  2 C       -0.7330     2.9030     0.8190 C.2   1 <1>   0.9060 
  3 O       -1.7330     3.3490     0.2460 O.co2 1 <1>  -0.9000 
  4 C        0.5020     2.5570     0.0270 C.3   1 <1>  -0.1860 
  5 C        0.4060     2.5790    -1.5150 C.3   1 <1>   0.2000 
  6 C        1.5400     3.5700     0.4920 C.3   1 <1>   0.3430 
  7 O       -0.8670     2.2470    -1.9070 O.3   1 <1>  -0.6800 
  8 C        0.7520     3.9400    -2.1360 C.3   1 <1>  -0.1600 
  9 N        1.1800     4.9690     0.0780 N.4   1 <1>  -0.9590 
 10 C        0.3800     5.0710    -1.1850 C.3   1 <1>   0.3430 
 11 C        0.4370     5.6480     1.1810 C.3   1 <1>   0.4860 
 12 C        0.3850     7.1370     0.8880 C.ar  1 <1>  -0.1430 
 13 C        1.5540     7.8700     0.7020 C.ar  1 <1>   0.0820 
 14 C       -0.8470     7.7670     0.7990 C.ar  1 <1>  -0.1500 
 15 O        2.7320     7.1950     0.7800 O.3   1 <1>  -0.3620 
 16 C        1.4740     9.2340     0.4360 C.ar  1 <1>  -0.1500 
 17 C       -0.9200     9.1220     0.5300 C.ar  1 <1>  -0.1500 
 18 C        3.9660     7.7410     0.3580 C.3   1 <1>   0.2000 
 19 C        0.2400     9.8540     0.3500 C.ar  1 <1>  -0.1500 
 20 C        4.0190     7.7530    -1.1700 C.3   1 <1>  -0.1600 
 21 C        5.0530     6.7430     0.7370 C.3   1 <1>  -0.1600 
 22 C        4.3810     6.3220    -1.5840 C.3   1 <1>  -0.1600 
 23 C        5.0250     5.6670    -0.3540 C.3   1 <1>  -0.1600 
 24 H        0.8080     1.5780     0.3390 H     1 <1>   0.0800 
 25 H        1.0590     1.8320    -1.9360 H     1 <1>   0.0800 
 26 H        2.4910     3.3060     0.0610 H     1 <1>   0.0800 
 27 H        1.6350     3.5160     1.5660 H     1 <1>   0.0800 
 28 H       -1.4980     2.6340    -1.2260 H     1 <1>   0.4000 
 29 H        1.8050     3.9890    -2.3400 H     1 <1>   0.0800 
 30 H        0.2360     4.0590    -3.0720 H     1 <1>   0.0800 
 31 H        2.0360     5.5400    -0.0090 H     1 <1>   0.4500 
 32 H       -0.6720     4.9910    -0.9570 H     1 <1>   0.0800 
 33 H        0.5490     6.0290    -1.6500 H     1 <1>   0.0800 
 34 H       -0.5630     5.2520     1.2630 H     1 <1>   0.0800 
 35 H        0.9390     5.4850     2.1200 H     1 <1>   0.0800 
 36 H       -1.7570     7.2050     0.9400 H     1 <1>   0.1500 
 37 H        2.3540     9.8320     0.2930 H     1 <1>   0.1500 
 38 H       -1.8790     9.6060     0.4630 H     1 <1>   0.1500 
 39 H        4.1180     8.7010     0.8200 H     1 <1>   0.0800 
 40 H        0.1790    10.9090     0.1440 H     1 <1>   0.1500 
 41 H        3.1040     8.0940    -1.6190 H     1 <1>   0.0800 
 42 H        4.8130     8.4120    -1.4750 H     1 <1>   0.0800 
 43 H        6.0040     7.2460     0.7070 H     1 <1>   0.0800 
 44 H        4.9090     6.3410     1.7250 H     1 <1>   0.0800 
 45 H        3.4940     5.7830    -1.8640 H     1 <1>   0.0800 
 46 H        5.0590     6.3300    -2.4210 H     1 <1>   0.0800 
 47 H        6.0210     5.3170    -0.5710 H     1 <1>   0.0800 
 48 H        4.4290     4.8330    -0.0300 H     1 <1>   0.0800 
@<TRIPOS>BOND
  1   1   2  ar  
  2   2   3  ar  
  3   2   4  1   
  4   4   5  1   
  5   4   6  1   
  6   4  24  1   
  7   5   7  1   
  8   5   8  1   
  9   5  25  1   
 10   6   9  1   
 11   6  26  1   
 12   6  27  1   
 13   7  28  1   
 14   8  10  1   
 15   8  29  1   
 16   8  30  1   
 17   9  10  1   
 18   9  11  1   
 19   9  31  1   
 20  10  32  1   
 21  10  33  1   
 22  11  12  1   
 23  11  34  1   
 24  11  35  1   
 25  12  13  ar  
 26  12  14  ar  
 27  13  15  1   
 28  13  16  ar  
 29  14  17  ar  
 30  14  36  1   
 31  15  18  1   
 32  16  19  ar  
 33  16  37  1   
 34  17  19  ar  
 35  17  38  1   
 36  18  20  1   
 37  18  21  1   
 38  18  39  1   
 39  19  40  1   
 40  20  22  1   
 41  20  41  1   
 42  20  42  1   
 43  21  23  1   
 44  21  43  1   
 45  21  44  1   
 46  22  23  1   
 47  22  45  1   
 48  22  46  1   
 49  23  47  1   
 50  23  48  1   
@<TRIPOS>SUBSTRUCTURE
  1 ****   9 GROUP 4 **** **** 0

# MOE 2024.06 (io_trps.svl 2023.06)
