@<TRIPOS>MOLECULE
NONAME
55 59 1 0 0 
SMALL
USER_CHARGES


@<TRIPOS>ATOM
  1 O        0.6850     0.0040     1.0890 O.3   1 <1>  -0.5600 
  2 C        0.6540    -1.3490     0.7260 C.3   1 <1>   0.1200 
  3 C        1.4260     0.7930     0.2130 C.3   1 <1>   0.1200 
  4 C        2.0790    -1.9460     0.6570 C.3   1 <1>   0.2850 
  5 C        2.8860     0.3040     0.1920 C.3   1 <1>   0.1900 
  6 N        2.9580    -1.1220    -0.2170 N.3   1 <1>  -0.8100 
  7 C        1.9940    -3.3850     0.1260 C.3   1 <1>  -0.1950 
  8 C        3.7250     1.1850    -0.7560 C.3   1 <1>   0.3430 
  9 C        4.3570    -1.5980    -0.2500 C.3   1 <1>   0.1100 
 10 C        1.4720    -4.4860     0.9990 C.3   1 <1>  -0.2000 
 11 C        2.9160    -4.4720     0.5930 C.3   1 <1>  -0.2000 
 12 N        5.1590     0.7220    -0.8400 N.4   1 <1>  -0.9590 
 13 C        5.2250    -0.7380    -1.1910 C.3   1 <1>   0.3430 
 14 C        5.9550     1.5560    -1.7820 C.3   1 <1>   0.4860 
 15 C        5.9160     2.9980    -1.3100 C.ar  1 <1>  -0.1440 
 16 C        6.6860     3.4160    -0.2330 C.ar  1 <1>  -0.1500 
 17 C        5.0940     3.9090    -1.9570 C.ar  1 <1>  -0.1500 
 18 C        6.6270     4.7300     0.2080 C.ar  1 <1>  -0.1440 
 19 C        5.0290     5.2190    -1.5200 C.ar  1 <1>  -0.1500 
 20 C        5.7900     5.6250    -0.4390 C.ar  1 <1>  -0.1500 
 21 C        7.4670     5.2090     1.3910 C.3   1 <1>   0.2390 
 22 N        8.3230     6.3570     1.0210 N.pl3 1 <1>   0.3140 
 23 N        8.2160     7.5480     1.6410 N.2   1 <1>  -0.7070 
 24 C        9.2860     6.3850     0.0770 C.2   1 <1>  -0.3020 
 25 C        9.1100     8.3010     1.0750 C.2   1 <1>   0.1390 
 26 C        9.8140     7.6270     0.0850 C.2   1 <1>  -0.1500 
 27 H        0.0700    -1.8730     1.4620 H     1 <1>   0.0800 
 28 H        0.1620    -1.4390    -0.2270 H     1 <1>   0.0800 
 29 H        0.9800     0.7350    -0.7650 H     1 <1>   0.0800 
 30 H        1.3670     1.8070     0.5670 H     1 <1>   0.0800 
 31 H        2.4770    -1.9640     1.6580 H     1 <1>   0.0800 
 32 H        3.2760     0.4130     1.1900 H     1 <1>   0.0800 
 33 H        1.6710    -3.4100    -0.9010 H     1 <1>   0.1000 
 34 H        3.6890     2.2050    -0.4060 H     1 <1>   0.0800 
 35 H        3.2750     1.1530    -1.7340 H     1 <1>   0.0800 
 36 H        4.7730    -1.5960     0.7430 H     1 <1>   0.0800 
 37 H        4.3850    -2.6090    -0.6170 H     1 <1>   0.0800 
 38 H        1.2320    -4.2840     2.0290 H     1 <1>   0.1000 
 39 H        0.8230    -5.2270     0.5650 H     1 <1>   0.1000 
 40 H        3.2530    -5.2090    -0.1160 H     1 <1>   0.1000 
 41 H        3.6490    -4.2670     1.3540 H     1 <1>   0.1000 
 42 H        5.5630     0.8500     0.0950 H     1 <1>   0.4500 
 43 H        4.8700    -0.8850    -2.1980 H     1 <1>   0.0800 
 44 H        6.2450    -1.0840    -1.1440 H     1 <1>   0.0800 
 45 H        6.9770     1.2160    -1.8090 H     1 <1>   0.0800 
 46 H        5.5460     1.4860    -2.7770 H     1 <1>   0.0800 
 47 H        7.3410     2.7230     0.2680 H     1 <1>   0.1500 
 48 H        4.4980     3.6190    -2.8070 H     1 <1>   0.1500 
 49 H        4.3930     5.9300    -2.0200 H     1 <1>   0.1500 
 50 H        5.7340     6.6510    -0.1080 H     1 <1>   0.1500 
 51 H        8.1030     4.4240     1.7530 H     1 <1>   0.0800 
 52 H        6.8200     5.5180     2.1910 H     1 <1>   0.0800 
 53 H        9.5350     5.5400    -0.5380 H     1 <1>   0.1500 
 54 H        9.2780     9.3290     1.3490 H     1 <1>   0.1500 
 55 H       10.6010     8.0350    -0.5240 H     1 <1>   0.1500 
@<TRIPOS>BOND
  1   1   2  1   
  2   1   3  1   
  3   2   4  1   
  4   2  27  1   
  5   2  28  1   
  6   3   5  1   
  7   3  29  1   
  8   3  30  1   
  9   4   6  1   
 10   4   7  1   
 11   4  31  1   
 12   5   6  1   
 13   5   8  1   
 14   5  32  1   
 15   6   9  1   
 16   7  10  1   
 17   7  11  1   
 18   7  33  1   
 19   8  12  1   
 20   8  34  1   
 21   8  35  1   
 22   9  13  1   
 23   9  36  1   
 24   9  37  1   
 25  10  11  1   
 26  10  38  1   
 27  10  39  1   
 28  11  40  1   
 29  11  41  1   
 30  12  13  1   
 31  12  14  1   
 32  12  42  1   
 33  13  43  1   
 34  13  44  1   
 35  14  15  1   
 36  14  45  1   
 37  14  46  1   
 38  15  16  ar  
 39  15  17  ar  
 40  16  18  ar  
 41  16  47  1   
 42  17  19  ar  
 43  17  48  1   
 44  18  20  ar  
 45  18  21  1   
 46  19  20  ar  
 47  19  49  1   
 48  20  50  1   
 49  21  22  1   
 50  21  51  1   
 51  21  52  1   
 52  22  23  1   
 53  22  24  1   
 54  23  25  2   
 55  24  26  2   
 56  24  53  1   
 57  25  26  1   
 58  25  54  1   
 59  26  55  1   
@<TRIPOS>SUBSTRUCTURE
  1 ****  12 GROUP 4 **** **** 0

# MOE 2024.06 (io_trps.svl 2023.06)
