@<TRIPOS>MOLECULE
NONAME
45 47 1 0 0 
SMALL
USER_CHARGES


@<TRIPOS>ATOM
  1 O        1.6010     4.0520    -1.6190 O.3   1 <1>  -0.0190 
  2 N        2.8130     4.2570    -2.0320 N.2   1 <1>  -0.4100 
  3 C        1.5050     2.9570    -0.9170 C.2   1 <1>  -0.0400 
  4 C        3.5020     3.2430    -1.6460 C.2   1 <1>   0.1080 
  5 C        2.7100     2.3660    -0.9100 C.2   1 <1>  -0.1500 
  6 C        0.1880     2.5900    -0.2550 C.3   1 <1>   0.0200 
  7 C        4.9710     3.0440    -1.9500 C.3   1 <1>  -0.0590 
  8 C       -0.2830     3.6270     0.7950 C.3   1 <1>  -0.0800 
  9 C       -0.8650     4.9000     0.1630 C.3   1 <1>   0.2000 
 10 C        0.8620     4.1480     1.6710 C.3   1 <1>   0.3430 
 11 O       -1.9720     5.2990     0.9010 O.3   1 <1>  -0.6800 
 12 C        0.2270     5.9790     0.2550 C.3   1 <1>   0.3430 
 13 N        1.3840     5.3430     0.9600 N.4   1 <1>  -0.9590 
 14 C        2.1980     6.2840     1.7730 C.3   1 <1>   0.4860 
 15 C        2.6610     7.4180     0.8800 C.ar  1 <1>  -0.1440 
 16 C        3.5070     7.1720    -0.1910 C.ar  1 <1>  -0.1500 
 17 C        2.2320     8.7140     1.1240 C.ar  1 <1>  -0.1500 
 18 C        3.9260     8.1900    -1.0410 C.ar  1 <1>   0.0280 
 19 C        2.6420     9.7420     0.2950 C.ar  1 <1>  -0.1500 
 20 C        3.4770     9.4800    -0.7750 C.ar  1 <1>  -0.1500 
 21 C        4.7910     7.8890    -2.1610 C.2   1 <1>  -0.1780 
 22 C        5.5490     8.7400    -2.8700 C.2   1 <1>  -0.3000 
 23 H        3.0330     1.4460    -0.4560 H     1 <1>   0.1500 
 24 H       -0.5670     2.4590    -1.0110 H     1 <1>   0.0800 
 25 H        0.3150     1.6380     0.2310 H     1 <1>   0.0800 
 26 H        5.5320     2.9600    -1.0370 H     1 <1>   0.0800 
 27 H        5.3490     3.8780    -2.5150 H     1 <1>   0.0800 
 28 H        5.1050     2.1490    -2.5290 H     1 <1>   0.0800 
 29 H       -1.0240     3.1410     1.4070 H     1 <1>   0.0800 
 30 H       -1.1890     4.7570    -0.8550 H     1 <1>   0.0800 
 31 H        1.6280     3.4030     1.8100 H     1 <1>   0.0800 
 32 H        0.4710     4.4410     2.6320 H     1 <1>   0.0800 
 33 H       -1.8070     5.3440     1.8630 H     1 <1>   0.4000 
 34 H       -0.1440     6.8290     0.8030 H     1 <1>   0.0800 
 35 H        0.5280     6.2970    -0.7310 H     1 <1>   0.0800 
 36 H        1.9970     5.0090     0.1930 H     1 <1>   0.4500 
 37 H        1.6110     6.6770     2.5860 H     1 <1>   0.0800 
 38 H        3.0560     5.7760     2.1810 H     1 <1>   0.0800 
 39 H        3.8620     6.1760    -0.3880 H     1 <1>   0.1500 
 40 H        1.5810     8.9420     1.9510 H     1 <1>   0.1500 
 41 H        2.3120    10.7500     0.4800 H     1 <1>   0.1500 
 42 H        3.7790    10.2890    -1.4140 H     1 <1>   0.1500 
 43 H        4.8010     6.8460    -2.4290 H     1 <1>   0.1500 
 44 H        6.1670     8.4380    -3.6980 H     1 <1>   0.1500 
 45 H        5.6190     9.7970    -2.6860 H     1 <1>   0.1500 
@<TRIPOS>BOND
  1   1   2  1   
  2   1   3  1   
  3   2   4  2   
  4   3   5  2   
  5   3   6  1   
  6   4   5  1   
  7   4   7  1   
  8   5  23  1   
  9   6   8  1   
 10   6  24  1   
 11   6  25  1   
 12   7  26  1   
 13   7  27  1   
 14   7  28  1   
 15   8   9  1   
 16   8  10  1   
 17   8  29  1   
 18   9  11  1   
 19   9  12  1   
 20   9  30  1   
 21  10  13  1   
 22  10  31  1   
 23  10  32  1   
 24  11  33  1   
 25  12  13  1   
 26  12  34  1   
 27  12  35  1   
 28  13  14  1   
 29  13  36  1   
 30  14  15  1   
 31  14  37  1   
 32  14  38  1   
 33  15  16  ar  
 34  15  17  ar  
 35  16  18  ar  
 36  16  39  1   
 37  17  19  ar  
 38  17  40  1   
 39  18  20  ar  
 40  18  21  1   
 41  19  20  ar  
 42  19  41  1   
 43  20  42  1   
 44  21  22  2   
 45  21  43  1   
 46  22  44  1   
 47  22  45  1   
@<TRIPOS>SUBSTRUCTURE
  1 ****  13 GROUP 4 **** **** 0

# MOE 2024.06 (io_trps.svl 2023.06)
