@<TRIPOS>MOLECULE
NONAME
48 49 1 0 0 
SMALL
USER_CHARGES


@<TRIPOS>ATOM
  1 O        1.6810    -0.8130     1.1460 O.co2 1 <1>  -0.9000 
  2 C        1.8190    -0.3770    -0.0020 C.2   1 <1>   0.9060 
  3 O        1.5880    -1.0850    -0.9960 O.co2 1 <1>  -0.9000 
  4 C        2.3880     1.0240    -0.2470 C.3   1 <1>  -0.1060 
  5 C        3.7780     0.7300    -0.8610 C.3   1 <1>   0.2000 
  6 C        2.5660     1.8660     1.0580 C.3   1 <1>  -0.1600 
  7 C        1.4630     1.8120    -1.2230 C.3   1 <1>  -0.0160 
  8 O        3.6510     0.3810    -2.1960 O.3   1 <1>  -0.6800 
  9 C        4.7680     1.8870    -0.6920 C.3   1 <1>   0.1400 
 10 C        3.9430     1.6930     1.7040 C.3   1 <1>   0.1400 
 11 C        0.1590     2.3140    -0.6040 C.ar  1 <1>  -0.1440 
 12 N        5.0130     2.1790     0.7650 N.am  1 <1>  -0.6600 
 13 C       -0.8550     1.4230    -0.2890 C.ar  1 <1>  -0.1500 
 14 C       -0.0310     3.6660    -0.3600 C.ar  1 <1>  -0.1500 
 15 C        6.1230     2.8490     1.2480 C.2   1 <1>   0.5690 
 16 C       -2.0400     1.8740     0.2660 C.ar  1 <1>  -0.1500 
 17 C       -1.2160     4.1210     0.1940 C.ar  1 <1>  -0.1500 
 18 O        6.2600     2.9860     2.4480 O.2   1 <1>  -0.5700 
 19 C        7.2710     3.4070     0.3290 C.3   1 <1>   0.3410 
 20 C       -2.2220     3.2240     0.5080 C.ar  1 <1>  -0.1500 
 21 O        6.7340     3.9310    -0.8750 O.3   1 <1>  -0.5600 
 22 C        8.0160     4.5710     1.0180 C.3   1 <1>  -0.2400 
 23 C        8.2710     2.2720     0.0300 C.3   1 <1>  -0.2400 
 24 C        7.5620     4.2330    -1.9610 C.3   1 <1>   0.0400 
 25 H        4.2070    -0.1280    -0.3690 H     1 <1>   0.0800 
 26 H        1.8000     1.6050     1.7680 H     1 <1>   0.0800 
 27 H        2.4500     2.9140     0.8490 H     1 <1>   0.0800 
 28 H        2.0070     2.6520    -1.6140 H     1 <1>   0.0800 
 29 H        1.2080     1.1950    -2.0680 H     1 <1>   0.0800 
 30 H        2.9430    -0.3180    -2.2140 H     1 <1>   0.4000 
 31 H        4.3730     2.7690    -1.1620 H     1 <1>   0.0800 
 32 H        5.6890     1.6180    -1.1720 H     1 <1>   0.0800 
 33 H        4.1080     0.6540     1.9360 H     1 <1>   0.0800 
 34 H        3.9720     2.2500     2.6240 H     1 <1>   0.0800 
 35 H       -0.7210     0.3680    -0.4720 H     1 <1>   0.1500 
 36 H        0.7460     4.3690    -0.5990 H     1 <1>   0.1500 
 37 H       -2.8130     1.1680     0.5100 H     1 <1>   0.1500 
 38 H       -1.3520     5.1710     0.3810 H     1 <1>   0.1500 
 39 H       -3.1430     3.5730     0.9400 H     1 <1>   0.1500 
 40 H        8.4100     4.2460     1.9640 H     1 <1>   0.0800 
 41 H        7.3300     5.3770     1.2030 H     1 <1>   0.0800 
 42 H        8.8410     4.9260     0.4320 H     1 <1>   0.0800 
 43 H        8.5880     1.8310     0.9580 H     1 <1>   0.0800 
 44 H        9.1470     2.6360    -0.4730 H     1 <1>   0.0800 
 45 H        7.8070     1.5020    -0.5570 H     1 <1>   0.0800 
 46 H        6.9530     4.7000    -2.7160 H     1 <1>   0.0800 
 47 H        7.9780     3.3250    -2.3610 H     1 <1>   0.0800 
 48 H        8.3370     4.9130    -1.6620 H     1 <1>   0.0800 
@<TRIPOS>BOND
  1   1   2  ar  
  2   2   3  ar  
  3   2   4  1   
  4   4   5  1   
  5   4   6  1   
  6   4   7  1   
  7   5   8  1   
  8   5   9  1   
  9   5  25  1   
 10   6  10  1   
 11   6  26  1   
 12   6  27  1   
 13   7  11  1   
 14   7  28  1   
 15   7  29  1   
 16   8  30  1   
 17   9  12  1   
 18   9  31  1   
 19   9  32  1   
 20  10  12  1   
 21  10  33  1   
 22  10  34  1   
 23  11  13  ar  
 24  11  14  ar  
 25  12  15  am  
 26  13  16  ar  
 27  13  35  1   
 28  14  17  ar  
 29  14  36  1   
 30  15  18  2   
 31  15  19  1   
 32  16  20  ar  
 33  16  37  1   
 34  17  20  ar  
 35  17  38  1   
 36  19  21  1   
 37  19  22  1   
 38  19  23  1   
 39  20  39  1   
 40  21  24  1   
 41  22  40  1   
 42  22  41  1   
 43  22  42  1   
 44  23  43  1   
 45  23  44  1   
 46  23  45  1   
 47  24  46  1   
 48  24  47  1   
 49  24  48  1   
@<TRIPOS>SUBSTRUCTURE
  1 ****   6 GROUP 4 **** **** 0

# MOE 2024.06 (io_trps.svl 2023.06)
