@<TRIPOS>MOLECULE
NONAME
46 49 1 0 0 
SMALL
USER_CHARGES


@<TRIPOS>ATOM
  1 O       -0.8000     0.0710     2.4330 O.2   1 <1>  -0.5700 
  2 C       -1.2840     0.7270     1.5290 C.2   1 <1>   0.5440 
  3 N       -1.9640     0.0670     0.5310 N.am  1 <1>  -0.6600 
  4 C       -1.1780     2.1670     1.5650 C.ar  1 <1>   0.0860 
  5 C       -2.7690     0.7100    -0.5390 C.3   1 <1>   0.1400 
  6 C       -2.1410    -1.4040     0.5100 C.3   1 <1>   0.1400 
  7 C       -0.5610     2.8990     0.5450 C.ar  1 <1>   0.1400 
  8 C       -1.6820     2.9030     2.6330 C.ar  1 <1>  -0.1500 
  9 C       -3.3650    -0.4500    -1.3350 C.3   1 <1>   0.2000 
 10 C       -3.3560    -1.6460    -0.3860 C.3   1 <1>  -0.0800 
 11 O        0.0150     2.4310    -0.5640 O.3   1 <1>  -0.2800 
 12 C       -0.4720     4.2810     0.5720 C.ar  1 <1>   0.0000 
 13 C       -1.5980     4.2950     2.6750 C.ar  1 <1>  -0.1500 
 14 O       -4.6590    -0.1760    -1.7470 O.3   1 <1>  -0.6800 
 15 C       -3.3240    -2.9970    -1.1150 C.3   1 <1>   0.0210 
 16 C        0.4680     3.4710    -1.2530 C.2   1 <1>  -0.0400 
 17 C       -0.9970     4.9920     1.6470 C.ar  1 <1>  -0.1500 
 18 C        0.2020     4.6260    -0.6170 C.2   1 <1>  -0.1500 
 19 C       -3.2400    -4.1440    -0.1280 C.2   1 <1>   0.1080 
 20 C        1.1710     3.2010    -2.5650 C.3   1 <1>  -0.0600 
 21 N       -4.1960    -4.4280     0.7010 N.2   1 <1>  -0.7070 
 22 C       -2.1520    -4.9990     0.0110 C.2   1 <1>  -0.1500 
 23 N       -3.7380    -5.4840     1.3990 N.pl3 1 <1>   0.3000 
 24 C       -2.5010    -5.8480     1.0000 C.2   1 <1>  -0.3320 
 25 C       -1.7170    -7.0010     1.5990 C.3   1 <1>  -0.0600 
 26 H       -3.5410     1.3110    -0.0920 H     1 <1>   0.0800 
 27 H       -2.1460     1.3140    -1.1740 H     1 <1>   0.0800 
 28 H       -1.2550    -1.8540     0.0960 H     1 <1>   0.0800 
 29 H       -2.3050    -1.7910     1.5030 H     1 <1>   0.0800 
 30 H       -2.1470     2.3770     3.4490 H     1 <1>   0.1500 
 31 H       -2.7620    -0.6350    -2.2080 H     1 <1>   0.0800 
 32 H       -4.2240    -1.6110     0.2490 H     1 <1>   0.0800 
 33 H       -2.0050     4.8240     3.5200 H     1 <1>   0.1500 
 34 H       -5.2600    -0.1620    -0.9770 H     1 <1>   0.4000 
 35 H       -2.4830    -3.0380    -1.7830 H     1 <1>   0.0800 
 36 H       -4.2210    -3.1100    -1.6980 H     1 <1>   0.0800 
 37 H       -0.9250     6.0650     1.6660 H     1 <1>   0.1500 
 38 H        0.4370     5.6330    -0.9120 H     1 <1>   0.1500 
 39 H        1.4870     4.1240    -3.0150 H     1 <1>   0.0800 
 40 H        0.5040     2.6930    -3.2370 H     1 <1>   0.0800 
 41 H        2.0320     2.5820    -2.3920 H     1 <1>   0.0800 
 42 H       -1.2400    -4.9660    -0.5580 H     1 <1>   0.1500 
 43 H       -4.2920    -5.9310     2.1390 H     1 <1>   0.2700 
 44 H       -0.7610    -7.0890     1.1140 H     1 <1>   0.0800 
 45 H       -2.2530    -7.9240     1.4690 H     1 <1>   0.0800 
 46 H       -1.5530    -6.8330     2.6490 H     1 <1>   0.0800 
@<TRIPOS>BOND
  1   1   2  2   
  2   2   3  am  
  3   2   4  1   
  4   3   5  1   
  5   3   6  1   
  6   4   7  ar  
  7   4   8  ar  
  8   5   9  1   
  9   5  26  1   
 10   5  27  1   
 11   6  10  1   
 12   6  28  1   
 13   6  29  1   
 14   7  11  1   
 15   7  12  ar  
 16   8  13  ar  
 17   8  30  1   
 18   9  10  1   
 19   9  14  1   
 20   9  31  1   
 21  10  15  1   
 22  10  32  1   
 23  11  16  1   
 24  12  17  ar  
 25  12  18  1   
 26  13  17  ar  
 27  13  33  1   
 28  14  34  1   
 29  15  19  1   
 30  15  35  1   
 31  15  36  1   
 32  16  18  2   
 33  16  20  1   
 34  17  37  1   
 35  18  38  1   
 36  19  21  2   
 37  19  22  1   
 38  20  39  1   
 39  20  40  1   
 40  20  41  1   
 41  21  23  1   
 42  22  24  2   
 43  22  42  1   
 44  23  24  1   
 45  23  43  1   
 46  24  25  1   
 47  25  44  1   
 48  25  45  1   
 49  25  46  1   
@<TRIPOS>SUBSTRUCTURE
  1 ****   3 GROUP 4 **** **** 0

# MOE 2024.06 (io_trps.svl 2023.06)
