@<TRIPOS>MOLECULE
NONAME
49 51 1 0 0 
SMALL
USER_CHARGES


@<TRIPOS>ATOM
  1 O        0.8090    -0.6190    -1.1920 O.2   1 <1>  -0.5700 
  2 C        1.3870    -0.8510    -0.1530 C.2   1 <1>   0.5690 
  3 N        2.0220     0.1380     0.5630 N.am  1 <1>  -0.4940 
  4 C        1.4460    -2.2930     0.4170 C.3   1 <1>   0.3950 
  5 C        2.1810     1.5230     0.3100 C.2   1 <1>  -0.0880 
  6 N        2.5450    -3.1300    -0.1490 N.3   1 <1>  -0.8100 
  7 C        0.1100    -3.0230     0.2730 C.ar  1 <1>  -0.1440 
  8 N        1.2950     2.3770    -0.2800 N.pl3 1 <1>   0.3140 
  9 C        3.2590     2.2720     0.6490 C.2   1 <1>  -0.1810 
 10 C        3.8700    -2.5240    -0.1090 C.3   1 <1>   0.1100 
 11 C        2.6750    -4.4450     0.4760 C.3   1 <1>   0.1100 
 12 C       -0.6960    -3.2350     1.3820 C.ar  1 <1>   0.1600 
 13 C       -0.3230    -3.4910    -0.9530 C.ar  1 <1>  -0.1500 
 14 N        1.7780     3.6380    -0.3140 N.2   1 <1>  -0.7070 
 15 C       -0.0650     2.1120    -0.7670 C.3   1 <1>   0.0160 
 16 C        2.9480     3.5650     0.2350 C.2   1 <1>   0.1080 
 17 C        4.5480     1.8360     1.3230 C.3   1 <1>  -0.0590 
 18 C        4.8170    -3.6820    -0.3840 C.3   1 <1>  -0.1600 
 19 C        4.0700    -4.9280     0.0930 C.3   1 <1>  -0.1600 
 20 N       -1.8620    -3.8610     1.3700 N.ar  1 <1>  -0.6200 
 21 C       -1.5350    -4.1440    -0.9890 C.ar  1 <1>  -0.1500 
 22 C        3.8370     4.7870     0.3840 C.3   1 <1>   0.0210 
 23 C       -2.2530    -4.3000     0.1840 C.ar  1 <1>   0.1600 
 24 C        4.7350     4.9720    -0.8430 C.3   1 <1>  -0.2400 
 25 H        2.5740    -0.1890     1.3530 H     1 <1>   0.3700 
 26 H        1.6390    -2.1920     1.4700 H     1 <1>   0.0800 
 27 H        4.0660    -2.1230     0.8710 H     1 <1>   0.0800 
 28 H        3.9670    -1.7500    -0.8520 H     1 <1>   0.0800 
 29 H        1.9130    -5.1180     0.1170 H     1 <1>   0.0800 
 30 H        2.6030    -4.3580     1.5470 H     1 <1>   0.0800 
 31 H       -0.3690    -2.8740     2.3410 H     1 <1>   0.1500 
 32 H        0.2700    -3.3450    -1.8420 H     1 <1>   0.1500 
 33 H       -0.5370     1.3850    -0.1350 H     1 <1>   0.0800 
 34 H       -0.0080     1.7400    -1.7730 H     1 <1>   0.0800 
 35 H       -0.6290     3.0250    -0.7520 H     1 <1>   0.0800 
 36 H        4.5950     0.7660     1.4050 H     1 <1>   0.0800 
 37 H        4.6080     2.2650     2.3070 H     1 <1>   0.0800 
 38 H        5.3910     2.1690     0.7460 H     1 <1>   0.0800 
 39 H        5.7570    -3.5490     0.1220 H     1 <1>   0.0800 
 40 H        4.9950    -3.7460    -1.4430 H     1 <1>   0.0800 
 41 H        4.0030    -5.6500    -0.7020 H     1 <1>   0.0800 
 42 H        4.5540    -5.3850     0.9380 H     1 <1>   0.0800 
 43 H       -1.9200    -4.5270    -1.9160 H     1 <1>   0.1500 
 44 H        4.4380     4.6930     1.2690 H     1 <1>   0.0800 
 45 H        3.2110     5.6540     0.5020 H     1 <1>   0.0800 
 46 H       -3.1990    -4.8130     0.1440 H     1 <1>   0.1500 
 47 H        5.3730     4.1160    -0.9710 H     1 <1>   0.0800 
 48 H        5.3440     5.8500    -0.7310 H     1 <1>   0.0800 
 49 H        4.1260     5.0800    -1.7230 H     1 <1>   0.0800 
@<TRIPOS>BOND
  1   1   2  2   
  2   2   3  am  
  3   2   4  1   
  4   3   5  1   
  5   3  25  1   
  6   4   6  1   
  7   4   7  1   
  8   4  26  1   
  9   5   8  1   
 10   5   9  2   
 11   6  10  1   
 12   6  11  1   
 13   7  12  ar  
 14   7  13  ar  
 15   8  14  1   
 16   8  15  1   
 17   9  16  1   
 18   9  17  1   
 19  10  18  1   
 20  10  27  1   
 21  10  28  1   
 22  11  19  1   
 23  11  29  1   
 24  11  30  1   
 25  12  20  ar  
 26  12  31  1   
 27  13  21  ar  
 28  13  32  1   
 29  14  16  2   
 30  15  33  1   
 31  15  34  1   
 32  15  35  1   
 33  16  22  1   
 34  17  36  1   
 35  17  37  1   
 36  17  38  1   
 37  18  19  1   
 38  18  39  1   
 39  18  40  1   
 40  19  41  1   
 41  19  42  1   
 42  20  23  ar  
 43  21  23  ar  
 44  21  43  1   
 45  22  24  1   
 46  22  44  1   
 47  22  45  1   
 48  23  46  1   
 49  24  47  1   
 50  24  48  1   
 51  24  49  1   
@<TRIPOS>SUBSTRUCTURE
  1 ****   2 GROUP 4 **** **** 0

# MOE 2024.06 (io_trps.svl 2023.06)
