@<TRIPOS>MOLECULE
NONAME
49 51 1 0 0 
SMALL
USER_CHARGES


@<TRIPOS>ATOM
  1 O        0.6950    -0.2180    -1.3300 O.3   1 <1>  -0.6800 
  2 C        2.0770    -0.3070    -1.2300 C.3   1 <1>   0.2000 
  3 C        2.4770    -1.4480    -0.3000 C.3   1 <1>  -0.0800 
  4 C        2.6620     0.9400    -0.5720 C.3   1 <1>   0.2090 
  5 C        3.8600    -1.0260     0.2020 C.3   1 <1>   0.2090 
  6 C        2.4600    -2.8280    -0.9800 C.3   1 <1>  -0.0170 
  7 N        3.8830     0.4660     0.1400 N.pl3 1 <1>  -0.8380 
  8 C        2.9440    -3.9240    -0.0430 C.ar  1 <1>   0.1660 
  9 C        5.0320     1.1870     0.2250 C.ar  1 <1>   0.4100 
 10 N        4.2500    -4.1370    -0.0080 N.ar  1 <1>  -0.6200 
 11 C        2.0260    -4.6430     0.7220 C.ar  1 <1>   0.1600 
 12 N        6.1240     0.5740    -0.1840 N.ar  1 <1>  -0.6200 
 13 C        5.0610     2.5230     0.7130 C.ar  1 <1>  -0.1430 
 14 C        4.5730    -5.1060     0.8330 C.ar  1 <1>   0.1600 
 15 N        2.3480    -5.6110     1.5640 N.ar  1 <1>  -0.6200 
 16 C        7.2620     1.2400    -0.1940 C.ar  1 <1>   0.7710 
 17 C        6.2450     3.1970     0.6510 C.ar  1 <1>   0.2180 
 18 C        3.7990     3.1440     1.3220 C.3   1 <1>  -0.0970 
 19 C        3.6530    -5.8180     1.5930 C.ar  1 <1>   0.1600 
 20 N        7.3220     2.5230     0.1870 N.ar  1 <1>  -0.1790 
 21 N        8.4020     0.6180    -0.6090 N.pl3 1 <1>  -0.8380 
 22 C        6.4780     4.6440     1.0680 C.3   1 <1>  -0.0970 
 23 C        8.3550    -0.7710    -1.1810 C.3   1 <1>   0.1290 
 24 C        9.8040     1.1300    -0.4970 C.3   1 <1>   0.1290 
 25 H        0.3340    -0.9690    -1.8380 H     1 <1>   0.4000 
 26 H        2.4950    -0.4270    -2.2150 H     1 <1>   0.0800 
 27 H        1.8190    -1.4540     0.5520 H     1 <1>   0.0800 
 28 H        1.9610     1.3320     0.1440 H     1 <1>   0.0800 
 29 H        2.9070     1.6850    -1.3080 H     1 <1>   0.0800 
 30 H        4.6240    -1.4310    -0.4410 H     1 <1>   0.0800 
 31 H        4.0320    -1.3690     1.2080 H     1 <1>   0.0800 
 32 H        3.0900    -2.8160    -1.8530 H     1 <1>   0.0800 
 33 H        1.4610    -3.0550    -1.3050 H     1 <1>   0.0800 
 34 H        0.9810    -4.4070     0.6360 H     1 <1>   0.1500 
 35 H        5.6160    -5.3500     0.9270 H     1 <1>   0.1500 
 36 H        4.0280     3.9120     2.0360 H     1 <1>   0.0800 
 37 H        3.2360     2.3950     1.8520 H     1 <1>   0.0800 
 38 H        3.1760     3.5610     0.5510 H     1 <1>   0.0800 
 39 H        4.0130    -6.5900     2.2500 H     1 <1>   0.1500 
 40 H        8.2320     2.9510     0.0990 H     1 <1>   0.4570 
 41 H        5.5600     5.2030     1.0910 H     1 <1>   0.0800 
 42 H        7.1300     5.1390     0.3700 H     1 <1>   0.0800 
 43 H        6.9230     4.6800     2.0470 H     1 <1>   0.0800 
 44 H        9.0940    -0.8810    -1.9570 H     1 <1>   0.0800 
 45 H        7.3920    -0.9870    -1.6140 H     1 <1>   0.0800 
 46 H        8.5520    -1.4920    -0.4060 H     1 <1>   0.0800 
 47 H       10.4530     0.3400    -0.1550 H     1 <1>   0.0800 
 48 H        9.8820     1.9400     0.2060 H     1 <1>   0.0800 
 49 H       10.1520     1.4590    -1.4630 H     1 <1>   0.0800 
@<TRIPOS>BOND
  1   1   2  1   
  2   1  25  1   
  3   2   3  1   
  4   2   4  1   
  5   2  26  1   
  6   3   5  1   
  7   3   6  1   
  8   3  27  1   
  9   4   7  1   
 10   4  28  1   
 11   4  29  1   
 12   5   7  1   
 13   5  30  1   
 14   5  31  1   
 15   6   8  1   
 16   6  32  1   
 17   6  33  1   
 18   7   9  1   
 19   8  10  ar  
 20   8  11  ar  
 21   9  12  ar  
 22   9  13  ar  
 23  10  14  ar  
 24  11  15  ar  
 25  11  34  1   
 26  12  16  ar  
 27  13  17  ar  
 28  13  18  1   
 29  14  19  ar  
 30  14  35  1   
 31  15  19  ar  
 32  16  20  ar  
 33  16  21  1   
 34  17  20  ar  
 35  17  22  1   
 36  18  36  1   
 37  18  37  1   
 38  18  38  1   
 39  19  39  1   
 40  20  40  1   
 41  21  23  1   
 42  21  24  1   
 43  22  41  1   
 44  22  42  1   
 45  22  43  1   
 46  23  44  1   
 47  23  45  1   
 48  23  46  1   
 49  24  47  1   
 50  24  48  1   
 51  24  49  1   
@<TRIPOS>SUBSTRUCTURE
  1 ****   5 GROUP 4 **** **** 0

# MOE 2024.06 (io_trps.svl 2023.06)
