@<TRIPOS>MOLECULE
NONAME
47 49 1 0 0 
SMALL
USER_CHARGES


@<TRIPOS>ATOM
  1 F       -0.8000    -0.2910    -0.6440 F     1 <1>  -0.1900 
  2 C       -1.7910    -0.9330    -0.0900 C.ar  1 <1>   0.1900 
  3 C       -1.8070    -2.3240    -0.0510 C.ar  1 <1>  -0.1440 
  4 C       -2.8030    -0.1520     0.4310 C.ar  1 <1>  -0.1500 
  5 C       -2.9300    -2.9340     0.5330 C.ar  1 <1>  -0.1440 
  6 C       -0.6540    -3.1590    -0.6330 C.3   1 <1>   1.1640 
  7 C       -3.8900    -0.7680     1.0170 C.ar  1 <1>  -0.1500 
  8 C       -3.9490    -2.1480     1.0640 C.ar  1 <1>  -0.1500 
  9 C       -3.1210    -4.4470     0.6330 C.3   1 <1>   0.4860 
 10 F        0.4410    -2.5190    -1.0060 F     1 <1>  -0.3400 
 11 F       -0.2550    -4.0840     0.2310 F     1 <1>  -0.3400 
 12 F       -1.0730    -3.8360    -1.6980 F     1 <1>  -0.3400 
 13 N       -3.4860    -5.0190    -0.6980 N.4   1 <1>  -0.9590 
 14 C       -4.7710    -4.4410    -1.2150 C.3   1 <1>   0.3430 
 15 C       -3.7160    -6.4930    -0.5680 C.3   1 <1>   0.3430 
 16 C       -5.8680    -5.3950    -0.7430 C.3   1 <1>   0.2000 
 17 C       -5.1890    -6.7530    -0.9080 C.3   1 <1>  -0.0800 
 18 O       -6.0920    -5.1490     0.6180 O.3   1 <1>  -0.5600 
 19 C       -5.7970    -7.9180    -0.1040 C.3   1 <1>   0.0200 
 20 C       -7.4360    -5.0490     0.9870 C.3   1 <1>   0.0400 
 21 C       -4.9070    -9.1420    -0.1960 C.2   1 <1>  -0.0400 
 22 O       -4.4460    -9.5250    -1.3560 O.3   1 <1>  -0.0190 
 23 C       -4.4310    -9.9830     0.7350 C.2   1 <1>  -0.1500 
 24 N       -3.6720   -10.5630    -1.2500 N.2   1 <1>  -0.4100 
 25 C       -3.6520   -10.8700    -0.0030 C.2   1 <1>   0.1080 
 26 C       -2.8820   -12.0390     0.5710 C.3   1 <1>  -0.0590 
 27 H       -2.7370     0.9210     0.3790 H     1 <1>   0.1500 
 28 H       -4.6860    -0.1720     1.4350 H     1 <1>   0.1500 
 29 H       -4.8090    -2.6070     1.5280 H     1 <1>   0.1500 
 30 H       -3.9070    -4.6570     1.3410 H     1 <1>   0.0800 
 31 H       -2.2210    -4.9110     1.0020 H     1 <1>   0.0800 
 32 H       -2.7240    -4.8340    -1.3670 H     1 <1>   0.4500 
 33 H       -4.9480    -3.4380    -0.8660 H     1 <1>   0.0800 
 34 H       -4.7520    -4.4390    -2.2920 H     1 <1>   0.0800 
 35 H       -3.0770    -7.0500    -1.2350 H     1 <1>   0.0800 
 36 H       -3.5200    -6.8130     0.4420 H     1 <1>   0.0800 
 37 H       -6.7780    -5.2910    -1.3100 H     1 <1>   0.0800 
 38 H       -5.2280    -7.0170    -1.9510 H     1 <1>   0.0800 
 39 H       -6.7700    -8.1600    -0.4950 H     1 <1>   0.0800 
 40 H       -5.9090    -7.6570     0.9340 H     1 <1>   0.0800 
 41 H       -7.4840    -4.8920     2.0510 H     1 <1>   0.0800 
 42 H       -7.9490    -5.9610     0.7350 H     1 <1>   0.0800 
 43 H       -7.8860    -4.2110     0.4810 H     1 <1>   0.0800 
 44 H       -4.5860   -10.0060     1.7990 H     1 <1>   0.1500 
 45 H       -2.3510   -11.7360     1.4550 H     1 <1>   0.0800 
 46 H       -2.1740   -12.4020    -0.1520 H     1 <1>   0.0800 
 47 H       -3.5610   -12.8330     0.8200 H     1 <1>   0.0800 
@<TRIPOS>BOND
  1   1   2  1   
  2   2   3  ar  
  3   2   4  ar  
  4   3   5  ar  
  5   3   6  1   
  6   4   7  ar  
  7   4  27  1   
  8   5   8  ar  
  9   5   9  1   
 10   6  10  1   
 11   6  11  1   
 12   6  12  1   
 13   7   8  ar  
 14   7  28  1   
 15   8  29  1   
 16   9  13  1   
 17   9  30  1   
 18   9  31  1   
 19  13  14  1   
 20  13  15  1   
 21  13  32  1   
 22  14  16  1   
 23  14  33  1   
 24  14  34  1   
 25  15  17  1   
 26  15  35  1   
 27  15  36  1   
 28  16  17  1   
 29  16  18  1   
 30  16  37  1   
 31  17  19  1   
 32  17  38  1   
 33  18  20  1   
 34  19  21  1   
 35  19  39  1   
 36  19  40  1   
 37  20  41  1   
 38  20  42  1   
 39  20  43  1   
 40  21  22  1   
 41  21  23  2   
 42  22  24  1   
 43  23  25  1   
 44  23  44  1   
 45  24  25  2   
 46  25  26  1   
 47  26  45  1   
 48  26  46  1   
 49  26  47  1   
@<TRIPOS>SUBSTRUCTURE
  1 ****  13 GROUP 4 **** **** 0

# MOE 2024.06 (io_trps.svl 2023.06)
