@<TRIPOS>MOLECULE
NONAME
49 52 1 0 0 
SMALL
USER_CHARGES


@<TRIPOS>ATOM
  1 N        1.2370     0.4570     1.5490 N.ar  1 <1>  -0.6200 
  2 C        0.4650     1.3770     2.1160 C.ar  1 <1>   0.4760 
  3 C        1.4680     0.6670     0.2730 C.ar  1 <1>   0.1660 
  4 N       -0.0650     2.4540     1.5530 N.ar  1 <1>  -0.6200 
  5 C        0.1530     1.1840     3.5800 C.3   1 <1>  -0.0960 
  6 C        0.9810     1.7370    -0.4130 C.ar  1 <1>  -0.1440 
  7 C        2.3110    -0.2290    -0.6010 C.3   1 <1>   0.1430 
  8 C        0.1980     2.6300     0.2740 C.ar  1 <1>   0.1600 
  9 C        1.4260     1.7220    -1.8540 C.3   1 <1>  -0.0160 
 10 C        3.6110    -0.5540     0.1550 C.3   1 <1>   0.3430 
 11 C        1.5440    -1.5250    -0.9320 C.3   1 <1>  -0.1600 
 12 C        2.5370     0.6520    -1.8600 C.3   1 <1>  -0.1600 
 13 N        4.4680    -1.5530    -0.5820 N.4   1 <1>  -0.9590 
 14 C        2.4510    -2.5750    -1.5970 C.3   1 <1>  -0.1600 
 15 C        3.7230    -2.8310    -0.7840 C.3   1 <1>   0.3430 
 16 C        5.7530    -1.8200     0.1360 C.3   1 <1>   0.3430 
 17 C        6.6900    -0.6110     0.1160 C.3   1 <1>  -0.0170 
 18 C        8.0010    -1.0110     0.7640 C.ar  1 <1>  -0.1440 
 19 C        8.1720    -0.8790     2.1340 C.ar  1 <1>  -0.1500 
 20 C        9.0350    -1.5220    -0.0060 C.ar  1 <1>  -0.1500 
 21 C        9.3620    -1.2620     2.7280 C.ar  1 <1>  -0.1500 
 22 C       10.2250    -1.9040     0.5890 C.ar  1 <1>  -0.1500 
 23 C       10.3880    -1.7750     1.9560 C.ar  1 <1>  -0.1500 
 24 H        0.3930     0.1840     3.8900 H     1 <1>   0.0800 
 25 H       -0.8930     1.3590     3.7520 H     1 <1>   0.0800 
 26 H        0.7260     1.8810     4.1610 H     1 <1>   0.0800 
 27 H       -0.2160     3.4940    -0.2180 H     1 <1>   0.1500 
 28 H        1.7930     2.6830    -2.1690 H     1 <1>   0.0800 
 29 H        0.6030     1.4240    -2.4820 H     1 <1>   0.0800 
 30 H        3.3480    -0.9520     1.1220 H     1 <1>   0.0800 
 31 H        4.1530     0.3620     0.3160 H     1 <1>   0.0800 
 32 H        0.7000    -1.3070    -1.5650 H     1 <1>   0.0800 
 33 H        1.1520    -1.9390    -0.0160 H     1 <1>   0.0800 
 34 H        2.5260     0.0910    -2.7770 H     1 <1>   0.0800 
 35 H        3.4830     1.1610    -1.7820 H     1 <1>   0.0800 
 36 H        4.6830    -1.1710    -1.5110 H     1 <1>   0.4500 
 37 H        2.7180    -2.2680    -2.5930 H     1 <1>   0.0800 
 38 H        1.9070    -3.5000    -1.6880 H     1 <1>   0.0800 
 39 H        3.4560    -3.2520     0.1730 H     1 <1>   0.0800 
 40 H        4.3440    -3.5440    -1.3040 H     1 <1>   0.0800 
 41 H        6.2630    -2.6450    -0.3360 H     1 <1>   0.0800 
 42 H        5.5550    -2.0990     1.1580 H     1 <1>   0.0800 
 43 H        6.2680     0.2130     0.6630 H     1 <1>   0.0800 
 44 H        6.8750    -0.2970    -0.8950 H     1 <1>   0.0800 
 45 H        7.3890    -0.4780     2.7540 H     1 <1>   0.1500 
 46 H        8.9310    -1.6270    -1.0720 H     1 <1>   0.1500 
 47 H        9.4930    -1.1580     3.7920 H     1 <1>   0.1500 
 48 H       11.0270    -2.3000    -0.0110 H     1 <1>   0.1500 
 49 H       11.3140    -2.0720     2.4190 H     1 <1>   0.1500 
@<TRIPOS>BOND
  1   1   2  ar  
  2   1   3  ar  
  3   2   4  ar  
  4   2   5  1   
  5   3   6  ar  
  6   3   7  1   
  7   4   8  ar  
  8   5  24  1   
  9   5  25  1   
 10   5  26  1   
 11   6   8  ar  
 12   6   9  1   
 13   7  10  1   
 14   7  11  1   
 15   7  12  1   
 16   8  27  1   
 17   9  12  1   
 18   9  28  1   
 19   9  29  1   
 20  10  13  1   
 21  10  30  1   
 22  10  31  1   
 23  11  14  1   
 24  11  32  1   
 25  11  33  1   
 26  12  34  1   
 27  12  35  1   
 28  13  15  1   
 29  13  16  1   
 30  13  36  1   
 31  14  15  1   
 32  14  37  1   
 33  14  38  1   
 34  15  39  1   
 35  15  40  1   
 36  16  17  1   
 37  16  41  1   
 38  16  42  1   
 39  17  18  1   
 40  17  43  1   
 41  17  44  1   
 42  18  19  ar  
 43  18  20  ar  
 44  19  21  ar  
 45  19  45  1   
 46  20  22  ar  
 47  20  46  1   
 48  21  23  ar  
 49  21  47  1   
 50  22  23  ar  
 51  22  48  1   
 52  23  49  1   
@<TRIPOS>SUBSTRUCTURE
  1 ****  10 GROUP 4 **** **** 0

# MOE 2024.06 (io_trps.svl 2023.06)
