@<TRIPOS>MOLECULE
NONAME
52 56 1 0 0 
SMALL
USER_CHARGES


@<TRIPOS>ATOM
  1 O        0.0310    -1.0360     1.8290 O.3   1 <1>  -0.0190 
  2 N        1.1040    -0.3170     1.7440 N.2   1 <1>  -0.4100 
  3 C        0.2120    -1.9910     0.9530 C.2   1 <1>   0.2980 
  4 C        1.8690    -0.8530     0.8600 C.2   1 <1>   0.4620 
  5 N        1.3200    -1.9510     0.3310 N.2   1 <1>  -0.5650 
  6 C       -0.8770    -3.0500     0.7860 C.3   1 <1>   0.2900 
  7 C        3.1600    -0.3270     0.4500 C.ar  1 <1>   0.0540 
  8 N       -2.0160    -2.6170    -0.0620 N.3   1 <1>  -0.8100 
  9 C        4.3160    -1.1090     0.3000 C.ar  1 <1>  -0.1430 
 10 C        3.2690     1.0410     0.1910 C.ar  1 <1>  -0.1500 
 11 C       -2.8560    -1.5890     0.5990 C.3   1 <1>   0.1100 
 12 C       -2.8280    -3.7680    -0.4820 C.3   1 <1>   0.1100 
 13 C        5.5070    -0.5280    -0.1060 C.ar  1 <1>  -0.1500 
 14 C        4.3080    -2.6070     0.5840 C.3   1 <1>  -0.0970 
 15 C        4.4590     1.6160    -0.2100 C.ar  1 <1>  -0.1500 
 16 C       -3.9440    -1.0500    -0.3510 C.3   1 <1>   0.1430 
 17 C       -3.9060    -3.3220    -1.4770 C.3   1 <1>  -0.1600 
 18 C        5.5840     0.8280    -0.3610 C.ar  1 <1>  -0.1500 
 19 C       -4.7720    -0.0160     0.3910 C.ar  1 <1>   0.1670 
 20 C       -4.7970    -2.2210    -0.8820 C.3   1 <1>  -0.1600 
 21 C       -3.3170    -0.2130    -1.4980 C.3   1 <1>  -0.1600 
 22 N       -5.6720    -0.2720     1.3120 N.ar  1 <1>  -0.6200 
 23 C       -4.4580     1.2520    -0.0060 C.ar  1 <1>  -0.1430 
 24 C       -3.3820     1.2610    -1.0620 C.3   1 <1>  -0.0170 
 25 C       -6.2490     0.8080     1.8160 C.ar  1 <1>   0.7200 
 26 C       -5.1290     2.2940     0.5870 C.ar  1 <1>   0.1600 
 27 N       -6.0430     2.0810     1.5070 N.ar  1 <1>  -0.6200 
 28 N       -7.1840     0.5840     2.7410 N.pl3 1 <1>  -0.9000 
 29 H       -1.2340    -3.3490     1.7550 H     1 <1>   0.0800 
 30 H       -0.4120    -3.9050     0.3270 H     1 <1>   0.0800 
 31 H        2.3990     1.6620     0.3070 H     1 <1>   0.1500 
 32 H       -2.2490    -0.7600     0.9140 H     1 <1>   0.0800 
 33 H       -3.3260    -2.0090     1.4730 H     1 <1>   0.0800 
 34 H       -3.2920    -4.2230     0.3780 H     1 <1>   0.0800 
 35 H       -2.1980    -4.5010    -0.9590 H     1 <1>   0.0800 
 36 H        6.3910    -1.1300    -0.2260 H     1 <1>   0.1500 
 37 H        3.8150    -2.8070     1.5180 H     1 <1>   0.0800 
 38 H        5.3080    -2.9960     0.6440 H     1 <1>   0.0800 
 39 H        3.7880    -3.1240    -0.2030 H     1 <1>   0.0800 
 40 H        4.5110     2.6730    -0.4040 H     1 <1>   0.1500 
 41 H       -4.5130    -4.1680    -1.7460 H     1 <1>   0.0800 
 42 H       -3.4260    -2.9670    -2.3720 H     1 <1>   0.0800 
 43 H        6.5140     1.2680    -0.6760 H     1 <1>   0.1500 
 44 H       -5.5010    -1.8690    -1.6150 H     1 <1>   0.0800 
 45 H       -5.3600    -2.6370    -0.0650 H     1 <1>   0.0800 
 46 H       -3.9080    -0.3260    -2.3890 H     1 <1>   0.0800 
 47 H       -2.3090    -0.5170    -1.7230 H     1 <1>   0.0800 
 48 H       -3.6310     1.9060    -1.8860 H     1 <1>   0.0800 
 49 H       -2.4470     1.5660    -0.6250 H     1 <1>   0.0800 
 50 H       -4.9150     3.3100     0.3040 H     1 <1>   0.1500 
 51 H       -7.8310     1.3530     2.8900 H     1 <1>   0.4000 
 52 H       -7.5740    -0.3530     2.7390 H     1 <1>   0.4000 
@<TRIPOS>BOND
  1   1   2  1   
  2   1   3  1   
  3   2   4  2   
  4   3   5  2   
  5   3   6  1   
  6   4   5  1   
  7   4   7  1   
  8   6   8  1   
  9   6  29  1   
 10   6  30  1   
 11   7   9  ar  
 12   7  10  ar  
 13   8  11  1   
 14   8  12  1   
 15   9  13  ar  
 16   9  14  1   
 17  10  15  ar  
 18  10  31  1   
 19  11  16  1   
 20  11  32  1   
 21  11  33  1   
 22  12  17  1   
 23  12  34  1   
 24  12  35  1   
 25  13  18  ar  
 26  13  36  1   
 27  14  37  1   
 28  14  38  1   
 29  14  39  1   
 30  15  18  ar  
 31  15  40  1   
 32  16  19  1   
 33  16  20  1   
 34  16  21  1   
 35  17  20  1   
 36  17  41  1   
 37  17  42  1   
 38  18  43  1   
 39  19  22  ar  
 40  19  23  ar  
 41  20  44  1   
 42  20  45  1   
 43  21  24  1   
 44  21  46  1   
 45  21  47  1   
 46  22  25  ar  
 47  23  24  1   
 48  23  26  ar  
 49  24  48  1   
 50  24  49  1   
 51  25  27  ar  
 52  25  28  1   
 53  26  27  ar  
 54  26  50  1   
 55  28  51  1   
 56  28  52  1   
@<TRIPOS>SUBSTRUCTURE
  1 ****   1 GROUP 4 **** **** 0

# MOE 2024.06 (io_trps.svl 2023.06)
