@<TRIPOS>MOLECULE
NONAME
46 49 1 0 0 
SMALL
USER_CHARGES


@<TRIPOS>ATOM
  1 O       -1.0680     1.0860     1.8980 O.2   1 <1>  -0.5700 
  2 C       -1.5280     0.8570     0.7950 C.2   1 <1>   0.7160 
  3 N       -1.8640    -0.4410     0.4700 N.am  1 <1>  -0.6600 
  4 C       -1.6880     1.9350    -0.1250 C.2   1 <1>  -0.0860 
  5 C       -1.8610    -1.5450     1.4750 C.3   1 <1>   0.1400 
  6 C       -2.5240    -0.8360    -0.8110 C.3   1 <1>   0.1400 
  7 C       -2.9120     2.4750    -0.5310 C.2   1 <1>   0.3720 
  8 C       -0.7680     2.6760    -0.7980 C.2   1 <1>   0.0870 
  9 C       -3.2790    -2.1190     1.6350 C.3   1 <1>   0.1200 
 10 C       -3.9100    -1.4360    -0.5240 C.3   1 <1>   0.1200 
 11 N       -2.7360     3.4290    -1.3770 N.2   1 <1>  -0.4100 
 12 N       -4.1720     2.0430    -0.0870 N.pl3 1 <1>  -0.8210 
 13 O       -1.4420     3.5370    -1.5200 O.3   1 <1>  -0.0190 
 14 C        0.6760     2.6610    -0.8480 C.ar  1 <1>   0.0530 
 15 O       -3.8080    -2.4910     0.3920 O.3   1 <1>  -0.5600 
 16 C       -4.4450     2.2830     1.3680 C.3   1 <1>   0.2090 
 17 C       -5.3520     2.4330    -0.9270 C.3   1 <1>   0.2090 
 18 C        1.4280     1.5720    -0.4000 C.ar  1 <1>  -0.1500 
 19 C        1.3830     3.7520    -1.3580 C.ar  1 <1>  -0.1500 
 20 C       -5.0260     3.6880     1.6130 C.3   1 <1>   0.1200 
 21 C       -5.8960     3.8250    -0.5500 C.3   1 <1>   0.1200 
 22 C        2.8090     1.5730    -0.4570 C.ar  1 <1>  -0.1500 
 23 C        2.7640     3.7590    -1.4200 C.ar  1 <1>  -0.1500 
 24 O       -6.1600     3.9020     0.8220 O.3   1 <1>  -0.5600 
 25 C        3.4820     2.6680    -0.9680 C.ar  1 <1>  -0.1500 
 26 H       -1.5100    -1.1960     2.4310 H     1 <1>   0.0800 
 27 H       -1.1970    -2.3240     1.1450 H     1 <1>   0.0800 
 28 H       -1.9190    -1.5720    -1.3090 H     1 <1>   0.0800 
 29 H       -2.6320     0.0020    -1.4750 H     1 <1>   0.0800 
 30 H       -3.9320    -1.3910     2.0840 H     1 <1>   0.0800 
 31 H       -3.2570    -2.9950     2.2590 H     1 <1>   0.0800 
 32 H       -4.3400    -1.8270    -1.4280 H     1 <1>   0.0800 
 33 H       -4.5700    -0.6880    -0.1200 H     1 <1>   0.0800 
 34 H       -3.5430     2.1770     1.9430 H     1 <1>   0.0800 
 35 H       -5.1450     1.5460     1.7210 H     1 <1>   0.0800 
 36 H       -6.1340     1.7060    -0.7920 H     1 <1>   0.0800 
 37 H       -5.0800     2.4260    -1.9680 H     1 <1>   0.0800 
 38 H        0.9380     0.7040    -0.0010 H     1 <1>   0.1500 
 39 H        0.8440     4.6130    -1.7120 H     1 <1>   0.1500 
 40 H       -4.2940     4.4430     1.3810 H     1 <1>   0.0800 
 41 H       -5.3180     3.7930     2.6420 H     1 <1>   0.0800 
 42 H       -6.8150     4.0180    -1.0730 H     1 <1>   0.0800 
 43 H       -5.1850     4.5900    -0.8090 H     1 <1>   0.0800 
 44 H        3.3630     0.7210    -0.1030 H     1 <1>   0.1500 
 45 H        3.2810     4.6150    -1.8180 H     1 <1>   0.1500 
 46 H        4.5570     2.6700    -1.0130 H     1 <1>   0.1500 
@<TRIPOS>BOND
  1   1   2  2   
  2   2   3  am  
  3   2   4  1   
  4   3   5  1   
  5   3   6  1   
  6   4   7  1   
  7   4   8  2   
  8   5   9  1   
  9   5  26  1   
 10   5  27  1   
 11   6  10  1   
 12   6  28  1   
 13   6  29  1   
 14   7  11  2   
 15   7  12  1   
 16   8  13  1   
 17   8  14  1   
 18   9  15  1   
 19   9  30  1   
 20   9  31  1   
 21  10  15  1   
 22  10  32  1   
 23  10  33  1   
 24  11  13  1   
 25  12  16  1   
 26  12  17  1   
 27  14  18  ar  
 28  14  19  ar  
 29  16  20  1   
 30  16  34  1   
 31  16  35  1   
 32  17  21  1   
 33  17  36  1   
 34  17  37  1   
 35  18  22  ar  
 36  18  38  1   
 37  19  23  ar  
 38  19  39  1   
 39  20  24  1   
 40  20  40  1   
 41  20  41  1   
 42  21  24  1   
 43  21  42  1   
 44  21  43  1   
 45  22  25  ar  
 46  22  44  1   
 47  23  25  ar  
 48  23  45  1   
 49  25  46  1   
@<TRIPOS>SUBSTRUCTURE
  1 ****   4 GROUP 4 **** **** 0

# MOE 2024.06 (io_trps.svl 2023.06)
