@<TRIPOS>MOLECULE
NONAME
45 48 1 0 0 
SMALL
USER_CHARGES


@<TRIPOS>ATOM
  1 CL       0.2870    -0.3230     1.4240 Cl    1 <1>  -0.1770 
  2 C        0.1010    -1.8220     0.5570 C.ar  1 <1>   0.1770 
  3 C        0.1980    -3.0180     1.2350 C.ar  1 <1>  -0.1500 
  4 C       -0.1410    -1.7930    -0.8040 C.ar  1 <1>  -0.1500 
  5 C        0.0550    -4.2140     0.5490 C.ar  1 <1>   0.0830 
  6 C       -0.3000    -2.9850    -1.4850 C.ar  1 <1>  -0.1500 
  7 O        0.1920    -5.3380     1.2890 O.3   1 <1>  -0.3630 
  8 C       -0.2240    -4.2170    -0.8300 C.ar  1 <1>   0.0860 
  9 C        1.0270    -6.3870     0.8390 C.3   1 <1>   0.0400 
 10 C       -0.4650    -5.4230    -1.5880 C.2   1 <1>   0.5440 
 11 O        0.3980    -5.8210    -2.3480 O.2   1 <1>  -0.5700 
 12 N       -1.6440    -6.1320    -1.4740 N.am  1 <1>  -0.6600 
 13 C       -1.8840    -7.4060    -2.2080 C.3   1 <1>   0.1400 
 14 C       -2.7720    -5.7350    -0.5880 C.3   1 <1>   0.1400 
 15 C       -2.1090    -8.5290    -1.1940 C.3   1 <1>  -0.1600 
 16 C       -2.9970    -6.8350     0.4500 C.3   1 <1>  -0.1600 
 17 C       -3.2420    -8.1970    -0.2150 C.3   1 <1>   0.4610 
 18 O       -4.4200    -8.1210    -0.9990 O.3   1 <1>  -0.5600 
 19 C       -3.3810    -9.3040     0.8320 C.2   1 <1>  -0.1810 
 20 C       -5.6670    -8.2490    -0.3580 C.3   1 <1>   0.1200 
 21 C       -4.5480    -9.9340     1.0200 C.2   1 <1>  -0.1400 
 22 C       -2.3420    -9.7820     1.7000 C.2   1 <1>  -0.1500 
 23 C       -5.8250    -9.6390     0.2810 C.3   1 <1>   0.0200 
 24 S       -4.4350   -11.1680     2.2560 S.3   1 <1>  -0.0800 
 25 C       -2.7410   -10.7760     2.5180 C.2   1 <1>  -0.1100 
 26 H        0.3920    -3.0240     2.2920 H     1 <1>   0.1500 
 27 H       -0.2030    -0.8480    -1.3150 H     1 <1>   0.1500 
 28 H       -0.4900    -2.9760    -2.5450 H     1 <1>   0.1500 
 29 H        1.3990    -6.9130     1.6990 H     1 <1>   0.0800 
 30 H        1.8480    -5.9750     0.2770 H     1 <1>   0.0800 
 31 H        0.4520    -7.0580     0.2270 H     1 <1>   0.0800 
 32 H       -1.0480    -7.6500    -2.8400 H     1 <1>   0.0800 
 33 H       -2.7530    -7.2940    -2.8340 H     1 <1>   0.0800 
 34 H       -3.6590    -5.6090    -1.1850 H     1 <1>   0.0800 
 35 H       -2.5720    -4.8030    -0.0910 H     1 <1>   0.0800 
 36 H       -1.1940    -8.6860    -0.6540 H     1 <1>   0.0800 
 37 H       -2.3430    -9.4440    -1.7070 H     1 <1>   0.0800 
 38 H       -3.8210    -6.5800     1.0880 H     1 <1>   0.0800 
 39 H       -2.1250    -6.8980     1.0740 H     1 <1>   0.0800 
 40 H       -6.4340    -8.0910    -1.0950 H     1 <1>   0.0800 
 41 H       -5.7470    -7.4820     0.3910 H     1 <1>   0.0800 
 42 H       -1.3520    -9.3630     1.6710 H     1 <1>   0.1500 
 43 H       -5.9910   -10.3820    -0.4770 H     1 <1>   0.0800 
 44 H       -6.6600    -9.6370     0.9570 H     1 <1>   0.0800 
 45 H       -2.2170   -11.3390     3.2690 H     1 <1>   0.1500 
@<TRIPOS>BOND
  1   1   2  1   
  2   2   3  ar  
  3   2   4  ar  
  4   3   5  ar  
  5   3  26  1   
  6   4   6  ar  
  7   4  27  1   
  8   5   7  1   
  9   5   8  ar  
 10   6   8  ar  
 11   6  28  1   
 12   7   9  1   
 13   8  10  1   
 14   9  29  1   
 15   9  30  1   
 16   9  31  1   
 17  10  11  2   
 18  10  12  am  
 19  12  13  1   
 20  12  14  1   
 21  13  15  1   
 22  13  32  1   
 23  13  33  1   
 24  14  16  1   
 25  14  34  1   
 26  14  35  1   
 27  15  17  1   
 28  15  36  1   
 29  15  37  1   
 30  16  17  1   
 31  16  38  1   
 32  16  39  1   
 33  17  18  1   
 34  17  19  1   
 35  18  20  1   
 36  19  21  2   
 37  19  22  1   
 38  20  23  1   
 39  20  40  1   
 40  20  41  1   
 41  21  23  1   
 42  21  24  1   
 43  22  25  2   
 44  22  42  1   
 45  23  43  1   
 46  23  44  1   
 47  24  25  1   
 48  25  45  1   
@<TRIPOS>SUBSTRUCTURE
  1 ****  16 GROUP 4 **** **** 0

# MOE 2024.06 (io_trps.svl 2023.06)
