@<TRIPOS>MOLECULE
NONAME
40 42 1 0 0 
SMALL
USER_CHARGES


@<TRIPOS>ATOM
  1 O       -0.5850     0.2040     0.7480 O.2   1 <1>  -0.5700 
  2 C       -1.5670     0.8240     0.3870 C.2   1 <1>   0.5440 
  3 N       -2.7380     0.1300     0.1800 N.am  1 <1>  -0.6600 
  4 C       -1.4750     2.2530     0.1660 C.ar  1 <1>   0.0860 
  5 C       -3.9370     0.6460    -0.5310 C.3   1 <1>   0.1400 
  6 C       -2.8260    -1.3460     0.3220 C.3   1 <1>   0.1400 
  7 C       -2.3210     3.1550     0.8160 C.ar  1 <1>  -0.1500 
  8 C       -0.5190     2.7750    -0.7080 C.ar  1 <1>  -0.1500 
  9 C       -4.9680    -0.4720    -0.3910 C.3   1 <1>   0.2000 
 10 C       -4.1190    -1.7470    -0.3970 C.3   1 <1>  -0.0800 
 11 C       -2.2330     4.5150     0.5850 C.ar  1 <1>  -0.1500 
 12 C       -0.4220     4.1340    -0.9440 C.ar  1 <1>  -0.1500 
 13 O       -5.5850    -0.3320     0.8440 O.3   1 <1>  -0.6800 
 14 C       -4.8000    -2.9960     0.1930 C.3   1 <1>  -0.0170 
 15 C       -1.2860     5.0030    -0.2970 C.ar  1 <1>   0.0830 
 16 C       -3.9100    -4.2210     0.0470 C.ar  1 <1>  -0.1430 
 17 O       -1.2110     6.3210    -0.5140 O.3   1 <1>  -0.5330 
 18 C       -3.8770    -4.9600    -1.1180 C.ar  1 <1>  -0.1500 
 19 C       -3.0880    -4.6560     1.0670 C.ar  1 <1>  -0.1500 
 20 C       -3.0460    -6.0640    -1.2050 C.ar  1 <1>   0.1600 
 21 C       -2.2930    -5.7740     0.8770 C.ar  1 <1>   0.1600 
 22 N       -2.2520    -6.4890    -0.2360 N.ar  1 <1>  -0.6200 
 23 H       -4.2990     1.5680    -0.1120 H     1 <1>   0.0800 
 24 H       -3.6920     0.7930    -1.5690 H     1 <1>   0.0800 
 25 H       -1.9670    -1.8280    -0.1170 H     1 <1>   0.0800 
 26 H       -2.8710    -1.5910     1.3690 H     1 <1>   0.0800 
 27 H       -3.0490     2.7800     1.5120 H     1 <1>   0.1500 
 28 H        0.1540     2.0940    -1.2000 H     1 <1>   0.1500 
 29 H       -5.7240    -0.4520    -1.1570 H     1 <1>   0.0800 
 30 H       -3.8600    -1.9580    -1.4200 H     1 <1>   0.0800 
 31 H       -2.8900     5.2040     1.0860 H     1 <1>   0.1500 
 32 H        0.3220     4.5090    -1.6230 H     1 <1>   0.1500 
 33 H       -4.8910    -0.2160     1.5250 H     1 <1>   0.4000 
 34 H       -5.7310    -3.1700    -0.3190 H     1 <1>   0.0800 
 35 H       -5.0310    -2.8430     1.2330 H     1 <1>   0.0800 
 36 H       -0.5030     6.5790    -1.1300 H     1 <1>   0.4500 
 37 H       -4.4900    -4.6890    -1.9580 H     1 <1>   0.1500 
 38 H       -3.0560    -4.1380     2.0080 H     1 <1>   0.1500 
 39 H       -3.0340    -6.6290    -2.1220 H     1 <1>   0.1500 
 40 H       -1.6570    -6.0970     1.6830 H     1 <1>   0.1500 
@<TRIPOS>BOND
  1   1   2  2   
  2   2   3  am  
  3   2   4  1   
  4   3   5  1   
  5   3   6  1   
  6   4   7  ar  
  7   4   8  ar  
  8   5   9  1   
  9   5  23  1   
 10   5  24  1   
 11   6  10  1   
 12   6  25  1   
 13   6  26  1   
 14   7  11  ar  
 15   7  27  1   
 16   8  12  ar  
 17   8  28  1   
 18   9  10  1   
 19   9  13  1   
 20   9  29  1   
 21  10  14  1   
 22  10  30  1   
 23  11  15  ar  
 24  11  31  1   
 25  12  15  ar  
 26  12  32  1   
 27  13  33  1   
 28  14  16  1   
 29  14  34  1   
 30  14  35  1   
 31  15  17  1   
 32  16  18  ar  
 33  16  19  ar  
 34  17  36  1   
 35  18  20  ar  
 36  18  37  1   
 37  19  21  ar  
 38  19  38  1   
 39  20  22  ar  
 40  20  39  1   
 41  21  22  ar  
 42  21  40  1   
@<TRIPOS>SUBSTRUCTURE
  1 ****   3 GROUP 4 **** **** 0

# MOE 2024.06 (io_trps.svl 2023.06)
