@<TRIPOS>MOLECULE
NONAME
44 46 1 0 0 
SMALL
USER_CHARGES


@<TRIPOS>ATOM
  1 O        0.8210     0.4490    -1.3160 O.2   1 <1>  -0.5700 
  2 C        1.0710     1.5470    -0.8940 C.2   1 <1>   0.4230 
  3 C        2.3540     2.1300    -0.6590 C.ar  1 <1>   0.0860 
  4 C       -0.0060     2.5460    -0.5330 C.3   1 <1>  -0.0990 
  5 C        2.2290     3.4180    -0.1800 C.ar  1 <1>  -0.1440 
  6 C        3.6170     1.5850    -0.8500 C.ar  1 <1>  -0.1500 
  7 C        0.7600     3.7940    -0.0470 C.3   1 <1>  -0.0160 
  8 C        3.3360     4.2110     0.1190 C.ar  1 <1>   0.0860 
  9 C        4.7360     2.3410    -0.5520 C.ar  1 <1>  -0.1500 
 10 C        3.2020     5.5730     0.5990 C.2   1 <1>   0.5440 
 11 C        4.5940     3.6340    -0.0730 C.ar  1 <1>  -0.1500 
 12 O        2.4270     5.8350     1.4970 O.2   1 <1>  -0.5700 
 13 N        3.9590     6.5560     0.0190 N.am  1 <1>  -0.4930 
 14 C        4.0450     7.9390     0.3170 C.2   1 <1>   0.0630 
 15 C        3.0340     8.8670     0.5880 C.2   1 <1>   0.1080 
 16 C        5.1890     8.6570     0.3580 C.2   1 <1>  -0.3320 
 17 N        3.5030    10.0590     0.7830 N.2   1 <1>  -0.7070 
 18 C        1.5480     8.5910     0.6460 C.3   1 <1>  -0.0590 
 19 N        4.8340     9.9350     0.6480 N.pl3 1 <1>   0.3140 
 20 C        6.6260     8.1980     0.1480 C.3   1 <1>  -0.0600 
 21 C        5.7210    11.1050     0.8160 C.3   1 <1>   0.0960 
 22 C        5.9780    11.7990    -0.5300 C.3   1 <1>  -0.1600 
 23 C        6.9080    13.0060    -0.3680 C.3   1 <1>  -0.2400 
 24 H       -0.6300     2.1450     0.2440 H     1 <1>   0.0800 
 25 H       -0.6010     2.7680    -1.4000 H     1 <1>   0.0800 
 26 H        3.7060     0.5780    -1.2240 H     1 <1>   0.1500 
 27 H        0.5200     4.0100     0.9810 H     1 <1>   0.0800 
 28 H        0.5300     4.6510    -0.6550 H     1 <1>   0.0800 
 29 H        5.7180     1.9200    -0.6910 H     1 <1>   0.1500 
 30 H        5.4770     4.2010     0.1660 H     1 <1>   0.1500 
 31 H        4.6010     6.2560    -0.7090 H     1 <1>   0.3700 
 32 H        1.2860     7.8190    -0.0520 H     1 <1>   0.0800 
 33 H        1.0020     9.4830     0.4040 H     1 <1>   0.0800 
 34 H        1.2830     8.2760     1.6380 H     1 <1>   0.0800 
 35 H        6.6630     7.1410    -0.0450 H     1 <1>   0.0800 
 36 H        7.2090     8.3980     1.0280 H     1 <1>   0.0800 
 37 H        7.0630     8.7130    -0.6880 H     1 <1>   0.0800 
 38 H        6.6440    10.7790     1.2560 H     1 <1>   0.0800 
 39 H        5.2430    11.7880     1.4940 H     1 <1>   0.0800 
 40 H        5.0370    12.1290    -0.9380 H     1 <1>   0.0800 
 41 H        6.4200    11.1010    -1.2190 H     1 <1>   0.0800 
 42 H        6.4740    13.7290     0.3000 H     1 <1>   0.0800 
 43 H        7.0660    13.4780    -1.3220 H     1 <1>   0.0800 
 44 H        7.8630    12.7000     0.0240 H     1 <1>   0.0800 
@<TRIPOS>BOND
  1   1   2  2   
  2   2   3  1   
  3   2   4  1   
  4   3   5  ar  
  5   3   6  ar  
  6   4   7  1   
  7   4  24  1   
  8   4  25  1   
  9   5   7  1   
 10   5   8  ar  
 11   6   9  ar  
 12   6  26  1   
 13   7  27  1   
 14   7  28  1   
 15   8  10  1   
 16   8  11  ar  
 17   9  11  ar  
 18   9  29  1   
 19  10  12  2   
 20  10  13  am  
 21  11  30  1   
 22  13  14  1   
 23  13  31  1   
 24  14  15  1   
 25  14  16  2   
 26  15  17  2   
 27  15  18  1   
 28  16  19  1   
 29  16  20  1   
 30  17  19  1   
 31  18  32  1   
 32  18  33  1   
 33  18  34  1   
 34  19  21  1   
 35  20  35  1   
 36  20  36  1   
 37  20  37  1   
 38  21  22  1   
 39  21  38  1   
 40  21  39  1   
 41  22  23  1   
 42  22  40  1   
 43  22  41  1   
 44  23  42  1   
 45  23  43  1   
 46  23  44  1   
@<TRIPOS>SUBSTRUCTURE
  1 ****  13 GROUP 4 **** **** 0

# MOE 2024.06 (io_trps.svl 2023.06)
