@<TRIPOS>MOLECULE
NONAME
38 40 1 0 0 
SMALL
USER_CHARGES


@<TRIPOS>ATOM
  1 O        0.5360    -0.0120     0.0820 O.2   1 <1>  -0.5700 
  2 C        1.5540    -0.6710     0.2060 C.2   1 <1>   0.7150 
  3 N        2.6950    -0.0350     0.6130 N.am  1 <1>  -0.5100 
  4 C        1.5680    -2.0870    -0.0690 C.2   1 <1>  -0.2370 
  5 C        4.0300    -0.2270    -0.0480 C.3   1 <1>   0.2250 
  6 C        2.8730     1.4570     0.5680 C.3   1 <1>   0.2250 
  7 N        0.6610    -2.7370    -0.8740 N.pl3 1 <1>   0.0480 
  8 C        2.4490    -3.0330     0.3950 C.2   1 <1>  -0.1500 
  9 C        4.3750     1.2400     0.2830 C.3   1 <1>   0.2580 
 10 C        0.9890    -4.0520    -0.9040 C.2   1 <1>  -0.3020 
 11 C       -0.4820    -2.1500    -1.6000 C.3   1 <1>   0.0160 
 12 C        2.0860    -4.2670    -0.1330 C.2   1 <1>  -0.1500 
 13 O        4.8180     1.9340    -0.8670 O.3   1 <1>  -0.3400 
 14 C        5.1350     3.2320    -0.6840 C.ar  1 <1>   0.0830 
 15 C        6.3970     3.6040    -0.2250 C.ar  1 <1>  -0.1430 
 16 C        4.1800     4.1940    -0.9750 C.ar  1 <1>  -0.1500 
 17 C        6.6710     4.9500    -0.0370 C.ar  1 <1>  -0.1500 
 18 C        7.4780     2.5730     0.0640 C.3   1 <1>  -0.0970 
 19 C        4.4660     5.5330    -0.7860 C.ar  1 <1>  -0.1500 
 20 C        5.7110     5.9100    -0.3130 C.ar  1 <1>  -0.1500 
 21 H        3.9200    -0.4300    -1.0990 H     1 <1>   0.0000 
 22 H        4.6330    -0.9390     0.4860 H     1 <1>   0.0000 
 23 H        2.6760     1.9020     1.5270 H     1 <1>   0.0000 
 24 H        2.3290     1.8950    -0.2500 H     1 <1>   0.0000 
 25 H        3.2810    -2.8760     1.0600 H     1 <1>   0.1500 
 26 H        5.0320     1.3710     1.1240 H     1 <1>   0.0000 
 27 H        0.4300    -4.7760    -1.4700 H     1 <1>   0.1500 
 28 H       -0.1360    -1.3340    -2.2080 H     1 <1>   0.0800 
 29 H       -1.2020    -1.7850    -0.8890 H     1 <1>   0.0800 
 30 H       -0.9390    -2.8950    -2.2240 H     1 <1>   0.0800 
 31 H        2.5890    -5.2010     0.0510 H     1 <1>   0.1500 
 32 H        3.2190     3.8930    -1.3500 H     1 <1>   0.1500 
 33 H        7.6360     5.2610     0.3230 H     1 <1>   0.1500 
 34 H        7.4470     1.7840    -0.6670 H     1 <1>   0.0800 
 35 H        7.3320     2.1510     1.0410 H     1 <1>   0.0800 
 36 H        8.4530     3.0240     0.0250 H     1 <1>   0.0800 
 37 H        3.7240     6.2810    -1.0070 H     1 <1>   0.1500 
 38 H        5.9360     6.9520    -0.1630 H     1 <1>   0.1500 
@<TRIPOS>BOND
  1   1   2  2   
  2   2   3  am  
  3   2   4  1   
  4   3   5  1   
  5   3   6  1   
  6   4   7  1   
  7   4   8  2   
  8   5   9  1   
  9   5  21  1   
 10   5  22  1   
 11   6   9  1   
 12   6  23  1   
 13   6  24  1   
 14   7  10  1   
 15   7  11  1   
 16   8  12  1   
 17   8  25  1   
 18   9  13  1   
 19   9  26  1   
 20  10  12  2   
 21  10  27  1   
 22  11  28  1   
 23  11  29  1   
 24  11  30  1   
 25  12  31  1   
 26  13  14  1   
 27  14  15  ar  
 28  14  16  ar  
 29  15  17  ar  
 30  15  18  1   
 31  16  19  ar  
 32  16  32  1   
 33  17  20  ar  
 34  17  33  1   
 35  18  34  1   
 36  18  35  1   
 37  18  36  1   
 38  19  20  ar  
 39  19  37  1   
 40  20  38  1   
@<TRIPOS>SUBSTRUCTURE
  1 ****   5 GROUP 4 **** **** 0

# MOE 2024.06 (io_trps.svl 2023.06)
