@<TRIPOS>MOLECULE
NONAME
46 48 1 0 0 
SMALL
USER_CHARGES


@<TRIPOS>ATOM
  1 O        1.4990    -0.5160    -2.1110 O.2   1 <1>  -0.5700 
  2 C        1.3960    -1.5090    -1.4330 C.2   1 <1>   0.5690 
  3 N        2.4160    -2.1190    -0.8000 N.am  1 <1>  -0.6600 
  4 C        0.0960    -2.1950    -1.1350 C.3   1 <1>  -0.0990 
  5 C        1.9520    -3.2040     0.0810 C.3   1 <1>   0.1400 
  6 C        3.8460    -1.6800    -0.8290 C.3   1 <1>   0.2010 
  7 C        0.4210    -3.0210     0.1260 C.3   1 <1>   0.0640 
  8 C        4.0980    -0.4130    -0.0140 C.2   1 <1>   0.5690 
  9 C       -0.3690    -4.3280     0.2710 C.ar  1 <1>  -0.1440 
 10 O        4.8650    -0.4720     0.9200 O.2   1 <1>  -0.5700 
 11 N        3.4350     0.7260    -0.3820 N.am  1 <1>  -0.4940 
 12 C        0.1480    -5.3830     1.0140 C.ar  1 <1>  -0.1500 
 13 C       -1.6240    -4.4800    -0.3070 C.ar  1 <1>  -0.1500 
 14 C        3.3790     2.0130     0.2060 C.2   1 <1>  -0.0880 
 15 C       -0.5580    -6.5650     1.1560 C.ar  1 <1>  -0.1500 
 16 C       -2.3320    -5.6610    -0.1670 C.ar  1 <1>  -0.1500 
 17 N        4.3830     2.7050     0.8220 N.pl3 1 <1>   0.3140 
 18 C        2.2860     2.8110     0.2440 C.2   1 <1>  -0.1810 
 19 C       -1.7980    -6.7070     0.5620 C.ar  1 <1>  -0.1500 
 20 N        3.9400     3.9110     1.2630 N.2   1 <1>  -0.7070 
 21 C        5.8050     2.2990     0.9690 C.3   1 <1>   0.0960 
 22 C        2.6960     3.9590     0.9090 C.2   1 <1>   0.1390 
 23 C        0.8920     2.5550    -0.3000 C.3   1 <1>  -0.0590 
 24 C        6.7860     3.4810     0.9180 C.3   1 <1>  -0.2400 
 25 H       -0.1450    -2.8270    -1.9700 H     1 <1>   0.0800 
 26 H       -0.6900    -1.4850    -0.9610 H     1 <1>   0.0800 
 27 H        2.3840    -3.1180     1.0640 H     1 <1>   0.0800 
 28 H        2.2150    -4.1510    -0.3590 H     1 <1>   0.0800 
 29 H        4.1300    -1.4890    -1.8480 H     1 <1>   0.0800 
 30 H        4.4710    -2.4690    -0.4520 H     1 <1>   0.0800 
 31 H        0.2010    -2.4110     0.9850 H     1 <1>   0.0800 
 32 H        2.7250     0.5610    -1.1120 H     1 <1>   0.3700 
 33 H        1.1040    -5.3040     1.5010 H     1 <1>   0.1500 
 34 H       -2.0760    -3.6840    -0.8700 H     1 <1>   0.1500 
 35 H       -0.1440    -7.3760     1.7300 H     1 <1>   0.1500 
 36 H       -3.3000    -5.7660    -0.6240 H     1 <1>   0.1500 
 37 H       -2.3470    -7.6260     0.6700 H     1 <1>   0.1500 
 38 H        6.0430     1.6200     0.1720 H     1 <1>   0.0800 
 39 H        5.9050     1.7770     1.9020 H     1 <1>   0.0800 
 40 H        2.0590     4.8030     1.1150 H     1 <1>   0.1500 
 41 H        0.7420     1.5060    -0.4780 H     1 <1>   0.0800 
 42 H        0.7590     3.0860    -1.2250 H     1 <1>   0.0800 
 43 H        0.1550     2.8910     0.4060 H     1 <1>   0.0800 
 44 H        6.6660     4.0230    -0.0030 H     1 <1>   0.0800 
 45 H        7.7960     3.1200     0.9800 H     1 <1>   0.0800 
 46 H        6.6100     4.1460     1.7460 H     1 <1>   0.0800 
@<TRIPOS>BOND
  1   1   2  2   
  2   2   3  am  
  3   2   4  1   
  4   3   5  1   
  5   3   6  1   
  6   4   7  1   
  7   4  25  1   
  8   4  26  1   
  9   5   7  1   
 10   5  27  1   
 11   5  28  1   
 12   6   8  1   
 13   6  29  1   
 14   6  30  1   
 15   7   9  1   
 16   7  31  1   
 17   8  10  2   
 18   8  11  am  
 19   9  12  ar  
 20   9  13  ar  
 21  11  14  1   
 22  11  32  1   
 23  12  15  ar  
 24  12  33  1   
 25  13  16  ar  
 26  13  34  1   
 27  14  17  1   
 28  14  18  2   
 29  15  19  ar  
 30  15  35  1   
 31  16  19  ar  
 32  16  36  1   
 33  17  20  1   
 34  17  21  1   
 35  18  22  1   
 36  18  23  1   
 37  19  37  1   
 38  20  22  2   
 39  21  24  1   
 40  21  38  1   
 41  21  39  1   
 42  22  40  1   
 43  23  41  1   
 44  23  42  1   
 45  23  43  1   
 46  24  44  1   
 47  24  45  1   
 48  24  46  1   
@<TRIPOS>SUBSTRUCTURE
  1 ****   3 GROUP 4 **** **** 0

# MOE 2024.06 (io_trps.svl 2023.06)
