@<TRIPOS>MOLECULE
NONAME
43 44 1 0 0 
SMALL
USER_CHARGES


@<TRIPOS>ATOM
  1 F       -0.9050     2.0120     1.4290 F     1 <1>  -0.1900 
  2 C       -1.5290     2.0680     0.2810 C.ar  1 <1>   0.1900 
  3 C       -0.8130     2.4300    -0.8490 C.ar  1 <1>  -0.1440 
  4 C       -2.8860     1.7600     0.2530 C.ar  1 <1>  -0.1440 
  5 C       -1.5240     2.4750    -2.0370 C.ar  1 <1>   0.1900 
  6 C        0.6670     2.7670    -0.7980 C.3   1 <1>   0.2840 
  7 C       -3.5540     1.8180    -0.9630 C.ar  1 <1>  -0.1500 
  8 C       -3.6300     1.3670     1.5210 C.3   1 <1>  -0.0960 
  9 F       -0.9090     2.8180    -3.1380 F     1 <1>  -0.1900 
 10 C       -2.8730     2.1770    -2.1150 C.ar  1 <1>  -0.1500 
 11 N        0.8110     4.2330    -0.7930 N.am  1 <1>  -0.7300 
 12 C        1.7100     4.9220    -0.0490 C.2   1 <1>   0.5690 
 13 O        2.5440     4.3630     0.6200 O.2   1 <1>  -0.5700 
 14 C        1.6600     6.4480    -0.0510 C.3   1 <1>  -0.0190 
 15 C        0.2890     6.9750     0.4170 C.3   1 <1>  -0.1600 
 16 C        2.0540     7.0400    -1.4260 C.3   1 <1>  -0.1600 
 17 C        0.2790     8.5100     0.5730 C.3   1 <1>   0.2000 
 18 C        1.5210     8.4680    -1.6600 C.3   1 <1>  -0.1600 
 19 O       -1.0110     8.9710     0.2540 O.3   1 <1>  -0.5600 
 20 C        1.3160     9.2170    -0.3410 C.3   1 <1>   0.2000 
 21 C       -1.9530     8.8480     1.2740 C.3   1 <1>   0.0400 
 22 O        0.8660    10.4870    -0.6370 O.3   1 <1>  -0.6800 
 23 H        1.1710     2.3640    -1.6600 H     1 <1>   0.0800 
 24 H        1.1290     2.3480     0.0810 H     1 <1>   0.0800 
 25 H       -4.6040     1.5860    -1.0190 H     1 <1>   0.1500 
 26 H       -4.6690     1.1780     1.3200 H     1 <1>   0.0800 
 27 H       -3.5600     2.1570     2.2470 H     1 <1>   0.0800 
 28 H       -3.1950     0.4760     1.9390 H     1 <1>   0.0800 
 29 H       -3.3790     2.2260    -3.0620 H     1 <1>   0.1500 
 30 H        0.1380     4.7330    -1.3740 H     1 <1>   0.3700 
 31 H        2.3890     6.7780     0.6690 H     1 <1>   0.0800 
 32 H        0.0360     6.5220     1.3590 H     1 <1>   0.0800 
 33 H       -0.4550     6.6890    -0.3070 H     1 <1>   0.0800 
 34 H        3.1290     7.0450    -1.4930 H     1 <1>   0.0800 
 35 H        1.6920     6.4130    -2.2220 H     1 <1>   0.0800 
 36 H        0.5040     8.7810     1.5910 H     1 <1>   0.0800 
 37 H        0.5730     8.4090    -2.1680 H     1 <1>   0.0800 
 38 H        2.2070     9.0120    -2.2870 H     1 <1>   0.0800 
 39 H        2.2600     9.3110     0.1670 H     1 <1>   0.0800 
 40 H       -2.8870     9.2420     0.9150 H     1 <1>   0.0800 
 41 H       -1.6270     9.4140     2.1300 H     1 <1>   0.0800 
 42 H       -2.0750     7.8100     1.5300 H     1 <1>   0.0800 
 43 H       -0.1160    10.4310    -0.6270 H     1 <1>   0.4000 
@<TRIPOS>BOND
  1   1   2  1   
  2   2   3  ar  
  3   2   4  ar  
  4   3   5  ar  
  5   3   6  1   
  6   4   7  ar  
  7   4   8  1   
  8   5   9  1   
  9   5  10  ar  
 10   6  11  1   
 11   6  23  1   
 12   6  24  1   
 13   7  10  ar  
 14   7  25  1   
 15   8  26  1   
 16   8  27  1   
 17   8  28  1   
 18  10  29  1   
 19  11  12  am  
 20  11  30  1   
 21  12  13  2   
 22  12  14  1   
 23  14  15  1   
 24  14  16  1   
 25  14  31  1   
 26  15  17  1   
 27  15  32  1   
 28  15  33  1   
 29  16  18  1   
 30  16  34  1   
 31  16  35  1   
 32  17  19  1   
 33  17  20  1   
 34  17  36  1   
 35  18  20  1   
 36  18  37  1   
 37  18  38  1   
 38  19  21  1   
 39  20  22  1   
 40  20  39  1   
 41  21  40  1   
 42  21  41  1   
 43  21  42  1   
 44  22  43  1   
@<TRIPOS>SUBSTRUCTURE
  1 ****  11 GROUP 4 **** **** 0

# MOE 2024.06 (io_trps.svl 2023.06)
