@<TRIPOS>MOLECULE
NONAME
53 55 1 0 0 
SMALL
USER_CHARGES


@<TRIPOS>ATOM
  1 O       -0.9960    -0.6830    -1.2670 O.3   1 <1>  -0.3630 
  2 C       -1.9250    -1.0370    -0.3290 C.ar  1 <1>   0.0820 
  3 C       -0.0350     0.3050    -0.9500 C.3   1 <1>   0.0400 
  4 C       -2.1200    -2.3980    -0.0460 C.ar  1 <1>   0.0820 
  5 C       -2.7210    -0.0760     0.3130 C.ar  1 <1>   0.0820 
  6 O       -1.4030    -3.4180    -0.6110 O.3   1 <1>  -0.3630 
  7 C       -3.1110    -2.7840     0.8510 C.ar  1 <1>  -0.1430 
  8 O       -2.5540     1.2430     0.0070 O.3   1 <1>  -0.3630 
  9 C       -3.6840    -0.4870     1.2310 C.ar  1 <1>  -0.1500 
 10 C       -0.0160    -3.2810    -0.8560 C.3   1 <1>   0.0400 
 11 C       -3.8800    -1.8280     1.4930 C.ar  1 <1>  -0.1500 
 12 C       -3.3680    -4.2540     1.1220 C.3   1 <1>   0.4860 
 13 C       -3.4220     2.2480     0.4840 C.3   1 <1>   0.0400 
 14 N       -3.7620    -4.9010    -0.1560 N.4   1 <1>  -0.9590 
 15 C       -5.0810    -4.3840    -0.6360 C.3   1 <1>   0.3430 
 16 C       -3.8860    -6.3800    -0.0090 C.3   1 <1>   0.3430 
 17 C       -6.1040    -5.4420    -0.2160 C.3   1 <1>   0.2000 
 18 C       -5.3210    -6.7410    -0.4110 C.3   1 <1>  -0.0800 
 19 O       -6.3930    -5.2610     1.1350 O.3   1 <1>  -0.6800 
 20 C       -5.8580    -7.9830     0.3250 C.3   1 <1>  -0.0170 
 21 C       -4.9060    -9.1530     0.1390 C.ar  1 <1>  -0.1430 
 22 C       -4.1060    -9.6140     1.1660 C.ar  1 <1>  -0.1500 
 23 C       -4.7880    -9.8120    -1.0690 C.ar  1 <1>  -0.1500 
 24 C       -3.2370   -10.6690     0.9360 C.ar  1 <1>   0.1600 
 25 C       -3.8870   -10.8560    -1.1940 C.ar  1 <1>   0.1600 
 26 N       -3.1030   -11.2910    -0.2220 N.ar  1 <1>  -0.6200 
 27 H        0.8500     0.1110    -1.5280 H     1 <1>   0.0800 
 28 H        0.1900     0.2580     0.1010 H     1 <1>   0.0800 
 29 H       -0.4290     1.2700    -1.2100 H     1 <1>   0.0800 
 30 H       -4.2980     0.2250     1.7510 H     1 <1>   0.1500 
 31 H        0.4230    -4.2610    -0.8870 H     1 <1>   0.0800 
 32 H        0.4290    -2.7030    -0.0640 H     1 <1>   0.0800 
 33 H        0.1240    -2.7940    -1.8040 H     1 <1>   0.0800 
 34 H       -4.6410    -2.1160     2.2010 H     1 <1>   0.1500 
 35 H       -4.1510    -4.3700     1.8550 H     1 <1>   0.0800 
 36 H       -2.4650    -4.7040     1.5000 H     1 <1>   0.0800 
 37 H       -3.1200     3.1840     0.0500 H     1 <1>   0.0800 
 38 H       -3.3410     2.3030     1.5550 H     1 <1>   0.0800 
 39 H       -4.4280     2.0160     0.1820 H     1 <1>   0.0800 
 40 H       -3.0120    -4.6310    -0.8170 H     1 <1>   0.4500 
 41 H       -5.3220    -3.4180    -0.2240 H     1 <1>   0.0800 
 42 H       -5.0650    -4.3140    -1.7110 H     1 <1>   0.0800 
 43 H       -3.1740    -6.8980    -0.6310 H     1 <1>   0.0800 
 44 H       -3.7220    -6.6620     1.0180 H     1 <1>   0.0800 
 45 H       -7.0170    -5.3850    -0.7860 H     1 <1>   0.0800 
 46 H       -5.3050    -6.9610    -1.4650 H     1 <1>   0.0800 
 47 H       -7.2230    -5.7210     1.3830 H     1 <1>   0.4000 
 48 H       -6.8280    -8.2480    -0.0600 H     1 <1>   0.0800 
 49 H       -5.9680    -7.7860     1.3780 H     1 <1>   0.0800 
 50 H       -4.1460    -9.1750     2.1460 H     1 <1>   0.1500 
 51 H       -5.3870    -9.5320    -1.9160 H     1 <1>   0.1500 
 52 H       -2.6210   -11.0200     1.7470 H     1 <1>   0.1500 
 53 H       -3.8060   -11.3610    -2.1420 H     1 <1>   0.1500 
@<TRIPOS>BOND
  1   1   2  1   
  2   1   3  1   
  3   2   4  ar  
  4   2   5  ar  
  5   3  27  1   
  6   3  28  1   
  7   3  29  1   
  8   4   6  1   
  9   4   7  ar  
 10   5   8  1   
 11   5   9  ar  
 12   6  10  1   
 13   7  11  ar  
 14   7  12  1   
 15   8  13  1   
 16   9  11  ar  
 17   9  30  1   
 18  10  31  1   
 19  10  32  1   
 20  10  33  1   
 21  11  34  1   
 22  12  14  1   
 23  12  35  1   
 24  12  36  1   
 25  13  37  1   
 26  13  38  1   
 27  13  39  1   
 28  14  15  1   
 29  14  16  1   
 30  14  40  1   
 31  15  17  1   
 32  15  41  1   
 33  15  42  1   
 34  16  18  1   
 35  16  43  1   
 36  16  44  1   
 37  17  18  1   
 38  17  19  1   
 39  17  45  1   
 40  18  20  1   
 41  18  46  1   
 42  19  47  1   
 43  20  21  1   
 44  20  48  1   
 45  20  49  1   
 46  21  22  ar  
 47  21  23  ar  
 48  22  24  ar  
 49  22  50  1   
 50  23  25  ar  
 51  23  51  1   
 52  24  26  ar  
 53  24  52  1   
 54  25  26  ar  
 55  25  53  1   
@<TRIPOS>SUBSTRUCTURE
  1 ****  14 GROUP 4 **** **** 0

# MOE 2024.06 (io_trps.svl 2023.06)
