@<TRIPOS>MOLECULE
NONAME
49 51 1 0 0 
SMALL
USER_CHARGES


@<TRIPOS>ATOM
  1 S        0.0310    -0.3100    -0.7920 S.3   1 <1>  -0.0800 
  2 C       -1.2740    -0.9930     0.1250 C.2   1 <1>   0.4420 
  3 C       -0.4800     1.2420    -0.2230 C.2   1 <1>   0.1980 
  4 N       -1.9490    -0.0920     0.7430 N.2   1 <1>  -0.3380 
  5 N       -1.4190    -2.3630     0.0730 N.am  1 <1>  -0.4940 
  6 N       -1.4910     1.1780     0.5400 N.2   1 <1>  -0.3380 
  7 C        0.2840     2.4700    -0.6620 C.3   1 <1>   0.0200 
  8 C       -2.3290    -3.1530     0.7140 C.2   1 <1>   0.5690 
  9 C       -0.3780     3.7090    -0.0470 C.3   1 <1>   0.3430 
 10 O       -3.1530    -2.7340     1.4840 O.2   1 <1>  -0.5700 
 11 C       -2.2830    -4.6420     0.4370 C.3   1 <1>  -0.0990 
 12 N        0.2670     4.9960    -0.4730 N.4   1 <1>  -0.9590 
 13 C       -3.6810    -5.2610     0.4750 C.3   1 <1>   0.0700 
 14 C        1.6450     5.1630     0.0930 C.3   1 <1>   0.2630 
 15 C       -0.5960     6.1470    -0.0590 C.3   1 <1>   0.2630 
 16 S       -3.5250    -7.0400     0.0080 S.3   1 <1>  -0.3320 
 17 C       -5.1930    -7.7260     0.0440 C.ar  1 <1>   0.1010 
 18 C       -5.3300    -9.0550    -0.3150 C.ar  1 <1>  -0.1500 
 19 C       -6.2940    -6.9660     0.4150 C.ar  1 <1>  -0.1500 
 20 C       -6.5860    -9.6350    -0.3050 C.ar  1 <1>   0.0830 
 21 C       -7.5530    -7.5470     0.4170 C.ar  1 <1>  -0.1500 
 22 O       -6.7060   -10.9440    -0.6430 O.3   1 <1>  -0.3620 
 23 C       -7.7030    -8.8750     0.0530 C.ar  1 <1>   0.0830 
 24 C       -7.9280   -11.5790    -0.3180 C.3   1 <1>   0.1200 
 25 O       -8.9490    -9.4140     0.0490 O.3   1 <1>  -0.3630 
 26 C       -9.1090   -10.6480    -0.6270 C.3   1 <1>   0.1200 
 27 H       -0.7520    -2.8450    -0.5230 H     1 <1>   0.3700 
 28 H        0.2570     2.5280    -1.7350 H     1 <1>   0.0800 
 29 H        1.3010     2.3760    -0.3290 H     1 <1>   0.0800 
 30 H       -0.3530     3.6240     1.0280 H     1 <1>   0.0800 
 31 H       -1.4160     3.7140    -0.3440 H     1 <1>   0.0800 
 32 H       -1.6690    -5.1120     1.1830 H     1 <1>   0.0800 
 33 H       -1.8500    -4.8200    -0.5300 H     1 <1>   0.0800 
 34 H        0.3270     5.0090    -1.5040 H     1 <1>   0.4500 
 35 H       -4.3390    -4.7950    -0.2380 H     1 <1>   0.0800 
 36 H       -4.1050    -5.2160     1.4630 H     1 <1>   0.0800 
 37 H        1.6140     5.1410     1.1700 H     1 <1>   0.0800 
 38 H        2.0650     6.1070    -0.2180 H     1 <1>   0.0800 
 39 H        2.2940     4.3740    -0.2500 H     1 <1>   0.0800 
 40 H       -0.6950     6.1750     1.0150 H     1 <1>   0.0800 
 41 H       -1.5790     6.0540    -0.4920 H     1 <1>   0.0800 
 42 H       -0.1640     7.0790    -0.3890 H     1 <1>   0.0800 
 43 H       -4.4710    -9.6350    -0.5960 H     1 <1>   0.1500 
 44 H       -6.1970    -5.9370     0.7000 H     1 <1>   0.1500 
 45 H       -8.4200    -6.9770     0.6980 H     1 <1>   0.1500 
 46 H       -7.9090   -11.8250     0.7290 H     1 <1>   0.0800 
 47 H       -7.9940   -12.4850    -0.8940 H     1 <1>   0.0800 
 48 H      -10.0360   -11.0850    -0.3030 H     1 <1>   0.0800 
 49 H       -9.1610   -10.4480    -1.6820 H     1 <1>   0.0800 
@<TRIPOS>BOND
  1   1   2  1   
  2   1   3  1   
  3   2   4  2   
  4   2   5  1   
  5   3   6  2   
  6   3   7  1   
  7   4   6  1   
  8   5   8  am  
  9   5  27  1   
 10   7   9  1   
 11   7  28  1   
 12   7  29  1   
 13   8  10  2   
 14   8  11  1   
 15   9  12  1   
 16   9  30  1   
 17   9  31  1   
 18  11  13  1   
 19  11  32  1   
 20  11  33  1   
 21  12  14  1   
 22  12  15  1   
 23  12  34  1   
 24  13  16  1   
 25  13  35  1   
 26  13  36  1   
 27  14  37  1   
 28  14  38  1   
 29  14  39  1   
 30  15  40  1   
 31  15  41  1   
 32  15  42  1   
 33  16  17  1   
 34  17  18  ar  
 35  17  19  ar  
 36  18  20  ar  
 37  18  43  1   
 38  19  21  ar  
 39  19  44  1   
 40  20  22  1   
 41  20  23  ar  
 42  21  23  ar  
 43  21  45  1   
 44  22  24  1   
 45  23  25  1   
 46  24  26  1   
 47  24  46  1   
 48  24  47  1   
 49  25  26  1   
 50  26  48  1   
 51  26  49  1   
@<TRIPOS>SUBSTRUCTURE
  1 ****   8 GROUP 4 **** **** 0

# MOE 2024.06 (io_trps.svl 2023.06)
