@<TRIPOS>MOLECULE
NONAME
42 44 1 0 0 
SMALL
USER_CHARGES


@<TRIPOS>ATOM
  1 O        1.7570     0.0120    -2.0620 O.2   1 <1>  -0.5700 
  2 C        2.1230    -0.6510    -1.1030 C.2   1 <1>   0.5440 
  3 N        2.9440    -0.0230    -0.1760 N.am  1 <1>  -0.6600 
  4 C        1.7210    -2.0610    -1.0370 C.ar  1 <1>   0.3960 
  5 C        3.7040    -0.7140     0.9180 C.3   1 <1>   0.1400 
  6 C        3.2160     1.4400    -0.2550 C.3   1 <1>   0.1400 
  7 N        1.3040    -2.6090     0.1190 N.ar  1 <1>  -0.6200 
  8 C        1.7690    -2.8160    -2.2100 C.ar  1 <1>  -0.1500 
  9 C        5.1750    -0.9620     0.5410 C.3   1 <1>   0.1400 
 10 C        4.3460     1.7500    -1.2480 C.3   1 <1>  -0.1600 
 11 C        0.9490    -3.8790     0.1030 C.ar  1 <1>   0.1670 
 12 C        1.4020    -4.1420    -2.2220 C.ar  1 <1>  -0.1500 
 13 N        5.8690     0.2850     0.0880 N.am  1 <1>  -0.6600 
 14 C        5.4860     0.7240    -1.2840 C.3   1 <1>   0.1400 
 15 C        0.9820    -4.6790    -1.0270 C.ar  1 <1>  -0.1500 
 16 C        0.4830    -4.4500     1.4250 C.3   1 <1>  -0.0970 
 17 C        6.4830     1.1170     1.0010 C.2   1 <1>   0.7160 
 18 O        6.3150     0.9090     2.1890 O.2   1 <1>  -0.5700 
 19 C        7.2910     2.2380     0.5880 C.2   1 <1>  -0.0860 
 20 C        8.2440     2.2470    -0.4340 C.2   1 <1>   0.1390 
 21 C        7.3520     3.5080     1.0770 C.2   1 <1>  -0.3020 
 22 N        8.8180     3.3990    -0.5850 N.2   1 <1>  -0.7070 
 23 N        8.2660     4.1790     0.3610 N.pl3 1 <1>   0.3000 
 24 H        3.2560    -1.6540     1.1690 H     1 <1>   0.0800 
 25 H        3.6710    -0.1110     1.8090 H     1 <1>   0.0800 
 26 H        3.4900     1.8030     0.7210 H     1 <1>   0.0800 
 27 H        2.3210     1.9590    -0.5530 H     1 <1>   0.0800 
 28 H        2.0960    -2.3420    -3.1190 H     1 <1>   0.1500 
 29 H        5.2220    -1.7030    -0.2370 H     1 <1>   0.0800 
 30 H        5.6870    -1.3660     1.3970 H     1 <1>   0.0800 
 31 H        4.7470     2.7210    -1.0210 H     1 <1>   0.0800 
 32 H        3.9220     1.8140    -2.2340 H     1 <1>   0.0800 
 33 H        1.4370    -4.7310    -3.1240 H     1 <1>   0.1500 
 34 H        6.3310     1.1380    -1.8020 H     1 <1>   0.0800 
 35 H        5.1590    -0.1330    -1.8490 H     1 <1>   0.0800 
 36 H        0.6800    -5.7100    -0.9770 H     1 <1>   0.1500 
 37 H       -0.3740    -3.9010     1.7700 H     1 <1>   0.0800 
 38 H        1.2680    -4.3590     2.1530 H     1 <1>   0.0800 
 39 H        0.2160    -5.4860     1.3290 H     1 <1>   0.0800 
 40 H        8.4830     1.3860    -1.0350 H     1 <1>   0.1500 
 41 H        6.7950     3.9380     1.8890 H     1 <1>   0.1500 
 42 H        8.5450     5.1600     0.4900 H     1 <1>   0.2700 
@<TRIPOS>BOND
  1   1   2  2   
  2   2   3  am  
  3   2   4  1   
  4   3   5  1   
  5   3   6  1   
  6   4   7  ar  
  7   4   8  ar  
  8   5   9  1   
  9   5  24  1   
 10   5  25  1   
 11   6  10  1   
 12   6  26  1   
 13   6  27  1   
 14   7  11  ar  
 15   8  12  ar  
 16   8  28  1   
 17   9  13  1   
 18   9  29  1   
 19   9  30  1   
 20  10  14  1   
 21  10  31  1   
 22  10  32  1   
 23  11  15  ar  
 24  11  16  1   
 25  12  15  ar  
 26  12  33  1   
 27  13  14  1   
 28  13  17  am  
 29  14  34  1   
 30  14  35  1   
 31  15  36  1   
 32  16  37  1   
 33  16  38  1   
 34  16  39  1   
 35  17  18  2   
 36  17  19  1   
 37  19  20  1   
 38  19  21  2   
 39  20  22  2   
 40  20  40  1   
 41  21  23  1   
 42  21  41  1   
 43  22  23  1   
 44  23  42  1   
@<TRIPOS>SUBSTRUCTURE
  1 ****   3 GROUP 4 **** **** 0

# MOE 2024.06 (io_trps.svl 2023.06)
