@<TRIPOS>MOLECULE
NONAME
37 38 1 0 0 
SMALL
USER_CHARGES


@<TRIPOS>ATOM
  1 O        0.0180     0.6370     0.0970 O.3   1 <1>  -0.6800 
  2 C        0.0010     1.9740     0.4470 C.3   1 <1>   0.2000 
  3 C       -1.3150     2.6160    -0.0280 C.3   1 <1>  -0.0800 
  4 C        1.2260     2.6330    -0.2160 C.3   1 <1>   0.3430 
  5 C       -1.2320     4.1500     0.1450 C.3   1 <1>  -0.1600 
  6 C       -2.5320     2.0240     0.7050 C.3   1 <1>   0.1200 
  7 N        1.2350     4.1270    -0.0520 N.4   1 <1>  -0.9590 
  8 C       -0.0210     4.7470    -0.5700 C.3   1 <1>   0.3430 
  9 O       -3.6760     2.6530     0.2490 O.3   1 <1>  -0.6800 
 10 C        2.4410     4.7200    -0.6920 C.3   1 <1>   0.4860 
 11 C        2.5550     6.1770    -0.2770 C.ar  1 <1>  -0.1440 
 12 C        3.0080     6.5140     0.9900 C.ar  1 <1>  -0.1500 
 13 C        2.2130     7.1890    -1.1620 C.ar  1 <1>  -0.1500 
 14 C        3.1070     7.8420     1.3660 C.ar  1 <1>  -0.1500 
 15 C        2.3150     8.5150    -0.7800 C.ar  1 <1>  -0.1500 
 16 C        2.7620     8.8640     0.4890 C.ar  1 <1>   0.0730 
 17 C        2.8670    10.2420     0.8810 C.1   1 <1>   0.4840 
 18 N        2.9450    11.3350     1.1940 N.1   1 <1>  -0.5570 
 19 H       -0.6930     0.1310     0.5410 H     1 <1>   0.4000 
 20 H        0.0920     2.0330     1.5190 H     1 <1>   0.0800 
 21 H       -1.4280     2.4030    -1.0780 H     1 <1>   0.0800 
 22 H        1.2060     2.3900    -1.2650 H     1 <1>   0.0800 
 23 H        2.1180     2.2100     0.2150 H     1 <1>   0.0800 
 24 H       -1.2040     4.4100     1.1890 H     1 <1>   0.0800 
 25 H       -2.1150     4.6050    -0.2710 H     1 <1>   0.0800 
 26 H       -2.4650     2.1810     1.7690 H     1 <1>   0.0800 
 27 H       -2.6330     0.9710     0.5000 H     1 <1>   0.0800 
 28 H        1.2920     4.3540     0.9480 H     1 <1>   0.4500 
 29 H       -0.0020     5.8140    -0.4070 H     1 <1>   0.0800 
 30 H       -0.1100     4.5690    -1.6300 H     1 <1>   0.0800 
 31 H       -4.4800     2.2660     0.6510 H     1 <1>   0.4000 
 32 H        3.3260     4.1940    -0.3740 H     1 <1>   0.0800 
 33 H        2.3700     4.6450    -1.7650 H     1 <1>   0.0800 
 34 H        3.2960     5.7540     1.6980 H     1 <1>   0.1500 
 35 H        1.8690     6.9620    -2.1580 H     1 <1>   0.1500 
 36 H        3.4620     8.0930     2.3530 H     1 <1>   0.1500 
 37 H        2.0460     9.2930    -1.4770 H     1 <1>   0.1500 
@<TRIPOS>BOND
  1   1   2  1   
  2   1  19  1   
  3   2   3  1   
  4   2   4  1   
  5   2  20  1   
  6   3   5  1   
  7   3   6  1   
  8   3  21  1   
  9   4   7  1   
 10   4  22  1   
 11   4  23  1   
 12   5   8  1   
 13   5  24  1   
 14   5  25  1   
 15   6   9  1   
 16   6  26  1   
 17   6  27  1   
 18   7   8  1   
 19   7  10  1   
 20   7  28  1   
 21   8  29  1   
 22   8  30  1   
 23   9  31  1   
 24  10  11  1   
 25  10  32  1   
 26  10  33  1   
 27  11  12  ar  
 28  11  13  ar  
 29  12  14  ar  
 30  12  34  1   
 31  13  15  ar  
 32  13  35  1   
 33  14  16  ar  
 34  14  36  1   
 35  15  16  ar  
 36  15  37  1   
 37  16  17  1   
 38  17  18  3   
@<TRIPOS>SUBSTRUCTURE
  1 ****   7 GROUP 4 **** **** 0

# MOE 2024.06 (io_trps.svl 2023.06)
