@<TRIPOS>MOLECULE
NONAME
46 49 1 0 0 
SMALL
USER_CHARGES


@<TRIPOS>ATOM
  1 O       -0.0100    -1.2670     2.1830 O.2   1 <1>  -0.5700 
  2 C       -0.8940    -1.8470     1.5750 C.2   1 <1>   0.6900 
  3 N       -0.7730    -3.0200     0.9260 N.am  1 <1>  -0.5390 
  4 N       -2.1620    -1.4090     1.4320 N.am  1 <1>  -0.5390 
  5 C       -2.0020    -3.3450     0.3330 C.2   1 <1>   0.1230 
  6 C       -2.8400    -2.3280     0.6560 C.2   1 <1>  -0.0410 
  7 C       -2.2000    -4.5390    -0.4650 C.2   1 <1>   0.6160 
  8 O       -1.2290    -5.0750    -0.9740 O.2   1 <1>  -0.5700 
  9 N       -3.4480    -5.0920    -0.6800 N.am  1 <1>  -0.6600 
 10 C       -4.5540    -5.0540     0.3180 C.3   1 <1>   0.1400 
 11 C       -3.7090    -5.9930    -1.8390 C.3   1 <1>   0.1400 
 12 C       -4.8350    -6.4690     0.8310 C.3   1 <1>  -0.1600 
 13 C       -3.9860    -7.4140    -1.3450 C.3   1 <1>  -0.1600 
 14 C       -5.1280    -7.4550    -0.3150 C.3   1 <1>   0.4240 
 15 O       -6.2380    -6.9380    -1.0180 O.3   1 <1>  -0.5600 
 16 C       -5.3920    -8.9040     0.1900 C.ar  1 <1>  -0.1430 
 17 C       -7.5090    -7.2440    -0.5460 C.3   1 <1>   0.1200 
 18 C       -4.4170    -9.6480     0.8690 C.ar  1 <1>   0.0830 
 19 C       -6.6340    -9.5000    -0.0300 C.ar  1 <1>  -0.1430 
 20 C       -7.7350    -8.7350    -0.7340 C.3   1 <1>  -0.0170 
 21 O       -3.2070    -9.0800     1.1140 O.3   1 <1>  -0.3630 
 22 C       -4.6920   -10.9480     1.2900 C.ar  1 <1>  -0.1500 
 23 C       -6.8940   -10.7940     0.3890 C.ar  1 <1>  -0.1500 
 24 C       -2.0960    -9.8200     1.5700 C.3   1 <1>   0.0400 
 25 C       -5.9230   -11.5190     1.0480 C.ar  1 <1>  -0.1500 
 26 H        0.1020    -3.5290     0.8040 H     1 <1>   0.3700 
 27 H       -2.4690    -0.5220     1.8300 H     1 <1>   0.3700 
 28 H       -3.8710    -2.1940     0.3740 H     1 <1>   0.1500 
 29 H       -5.4350    -4.6480    -0.1490 H     1 <1>   0.0800 
 30 H       -4.2940    -4.4330     1.1560 H     1 <1>   0.0800 
 31 H       -2.8650    -6.0010    -2.5090 H     1 <1>   0.0800 
 32 H       -4.5580    -5.6220    -2.3870 H     1 <1>   0.0800 
 33 H       -5.6560    -6.4560     1.5220 H     1 <1>   0.0800 
 34 H       -3.9730    -6.7890     1.3820 H     1 <1>   0.0800 
 35 H       -3.0750    -7.7920    -0.9260 H     1 <1>   0.0800 
 36 H       -4.2410    -8.0460    -2.1750 H     1 <1>   0.0800 
 37 H       -8.2210    -6.6780    -1.1200 H     1 <1>   0.0800 
 38 H       -7.5840    -6.9650     0.4900 H     1 <1>   0.0800 
 39 H       -7.7310    -8.9710    -1.7830 H     1 <1>   0.0800 
 40 H       -8.6940    -9.0010    -0.3280 H     1 <1>   0.0800 
 41 H       -3.9610   -11.5330     1.8120 H     1 <1>   0.1500 
 42 H       -7.8540   -11.2430     0.2050 H     1 <1>   0.1500 
 43 H       -1.2420    -9.1670     1.5740 H     1 <1>   0.0800 
 44 H       -1.9240   -10.6420     0.8970 H     1 <1>   0.0800 
 45 H       -2.2940   -10.1690     2.5670 H     1 <1>   0.0800 
 46 H       -6.1290   -12.5240     1.3740 H     1 <1>   0.1500 
@<TRIPOS>BOND
  1   1   2  2   
  2   2   3  am  
  3   2   4  am  
  4   3   5  1   
  5   3  26  1   
  6   4   6  1   
  7   4  27  1   
  8   5   6  2   
  9   5   7  1   
 10   6  28  1   
 11   7   8  2   
 12   7   9  am  
 13   9  10  1   
 14   9  11  1   
 15  10  12  1   
 16  10  29  1   
 17  10  30  1   
 18  11  13  1   
 19  11  31  1   
 20  11  32  1   
 21  12  14  1   
 22  12  33  1   
 23  12  34  1   
 24  13  14  1   
 25  13  35  1   
 26  13  36  1   
 27  14  15  1   
 28  14  16  1   
 29  15  17  1   
 30  16  18  ar  
 31  16  19  ar  
 32  17  20  1   
 33  17  37  1   
 34  17  38  1   
 35  18  21  1   
 36  18  22  ar  
 37  19  20  1   
 38  19  23  ar  
 39  20  39  1   
 40  20  40  1   
 41  21  24  1   
 42  22  25  ar  
 43  22  41  1   
 44  23  25  ar  
 45  23  42  1   
 46  24  43  1   
 47  24  44  1   
 48  24  45  1   
 49  25  46  1   
@<TRIPOS>SUBSTRUCTURE
  1 ****  12 GROUP 4 **** **** 0

# MOE 2024.06 (io_trps.svl 2023.06)
