@<TRIPOS>MOLECULE
NONAME
40 41 1 0 0 
SMALL
USER_CHARGES


@<TRIPOS>ATOM
  1 O        0.0030    -0.6230     2.4620 O.2   1 <1>  -0.5700 
  2 C        0.8440    -0.7570     1.6010 C.2   1 <1>   0.5440 
  3 N        1.3900     0.3890     1.1240 N.am  1 <1>  -0.7300 
  4 C        1.1970    -2.0700     1.1080 C.ar  1 <1>   0.0860 
  5 C        1.9550     0.6180    -0.2230 C.3   1 <1>   0.3640 
  6 C        2.5180    -2.4220     0.8370 C.ar  1 <1>   0.1600 
  7 C        0.2310    -3.0440     0.8860 C.ar  1 <1>  -0.1500 
  8 C        3.4720     0.7720    -0.1480 C.ar  1 <1>  -0.1440 
  9 C        1.2780     1.8440    -0.8840 C.3   1 <1>  -0.0800 
 10 N        2.9280    -3.5830     0.3580 N.ar  1 <1>  -0.6200 
 11 C        0.6350    -4.2650     0.3960 C.ar  1 <1>  -0.1500 
 12 C        4.2330     0.4220    -1.2560 C.ar  1 <1>   0.1600 
 13 C        4.1300     1.2420     0.9750 C.ar  1 <1>  -0.1500 
 14 C        1.4790     3.1610    -0.1110 C.3   1 <1>  -0.2400 
 15 C       -0.2250     1.6070    -1.1120 C.3   1 <1>  -0.2400 
 16 C        1.9870    -4.4910     0.1420 C.ar  1 <1>   0.3930 
 17 N        5.5500     0.5060    -1.3350 N.ar  1 <1>  -0.6200 
 18 C        5.5040     1.3300     0.9130 C.ar  1 <1>  -0.1500 
 19 O        2.4460    -5.6580    -0.3440 O.3   1 <1>  -0.3630 
 20 C        6.1550     0.9540    -0.2480 C.ar  1 <1>   0.1600 
 21 C        1.6200    -6.7710    -0.6030 C.3   1 <1>   0.0400 
 22 H        1.0470     1.2400     1.5700 H     1 <1>   0.3700 
 23 H        1.7390    -0.2430    -0.8330 H     1 <1>   0.0800 
 24 H        3.2850    -1.6920     1.0330 H     1 <1>   0.1500 
 25 H       -0.8040    -2.8350     1.0980 H     1 <1>   0.1500 
 26 H        1.7310     1.9690    -1.8530 H     1 <1>   0.0800 
 27 H       -0.0980    -5.0260     0.2180 H     1 <1>   0.1500 
 28 H        3.7320     0.0510    -2.1340 H     1 <1>   0.1500 
 29 H        3.6040     1.5300     1.8690 H     1 <1>   0.1500 
 30 H        1.0280     3.1160     0.8640 H     1 <1>   0.0800 
 31 H        1.0310     3.9770    -0.6510 H     1 <1>   0.0800 
 32 H        2.5260     3.3800     0.0010 H     1 <1>   0.0800 
 33 H       -0.7480     1.5120    -0.1760 H     1 <1>   0.0800 
 34 H       -0.3830     0.7090    -1.6830 H     1 <1>   0.0800 
 35 H       -0.6540     2.4290    -1.6560 H     1 <1>   0.0800 
 36 H        6.0680     1.6850     1.7560 H     1 <1>   0.1500 
 37 H        7.2290     1.0260    -0.2860 H     1 <1>   0.1500 
 38 H        2.2420    -7.5690    -0.9680 H     1 <1>   0.0800 
 39 H        0.8960    -6.5030    -1.3520 H     1 <1>   0.0800 
 40 H        1.1400    -7.0720     0.3110 H     1 <1>   0.0800 
@<TRIPOS>BOND
  1   1   2  2   
  2   2   3  am  
  3   2   4  1   
  4   3   5  1   
  5   3  22  1   
  6   4   6  ar  
  7   4   7  ar  
  8   5   8  1   
  9   5   9  1   
 10   5  23  1   
 11   6  10  ar  
 12   6  24  1   
 13   7  11  ar  
 14   7  25  1   
 15   8  12  ar  
 16   8  13  ar  
 17   9  14  1   
 18   9  15  1   
 19   9  26  1   
 20  10  16  ar  
 21  11  16  ar  
 22  11  27  1   
 23  12  17  ar  
 24  12  28  1   
 25  13  18  ar  
 26  13  29  1   
 27  14  30  1   
 28  14  31  1   
 29  14  32  1   
 30  15  33  1   
 31  15  34  1   
 32  15  35  1   
 33  16  19  1   
 34  17  20  ar  
 35  18  20  ar  
 36  18  36  1   
 37  19  21  1   
 38  20  37  1   
 39  21  38  1   
 40  21  39  1   
 41  21  40  1   
@<TRIPOS>SUBSTRUCTURE
  1 ****   6 GROUP 4 **** **** 0

# MOE 2024.06 (io_trps.svl 2023.06)
