@<TRIPOS>MOLECULE
NONAME
48 50 1 0 0 
SMALL
USER_CHARGES


@<TRIPOS>ATOM
  1 F        2.5340     0.2710    -2.1900 F     1 <1>  -0.1900 
  2 C        2.6430     0.6280    -0.9380 C.ar  1 <1>   0.1900 
  3 C        2.5540    -0.3460     0.0430 C.ar  1 <1>  -0.1440 
  4 C        2.8270     1.9660    -0.6480 C.ar  1 <1>  -0.1500 
  5 C        2.6640     0.0510     1.3690 C.ar  1 <1>  -0.1500 
  6 C        2.3530    -1.7970    -0.3390 C.3   1 <1>   0.4870 
  7 C        2.9270     2.3460     0.6790 C.ar  1 <1>  -0.1500 
  8 C        2.8460     1.3900     1.6800 C.ar  1 <1>  -0.1500 
  9 N        0.9080    -2.1510    -0.1820 N.4   1 <1>  -0.9590 
 10 C        0.7060    -3.6440    -0.2450 C.3   1 <1>   0.3430 
 11 C        0.0810    -1.4200    -1.1940 C.3   1 <1>   0.3430 
 12 C       -0.7860    -4.0720    -0.1270 C.3   1 <1>   0.2890 
 13 C       -1.3980    -1.7780    -1.0170 C.3   1 <1>  -0.1600 
 14 N       -0.9630    -5.5290    -0.4070 N.pl3 1 <1>  -0.8690 
 15 C       -1.6490    -3.2920    -1.1240 C.3   1 <1>  -0.1600 
 16 C       -1.7590    -6.4750     0.1690 C.ar  1 <1>   0.4610 
 17 N       -2.7000    -6.1630     1.0810 N.ar  1 <1>  -0.1790 
 18 C       -1.6600    -7.8080    -0.1610 C.ar  1 <1>  -0.1500 
 19 C       -3.4850    -7.1060     1.6420 C.ar  1 <1>   0.7710 
 20 C       -2.4940    -8.7210     0.4500 C.ar  1 <1>   0.3930 
 21 N       -3.4070    -8.3790     1.3560 N.ar  1 <1>  -0.6200 
 22 N       -4.4050    -6.7550     2.5410 N.pl3 1 <1>  -0.9000 
 23 O       -2.3660   -10.0000     0.1080 O.3   1 <1>  -0.3620 
 24 C       -3.1580   -11.0360     0.6590 C.3   1 <1>   0.0400 
 25 H        2.8910     2.6930    -1.4390 H     1 <1>   0.1500 
 26 H        2.6190    -0.6640     2.1740 H     1 <1>   0.1500 
 27 H        2.9590    -2.4130     0.3060 H     1 <1>   0.0800 
 28 H        2.6730    -1.9590    -1.3570 H     1 <1>   0.0800 
 29 H        3.0720     3.3830     0.9340 H     1 <1>   0.1500 
 30 H        2.9320     1.6960     2.7110 H     1 <1>   0.1500 
 31 H        0.6380    -1.7920     0.7430 H     1 <1>   0.4500 
 32 H        1.2680    -4.1180     0.5430 H     1 <1>   0.0800 
 33 H        1.0840    -4.0020    -1.1890 H     1 <1>   0.0800 
 34 H        0.3990    -1.6850    -2.1910 H     1 <1>   0.0800 
 35 H        0.2060    -0.3540    -1.0780 H     1 <1>   0.0800 
 36 H       -1.1150    -3.8570     0.8760 H     1 <1>   0.0800 
 37 H       -1.9640    -1.2720    -1.7810 H     1 <1>   0.0800 
 38 H       -1.7440    -1.4040    -0.0680 H     1 <1>   0.0800 
 39 H       -0.4210    -5.8470    -1.2260 H     1 <1>   0.4000 
 40 H       -2.6920    -3.4900    -0.9470 H     1 <1>   0.0800 
 41 H       -1.4180    -3.6080    -2.1280 H     1 <1>   0.0800 
 42 H       -2.8750    -5.2070     1.3420 H     1 <1>   0.4570 
 43 H       -0.9460    -8.1540    -0.8840 H     1 <1>   0.1500 
 44 H       -4.9770    -7.5080     2.9390 H     1 <1>   0.4000 
 45 H       -4.6450    -5.8320     2.9070 H     1 <1>   0.4000 
 46 H       -2.8550   -11.9670     0.2150 H     1 <1>   0.0800 
 47 H       -4.1930   -10.8420     0.4350 H     1 <1>   0.0800 
 48 H       -3.0030   -11.0680     1.7230 H     1 <1>   0.0800 
@<TRIPOS>BOND
  1   1   2  1   
  2   2   3  ar  
  3   2   4  ar  
  4   3   5  ar  
  5   3   6  1   
  6   4   7  ar  
  7   4  25  1   
  8   5   8  ar  
  9   5  26  1   
 10   6   9  1   
 11   6  27  1   
 12   6  28  1   
 13   7   8  ar  
 14   7  29  1   
 15   8  30  1   
 16   9  10  1   
 17   9  11  1   
 18   9  31  1   
 19  10  12  1   
 20  10  32  1   
 21  10  33  1   
 22  11  13  1   
 23  11  34  1   
 24  11  35  1   
 25  12  14  1   
 26  12  15  1   
 27  12  36  1   
 28  13  15  1   
 29  13  37  1   
 30  13  38  1   
 31  14  16  1   
 32  14  39  1   
 33  15  40  1   
 34  15  41  1   
 35  16  17  ar  
 36  16  18  ar  
 37  17  19  ar  
 38  17  42  1   
 39  18  20  ar  
 40  18  43  1   
 41  19  21  ar  
 42  19  22  1   
 43  20  21  ar  
 44  20  23  1   
 45  22  44  1   
 46  22  45  1   
 47  23  24  1   
 48  24  46  1   
 49  24  47  1   
 50  24  48  1   
@<TRIPOS>SUBSTRUCTURE
  1 ****  12 GROUP 4 **** **** 0

# MOE 2024.06 (io_trps.svl 2023.06)
