@<TRIPOS>MOLECULE
NONAME
51 53 1 0 0 
SMALL
USER_CHARGES


@<TRIPOS>ATOM
  1 O        2.1340     0.5470     1.3650 O.2   1 <1>  -0.5700 
  2 C        2.2030    -0.0190     0.2850 C.2   1 <1>   0.5440 
  3 N        2.3880     0.7750    -0.8380 N.am  1 <1>  -0.6600 
  4 C        2.1130    -1.4840     0.2390 C.ar  1 <1>   0.3960 
  5 C        2.9280     0.2180    -2.1210 C.3   1 <1>   0.1400 
  6 C        2.1130     2.2370    -0.7970 C.3   1 <1>   0.1400 
  7 N        1.4910    -2.0980    -0.7880 N.ar  1 <1>  -0.6200 
  8 C        2.6730    -2.2200     1.2810 C.ar  1 <1>  -0.1500 
  9 C        3.9440     1.1370    -2.8180 C.3   1 <1>   0.1400 
 10 C        3.3570     3.0120    -0.3440 C.3   1 <1>  -0.1600 
 11 C        1.4430    -3.4170    -0.7630 C.ar  1 <1>   0.1600 
 12 C        2.6200    -3.5950     1.2940 C.ar  1 <1>   0.0830 
 13 N        4.9140     1.7230    -1.8420 N.am  1 <1>  -0.6600 
 14 C        4.5100     3.0730    -1.3580 C.3   1 <1>   0.1400 
 15 C        1.9810    -4.2070     0.2320 C.ar  1 <1>  -0.1500 
 16 O        3.1860    -4.2470     2.3310 O.3   1 <1>  -0.3630 
 17 C        5.9820     0.9580    -1.4290 C.2   1 <1>   0.5690 
 18 C        3.1500    -5.6540     2.4280 C.3   1 <1>   0.0400 
 19 O        6.1270    -0.1650    -1.8550 O.2   1 <1>  -0.5700 
 20 C        7.0410     1.4170    -0.4230 C.3   1 <1>  -0.0190 
 21 C        6.4160     1.7060     0.9520 C.3   1 <1>   0.0960 
 22 C        7.9490     2.5460    -0.9560 C.3   1 <1>  -0.2400 
 23 N        7.4410     1.7820     2.0080 N.pl3 1 <1>   0.3140 
 24 N        7.9390     2.9290     2.4500 N.2   1 <1>  -0.7070 
 25 C        8.0210     0.7800     2.6760 C.2   1 <1>   0.0360 
 26 C        8.7830     2.5380     3.3480 C.2   1 <1>   0.3660 
 27 N        8.8760     1.2140     3.5310 N.2   1 <1>  -0.5650 
 28 H        2.1100     0.0140    -2.7890 H     1 <1>   0.0800 
 29 H        3.4260    -0.7160    -1.9250 H     1 <1>   0.0800 
 30 H        1.3160     2.4170    -0.0950 H     1 <1>   0.0800 
 31 H        1.7780     2.5780    -1.7610 H     1 <1>   0.0800 
 32 H        3.1550    -1.7070     2.0920 H     1 <1>   0.1500 
 33 H        3.4230     1.9200    -3.3390 H     1 <1>   0.0800 
 34 H        4.4770     0.5670    -3.5600 H     1 <1>   0.0800 
 35 H        3.6980     2.5950     0.5850 H     1 <1>   0.0800 
 36 H        3.0560     4.0210    -0.1340 H     1 <1>   0.0800 
 37 H        0.9430    -3.8990    -1.5870 H     1 <1>   0.1500 
 38 H        5.3400     3.5820    -0.9100 H     1 <1>   0.0800 
 39 H        4.2060     3.6660    -2.2040 H     1 <1>   0.0800 
 40 H        1.8920    -5.2740     0.1630 H     1 <1>   0.1500 
 41 H        3.6530    -5.9400     3.3350 H     1 <1>   0.0800 
 42 H        3.6580    -6.0770     1.5800 H     1 <1>   0.0800 
 43 H        2.1240    -5.9750     2.4640 H     1 <1>   0.0800 
 44 H        7.6830     0.5630    -0.2840 H     1 <1>   0.0800 
 45 H        5.7180     0.9300     1.2110 H     1 <1>   0.0800 
 46 H        5.8960     2.6430     0.9440 H     1 <1>   0.0800 
 47 H        7.4300     3.4800    -1.0420 H     1 <1>   0.0800 
 48 H        8.3310     2.2770    -1.9250 H     1 <1>   0.0800 
 49 H        8.7880     2.6920    -0.2970 H     1 <1>   0.0800 
 50 H        7.7860    -0.2540     2.5030 H     1 <1>   0.1500 
 51 H        9.3860     3.2170     3.9290 H     1 <1>   0.1500 
@<TRIPOS>BOND
  1   1   2  2   
  2   2   3  am  
  3   2   4  1   
  4   3   5  1   
  5   3   6  1   
  6   4   7  ar  
  7   4   8  ar  
  8   5   9  1   
  9   5  28  1   
 10   5  29  1   
 11   6  10  1   
 12   6  30  1   
 13   6  31  1   
 14   7  11  ar  
 15   8  12  ar  
 16   8  32  1   
 17   9  13  1   
 18   9  33  1   
 19   9  34  1   
 20  10  14  1   
 21  10  35  1   
 22  10  36  1   
 23  11  15  ar  
 24  11  37  1   
 25  12  15  ar  
 26  12  16  1   
 27  13  14  1   
 28  13  17  am  
 29  14  38  1   
 30  14  39  1   
 31  15  40  1   
 32  16  18  1   
 33  17  19  2   
 34  17  20  1   
 35  18  41  1   
 36  18  42  1   
 37  18  43  1   
 38  20  21  1   
 39  20  22  1   
 40  20  44  1   
 41  21  23  1   
 42  21  45  1   
 43  21  46  1   
 44  22  47  1   
 45  22  48  1   
 46  22  49  1   
 47  23  24  1   
 48  23  25  1   
 49  24  26  2   
 50  25  27  2   
 51  25  50  1   
 52  26  27  1   
 53  26  51  1   
@<TRIPOS>SUBSTRUCTURE
  1 ****   2 GROUP 4 **** **** 0

# MOE 2024.06 (io_trps.svl 2023.06)
