@<TRIPOS>MOLECULE
NONAME
47 49 1 0 0 
SMALL
USER_CHARGES


@<TRIPOS>ATOM
  1 O       -0.7220     1.0420    -1.9470 O.2   1 <1>  -0.5700 
  2 C       -1.7440     1.5160    -1.5070 C.2   1 <1>   0.5690 
  3 N       -2.6840     0.7260    -0.8980 N.am  1 <1>  -0.6600 
  4 C       -1.9690     3.0170    -1.6770 C.3   1 <1>   0.1810 
  5 C       -3.9760     1.1800    -0.3230 C.3   1 <1>   0.1400 
  6 C       -2.4640    -0.7140    -0.6230 C.3   1 <1>   0.1400 
  7 O       -2.1760     3.6650    -0.4290 O.3   1 <1>  -0.3620 
  8 C       -4.6540    -0.0990     0.1660 C.3   1 <1>   0.2000 
  9 C       -3.5150    -1.0810     0.4250 C.3   1 <1>  -0.0800 
 10 C       -1.1180     4.3240     0.0880 C.ar  1 <1>   0.0820 
 11 O       -5.3800     0.1140     1.3270 O.3   1 <1>  -0.6800 
 12 C       -3.9530    -2.5520     0.3700 C.3   1 <1>   0.0210 
 13 C       -0.2900     3.7230     1.0330 C.ar  1 <1>  -0.1440 
 14 C       -0.8800     5.6230    -0.3330 C.ar  1 <1>  -0.1500 
 15 C       -2.7630    -3.4820     0.5050 C.2   1 <1>   0.1080 
 16 C        0.7870     4.4410     1.5300 C.ar  1 <1>  -0.1500 
 17 C       -0.5310     2.3040     1.5250 C.3   1 <1>  -0.0970 
 18 C        0.1970     6.3290     0.1720 C.ar  1 <1>  -0.1500 
 19 N       -1.9620    -3.4580     1.5250 N.2   1 <1>  -0.7070 
 20 C       -2.3920    -4.4400    -0.4320 C.2   1 <1>  -0.1500 
 21 C        1.0310     5.7360     1.1030 C.ar  1 <1>  -0.1500 
 22 N       -1.0490    -4.4120     1.2630 N.pl3 1 <1>   0.3000 
 23 C       -1.2870    -5.0200     0.0820 C.2   1 <1>  -0.3320 
 24 C       -0.4310    -6.1350    -0.4900 C.3   1 <1>  -0.0600 
 25 H       -2.8420     3.1800    -2.2780 H     1 <1>   0.0800 
 26 H       -1.1190     3.4590    -2.1660 H     1 <1>   0.0800 
 27 H       -3.7850     1.8480     0.4990 H     1 <1>   0.0800 
 28 H       -4.5740     1.6700    -1.0710 H     1 <1>   0.0800 
 29 H       -2.6110    -1.2700    -1.5330 H     1 <1>   0.0800 
 30 H       -1.4660    -0.8900    -0.2560 H     1 <1>   0.0800 
 31 H       -5.3250    -0.4660    -0.5910 H     1 <1>   0.0800 
 32 H       -3.0780    -0.8820     1.3880 H     1 <1>   0.0800 
 33 H       -4.7790     0.3320     2.0660 H     1 <1>   0.4000 
 34 H       -4.4580    -2.7540    -0.5570 H     1 <1>   0.0800 
 35 H       -4.6390    -2.7520     1.1740 H     1 <1>   0.0800 
 36 H       -1.5370     6.0770    -1.0520 H     1 <1>   0.1500 
 37 H        1.4450     3.9930     2.2550 H     1 <1>   0.1500 
 38 H       -0.0800     2.1530     2.4890 H     1 <1>   0.0800 
 39 H       -0.1050     1.6000     0.8320 H     1 <1>   0.0800 
 40 H       -1.5840     2.1100     1.6140 H     1 <1>   0.0800 
 41 H        0.3850     7.3370    -0.1550 H     1 <1>   0.1500 
 42 H       -2.8940    -4.6520    -1.3590 H     1 <1>   0.1500 
 43 H        1.8710     6.2810     1.4970 H     1 <1>   0.1500 
 44 H       -0.2780    -4.6220     1.9080 H     1 <1>   0.2700 
 45 H       -0.8250    -6.4530    -1.4390 H     1 <1>   0.0800 
 46 H       -0.4220    -6.9780     0.1770 H     1 <1>   0.0800 
 47 H        0.5780    -5.7910    -0.6370 H     1 <1>   0.0800 
@<TRIPOS>BOND
  1   1   2  2   
  2   2   3  am  
  3   2   4  1   
  4   3   5  1   
  5   3   6  1   
  6   4   7  1   
  7   4  25  1   
  8   4  26  1   
  9   5   8  1   
 10   5  27  1   
 11   5  28  1   
 12   6   9  1   
 13   6  29  1   
 14   6  30  1   
 15   7  10  1   
 16   8   9  1   
 17   8  11  1   
 18   8  31  1   
 19   9  12  1   
 20   9  32  1   
 21  10  13  ar  
 22  10  14  ar  
 23  11  33  1   
 24  12  15  1   
 25  12  34  1   
 26  12  35  1   
 27  13  16  ar  
 28  13  17  1   
 29  14  18  ar  
 30  14  36  1   
 31  15  19  2   
 32  15  20  1   
 33  16  21  ar  
 34  16  37  1   
 35  17  38  1   
 36  17  39  1   
 37  17  40  1   
 38  18  21  ar  
 39  18  41  1   
 40  19  22  1   
 41  20  23  2   
 42  20  42  1   
 43  21  43  1   
 44  22  23  1   
 45  22  44  1   
 46  23  24  1   
 47  24  45  1   
 48  24  46  1   
 49  24  47  1   
@<TRIPOS>SUBSTRUCTURE
  1 ****   3 GROUP 4 **** **** 0

# MOE 2024.06 (io_trps.svl 2023.06)
