@<TRIPOS>MOLECULE
NONAME
46 49 1 0 0 
SMALL
USER_CHARGES


@<TRIPOS>ATOM
  1 O       -0.3690     0.2000     0.3830 O.2   1 <1>  -0.5700 
  2 C       -1.3730     0.8450     0.1210 C.2   1 <1>   0.7160 
  3 N       -2.5560     0.1370     0.0140 N.am  1 <1>  -0.6600 
  4 C       -1.2680     2.2960    -0.0500 C.2   1 <1>   0.2030 
  5 C       -3.9160     0.7100    -0.1570 C.3   1 <1>   0.1400 
  6 C       -2.6250    -1.3460     0.0450 C.3   1 <1>   0.1400 
  7 N       -2.2130     3.1450    -0.4280 N.2   1 <1>  -0.7070 
  8 C       -0.0780     2.9950     0.1760 C.2   1 <1>  -0.1500 
  9 C       -4.8580    -0.4240     0.2420 C.3   1 <1>   0.2000 
 10 C       -4.1020    -1.6850    -0.1880 C.3   1 <1>  -0.0800 
 11 N       -1.6210     4.3480    -0.4340 N.pl3 1 <1>   0.3000 
 12 C       -0.3230     4.3060    -0.0730 C.2   1 <1>  -0.2050 
 13 O       -4.9840    -0.4080     1.6240 O.3   1 <1>  -0.6800 
 14 C       -4.5530    -2.9920     0.4890 C.3   1 <1>   0.0210 
 15 C        0.4870     5.4920    -0.0160 C.ar  1 <1>   0.3630 
 16 C       -3.7380    -4.1690    -0.0120 C.2   1 <1>   0.1080 
 17 N       -0.1090     6.6450    -0.3300 N.ar  1 <1>  -0.6200 
 18 C        1.8300     5.4220     0.3520 C.ar  1 <1>  -0.1500 
 19 N       -3.7910    -4.5920    -1.2360 N.2   1 <1>  -0.7070 
 20 C       -2.8510    -4.9080     0.7630 C.2   1 <1>  -0.1500 
 21 C        0.6430     7.7310    -0.2750 C.ar  1 <1>   0.1600 
 22 C        2.6020     6.5610     0.4050 C.ar  1 <1>  -0.1500 
 23 N       -2.9310    -5.6270    -1.2750 N.pl3 1 <1>   0.3000 
 24 C       -2.3470    -5.8370    -0.0770 C.2   1 <1>  -0.3320 
 25 C        1.9800     7.7470     0.0800 C.ar  1 <1>  -0.1500 
 26 C       -1.3290    -6.9290     0.1970 C.3   1 <1>  -0.0600 
 27 H       -4.0700     1.5820     0.4560 H     1 <1>   0.0800 
 28 H       -4.0590     0.9680    -1.1920 H     1 <1>   0.0800 
 29 H       -2.0010    -1.7760    -0.7210 H     1 <1>   0.0800 
 30 H       -2.2940    -1.6950     1.0080 H     1 <1>   0.0800 
 31 H        0.8420     2.5340     0.4890 H     1 <1>   0.1500 
 32 H       -5.8380    -0.3400    -0.1960 H     1 <1>   0.0800 
 33 H       -4.2360    -1.8000    -1.2490 H     1 <1>   0.0800 
 34 H       -2.0950     5.2260    -0.6870 H     1 <1>   0.2700 
 35 H       -4.0950    -0.2770     2.0120 H     1 <1>   0.4000 
 36 H       -5.5890    -3.1720     0.2670 H     1 <1>   0.0800 
 37 H       -4.4490    -2.9240     1.5560 H     1 <1>   0.0800 
 38 H        2.2630     4.4700     0.5940 H     1 <1>   0.1500 
 39 H       -2.6320    -4.7500     1.8040 H     1 <1>   0.1500 
 40 H        0.1690     8.6650    -0.5260 H     1 <1>   0.1500 
 41 H        3.6400     6.5270     0.6870 H     1 <1>   0.1500 
 42 H       -2.7660    -6.1690    -2.1320 H     1 <1>   0.2700 
 43 H        2.5250     8.6740     0.1020 H     1 <1>   0.1500 
 44 H       -1.0130    -6.8910     1.2240 H     1 <1>   0.0800 
 45 H       -0.4660    -6.8000    -0.4310 H     1 <1>   0.0800 
 46 H       -1.7610    -7.8960     0.0070 H     1 <1>   0.0800 
@<TRIPOS>BOND
  1   1   2  2   
  2   2   3  am  
  3   2   4  1   
  4   3   5  1   
  5   3   6  1   
  6   4   7  2   
  7   4   8  1   
  8   5   9  1   
  9   5  27  1   
 10   5  28  1   
 11   6  10  1   
 12   6  29  1   
 13   6  30  1   
 14   7  11  1   
 15   8  12  2   
 16   8  31  1   
 17   9  10  1   
 18   9  13  1   
 19   9  32  1   
 20  10  14  1   
 21  10  33  1   
 22  11  12  1   
 23  11  34  1   
 24  12  15  1   
 25  13  35  1   
 26  14  16  1   
 27  14  36  1   
 28  14  37  1   
 29  15  17  ar  
 30  15  18  ar  
 31  16  19  2   
 32  16  20  1   
 33  17  21  ar  
 34  18  22  ar  
 35  18  38  1   
 36  19  23  1   
 37  20  24  2   
 38  20  39  1   
 39  21  25  ar  
 40  21  40  1   
 41  22  25  ar  
 42  22  41  1   
 43  23  24  1   
 44  23  42  1   
 45  24  26  1   
 46  25  43  1   
 47  26  44  1   
 48  26  45  1   
 49  26  46  1   
@<TRIPOS>SUBSTRUCTURE
  1 ****   2 GROUP 4 **** **** 0

# MOE 2024.06 (io_trps.svl 2023.06)
