@<TRIPOS>MOLECULE
NONAME
46 48 1 0 0 
SMALL
USER_CHARGES


@<TRIPOS>ATOM
  1 F        0.4050    -1.0850    -2.1440 F     1 <1>  -0.1900 
  2 C        0.1530    -2.1440    -1.4250 C.ar  1 <1>   0.1900 
  3 C        1.1460    -2.6380    -0.6050 C.ar  1 <1>  -0.1500 
  4 C       -1.0940    -2.7240    -1.5160 C.ar  1 <1>  -0.1500 
  5 C        0.8880    -3.7670     0.1610 C.ar  1 <1>   0.0730 
  6 C       -1.3840    -3.8510    -0.7490 C.ar  1 <1>   0.0860 
  7 C        1.8980    -4.3150     1.0220 C.1   1 <1>   0.4840 
  8 C       -0.3720    -4.3530     0.0720 C.ar  1 <1>  -0.1500 
  9 C       -2.6810    -4.5010    -0.8050 C.2   1 <1>   0.5440 
 10 N        2.7020    -4.7410     1.7080 N.1   1 <1>  -0.5570 
 11 O       -2.7260    -5.7110    -0.9110 O.2   1 <1>  -0.5700 
 12 N       -3.8610    -3.7940    -0.7300 N.am  1 <1>  -0.6600 
 13 C       -3.9510    -2.4150    -0.1660 C.3   1 <1>   0.1400 
 14 C       -5.1500    -4.4650    -1.0730 C.3   1 <1>   0.1400 
 15 C       -5.2620    -2.2620     0.6030 C.3   1 <1>  -0.1600 
 16 C       -6.2160    -3.4320    -1.4490 C.3   1 <1>  -0.1600 
 17 C       -6.4800    -2.3880    -0.3370 C.3   1 <1>   0.2800 
 18 O       -6.6090    -1.1700    -1.0180 O.3   1 <1>  -0.5600 
 19 C       -7.7590    -2.7300     0.4700 C.3   1 <1>  -0.1600 
 20 C       -7.3340    -0.1230    -0.4320 C.3   1 <1>   0.1200 
 21 C       -9.0290    -2.0440    -0.0520 C.3   1 <1>   0.2800 
 22 C       -8.7950    -0.5070    -0.1190 C.3   1 <1>   0.2000 
 23 O       -9.2900    -2.5080    -1.3260 O.3   1 <1>  -0.6800 
 24 C      -10.2590    -2.4520     0.7700 C.3   1 <1>  -0.2400 
 25 O       -9.1260     0.1090     1.0940 O.3   1 <1>  -0.6800 
 26 H        2.1040    -2.1490    -0.5690 H     1 <1>   0.1500 
 27 H       -1.8330    -2.3120    -2.1800 H     1 <1>   0.1500 
 28 H       -0.5850    -5.2350     0.6550 H     1 <1>   0.1500 
 29 H       -3.1240    -2.2340     0.4990 H     1 <1>   0.0800 
 30 H       -3.9170    -1.6960    -0.9670 H     1 <1>   0.0800 
 31 H       -4.9940    -5.1380    -1.9000 H     1 <1>   0.0800 
 32 H       -5.4780    -5.0460    -0.2290 H     1 <1>   0.0800 
 33 H       -5.2770    -1.3170     1.1120 H     1 <1>   0.0800 
 34 H       -5.2940    -3.0300     1.3550 H     1 <1>   0.0800 
 35 H       -7.1210    -3.9490    -1.7060 H     1 <1>   0.0800 
 36 H       -5.8790    -2.9350    -2.3430 H     1 <1>   0.0800 
 37 H       -7.8970    -3.7950     0.5180 H     1 <1>   0.0800 
 38 H       -7.6170    -2.4090     1.4860 H     1 <1>   0.0800 
 39 H       -6.8150     0.1790     0.4600 H     1 <1>   0.0800 
 40 H       -7.3230     0.6960    -1.1280 H     1 <1>   0.0800 
 41 H       -9.4480    -0.0840    -0.8620 H     1 <1>   0.0800 
 42 H       -9.5290    -3.4500    -1.2930 H     1 <1>   0.4000 
 43 H      -10.1300    -2.1890     1.8030 H     1 <1>   0.0800 
 44 H      -10.4240    -3.5130     0.7180 H     1 <1>   0.0800 
 45 H      -11.1310    -1.9380     0.4040 H     1 <1>   0.0800 
 46 H       -8.6090    -0.2780     1.8240 H     1 <1>   0.4000 
@<TRIPOS>BOND
  1   1   2  1   
  2   2   3  ar  
  3   2   4  ar  
  4   3   5  ar  
  5   3  26  1   
  6   4   6  ar  
  7   4  27  1   
  8   5   7  1   
  9   5   8  ar  
 10   6   8  ar  
 11   6   9  1   
 12   7  10  3   
 13   8  28  1   
 14   9  11  2   
 15   9  12  am  
 16  12  13  1   
 17  12  14  1   
 18  13  15  1   
 19  13  29  1   
 20  13  30  1   
 21  14  16  1   
 22  14  31  1   
 23  14  32  1   
 24  15  17  1   
 25  15  33  1   
 26  15  34  1   
 27  16  17  1   
 28  16  35  1   
 29  16  36  1   
 30  17  18  1   
 31  17  19  1   
 32  18  20  1   
 33  19  21  1   
 34  19  37  1   
 35  19  38  1   
 36  20  22  1   
 37  20  39  1   
 38  20  40  1   
 39  21  22  1   
 40  21  23  1   
 41  21  24  1   
 42  22  25  1   
 43  22  41  1   
 44  23  42  1   
 45  24  43  1   
 46  24  44  1   
 47  24  45  1   
 48  25  46  1   
@<TRIPOS>SUBSTRUCTURE
  1 ****  13 GROUP 4 **** **** 0

# MOE 2024.06 (io_trps.svl 2023.06)
