@<TRIPOS>MOLECULE
NONAME
47 49 1 0 0 
SMALL
USER_CHARGES


@<TRIPOS>ATOM
  1 F       -0.8470    -1.2910     2.7120 F     1 <1>  -0.1900 
  2 C       -0.7130    -2.3430     1.9480 C.ar  1 <1>   0.1900 
  3 C       -0.7450    -2.1930     0.5700 C.ar  1 <1>  -0.1440 
  4 C       -0.5440    -3.5720     2.5560 C.ar  1 <1>  -0.1500 
  5 C       -0.6060    -3.3300    -0.2110 C.ar  1 <1>  -0.1500 
  6 C       -0.9180    -0.8230    -0.0700 C.3   1 <1>  -0.0960 
  7 C       -0.4080    -4.6960     1.7610 C.ar  1 <1>  -0.1500 
  8 C       -0.4460    -4.5820     0.3760 C.ar  1 <1>  -0.1440 
  9 C       -0.3320    -5.8220    -0.5120 C.3   1 <1>   0.4610 
 10 N       -1.6360    -6.5860    -0.4070 N.4   1 <1>  -0.9590 
 11 C        0.8970    -6.7040    -0.1750 C.2   1 <1>   0.9060 
 12 C       -1.6230    -7.8390    -1.2200 C.3   1 <1>   0.3430 
 13 C       -2.8880    -5.7840    -0.5630 C.3   1 <1>   0.3430 
 14 O        0.7560    -7.5630     0.7110 O.co2 1 <1>  -0.9000 
 15 O        1.8980    -6.6440    -0.8940 O.co2 1 <1>  -0.9000 
 16 C       -2.8350    -8.7380    -0.8720 C.3   1 <1>   0.1100 
 17 C       -4.1440    -6.6800    -0.6930 C.3   1 <1>   0.1100 
 18 N       -3.9290    -8.0360    -0.1380 N.3   1 <1>  -0.8100 
 19 C       -5.1820    -8.8150    -0.1240 C.3   1 <1>   0.1100 
 20 C       -5.0650   -10.0370     0.7930 C.3   1 <1>   0.0960 
 21 N       -6.3560   -10.7430     0.8490 N.pl3 1 <1>   0.3140 
 22 N       -6.9510   -11.2370    -0.2280 N.2   1 <1>  -0.7070 
 23 C       -7.1200   -11.0000     1.9150 C.2   1 <1>   0.0360 
 24 C       -8.0280   -11.7570     0.2640 C.2   1 <1>   0.3660 
 25 N       -8.1850   -11.6380     1.5890 N.2   1 <1>  -0.5650 
 26 H       -0.5140    -3.6430     3.6290 H     1 <1>   0.1500 
 27 H       -0.6170    -3.2390    -1.2830 H     1 <1>   0.1500 
 28 H       -1.8490    -0.3850     0.2440 H     1 <1>   0.0800 
 29 H       -0.9140    -0.8900    -1.1430 H     1 <1>   0.0800 
 30 H       -0.1150    -0.1750     0.2340 H     1 <1>   0.0800 
 31 H       -0.2620    -5.6580     2.2290 H     1 <1>   0.1500 
 32 H       -0.1930    -5.5000    -1.5270 H     1 <1>   0.0800 
 33 H       -1.6190    -6.9440     0.5610 H     1 <1>   0.4500 
 34 H       -0.7160    -8.3940    -1.0370 H     1 <1>   0.0800 
 35 H       -1.6510    -7.5910    -2.2670 H     1 <1>   0.0800 
 36 H       -2.8150    -5.1520    -1.4320 H     1 <1>   0.0800 
 37 H       -3.0010    -5.1430     0.2960 H     1 <1>   0.0800 
 38 H       -2.4760    -9.5520    -0.2660 H     1 <1>   0.0800 
 39 H       -3.2130    -9.1620    -1.7870 H     1 <1>   0.0800 
 40 H       -4.4160    -6.7560    -1.7320 H     1 <1>   0.0800 
 41 H       -4.9580    -6.1980    -0.1790 H     1 <1>   0.0800 
 42 H       -5.4360    -9.1270    -1.1240 H     1 <1>   0.0800 
 43 H       -5.9800    -8.1940     0.2500 H     1 <1>   0.0800 
 44 H       -4.7920    -9.7280     1.7840 H     1 <1>   0.0800 
 45 H       -4.3320   -10.7240     0.4140 H     1 <1>   0.0800 
 46 H       -6.8570   -10.7020     2.9140 H     1 <1>   0.1500 
 47 H       -8.7710   -12.2610    -0.3340 H     1 <1>   0.1500 
@<TRIPOS>BOND
  1   1   2  1   
  2   2   3  ar  
  3   2   4  ar  
  4   3   5  ar  
  5   3   6  1   
  6   4   7  ar  
  7   4  26  1   
  8   5   8  ar  
  9   5  27  1   
 10   6  28  1   
 11   6  29  1   
 12   6  30  1   
 13   7   8  ar  
 14   7  31  1   
 15   8   9  1   
 16   9  10  1   
 17   9  11  1   
 18   9  32  1   
 19  10  12  1   
 20  10  13  1   
 21  10  33  1   
 22  11  14  ar  
 23  11  15  ar  
 24  12  16  1   
 25  12  34  1   
 26  12  35  1   
 27  13  17  1   
 28  13  36  1   
 29  13  37  1   
 30  16  18  1   
 31  16  38  1   
 32  16  39  1   
 33  17  18  1   
 34  17  40  1   
 35  17  41  1   
 36  18  19  1   
 37  19  20  1   
 38  19  42  1   
 39  19  43  1   
 40  20  21  1   
 41  20  44  1   
 42  20  45  1   
 43  21  22  1   
 44  21  23  1   
 45  22  24  2   
 46  23  25  2   
 47  23  46  1   
 48  24  25  1   
 49  24  47  1   
@<TRIPOS>SUBSTRUCTURE
  1 ****  10 GROUP 4 **** **** 0

# MOE 2024.06 (io_trps.svl 2023.06)
