@<TRIPOS>MOLECULE
NONAME
52 56 1 0 0 
SMALL
USER_CHARGES


@<TRIPOS>ATOM
  1 O       -0.1010     1.6850     0.5110 O.2   1 <1>  -0.5700 
  2 C       -0.2000     2.7810     0.0110 C.2   1 <1>   0.5690 
  3 N       -0.6740     3.8770     0.6820 N.am  1 <1>  -0.5090 
  4 C        0.1990     2.9520    -1.4500 C.3   1 <1>   0.1810 
  5 C       -0.9570     5.1510    -0.0480 C.3   1 <1>   0.3640 
  6 C       -1.0520     3.8490     2.1150 C.3   1 <1>   0.0490 
  7 O        0.7040     4.2400    -1.6840 O.3   1 <1>  -0.5600 
  8 C       -2.4580     5.3380    -0.2730 C.ar  1 <1>  -0.1440 
  9 C       -0.2010     5.2970    -1.3990 C.3   1 <1>   0.2610 
 10 C       -0.4000     4.8130     3.0580 C.3   1 <1>  -0.2000 
 11 C       -0.0570     3.3600     3.1190 C.3   1 <1>  -0.2000 
 12 C       -3.3430     4.2680    -0.3690 C.ar  1 <1>   0.1600 
 13 C       -2.9640     6.6180    -0.4040 C.ar  1 <1>  -0.1500 
 14 C        0.4950     6.6630    -1.3940 C.2   1 <1>   0.5690 
 15 N       -4.6440     4.3750    -0.5810 N.ar  1 <1>  -0.6200 
 16 C       -4.3180     6.7460    -0.6220 C.ar  1 <1>  -0.1500 
 17 O       -0.0720     7.5750    -1.9540 O.2   1 <1>  -0.5700 
 18 N        1.6650     6.8780    -0.7100 N.am  1 <1>  -0.6600 
 19 C       -5.1020     5.6090    -0.7010 C.ar  1 <1>   0.1600 
 20 C        2.2450     8.2270    -0.5030 C.3   1 <1>   0.1400 
 21 C        2.4210     5.8740     0.0870 C.3   1 <1>   0.1400 
 22 C        3.0080     8.0940     0.8150 C.3   1 <1>  -0.0800 
 23 C        3.5660     6.6660     0.7170 C.3   1 <1>  -0.0800 
 24 C        2.0380     8.3040     2.0020 C.3   1 <1>  -0.0220 
 25 C        4.1060     6.0750     2.0320 C.3   1 <1>  -0.0220 
 26 C        2.4200     7.5100     3.2360 C.2   1 <1>  -0.2880 
 27 C        3.3260     6.5310     3.2490 C.2   1 <1>  -0.2880 
 28 H       -0.6480     2.7860    -2.0910 H     1 <1>   0.0800 
 29 H        0.9720     2.2460    -1.6970 H     1 <1>   0.0800 
 30 H       -0.6390     5.9550     0.5930 H     1 <1>   0.0800 
 31 H       -2.0890     3.5990     2.2670 H     1 <1>   0.1000 
 32 H       -0.9170     5.3080    -2.2010 H     1 <1>   0.0800 
 33 H        0.3650     5.4860     2.7160 H     1 <1>   0.1000 
 34 H       -0.9800     5.2260     3.8650 H     1 <1>   0.1000 
 35 H       -0.4150     2.7800     3.9520 H     1 <1>   0.1000 
 36 H        0.9050     3.0300     2.7700 H     1 <1>   0.1000 
 37 H       -2.9720     3.2630    -0.2680 H     1 <1>   0.1500 
 38 H       -2.3350     7.4920    -0.3470 H     1 <1>   0.1500 
 39 H       -4.7640     7.7180    -0.7320 H     1 <1>   0.1500 
 40 H       -6.1590     5.7210    -0.8730 H     1 <1>   0.1500 
 41 H        2.9200     8.4450    -1.3120 H     1 <1>   0.0800 
 42 H        1.4810     8.9850    -0.4610 H     1 <1>   0.0800 
 43 H        1.7860     5.4600     0.8510 H     1 <1>   0.0800 
 44 H        2.7980     5.0860    -0.5420 H     1 <1>   0.0800 
 45 H        3.8100     8.8080     0.8780 H     1 <1>   0.0800 
 46 H        4.3720     6.6630     0.0030 H     1 <1>   0.0800 
 47 H        2.0130     9.3510     2.2460 H     1 <1>   0.0800 
 48 H        1.0380     8.0130     1.7290 H     1 <1>   0.0800 
 49 H        4.0960     5.0010     1.9750 H     1 <1>   0.0800 
 50 H        5.1280     6.3860     2.1610 H     1 <1>   0.0800 
 51 H        1.8760     7.8100     4.1170 H     1 <1>   0.1500 
 52 H        3.5820     5.9870     4.1440 H     1 <1>   0.1500 
@<TRIPOS>BOND
  1   1   2  2   
  2   2   3  am  
  3   2   4  1   
  4   3   5  1   
  5   3   6  1   
  6   4   7  1   
  7   4  28  1   
  8   4  29  1   
  9   5   8  1   
 10   5   9  1   
 11   5  30  1   
 12   6  10  1   
 13   6  11  1   
 14   6  31  1   
 15   7   9  1   
 16   8  12  ar  
 17   8  13  ar  
 18   9  14  1   
 19   9  32  1   
 20  10  11  1   
 21  10  33  1   
 22  10  34  1   
 23  11  35  1   
 24  11  36  1   
 25  12  15  ar  
 26  12  37  1   
 27  13  16  ar  
 28  13  38  1   
 29  14  17  2   
 30  14  18  am  
 31  15  19  ar  
 32  16  19  ar  
 33  16  39  1   
 34  18  20  1   
 35  18  21  1   
 36  19  40  1   
 37  20  22  1   
 38  20  41  1   
 39  20  42  1   
 40  21  23  1   
 41  21  43  1   
 42  21  44  1   
 43  22  23  1   
 44  22  24  1   
 45  22  45  1   
 46  23  25  1   
 47  23  46  1   
 48  24  26  1   
 49  24  47  1   
 50  24  48  1   
 51  25  27  1   
 52  25  49  1   
 53  25  50  1   
 54  26  27  2   
 55  26  51  1   
 56  27  52  1   
@<TRIPOS>SUBSTRUCTURE
  1 ****   5 GROUP 4 **** **** 0

# MOE 2024.06 (io_trps.svl 2023.06)
