@<TRIPOS>MOLECULE
NONAME
54 56 1 0 0 
SMALL
USER_CHARGES


@<TRIPOS>ATOM
  1 O        0.3230     0.7880     0.8810 O.co2 1 <1>  -0.9000 
  2 C        1.4150     0.2240     0.8990 C.2   1 <1>   0.9060 
  3 O        1.7420    -0.5330     1.8280 O.co2 1 <1>  -0.9000 
  4 C        2.3630     0.4060    -0.3020 C.3   1 <1>  -0.1060 
  5 C        3.7340    -0.2350    -0.0090 C.3   1 <1>   0.4230 
  6 C        2.5250     1.9340    -0.5830 C.3   1 <1>  -0.1600 
  7 C        1.7810    -0.3220    -1.5370 C.3   1 <1>  -0.1600 
  8 N        3.5730    -1.6850     0.3430 N.4   1 <1>  -0.9590 
  9 C        4.5090     0.6340     0.9990 C.3   1 <1>   0.1400 
 10 C        3.9710     2.4160    -0.7540 C.3   1 <1>   0.1400 
 11 C        1.6810    -1.8380    -1.2770 C.3   1 <1>  -0.1600 
 12 C        2.9960    -2.4600    -0.7880 C.3   1 <1>   0.3430 
 13 C        4.7640    -2.3420     0.9460 C.3   1 <1>   0.2630 
 14 N        4.8290     1.9720     0.3950 N.am  1 <1>  -0.6600 
 15 C        5.8690     2.7040     0.9110 C.2   1 <1>   0.5690 
 16 O        6.6040     2.2330     1.7470 O.2   1 <1>  -0.5700 
 17 C        6.1230     4.1240     0.4270 C.3   1 <1>  -0.0990 
 18 C        7.2840     4.8320     1.1410 C.3   1 <1>  -0.0170 
 19 C        7.4380     6.2470     0.6080 C.ar  1 <1>  -0.1430 
 20 C        8.3390     6.5220    -0.4100 C.ar  1 <1>  -0.1500 
 21 C        6.6710     7.2760     1.1320 C.ar  1 <1>  -0.1500 
 22 C        8.4740     7.8100    -0.9010 C.ar  1 <1>  -0.1500 
 23 C        6.8030     8.5630     0.6430 C.ar  1 <1>  -0.1500 
 24 C        7.7020     8.8410    -0.3730 C.ar  1 <1>   0.0830 
 25 O        7.7710    10.1290    -0.7950 O.3   1 <1>  -0.3630 
 26 C        8.6740    10.5230    -1.8030 C.3   1 <1>   0.0400 
 27 H        4.3080    -0.1990    -0.9180 H     1 <1>   0.0800 
 28 H        2.1120     2.4950     0.2400 H     1 <1>   0.0800 
 29 H        1.9480     2.2180    -1.4460 H     1 <1>   0.0800 
 30 H        0.7970     0.0630    -1.7490 H     1 <1>   0.0800 
 31 H        2.4010    -0.1410    -2.3980 H     1 <1>   0.0800 
 32 H        2.8260    -1.6190     1.0870 H     1 <1>   0.4500 
 33 H        5.4320     0.1540     1.2680 H     1 <1>   0.0800 
 34 H        3.9270     0.7840     1.8930 H     1 <1>   0.0800 
 35 H        3.9640     3.4890    -0.8350 H     1 <1>   0.0800 
 36 H        4.3790     2.0190    -1.6680 H     1 <1>   0.0800 
 37 H        1.3700    -2.3340    -2.1790 H     1 <1>   0.0800 
 38 H        0.9180    -2.0250    -0.5390 H     1 <1>   0.0800 
 39 H        3.7010    -2.4790    -1.6020 H     1 <1>   0.0800 
 40 H        2.8100    -3.4750    -0.4760 H     1 <1>   0.0800 
 41 H        5.5910    -2.3250     0.2570 H     1 <1>   0.0800 
 42 H        4.5340    -3.3640     1.1960 H     1 <1>   0.0800 
 43 H        5.0490    -1.8300     1.8510 H     1 <1>   0.0800 
 44 H        6.3300     4.0980    -0.6260 H     1 <1>   0.0800 
 45 H        5.2300     4.6990     0.5850 H     1 <1>   0.0800 
 46 H        8.1960     4.2800     0.9900 H     1 <1>   0.0800 
 47 H        7.0950     4.8630     2.2000 H     1 <1>   0.0800 
 48 H        8.9410     5.7330    -0.8240 H     1 <1>   0.1500 
 49 H        5.9680     7.0780     1.9230 H     1 <1>   0.1500 
 50 H        9.1800     7.9890    -1.6880 H     1 <1>   0.1500 
 51 H        6.2100     9.3620     1.0480 H     1 <1>   0.1500 
 52 H        8.5580    11.5800    -1.9600 H     1 <1>   0.0800 
 53 H        8.4410     9.9910    -2.7080 H     1 <1>   0.0800 
 54 H        9.6760    10.3100    -1.4760 H     1 <1>   0.0800 
@<TRIPOS>BOND
  1   1   2  ar  
  2   2   3  ar  
  3   2   4  1   
  4   4   5  1   
  5   4   6  1   
  6   4   7  1   
  7   5   8  1   
  8   5   9  1   
  9   5  27  1   
 10   6  10  1   
 11   6  28  1   
 12   6  29  1   
 13   7  11  1   
 14   7  30  1   
 15   7  31  1   
 16   8  12  1   
 17   8  13  1   
 18   8  32  1   
 19   9  14  1   
 20   9  33  1   
 21   9  34  1   
 22  10  14  1   
 23  10  35  1   
 24  10  36  1   
 25  11  12  1   
 26  11  37  1   
 27  11  38  1   
 28  12  39  1   
 29  12  40  1   
 30  13  41  1   
 31  13  42  1   
 32  13  43  1   
 33  14  15  am  
 34  15  16  2   
 35  15  17  1   
 36  17  18  1   
 37  17  44  1   
 38  17  45  1   
 39  18  19  1   
 40  18  46  1   
 41  18  47  1   
 42  19  20  ar  
 43  19  21  ar  
 44  20  22  ar  
 45  20  48  1   
 46  21  23  ar  
 47  21  49  1   
 48  22  24  ar  
 49  22  50  1   
 50  23  24  ar  
 51  23  51  1   
 52  24  25  1   
 53  25  26  1   
 54  26  52  1   
 55  26  53  1   
 56  26  54  1   
@<TRIPOS>SUBSTRUCTURE
  1 ****  14 GROUP 4 **** **** 0

# MOE 2024.06 (io_trps.svl 2023.06)
