@<TRIPOS>MOLECULE
NONAME
44 45 1 0 0 
SMALL
USER_CHARGES


@<TRIPOS>ATOM
  1 S        0.2430     0.1950    -0.5310 S.o2  1 <1>   1.3330 
  2 O        0.2470    -1.2290    -0.2800 O.2   1 <1>  -0.6500 
  3 O       -0.1330     0.6810    -1.8400 O.2   1 <1>  -0.6500 
  4 N       -0.7920     0.9080     0.6090 N.am  1 <1>  -0.8490 
  5 C        1.8370     0.9140    -0.1340 C.3   1 <1>  -0.0550 
  6 C       -0.7210     0.2760     1.9310 C.3   1 <1>   0.1160 
  7 C       -2.1830     0.9350     0.1470 C.3   1 <1>   0.1160 
  8 C        2.9660     0.5140    -1.1160 C.3   1 <1>  -0.0800 
  9 C        4.2840     1.2530    -0.8910 C.3   1 <1>   0.2200 
 10 C        3.4200    -0.9210    -0.8560 C.3   1 <1>   0.1200 
 11 N        4.1140     2.6600    -0.4610 N.am  1 <1>  -0.7300 
 12 C        4.9950     0.3880     0.1560 C.3   1 <1>   0.1200 
 13 O        4.2990    -0.8240     0.2150 O.3   1 <1>  -0.5600 
 14 C        5.1180     3.5440    -0.1890 C.2   1 <1>   0.7160 
 15 O        6.2670     3.1340    -0.1640 O.2   1 <1>  -0.5700 
 16 C        4.7780     4.9370     0.0460 C.2   1 <1>   0.2030 
 17 N        3.5550     5.4390    -0.0020 N.2   1 <1>  -0.7070 
 18 C        5.7000     5.9440     0.3530 C.2   1 <1>  -0.1500 
 19 N        3.6920     6.7420     0.2690 N.pl3 1 <1>   0.3140 
 20 C        4.9820     7.0750     0.4880 C.2   1 <1>  -0.3320 
 21 C        2.5320     7.6430     0.3040 C.3   1 <1>   0.0160 
 22 C        5.4780     8.4730     0.8190 C.3   1 <1>  -0.0600 
 23 H        1.7100     1.9770    -0.1520 H     1 <1>   0.0800 
 24 H        2.1210     0.6400     0.8640 H     1 <1>   0.0800 
 25 H       -1.3320     0.8170     2.6330 H     1 <1>   0.0800 
 26 H        0.2930     0.2810     2.2930 H     1 <1>   0.0800 
 27 H       -1.0640    -0.7450     1.8810 H     1 <1>   0.0800 
 28 H       -2.8130     1.4060     0.8830 H     1 <1>   0.0800 
 29 H       -2.5370    -0.0660    -0.0360 H     1 <1>   0.0800 
 30 H       -2.2570     1.5000    -0.7680 H     1 <1>   0.0800 
 31 H        2.6330     0.6300    -2.1330 H     1 <1>   0.0800 
 32 H        4.8690     1.2350    -1.7950 H     1 <1>   0.0800 
 33 H        3.9670    -1.3110    -1.6980 H     1 <1>   0.0800 
 34 H        2.6280    -1.6020    -0.6000 H     1 <1>   0.0800 
 35 H        3.1990     3.0980    -0.5940 H     1 <1>   0.3700 
 36 H        4.9640     0.8360     1.1330 H     1 <1>   0.0800 
 37 H        6.0140     0.1890    -0.1290 H     1 <1>   0.0800 
 38 H        6.7610     5.7950     0.4490 H     1 <1>   0.1500 
 39 H        2.4720     8.1030     1.2720 H     1 <1>   0.0800 
 40 H        1.6390     7.0770     0.1180 H     1 <1>   0.0800 
 41 H        2.6470     8.3950    -0.4540 H     1 <1>   0.0800 
 42 H        6.5470     8.4660     0.9430 H     1 <1>   0.0800 
 43 H        5.0320     8.8210     1.7340 H     1 <1>   0.0800 
 44 H        5.2320     9.1540     0.0240 H     1 <1>   0.0800 
@<TRIPOS>BOND
  1   1   2  2   
  2   1   3  2   
  3   1   4  am  
  4   1   5  1   
  5   4   6  1   
  6   4   7  1   
  7   5   8  1   
  8   5  23  1   
  9   5  24  1   
 10   6  25  1   
 11   6  26  1   
 12   6  27  1   
 13   7  28  1   
 14   7  29  1   
 15   7  30  1   
 16   8   9  1   
 17   8  10  1   
 18   8  31  1   
 19   9  11  1   
 20   9  12  1   
 21   9  32  1   
 22  10  13  1   
 23  10  33  1   
 24  10  34  1   
 25  11  14  am  
 26  11  35  1   
 27  12  13  1   
 28  12  36  1   
 29  12  37  1   
 30  14  15  2   
 31  14  16  1   
 32  16  17  2   
 33  16  18  1   
 34  17  19  1   
 35  18  20  2   
 36  18  38  1   
 37  19  20  1   
 38  19  21  1   
 39  20  22  1   
 40  21  39  1   
 41  21  40  1   
 42  21  41  1   
 43  22  42  1   
 44  22  43  1   
 45  22  44  1   
@<TRIPOS>SUBSTRUCTURE
  1 ****  11 GROUP 4 **** **** 0

# MOE 2024.06 (io_trps.svl 2023.06)
