@<TRIPOS>MOLECULE
NONAME
56 59 1 0 0 
SMALL
USER_CHARGES


@<TRIPOS>ATOM
  1 O       -1.1770     0.8490     3.3320 O.3   1 <1>  -0.5600 
  2 C       -0.2130     0.5520     2.3700 C.3   1 <1>   0.1200 
  3 C       -2.2100     1.6070     2.7720 C.3   1 <1>   0.1200 
  4 C       -0.2810     1.6950     1.3660 C.3   1 <1>   0.2890 
  5 C       -1.7700     2.0070     1.3540 C.3   1 <1>  -0.0800 
  6 N        0.4510     2.8670     1.9080 N.pl3 1 <1>  -0.8690 
  7 C       -2.5050     1.1920     0.2690 C.3   1 <1>  -0.0170 
  8 C        1.0300     3.8630     1.2070 C.ar  1 <1>   0.4100 
  9 C       -4.0080     1.4630     0.1170 C.ar  1 <1>  -0.1430 
 10 N        0.8970     3.8210    -0.1010 N.ar  1 <1>  -0.6200 
 11 C        1.7370     4.8950     1.8720 C.ar  1 <1>  -0.1430 
 12 C       -4.7920     0.6340    -0.7240 C.ar  1 <1>   0.0000 
 13 C       -4.6550     2.4870     0.7510 C.ar  1 <1>  -0.1500 
 14 C        1.4510     4.7850    -0.8160 C.ar  1 <1>   0.7710 
 15 C        2.3290     5.8540     1.1040 C.ar  1 <1>   0.2180 
 16 C        1.7940     4.8750     3.4050 C.3   1 <1>  -0.0960 
 17 C       -6.1770     0.9100    -0.8270 C.ar  1 <1>   0.3100 
 18 C       -4.2810    -0.4520    -1.4750 C.ar  1 <1>  -0.1500 
 19 C       -6.0300     2.6770     0.5750 C.ar  1 <1>   0.1600 
 20 N        2.1580     5.7670    -0.2370 N.ar  1 <1>  -0.1790 
 21 N        1.3080     4.7860    -2.1720 N.pl3 1 <1>  -0.8380 
 22 C        3.1680     7.0230     1.6070 C.3   1 <1>  -0.0970 
 23 N       -6.7800     1.9330    -0.1730 N.ar  1 <1>  -0.6200 
 24 C       -6.9770     0.0970    -1.6470 C.ar  1 <1>  -0.1500 
 25 C       -5.0870    -1.2240    -2.2660 C.ar  1 <1>  -0.1500 
 26 C        0.6490     3.6400    -2.8830 C.3   1 <1>   0.1290 
 27 C        1.6860     5.8850    -3.1170 C.3   1 <1>   0.1290 
 28 C       -6.4540    -0.9500    -2.3540 C.ar  1 <1>  -0.1500 
 29 H        0.7520     0.4640     2.8360 H     1 <1>   0.0800 
 30 H       -0.4840    -0.3820     1.9100 H     1 <1>   0.0800 
 31 H       -3.1090     1.0140     2.7720 H     1 <1>   0.0800 
 32 H       -2.3500     2.4740     3.3930 H     1 <1>   0.0800 
 33 H        0.1100     1.4140     0.4030 H     1 <1>   0.0800 
 34 H       -1.9260     3.0550     1.1690 H     1 <1>   0.0800 
 35 H        0.4400     2.8790     2.9320 H     1 <1>   0.4000 
 36 H       -2.3710     0.1470     0.4860 H     1 <1>   0.0800 
 37 H       -2.0420     1.3930    -0.6820 H     1 <1>   0.0800 
 38 H       -4.1560     3.1810     1.3990 H     1 <1>   0.1500 
 39 H        2.1890     5.7810     3.8230 H     1 <1>   0.0800 
 40 H        2.4040     4.0530     3.7390 H     1 <1>   0.0800 
 41 H        0.8040     4.7510     3.8100 H     1 <1>   0.0800 
 42 H       -3.2340    -0.6840    -1.4310 H     1 <1>   0.1500 
 43 H       -6.4950     3.4970     1.0960 H     1 <1>   0.1500 
 44 H        2.5710     6.4300    -0.8770 H     1 <1>   0.4570 
 45 H        3.6240     6.8030     2.5540 H     1 <1>   0.0800 
 46 H        2.5520     7.8990     1.7180 H     1 <1>   0.0800 
 47 H        3.9650     7.2450     0.9200 H     1 <1>   0.0800 
 48 H       -8.0250     0.3290    -1.7000 H     1 <1>   0.1500 
 49 H       -4.6830    -2.0480    -2.8300 H     1 <1>   0.1500 
 50 H        1.1230     3.4680    -3.8340 H     1 <1>   0.0800 
 51 H       -0.3920     3.8630    -3.0470 H     1 <1>   0.0800 
 52 H        0.7200     2.7290    -2.3130 H     1 <1>   0.0800 
 53 H        0.9090     6.0140    -3.8530 H     1 <1>   0.0800 
 54 H        2.5990     5.6290    -3.6300 H     1 <1>   0.0800 
 55 H        1.8120     6.8260    -2.6120 H     1 <1>   0.0800 
 56 H       -7.0790    -1.5650    -2.9790 H     1 <1>   0.1500 
@<TRIPOS>BOND
  1   1   2  1   
  2   1   3  1   
  3   2   4  1   
  4   2  29  1   
  5   2  30  1   
  6   3   5  1   
  7   3  31  1   
  8   3  32  1   
  9   4   5  1   
 10   4   6  1   
 11   4  33  1   
 12   5   7  1   
 13   5  34  1   
 14   6   8  1   
 15   6  35  1   
 16   7   9  1   
 17   7  36  1   
 18   7  37  1   
 19   8  10  ar  
 20   8  11  ar  
 21   9  12  ar  
 22   9  13  ar  
 23  10  14  ar  
 24  11  15  ar  
 25  11  16  1   
 26  12  17  ar  
 27  12  18  ar  
 28  13  19  ar  
 29  13  38  1   
 30  14  20  ar  
 31  14  21  1   
 32  15  20  ar  
 33  15  22  1   
 34  16  39  1   
 35  16  40  1   
 36  16  41  1   
 37  17  23  ar  
 38  17  24  ar  
 39  18  25  ar  
 40  18  42  1   
 41  19  23  ar  
 42  19  43  1   
 43  20  44  1   
 44  21  26  1   
 45  21  27  1   
 46  22  45  1   
 47  22  46  1   
 48  22  47  1   
 49  24  28  ar  
 50  24  48  1   
 51  25  28  ar  
 52  25  49  1   
 53  26  50  1   
 54  26  51  1   
 55  26  52  1   
 56  27  53  1   
 57  27  54  1   
 58  27  55  1   
 59  28  56  1   
@<TRIPOS>SUBSTRUCTURE
  1 ****   5 GROUP 4 **** **** 0

# MOE 2024.06 (io_trps.svl 2023.06)
