@<TRIPOS>MOLECULE
NONAME
57 60 1 0 0 
SMALL
USER_CHARGES


@<TRIPOS>ATOM
  1 O       -0.2240     0.6430    -1.3190 O.2   1 <1>  -0.5700 
  2 C       -0.6960     1.5270    -0.6310 C.2   1 <1>   0.5690 
  3 N       -2.0660     1.7280    -0.6660 N.am  1 <1>  -0.6600 
  4 C        0.2930     2.3270     0.2960 C.3   1 <1>   0.3410 
  5 C       -2.8270     2.8030     0.0500 C.3   1 <1>   0.1400 
  6 C       -2.9170     0.7750    -1.4500 C.3   1 <1>   0.1400 
  7 O        0.0820     3.7230     0.1500 O.3   1 <1>  -0.5600 
  8 C        0.0360     1.9440     1.7660 C.3   1 <1>  -0.2400 
  9 C        1.7650     2.0000    -0.0530 C.3   1 <1>  -0.2400 
 10 C       -3.6910     3.6440    -0.9230 C.3   1 <1>   0.1430 
 11 C       -4.3430     1.2970    -1.6830 C.3   1 <1>  -0.1600 
 12 C        0.9930     4.6300     0.6950 C.3   1 <1>   0.1200 
 13 C       -4.7610     4.3390    -0.0970 C.ar  1 <1>   0.1670 
 14 C       -4.3110     2.7840    -2.0560 C.3   1 <1>  -0.1600 
 15 C       -2.8940     4.8400    -1.5080 C.3   1 <1>  -0.1600 
 16 C        0.3410     6.0050     0.6890 C.3   1 <1>  -0.2400 
 17 N       -5.7990     3.7530     0.4500 N.ar  1 <1>  -0.6200 
 18 C       -4.5160     5.6710     0.0320 C.ar  1 <1>  -0.1440 
 19 C       -3.2500     6.0820    -0.6730 C.3   1 <1>  -0.0170 
 20 C       -6.6270     4.5480     1.1410 C.ar  1 <1>   0.6200 
 21 C       -5.4060     6.4180     0.7580 C.ar  1 <1>   0.1600 
 22 N       -6.4620     5.8680     1.3130 N.ar  1 <1>  -0.6200 
 23 C       -7.7950     3.9280     1.7540 C.ar  1 <1>   0.0000 
 24 C       -7.7980     2.5820     2.1340 C.ar  1 <1>  -0.1500 
 25 C       -8.9690     4.6500     1.9910 C.ar  1 <1>  -0.1500 
 26 C       -8.9050     1.9910     2.7140 C.ar  1 <1>  -0.1500 
 27 C      -10.0800     4.0660     2.5720 C.ar  1 <1>  -0.1500 
 28 C      -10.0510     2.7320     2.9350 C.ar  1 <1>  -0.1500 
 29 H       -2.1860     3.4540     0.6080 H     1 <1>   0.0800 
 30 H       -3.4750     2.3220     0.7620 H     1 <1>   0.0800 
 31 H       -2.9520    -0.1710    -0.9370 H     1 <1>   0.0800 
 32 H       -2.4510     0.6120    -2.4080 H     1 <1>   0.0800 
 33 H       -0.9340     2.2750     2.0840 H     1 <1>   0.0800 
 34 H        0.7820     2.3530     2.4210 H     1 <1>   0.0800 
 35 H        0.0700     0.8740     1.8630 H     1 <1>   0.0800 
 36 H        1.9820     2.3210    -1.0560 H     1 <1>   0.0800 
 37 H        1.9220     0.9370    -0.0060 H     1 <1>   0.0800 
 38 H        2.4570     2.4500     0.6330 H     1 <1>   0.0800 
 39 H       -4.9350     1.1530    -0.7960 H     1 <1>   0.0800 
 40 H       -4.8010     0.7290    -2.4730 H     1 <1>   0.0800 
 41 H        1.8800     4.6390     0.0840 H     1 <1>   0.0800 
 42 H        1.2410     4.3460     1.7020 H     1 <1>   0.0800 
 43 H       -3.7190     2.8770    -2.9490 H     1 <1>   0.0800 
 44 H       -5.3040     3.1310    -2.2840 H     1 <1>   0.0800 
 45 H       -3.2080     5.0290    -2.5200 H     1 <1>   0.0800 
 46 H       -1.8340     4.6520    -1.5170 H     1 <1>   0.0800 
 47 H        0.0590     6.2750    -0.3130 H     1 <1>   0.0800 
 48 H        1.0360     6.7360     1.0590 H     1 <1>   0.0800 
 49 H       -0.5230     6.0010     1.3270 H     1 <1>   0.0800 
 50 H       -3.4020     6.9470    -1.2950 H     1 <1>   0.0800 
 51 H       -2.4850     6.2860     0.0540 H     1 <1>   0.0800 
 52 H       -5.2530     7.4760     0.8860 H     1 <1>   0.1500 
 53 H       -6.9160     1.9880     1.9700 H     1 <1>   0.1500 
 54 H       -9.0120     5.6890     1.7150 H     1 <1>   0.1500 
 55 H       -8.8760     0.9520     2.9950 H     1 <1>   0.1500 
 56 H      -10.9680     4.6500     2.7410 H     1 <1>   0.1500 
 57 H      -10.9140     2.2750     3.3870 H     1 <1>   0.1500 
@<TRIPOS>BOND
  1   1   2  2   
  2   2   3  am  
  3   2   4  1   
  4   3   5  1   
  5   3   6  1   
  6   4   7  1   
  7   4   8  1   
  8   4   9  1   
  9   5  10  1   
 10   5  29  1   
 11   5  30  1   
 12   6  11  1   
 13   6  31  1   
 14   6  32  1   
 15   7  12  1   
 16   8  33  1   
 17   8  34  1   
 18   8  35  1   
 19   9  36  1   
 20   9  37  1   
 21   9  38  1   
 22  10  13  1   
 23  10  14  1   
 24  10  15  1   
 25  11  14  1   
 26  11  39  1   
 27  11  40  1   
 28  12  16  1   
 29  12  41  1   
 30  12  42  1   
 31  13  17  ar  
 32  13  18  ar  
 33  14  43  1   
 34  14  44  1   
 35  15  19  1   
 36  15  45  1   
 37  15  46  1   
 38  16  47  1   
 39  16  48  1   
 40  16  49  1   
 41  17  20  ar  
 42  18  19  1   
 43  18  21  ar  
 44  19  50  1   
 45  19  51  1   
 46  20  22  ar  
 47  20  23  1   
 48  21  22  ar  
 49  21  52  1   
 50  23  24  ar  
 51  23  25  ar  
 52  24  26  ar  
 53  24  53  1   
 54  25  27  ar  
 55  25  54  1   
 56  26  28  ar  
 57  26  55  1   
 58  27  28  ar  
 59  27  56  1   
 60  28  57  1   
@<TRIPOS>SUBSTRUCTURE
  1 ****  13 GROUP 4 **** **** 0

# MOE 2024.06 (io_trps.svl 2023.06)
