@<TRIPOS>MOLECULE
NONAME
53 56 1 0 0 
SMALL
USER_CHARGES


@<TRIPOS>ATOM
  1 O       -0.1040     1.6550    -0.9710 O.2   1 <1>  -0.5700 
  2 C       -0.3950     2.8200    -0.8290 C.2   1 <1>   0.5690 
  3 N       -1.1510     3.2940     0.2070 N.am  1 <1>  -0.5090 
  4 C        0.1080     3.8310    -1.8520 C.3   1 <1>   0.1810 
  5 C       -1.4860     4.7520     0.2870 C.3   1 <1>   0.3640 
  6 C       -1.5190     2.4560     1.3740 C.3   1 <1>   0.0490 
  7 O        0.5230     5.0090    -1.2100 O.3   1 <1>  -0.5600 
  8 C       -2.9040     5.0180    -0.2340 C.ar  1 <1>  -0.1440 
  9 C       -0.4870     5.6840    -0.4640 C.3   1 <1>   0.2610 
 10 C       -2.3530     1.2370     1.1390 C.3   1 <1>  -0.2000 
 11 C       -2.9360     2.4090     1.8600 C.3   1 <1>  -0.2000 
 12 C       -3.5130     4.2320    -1.2080 C.ar  1 <1>  -0.1500 
 13 C       -3.6080     6.0970     0.2840 C.ar  1 <1>  -0.1500 
 14 C        0.1510     6.6530     0.5370 C.2   1 <1>   0.5690 
 15 C       -4.7920     4.5170    -1.6520 C.ar  1 <1>  -0.1500 
 16 C       -4.8860     6.3850    -0.1590 C.ar  1 <1>  -0.1500 
 17 O       -0.5640     7.3600     1.2080 O.2   1 <1>  -0.5700 
 18 N        1.5020     6.7010     0.6540 N.am  1 <1>  -0.7300 
 19 C       -5.4890     5.6010    -1.1280 C.ar  1 <1>   0.0820 
 20 C        2.2640     7.6190     1.5190 C.3   1 <1>   0.2840 
 21 O       -6.7440     5.9480    -1.5050 O.3   1 <1>  -0.3620 
 22 C        3.2270     8.4120     0.6540 C.ar  1 <1>  -0.1440 
 23 C       -7.4600     5.1930    -2.4560 C.3   1 <1>   0.0400 
 24 C        4.5790     8.1050     0.6280 C.ar  1 <1>  -0.1500 
 25 C        2.7570     9.4590    -0.1220 C.ar  1 <1>  -0.1500 
 26 C        5.4460     8.8400    -0.1610 C.ar  1 <1>  -0.1500 
 27 C        3.6260    10.1920    -0.9100 C.ar  1 <1>  -0.1500 
 28 C        4.9840     9.8950    -0.9400 C.ar  1 <1>   0.0730 
 29 C        5.8860    10.6590    -1.7550 C.1   1 <1>   0.4840 
 30 N        6.6050    11.2670    -2.3990 N.1   1 <1>  -0.5570 
 31 H       -0.6660     4.0700    -2.5580 H     1 <1>   0.0800 
 32 H        0.9540     3.4240    -2.3760 H     1 <1>   0.0800 
 33 H       -1.4800     5.0190     1.3300 H     1 <1>   0.0800 
 34 H       -0.7220     2.3870     2.0960 H     1 <1>   0.1000 
 35 H       -1.0360     6.2840    -1.1670 H     1 <1>   0.0800 
 36 H       -2.6740     1.0240     0.1340 H     1 <1>   0.1000 
 37 H       -2.1270     0.3460     1.6980 H     1 <1>   0.1000 
 38 H       -3.1190     2.3090     2.9150 H     1 <1>   0.1000 
 39 H       -3.7090     2.9650     1.3610 H     1 <1>   0.1000 
 40 H       -3.0060     3.3820    -1.6280 H     1 <1>   0.1500 
 41 H       -3.1660     6.7280     1.0390 H     1 <1>   0.1500 
 42 H       -5.2290     3.8860    -2.4020 H     1 <1>   0.1500 
 43 H       -5.4270     7.2220     0.2450 H     1 <1>   0.1500 
 44 H        2.0540     6.1370     0.0000 H     1 <1>   0.3700 
 45 H        1.5950     8.2900     2.0320 H     1 <1>   0.0800 
 46 H        2.8010     7.0490     2.2570 H     1 <1>   0.0800 
 47 H       -8.4270     5.6470    -2.5830 H     1 <1>   0.0800 
 48 H       -7.5730     4.1880    -2.0910 H     1 <1>   0.0800 
 49 H       -6.9250     5.2080    -3.3890 H     1 <1>   0.0800 
 50 H        4.9630     7.2920     1.2210 H     1 <1>   0.1500 
 51 H        1.7060     9.7020    -0.1130 H     1 <1>   0.1500 
 52 H        6.4940     8.5920    -0.1710 H     1 <1>   0.1500 
 53 H        3.2440    11.0030    -1.5060 H     1 <1>   0.1500 
@<TRIPOS>BOND
  1   1   2  2   
  2   2   3  am  
  3   2   4  1   
  4   3   5  1   
  5   3   6  1   
  6   4   7  1   
  7   4  31  1   
  8   4  32  1   
  9   5   8  1   
 10   5   9  1   
 11   5  33  1   
 12   6  10  1   
 13   6  11  1   
 14   6  34  1   
 15   7   9  1   
 16   8  12  ar  
 17   8  13  ar  
 18   9  14  1   
 19   9  35  1   
 20  10  11  1   
 21  10  36  1   
 22  10  37  1   
 23  11  38  1   
 24  11  39  1   
 25  12  15  ar  
 26  12  40  1   
 27  13  16  ar  
 28  13  41  1   
 29  14  17  2   
 30  14  18  am  
 31  15  19  ar  
 32  15  42  1   
 33  16  19  ar  
 34  16  43  1   
 35  18  20  1   
 36  18  44  1   
 37  19  21  1   
 38  20  22  1   
 39  20  45  1   
 40  20  46  1   
 41  21  23  1   
 42  22  24  ar  
 43  22  25  ar  
 44  23  47  1   
 45  23  48  1   
 46  23  49  1   
 47  24  26  ar  
 48  24  50  1   
 49  25  27  ar  
 50  25  51  1   
 51  26  28  ar  
 52  26  52  1   
 53  27  28  ar  
 54  27  53  1   
 55  28  29  1   
 56  29  30  3   
@<TRIPOS>SUBSTRUCTURE
  1 ****   9 GROUP 4 **** **** 0

# MOE 2024.06 (io_trps.svl 2023.06)
