@<TRIPOS>MOLECULE
NONAME
49 51 1 0 0 
SMALL
USER_CHARGES


@<TRIPOS>ATOM
  1 S       -0.5140    -0.1100     0.5900 S.o2  1 <1>   1.2040 
  2 O       -0.9010     0.8280    -0.4390 O.2   1 <1>  -0.6500 
  3 O       -0.6590     0.2380     1.9850 O.2   1 <1>  -0.6500 
  4 C       -1.3570    -1.6860     0.2910 C.ar  1 <1>  -0.0090 
  5 C        1.1960    -0.5290     0.3170 C.3   1 <1>  -0.1350 
  6 C       -1.7960    -2.0380    -0.9780 C.ar  1 <1>  -0.1500 
  7 C       -1.5690    -2.5940     1.3210 C.ar  1 <1>  -0.1500 
  8 C       -2.4360    -3.2430    -1.2130 C.ar  1 <1>  -0.1500 
  9 C       -2.2070    -3.8020     1.0990 C.ar  1 <1>  -0.1500 
 10 C       -2.6550    -4.1310    -0.1710 C.ar  1 <1>  -0.1430 
 11 C       -3.3840    -5.4390    -0.4170 C.3   1 <1>   0.4860 
 12 N       -4.7500    -5.3420     0.1730 N.4   1 <1>  -0.9590 
 13 C       -5.3680    -6.7090     0.2890 C.3   1 <1>   0.3430 
 14 C       -5.5800    -4.3370    -0.5660 C.3   1 <1>   0.3430 
 15 C       -6.7960    -6.7310     0.8710 C.3   1 <1>   0.1400 
 16 C       -6.7030    -3.8220     0.3320 C.3   1 <1>  -0.1600 
 17 N       -7.7810    -6.0730    -0.0490 N.am  1 <1>  -0.6600 
 18 C       -8.0070    -4.6150     0.2010 C.3   1 <1>   0.1400 
 19 C       -8.6000    -6.7370    -0.9430 C.2   1 <1>   0.5690 
 20 O       -9.3600    -6.1340    -1.6580 O.2   1 <1>  -0.5700 
 21 C       -8.6090    -8.2430    -1.1040 C.3   1 <1>   0.1570 
 22 N       -9.2830    -8.8480     0.0460 N.pl3 1 <1>   0.3140 
 23 N       -8.6720    -9.6680     0.8720 N.2   1 <1>  -0.4180 
 24 C      -10.5120    -8.6750     0.4900 C.2   1 <1>   0.0360 
 25 N       -9.5290    -9.9690     1.7800 N.2   1 <1>   0.0000 
 26 N      -10.6860    -9.3530     1.5570 N.2   1 <1>  -0.3380 
 27 H        1.8120     0.3370     0.4650 H     1 <1>   0.0800 
 28 H        1.3420    -0.8810    -0.6860 H     1 <1>   0.0800 
 29 H        1.5110    -1.2910     1.0030 H     1 <1>   0.0800 
 30 H       -1.6400    -1.3510    -1.7970 H     1 <1>   0.1500 
 31 H       -1.2330    -2.3450     2.3160 H     1 <1>   0.1500 
 32 H       -2.7570    -3.4700    -2.2160 H     1 <1>   0.1500 
 33 H       -2.3430    -4.4730     1.9310 H     1 <1>   0.1500 
 34 H       -2.8320    -6.2390     0.0500 H     1 <1>   0.0800 
 35 H       -3.4460    -5.6380    -1.4750 H     1 <1>   0.0800 
 36 H       -4.6140    -4.9570     1.1160 H     1 <1>   0.4500 
 37 H       -4.7440    -7.3200     0.9210 H     1 <1>   0.0800 
 38 H       -5.3950    -7.1750    -0.6820 H     1 <1>   0.0800 
 39 H       -5.9860    -4.7620    -1.4710 H     1 <1>   0.0800 
 40 H       -4.9640    -3.4950    -0.8380 H     1 <1>   0.0800 
 41 H       -6.8110    -6.2490     1.8340 H     1 <1>   0.0800 
 42 H       -7.0700    -7.7530     1.0420 H     1 <1>   0.0800 
 43 H       -6.9230    -2.8090     0.0440 H     1 <1>   0.0800 
 44 H       -6.3880    -3.7820     1.3590 H     1 <1>   0.0800 
 45 H       -8.5750    -4.1900    -0.6100 H     1 <1>   0.0800 
 46 H       -8.5980    -4.4960     1.0940 H     1 <1>   0.0800 
 47 H       -7.6080    -8.6210    -1.1740 H     1 <1>   0.0800 
 48 H       -9.1450    -8.5100    -1.9950 H     1 <1>   0.0800 
 49 H      -11.2450    -8.0480     0.0150 H     1 <1>   0.1500 
@<TRIPOS>BOND
  1   1   2  2   
  2   1   3  2   
  3   1   4  1   
  4   1   5  1   
  5   4   6  ar  
  6   4   7  ar  
  7   5  27  1   
  8   5  28  1   
  9   5  29  1   
 10   6   8  ar  
 11   6  30  1   
 12   7   9  ar  
 13   7  31  1   
 14   8  10  ar  
 15   8  32  1   
 16   9  10  ar  
 17   9  33  1   
 18  10  11  1   
 19  11  12  1   
 20  11  34  1   
 21  11  35  1   
 22  12  13  1   
 23  12  14  1   
 24  12  36  1   
 25  13  15  1   
 26  13  37  1   
 27  13  38  1   
 28  14  16  1   
 29  14  39  1   
 30  14  40  1   
 31  15  17  1   
 32  15  41  1   
 33  15  42  1   
 34  16  18  1   
 35  16  43  1   
 36  16  44  1   
 37  17  18  1   
 38  17  19  am  
 39  18  45  1   
 40  18  46  1   
 41  19  20  2   
 42  19  21  1   
 43  21  22  1   
 44  21  47  1   
 45  21  48  1   
 46  22  23  1   
 47  22  24  1   
 48  23  25  2   
 49  24  26  2   
 50  24  49  1   
 51  25  26  1   
@<TRIPOS>SUBSTRUCTURE
  1 ****  12 GROUP 4 **** **** 0

# MOE 2024.06 (io_trps.svl 2023.06)
