@<TRIPOS>MOLECULE
NONAME
48 49 1 0 0 
SMALL
USER_CHARGES


@<TRIPOS>ATOM
  1 S        0.6180    -0.4380    -0.6140 S.o2  1 <1>   1.3330 
  2 O        0.9350    -1.1890    -1.8070 O.2   1 <1>  -0.6500 
  3 O        0.3710    -1.1360     0.6280 O.2   1 <1>  -0.6500 
  4 N       -0.7250     0.5480    -0.9390 N.am  1 <1>  -0.8490 
  5 C        1.9360     0.7470    -0.3640 C.3   1 <1>  -0.0550 
  6 C       -1.7020    -0.1150    -1.8090 C.3   1 <1>   0.1160 
  7 C       -1.3910     1.0420     0.2710 C.3   1 <1>   0.1160 
  8 C        3.3070     0.0810    -0.1280 C.3   1 <1>  -0.0800 
  9 C        4.4930     1.0360    -0.0790 C.3   1 <1>   0.2760 
 10 C        3.4170    -0.6880     1.1970 C.3   1 <1>   0.1200 
 11 N        4.1220     2.2460     0.6530 N.am  1 <1>  -0.9140 
 12 C        5.4710     0.2030     0.7450 C.3   1 <1>   0.1200 
 13 O        4.6750    -0.3890     1.7240 O.3   1 <1>  -0.5600 
 14 S        5.2740     3.4660     0.5810 S.o2  1 <1>   1.3330 
 15 O        5.8760     3.3920    -0.7310 O.2   1 <1>  -0.6500 
 16 O        6.0630     3.2500     1.7690 O.2   1 <1>  -0.6500 
 17 C        4.2870     4.9620     0.7300 C.3   1 <1>   0.0890 
 18 C        5.1000     6.2490     0.6950 C.ar  1 <1>  -0.1440 
 19 C        5.6180     6.7070    -0.5060 C.ar  1 <1>  -0.1500 
 20 C        5.3320     6.9690     1.8560 C.ar  1 <1>  -0.1500 
 21 C        6.3580     7.8770    -0.5560 C.ar  1 <1>  -0.1440 
 22 C        6.0670     8.1400     1.8120 C.ar  1 <1>  -0.1500 
 23 C        6.5770     8.5940     0.6090 C.ar  1 <1>  -0.1500 
 24 C        6.9210     8.3670    -1.8780 C.3   1 <1>  -0.0970 
 25 H        2.0050     1.3710    -1.2340 H     1 <1>   0.0800 
 26 H        1.6920     1.3760     0.4700 H     1 <1>   0.0800 
 27 H       -2.5320     0.5410    -2.0080 H     1 <1>   0.0800 
 28 H       -2.0660    -1.0170    -1.3440 H     1 <1>   0.0800 
 29 H       -1.2450    -0.3720    -2.7500 H     1 <1>   0.0800 
 30 H       -2.1760     1.7300     0.0060 H     1 <1>   0.0800 
 31 H       -0.6860     1.5580     0.8990 H     1 <1>   0.0800 
 32 H       -1.8160     0.2230     0.8280 H     1 <1>   0.0800 
 33 H        3.4830    -0.6210    -0.9250 H     1 <1>   0.0800 
 34 H        4.8580     1.2580    -1.0690 H     1 <1>   0.0800 
 35 H        3.3450    -1.7520     1.0470 H     1 <1>   0.0800 
 36 H        2.6780    -0.3740     1.9140 H     1 <1>   0.0800 
 37 H        4.1600     1.9440     1.6320 H     1 <1>   0.4200 
 38 H        6.2540     0.7780     1.2070 H     1 <1>   0.0800 
 39 H        5.9040    -0.5810     0.1480 H     1 <1>   0.0800 
 40 H        3.5770     4.9910    -0.0730 H     1 <1>   0.0800 
 41 H        3.7320     4.9250     1.6470 H     1 <1>   0.0800 
 42 H        5.4520     6.1490    -1.4130 H     1 <1>   0.1500 
 43 H        4.9480     6.6270     2.8020 H     1 <1>   0.1500 
 44 H        6.2460     8.6990     2.7140 H     1 <1>   0.1500 
 45 H        7.1480     9.5060     0.5840 H     1 <1>   0.1500 
 46 H        7.7940     8.9730    -1.7150 H     1 <1>   0.0800 
 47 H        6.1820     8.9530    -2.3940 H     1 <1>   0.0800 
 48 H        7.1990     7.5330    -2.4970 H     1 <1>   0.0800 
@<TRIPOS>BOND
  1   1   2  2   
  2   1   3  2   
  3   1   4  am  
  4   1   5  1   
  5   4   6  1   
  6   4   7  1   
  7   5   8  1   
  8   5  25  1   
  9   5  26  1   
 10   6  27  1   
 11   6  28  1   
 12   6  29  1   
 13   7  30  1   
 14   7  31  1   
 15   7  32  1   
 16   8   9  1   
 17   8  10  1   
 18   8  33  1   
 19   9  11  1   
 20   9  12  1   
 21   9  34  1   
 22  10  13  1   
 23  10  35  1   
 24  10  36  1   
 25  11  14  am  
 26  11  37  1   
 27  12  13  1   
 28  12  38  1   
 29  12  39  1   
 30  14  15  2   
 31  14  16  2   
 32  14  17  1   
 33  17  18  1   
 34  17  40  1   
 35  17  41  1   
 36  18  19  ar  
 37  18  20  ar  
 38  19  21  ar  
 39  19  42  1   
 40  20  22  ar  
 41  20  43  1   
 42  21  23  ar  
 43  21  24  1   
 44  22  23  ar  
 45  22  44  1   
 46  23  45  1   
 47  24  46  1   
 48  24  47  1   
 49  24  48  1   
@<TRIPOS>SUBSTRUCTURE
  1 ****  11 GROUP 4 **** **** 0

# MOE 2024.06 (io_trps.svl 2023.06)
