@<TRIPOS>MOLECULE
NONAME
44 46 1 0 0 
SMALL
USER_CHARGES


@<TRIPOS>ATOM
  1 O       -0.4880    -0.2410     0.0790 O.2   1 <1>  -0.5700 
  2 C       -1.5610    -0.8030     0.0740 C.2   1 <1>   0.6900 
  3 N       -2.7470    -0.1480     0.3360 N.am  1 <1>  -0.4200 
  4 N       -1.5940    -2.1400    -0.2040 N.am  1 <1>  -0.5390 
  5 C       -3.9450    -0.8390     0.2820 C.2   1 <1>   0.6160 
  6 C       -2.7370     1.3130     0.6360 C.3   1 <1>   0.0600 
  7 C       -2.7620    -2.8730    -0.2520 C.2   1 <1>  -0.0410 
  8 O       -4.9970    -0.2560     0.4810 O.2   1 <1>  -0.5700 
  9 C       -3.9400    -2.2480    -0.0110 C.2   1 <1>  -0.1240 
 10 C       -5.3120    -2.9270    -0.0300 C.3   1 <1>  -0.0220 
 11 C       -5.2750    -4.4450    -0.2380 C.3   1 <1>   0.3430 
 12 N       -6.6450    -5.0540    -0.1060 N.4   1 <1>  -0.9590 
 13 C       -6.5310    -6.5540     0.0310 C.3   1 <1>   0.5110 
 14 C       -7.5170    -4.6630    -1.2720 C.3   1 <1>   0.2630 
 15 C       -7.8360    -7.2830     0.4000 C.2   1 <1>   0.1820 
 16 N       -8.0400    -8.6380     0.1570 N.pl3 1 <1>  -0.6290 
 17 C       -8.9510    -6.8050     0.9970 C.2   1 <1>   0.2000 
 18 C       -9.2840    -8.9460     0.6150 C.cat 1 <1>   0.7910 
 19 C       -7.2640    -9.6390    -0.4070 C.2   1 <1>   0.2290 
 20 N       -9.8410    -7.8360     1.1220 N.pl3 1 <1>  -0.7000 
 21 C       -9.7970   -10.2490     0.5210 C.2   1 <1>  -0.1410 
 22 C       -7.7450   -10.9120    -0.5070 C.2   1 <1>  -0.1500 
 23 C       -9.0330   -11.2360    -0.0390 C.2   1 <1>  -0.1500 
 24 H       -0.6690    -2.5390    -0.3840 H     1 <1>   0.3700 
 25 H       -1.7900     1.6060     1.0560 H     1 <1>   0.0800 
 26 H       -3.5110     1.5530     1.3450 H     1 <1>   0.0800 
 27 H       -2.9060     1.8660    -0.2700 H     1 <1>   0.0800 
 28 H       -2.6500    -3.9190    -0.4860 H     1 <1>   0.1500 
 29 H       -5.8890    -2.4630    -0.8100 H     1 <1>   0.0800 
 30 H       -5.7920    -2.7180     0.9110 H     1 <1>   0.0800 
 31 H       -4.6180    -4.8670     0.5060 H     1 <1>   0.0800 
 32 H       -4.8620    -4.6620    -1.2110 H     1 <1>   0.0800 
 33 H       -7.0480    -4.6630     0.7600 H     1 <1>   0.4500 
 34 H       -5.7950    -6.7910     0.7830 H     1 <1>   0.0800 
 35 H       -6.1760    -6.9580    -0.9030 H     1 <1>   0.0800 
 36 H       -7.0750    -4.9880    -2.2010 H     1 <1>   0.0800 
 37 H       -7.6370    -3.5910    -1.3120 H     1 <1>   0.0800 
 38 H       -8.4970    -5.1050    -1.1870 H     1 <1>   0.0800 
 39 H       -9.1780    -5.8090     1.3470 H     1 <1>   0.1500 
 40 H       -6.2760    -9.3970    -0.7640 H     1 <1>   0.1500 
 41 H      -10.7770    -7.8050     1.5410 H     1 <1>   0.4500 
 42 H      -10.7850   -10.4490     0.8930 H     1 <1>   0.1500 
 43 H       -7.1480   -11.6970    -0.9450 H     1 <1>   0.1500 
 44 H       -9.3910   -12.2510    -0.1300 H     1 <1>   0.1500 
@<TRIPOS>BOND
  1   1   2  2   
  2   2   3  am  
  3   2   4  am  
  4   3   5  am  
  5   3   6  1   
  6   4   7  1   
  7   4  24  1   
  8   5   8  2   
  9   5   9  1   
 10   6  25  1   
 11   6  26  1   
 12   6  27  1   
 13   7   9  2   
 14   7  28  1   
 15   9  10  1   
 16  10  11  1   
 17  10  29  1   
 18  10  30  1   
 19  11  12  1   
 20  11  31  1   
 21  11  32  1   
 22  12  13  1   
 23  12  14  1   
 24  12  33  1   
 25  13  15  1   
 26  13  34  1   
 27  13  35  1   
 28  14  36  1   
 29  14  37  1   
 30  14  38  1   
 31  15  16  1   
 32  15  17  2   
 33  16  18  ar  
 34  16  19  1   
 35  17  20  1   
 36  17  39  1   
 37  18  20  ar  
 38  18  21  1   
 39  19  22  2   
 40  19  40  1   
 41  20  41  1   
 42  21  23  2   
 43  21  42  1   
 44  22  23  1   
 45  22  43  1   
 46  23  44  1   
@<TRIPOS>SUBSTRUCTURE
  1 ****  11 GROUP 4 **** **** 0

# MOE 2024.06 (io_trps.svl 2023.06)
