@<TRIPOS>MOLECULE
NONAME
41 43 1 0 0 
SMALL
USER_CHARGES


@<TRIPOS>ATOM
  1 S       -1.7450    -0.9610     0.3970 S.3   1 <1>  -0.2860 
  2 C       -1.1270     0.6610     0.8230 C.2   1 <1>   0.5340 
  3 C       -1.5850    -0.9830    -1.4530 C.3   1 <1>   0.1310 
  4 O       -1.1110     1.0190     2.0610 O.3   1 <1>  -0.2800 
  5 N       -0.6810     1.5390     0.0120 N.2   1 <1>  -0.3380 
  6 C       -2.0140    -2.3290    -2.0110 C.2   1 <1>   0.5690 
  7 C       -0.6140     2.2130     1.9920 C.2   1 <1>   0.2980 
  8 N       -0.3400     2.5700     0.7920 N.2   1 <1>  -0.3380 
  9 O       -2.6200    -2.3630    -3.0540 O.2   1 <1>  -0.5700 
 10 N       -1.7150    -3.4630    -1.3280 N.am  1 <1>  -0.7300 
 11 C       -0.4180     3.0170     3.2560 C.3   1 <1>  -0.0600 
 12 C       -2.1000    -4.8350    -1.7320 C.3   1 <1>   0.2200 
 13 C       -3.2560    -5.3520    -0.8860 C.3   1 <1>  -0.0800 
 14 C       -0.9970    -5.7980    -1.3150 C.3   1 <1>   0.1200 
 15 C       -2.5540    -5.8920     0.3660 C.3   1 <1>   0.1200 
 16 C       -4.3840    -4.3450    -0.5920 C.3   1 <1>  -0.0160 
 17 O       -1.1960    -6.0100     0.0490 O.3   1 <1>  -0.5600 
 18 C       -5.5120    -5.0060     0.1840 C.ar  1 <1>  -0.1430 
 19 C       -5.6390    -4.8710     1.5520 C.ar  1 <1>  -0.1500 
 20 C       -6.4690    -5.7770    -0.4440 C.ar  1 <1>  -0.1500 
 21 C       -6.6830    -5.5020     2.2080 C.ar  1 <1>   0.1600 
 22 C       -7.4740    -6.3650     0.3070 C.ar  1 <1>   0.1600 
 23 N       -7.6020    -6.2490     1.6180 N.ar  1 <1>  -0.6200 
 24 H       -2.2090    -0.1980    -1.8390 H     1 <1>   0.0800 
 25 H       -0.5570    -0.7860    -1.6930 H     1 <1>   0.0800 
 26 H       -1.2610    -3.4100    -0.4110 H     1 <1>   0.3700 
 27 H        0.0000     3.9780     3.0170 H     1 <1>   0.0800 
 28 H        0.2510     2.4970     3.9160 H     1 <1>   0.0800 
 29 H       -1.3630     3.1570     3.7470 H     1 <1>   0.0800 
 30 H       -2.3050    -4.8770    -2.7890 H     1 <1>   0.0800 
 31 H       -3.6850    -6.1950    -1.3990 H     1 <1>   0.0800 
 32 H       -0.0110    -5.4020    -1.4830 H     1 <1>   0.0800 
 33 H       -1.1060    -6.7440    -1.8160 H     1 <1>   0.0800 
 34 H       -2.9330    -6.8580     0.6510 H     1 <1>   0.0800 
 35 H       -2.6350    -5.2100     1.1940 H     1 <1>   0.0800 
 36 H       -4.7680    -3.9580    -1.5210 H     1 <1>   0.0800 
 37 H       -4.0070    -3.5100    -0.0280 H     1 <1>   0.0800 
 38 H       -4.9380    -4.2820     2.1140 H     1 <1>   0.1500 
 39 H       -6.4440    -5.9260    -1.5070 H     1 <1>   0.1500 
 40 H       -6.7650    -5.3870     3.2750 H     1 <1>   0.1500 
 41 H       -8.2120    -6.9640    -0.2000 H     1 <1>   0.1500 
@<TRIPOS>BOND
  1   1   2  1   
  2   1   3  1   
  3   2   4  1   
  4   2   5  2   
  5   3   6  1   
  6   3  24  1   
  7   3  25  1   
  8   4   7  1   
  9   5   8  1   
 10   6   9  2   
 11   6  10  am  
 12   7   8  2   
 13   7  11  1   
 14  10  12  1   
 15  10  26  1   
 16  11  27  1   
 17  11  28  1   
 18  11  29  1   
 19  12  13  1   
 20  12  14  1   
 21  12  30  1   
 22  13  15  1   
 23  13  16  1   
 24  13  31  1   
 25  14  17  1   
 26  14  32  1   
 27  14  33  1   
 28  15  17  1   
 29  15  34  1   
 30  15  35  1   
 31  16  18  1   
 32  16  36  1   
 33  16  37  1   
 34  18  19  ar  
 35  18  20  ar  
 36  19  21  ar  
 37  19  38  1   
 38  20  22  ar  
 39  20  39  1   
 40  21  23  ar  
 41  21  40  1   
 42  22  23  ar  
 43  22  41  1   
@<TRIPOS>SUBSTRUCTURE
  1 ****  10 GROUP 4 **** **** 0

# MOE 2024.06 (io_trps.svl 2023.06)
