@<TRIPOS>MOLECULE
NONAME
49 51 1 0 0 
SMALL
USER_CHARGES


@<TRIPOS>ATOM
  1 O        3.0560    -1.2430    -2.5210 O.2   1 <1>  -0.5700 
  2 C        2.3770    -1.5540    -1.5550 C.2   1 <1>   0.5440 
  3 N        2.2280    -0.5990    -0.5640 N.am  1 <1>  -0.6600 
  4 C        1.7980    -2.9000    -1.4970 C.ar  1 <1>   0.3960 
  5 C        1.5630    -0.7900     0.7430 C.3   1 <1>   0.1400 
  6 C        2.7970     0.7630    -0.6730 C.3   1 <1>   0.1400 
  7 N        0.6590    -3.1430    -0.8260 N.ar  1 <1>  -0.6200 
  8 C        2.4710    -3.9230    -2.1730 C.ar  1 <1>   0.1600 
  9 C        1.9780     0.4200     1.5720 C.3   1 <1>  -0.1600 
 10 C        2.2620     1.5100     0.5430 C.3   1 <1>  -0.1600 
 11 C        0.2600    -4.4040    -0.8680 C.ar  1 <1>   0.4100 
 12 N        2.1010    -5.1950    -2.2220 N.ar  1 <1>  -0.6200 
 13 N       -0.9240    -4.7110    -0.2040 N.pl3 1 <1>  -0.8380 
 14 C        0.9860    -5.3950    -1.5500 C.ar  1 <1>   0.1600 
 15 C       -1.9970    -5.4260    -0.9430 C.3   1 <1>   0.2090 
 16 C       -1.4130    -3.8180     0.8860 C.3   1 <1>   0.1290 
 17 C       -2.2590    -6.7760    -0.2730 C.3   1 <1>  -0.1600 
 18 C       -3.3680    -7.5540    -1.0010 C.3   1 <1>  -0.1600 
 19 C       -3.6270    -8.9300    -0.3780 C.3   1 <1>   0.2000 
 20 O       -4.6230    -9.5610    -1.1070 O.3   1 <1>  -0.5600 
 21 C       -4.1660    -8.9030     1.0450 C.3   1 <1>  -0.1600 
 22 C       -5.2480   -10.5400    -0.3390 C.3   1 <1>   0.1200 
 23 C       -4.9770   -10.1850     1.1220 C.3   1 <1>  -0.1600 
 24 H        1.8700    -1.7120     1.2060 H     1 <1>   0.0800 
 25 H        0.4960    -0.7950     0.5950 H     1 <1>   0.0800 
 26 H        2.4950     1.2300    -1.5950 H     1 <1>   0.0800 
 27 H        3.8710     0.6960    -0.6380 H     1 <1>   0.0800 
 28 H        3.3730    -3.6680    -2.7020 H     1 <1>   0.1500 
 29 H        2.8790     0.1810     2.1100 H     1 <1>   0.0800 
 30 H        1.2150     0.7050     2.2740 H     1 <1>   0.0800 
 31 H        1.3460     2.0050     0.2720 H     1 <1>   0.0800 
 32 H        2.9640     2.2430     0.9020 H     1 <1>   0.0800 
 33 H        0.6020    -6.3960    -1.5170 H     1 <1>   0.1500 
 34 H       -1.7040    -5.5760    -1.9690 H     1 <1>   0.0800 
 35 H       -2.8950    -4.8320    -0.9420 H     1 <1>   0.0800 
 36 H       -0.5840    -3.4810     1.4840 H     1 <1>   0.0800 
 37 H       -2.1010    -4.3480     1.5210 H     1 <1>   0.0800 
 38 H       -1.9060    -2.9610     0.4610 H     1 <1>   0.0800 
 39 H       -2.5480    -6.6070     0.7490 H     1 <1>   0.0800 
 40 H       -1.3520    -7.3540    -0.2800 H     1 <1>   0.0800 
 41 H       -3.0810    -7.7010    -2.0280 H     1 <1>   0.0800 
 42 H       -4.2810    -6.9850    -0.9830 H     1 <1>   0.0800 
 43 H       -2.7470    -9.5490    -0.4350 H     1 <1>   0.0800 
 44 H       -4.8100    -8.0510     1.1750 H     1 <1>   0.0800 
 45 H       -3.3750    -8.8690     1.7730 H     1 <1>   0.0800 
 46 H       -4.8240   -11.4950    -0.5970 H     1 <1>   0.0800 
 47 H       -6.2990   -10.5280    -0.5680 H     1 <1>   0.0800 
 48 H       -5.8930   -10.0480     1.6690 H     1 <1>   0.0800 
 49 H       -4.4080   -10.9740     1.5820 H     1 <1>   0.0800 
@<TRIPOS>BOND
  1   1   2  2   
  2   2   3  am  
  3   2   4  1   
  4   3   5  1   
  5   3   6  1   
  6   4   7  ar  
  7   4   8  ar  
  8   5   9  1   
  9   5  24  1   
 10   5  25  1   
 11   6  10  1   
 12   6  26  1   
 13   6  27  1   
 14   7  11  ar  
 15   8  12  ar  
 16   8  28  1   
 17   9  10  1   
 18   9  29  1   
 19   9  30  1   
 20  10  31  1   
 21  10  32  1   
 22  11  13  1   
 23  11  14  ar  
 24  12  14  ar  
 25  13  15  1   
 26  13  16  1   
 27  14  33  1   
 28  15  17  1   
 29  15  34  1   
 30  15  35  1   
 31  16  36  1   
 32  16  37  1   
 33  16  38  1   
 34  17  18  1   
 35  17  39  1   
 36  17  40  1   
 37  18  19  1   
 38  18  41  1   
 39  18  42  1   
 40  19  20  1   
 41  19  21  1   
 42  19  43  1   
 43  20  22  1   
 44  21  23  1   
 45  21  44  1   
 46  21  45  1   
 47  22  23  1   
 48  22  46  1   
 49  22  47  1   
 50  23  48  1   
 51  23  49  1   
@<TRIPOS>SUBSTRUCTURE
  1 ****  11 GROUP 4 **** **** 0

# MOE 2024.06 (io_trps.svl 2023.06)
