@<TRIPOS>MOLECULE
NONAME
39 40 1 0 0 
SMALL
USER_CHARGES


@<TRIPOS>ATOM
  1 S        0.2020     0.7670     0.2900 S.3   1 <1>  -0.0800 
  2 C       -1.5160     0.5180     0.0070 C.2   1 <1>  -0.1400 
  3 C        0.3920     1.5410    -1.2700 C.2   1 <1>  -0.1100 
  4 C       -1.8760     1.0110    -1.1960 C.2   1 <1>  -0.1810 
  5 C       -2.2890    -0.1660     1.1110 C.3   1 <1>   0.5230 
  6 C       -0.7840     1.5890    -1.9200 C.2   1 <1>  -0.1500 
  7 C       -3.2610     1.0140    -1.8180 C.3   1 <1>  -0.0590 
  8 N       -2.3490    -1.6230     0.8200 N.4   1 <1>  -0.9590 
  9 C       -3.3950    -2.3110     1.6200 C.3   1 <1>   0.4860 
 10 C       -1.0170    -2.2970     0.9460 C.3   1 <1>   0.2630 
 11 C       -3.5850    -3.6990     1.0510 C.ar  1 <1>  -0.1430 
 12 C       -3.1450    -4.8130     1.7500 C.ar  1 <1>  -0.1500 
 13 C       -4.1970    -3.8660    -0.1830 C.ar  1 <1>  -0.1500 
 14 C       -3.3040    -6.0790     1.2140 C.ar  1 <1>  -0.1500 
 15 C       -4.3490    -5.1330    -0.7150 C.ar  1 <1>  -0.1500 
 16 C       -3.9030    -6.2460    -0.0230 C.ar  1 <1>  -0.1430 
 17 C       -4.0760    -7.6400    -0.6290 C.3   1 <1>  -0.1230 
 18 C       -5.4980    -7.9820    -1.0300 C.2   1 <1>   0.9060 
 19 O       -6.1450    -8.7580    -0.3200 O.co2 1 <1>  -0.9000 
 20 O       -5.9500    -7.5050    -2.0790 O.co2 1 <1>  -0.9000 
 21 H        1.3760     1.8850    -1.5390 H     1 <1>   0.1500 
 22 H       -3.2860     0.2420     1.1340 H     1 <1>   0.0800 
 23 H       -1.8200     0.0190     2.0640 H     1 <1>   0.0800 
 24 H       -0.9290     2.0190    -2.8970 H     1 <1>   0.1500 
 25 H       -3.9880     0.5670    -1.1660 H     1 <1>   0.0800 
 26 H       -3.2480     0.4700    -2.7460 H     1 <1>   0.0800 
 27 H       -3.5650     2.0260    -2.0220 H     1 <1>   0.0800 
 28 H       -2.6260    -1.7170    -0.1660 H     1 <1>   0.4500 
 29 H       -4.3290    -1.7770     1.5580 H     1 <1>   0.0800 
 30 H       -3.1000    -2.3740     2.6550 H     1 <1>   0.0800 
 31 H       -0.6430    -2.2150     1.9530 H     1 <1>   0.0800 
 32 H       -0.3040    -1.8480     0.2740 H     1 <1>   0.0800 
 33 H       -1.1020    -3.3430     0.6920 H     1 <1>   0.0800 
 34 H       -2.6800    -4.7190     2.7160 H     1 <1>   0.1500 
 35 H       -4.5710    -3.0310    -0.7480 H     1 <1>   0.1500 
 36 H       -2.9690    -6.9430     1.7600 H     1 <1>   0.1500 
 37 H       -4.8300    -5.2670    -1.6720 H     1 <1>   0.1500 
 38 H       -3.7490    -8.3910     0.0620 H     1 <1>   0.0800 
 39 H       -3.4700    -7.7180    -1.5110 H     1 <1>   0.0800 
@<TRIPOS>BOND
  1   1   2  1   
  2   1   3  1   
  3   2   4  2   
  4   2   5  1   
  5   3   6  2   
  6   3  21  1   
  7   4   6  1   
  8   4   7  1   
  9   5   8  1   
 10   5  22  1   
 11   5  23  1   
 12   6  24  1   
 13   7  25  1   
 14   7  26  1   
 15   7  27  1   
 16   8   9  1   
 17   8  10  1   
 18   8  28  1   
 19   9  11  1   
 20   9  29  1   
 21   9  30  1   
 22  10  31  1   
 23  10  32  1   
 24  10  33  1   
 25  11  12  ar  
 26  11  13  ar  
 27  12  14  ar  
 28  12  34  1   
 29  13  15  ar  
 30  13  35  1   
 31  14  16  ar  
 32  14  36  1   
 33  15  16  ar  
 34  15  37  1   
 35  16  17  1   
 36  17  18  1   
 37  17  38  1   
 38  17  39  1   
 39  18  19  ar  
 40  18  20  ar  
@<TRIPOS>SUBSTRUCTURE
  1 ****  13 GROUP 4 **** **** 0

# MOE 2024.06 (io_trps.svl 2023.06)
