@<TRIPOS>MOLECULE
NONAME
41 42 1 0 0 
SMALL
USER_CHARGES


@<TRIPOS>ATOM
  1 S        0.5860     0.3860    -1.3700 S.o2  1 <1>   1.3330 
  2 O        0.8790    -0.8700    -2.0230 O.2   1 <1>  -0.6500 
  3 O       -0.2150     1.3770    -2.0520 O.2   1 <1>  -0.6500 
  4 N       -0.1920     0.0380     0.1000 N.am  1 <1>  -0.8490 
  5 C        2.1420     1.1260    -0.8690 C.3   1 <1>  -0.0550 
  6 C       -0.8550     1.2040     0.6950 C.3   1 <1>   0.1160 
  7 C       -1.1530    -1.0610    -0.0330 C.3   1 <1>   0.1160 
  8 C        3.1190     0.1460    -0.1820 C.3   1 <1>  -0.0800 
  9 C        4.5060     0.7090     0.0890 C.3   1 <1>   0.2200 
 10 C        2.6800    -0.3510     1.2010 C.3   1 <1>   0.1200 
 11 N        4.4200     2.0900     0.6190 N.am  1 <1>  -0.7300 
 12 C        4.9680    -0.2160     1.2050 C.3   1 <1>   0.1200 
 13 O        3.8340    -0.4300     1.9880 O.3   1 <1>  -0.5600 
 14 C        4.6800     3.2360    -0.0710 C.2   1 <1>   0.7150 
 15 O        4.9370     3.1340    -1.2550 O.2   1 <1>  -0.5700 
 16 C        4.6230     4.5180     0.5960 C.2   1 <1>  -0.0450 
 17 S        4.0930     4.5330     2.2870 S.3   1 <1>  -0.0800 
 18 C        4.8880     5.8020     0.2200 C.2   1 <1>  -0.1810 
 19 C        4.2520     6.2670     2.4080 C.2   1 <1>  -0.1100 
 20 C        4.6770     6.7770     1.2400 C.2   1 <1>  -0.1500 
 21 C        5.3730     6.2760    -1.1410 C.3   1 <1>  -0.0590 
 22 H        2.6260     1.5130    -1.7460 H     1 <1>   0.0800 
 23 H        1.9460     1.9590    -0.2230 H     1 <1>   0.0800 
 24 H       -1.2550     0.9480     1.6620 H     1 <1>   0.0800 
 25 H       -1.6590     1.5450     0.0630 H     1 <1>   0.0800 
 26 H       -0.1520     2.0090     0.8220 H     1 <1>   0.0800 
 27 H       -1.6200    -1.2670     0.9150 H     1 <1>   0.0800 
 28 H       -0.6480    -1.9560    -0.3580 H     1 <1>   0.0800 
 29 H       -1.9110    -0.8110    -0.7570 H     1 <1>   0.0800 
 30 H        3.2340    -0.7170    -0.8150 H     1 <1>   0.0800 
 31 H        5.1510     0.6670    -0.7730 H     1 <1>   0.0800 
 32 H        2.2220    -1.3240     1.1500 H     1 <1>   0.0800 
 33 H        2.0100     0.3400     1.6820 H     1 <1>   0.0800 
 34 H        4.1900     2.1520     1.6130 H     1 <1>   0.3700 
 35 H        5.7530     0.2100     1.8060 H     1 <1>   0.0800 
 36 H        5.2810    -1.1670     0.8090 H     1 <1>   0.0800 
 37 H        4.0090     6.7290     3.3480 H     1 <1>   0.1500 
 38 H        4.8540     7.8230     1.0550 H     1 <1>   0.1500 
 39 H        6.2820     6.8390    -1.0290 H     1 <1>   0.0800 
 40 H        4.6290     6.9060    -1.5930 H     1 <1>   0.0800 
 41 H        5.5690     5.4550    -1.8050 H     1 <1>   0.0800 
@<TRIPOS>BOND
  1   1   2  2   
  2   1   3  2   
  3   1   4  am  
  4   1   5  1   
  5   4   6  1   
  6   4   7  1   
  7   5   8  1   
  8   5  22  1   
  9   5  23  1   
 10   6  24  1   
 11   6  25  1   
 12   6  26  1   
 13   7  27  1   
 14   7  28  1   
 15   7  29  1   
 16   8   9  1   
 17   8  10  1   
 18   8  30  1   
 19   9  11  1   
 20   9  12  1   
 21   9  31  1   
 22  10  13  1   
 23  10  32  1   
 24  10  33  1   
 25  11  14  am  
 26  11  34  1   
 27  12  13  1   
 28  12  35  1   
 29  12  36  1   
 30  14  15  2   
 31  14  16  1   
 32  16  17  1   
 33  16  18  2   
 34  17  19  1   
 35  18  20  1   
 36  18  21  1   
 37  19  20  2   
 38  19  37  1   
 39  20  38  1   
 40  21  39  1   
 41  21  40  1   
 42  21  41  1   
@<TRIPOS>SUBSTRUCTURE
  1 ****  11 GROUP 4 **** **** 0

# MOE 2024.06 (io_trps.svl 2023.06)
