@<TRIPOS>MOLECULE
NONAME
49 52 1 0 0 
SMALL
USER_CHARGES


@<TRIPOS>ATOM
  1 O        0.8660     0.1090    -0.8010 O.2   1 <1>  -0.5700 
  2 C        1.3840    -0.4260     0.1480 C.2   1 <1>   0.6300 
  3 N        2.1780     0.2800     1.0170 N.am  1 <1>  -0.6600 
  4 C        1.2070    -1.9270     0.3100 C.3   1 <1>  -0.1000 
  5 C        3.2700    -0.3500     1.8080 C.3   1 <1>   0.1400 
  6 C        2.1430     1.7670     1.0350 C.3   1 <1>   0.1400 
  7 C       -0.1740    -2.5100     0.2690 C.3   1 <1>  -0.0680 
  8 C        0.6100    -2.5390     1.5440 C.3   1 <1>  -0.2000 
  9 C        4.4760    -0.6600     0.8970 C.3   1 <1>   0.3430 
 10 C        3.4460     2.3670     0.4930 C.3   1 <1>  -0.1600 
 11 C       -0.3960    -3.7670    -0.5510 C.ar  1 <1>  -0.0320 
 12 N        5.1260     0.5450     0.2610 N.4   1 <1>  -0.9590 
 13 C        4.1920     1.4540    -0.4840 C.3   1 <1>   0.3430 
 14 C       -0.2170    -3.7270    -1.9250 C.ar  1 <1>  -0.1500 
 15 C       -0.7780    -4.9550     0.0520 C.ar  1 <1>  -0.1500 
 16 C        6.2460     0.1130    -0.6170 C.3   1 <1>   0.5240 
 17 C       -0.4070    -4.8660    -2.6880 C.ar  1 <1>  -0.1500 
 18 C       -0.9690    -6.0950    -0.7090 C.ar  1 <1>  -0.1500 
 19 C        7.1530     1.3010    -0.8440 C.2   1 <1>  -0.1810 
 20 C       -0.7810    -6.0520    -2.0800 C.ar  1 <1>  -0.1500 
 21 C        8.1530     1.7530    -0.0550 C.2   1 <1>  -0.0100 
 22 C        7.1270     2.1680    -1.9490 C.2   1 <1>  -0.1500 
 23 O        8.7130     2.8200    -0.5830 O.3   1 <1>  -0.2800 
 24 C        8.1030     3.0720    -1.7220 C.2   1 <1>  -0.0100 
 25 H        1.9600    -2.4790    -0.2210 H     1 <1>   0.1000 
 26 H        3.5670     0.2980     2.6140 H     1 <1>   0.0800 
 27 H        2.9150    -1.2640     2.2490 H     1 <1>   0.0800 
 28 H        1.3180     2.1150     0.4340 H     1 <1>   0.0800 
 29 H        1.9640     2.1120     2.0400 H     1 <1>   0.0800 
 30 H       -1.0040    -1.8250     0.2060 H     1 <1>   0.1000 
 31 H        0.9860    -3.4840     1.8940 H     1 <1>   0.1000 
 32 H        0.2770    -1.9030     2.3460 H     1 <1>   0.1000 
 33 H        4.1420    -1.3330     0.1250 H     1 <1>   0.0800 
 34 H        5.2110    -1.1860     1.4850 H     1 <1>   0.0800 
 35 H        4.0870     2.6610     1.3040 H     1 <1>   0.0800 
 36 H        3.1810     3.2700    -0.0280 H     1 <1>   0.0800 
 37 H        5.5590     1.1190     0.9950 H     1 <1>   0.4500 
 38 H        4.7590     2.0830    -1.1490 H     1 <1>   0.0800 
 39 H        3.4910     0.8880    -1.0780 H     1 <1>   0.0800 
 40 H        0.0670    -2.8050    -2.4000 H     1 <1>   0.1500 
 41 H       -0.9310    -4.9930     1.1160 H     1 <1>   0.1500 
 42 H        6.8120    -0.6670    -0.1350 H     1 <1>   0.0800 
 43 H        5.8730    -0.2620    -1.5570 H     1 <1>   0.0800 
 44 H       -0.2660    -4.8290    -3.7540 H     1 <1>   0.1500 
 45 H       -1.2650    -7.0150    -0.2360 H     1 <1>   0.1500 
 46 H       -0.9290    -6.9370    -2.6720 H     1 <1>   0.1500 
 47 H        8.5400     1.3940     0.8840 H     1 <1>   0.1500 
 48 H        6.4690     2.1150    -2.7990 H     1 <1>   0.1500 
 49 H        8.4330     3.9130    -2.3110 H     1 <1>   0.1500 
@<TRIPOS>BOND
  1   1   2  2   
  2   2   3  am  
  3   2   4  1   
  4   3   5  1   
  5   3   6  1   
  6   4   7  1   
  7   4   8  1   
  8   4  25  1   
  9   5   9  1   
 10   5  26  1   
 11   5  27  1   
 12   6  10  1   
 13   6  28  1   
 14   6  29  1   
 15   7   8  1   
 16   7  11  1   
 17   7  30  1   
 18   8  31  1   
 19   8  32  1   
 20   9  12  1   
 21   9  33  1   
 22   9  34  1   
 23  10  13  1   
 24  10  35  1   
 25  10  36  1   
 26  11  14  ar  
 27  11  15  ar  
 28  12  13  1   
 29  12  16  1   
 30  12  37  1   
 31  13  38  1   
 32  13  39  1   
 33  14  17  ar  
 34  14  40  1   
 35  15  18  ar  
 36  15  41  1   
 37  16  19  1   
 38  16  42  1   
 39  16  43  1   
 40  17  20  ar  
 41  17  44  1   
 42  18  20  ar  
 43  18  45  1   
 44  19  21  2   
 45  19  22  1   
 46  20  46  1   
 47  21  23  1   
 48  21  47  1   
 49  22  24  2   
 50  22  48  1   
 51  23  24  1   
 52  24  49  1   
@<TRIPOS>SUBSTRUCTURE
  1 ****   2 GROUP 4 **** **** 0

# MOE 2024.06 (io_trps.svl 2023.06)
