@<TRIPOS>MOLECULE
NONAME
46 49 1 0 0 
SMALL
USER_CHARGES


@<TRIPOS>ATOM
  1 O        0.0830     1.3390    -1.0270 O.2   1 <1>  -0.5700 
  2 C       -0.1750     2.5170    -0.9460 C.2   1 <1>   0.5690 
  3 N       -1.1940     3.0200    -0.1800 N.am  1 <1>  -0.5090 
  4 C        0.6850     3.5000    -1.7290 C.3   1 <1>   0.1810 
  5 C       -1.4640     4.4950    -0.1360 C.3   1 <1>   0.3640 
  6 C       -1.9040     2.1880     0.8240 C.3   1 <1>   0.0490 
  7 O        0.8820     4.6770    -0.9920 O.3   1 <1>  -0.5600 
  8 C       -2.7430     4.8160    -0.9100 C.ar  1 <1>  -0.1440 
  9 C       -0.3100     5.3870    -0.6840 C.3   1 <1>   0.2610 
 10 C       -2.6410     0.9730     0.3540 C.3   1 <1>  -0.2000 
 11 C       -3.4020     2.1500     0.8720 C.3   1 <1>  -0.2000 
 12 C       -3.6050     5.7920    -0.4260 C.ar  1 <1>   0.1600 
 13 C       -3.0750     4.1730    -2.0900 C.ar  1 <1>  -0.1500 
 14 C       -0.0150     6.5140     0.3120 C.2   1 <1>   0.5690 
 15 N       -4.7370     6.1600    -1.0050 N.ar  1 <1>  -0.6200 
 16 C       -4.2500     4.5460    -2.7040 C.ar  1 <1>  -0.1500 
 17 O       -0.9280     7.1740     0.7460 O.2   1 <1>  -0.5700 
 18 N        1.2670     6.7510     0.6880 N.am  1 <1>  -0.7300 
 19 C       -5.0340     5.5290    -2.1280 C.ar  1 <1>   0.1600 
 20 C        1.7280     7.8600     1.5400 C.3   1 <1>   0.2840 
 21 C        2.8460     8.5800     0.8140 C.ar  1 <1>  -0.1440 
 22 C        2.5500     9.4110    -0.2570 C.ar  1 <1>   0.1600 
 23 C        4.1650     8.4230     1.1910 C.ar  1 <1>  -0.1500 
 24 N        3.4440    10.0830    -0.9640 N.ar  1 <1>  -0.6200 
 25 C        5.1090     9.1180     0.4660 C.ar  1 <1>  -0.1500 
 26 C        4.7020     9.9220    -0.5860 C.ar  1 <1>   0.1600 
 27 H        0.2180     3.7430    -2.6660 H     1 <1>   0.0800 
 28 H        1.6490     3.0630    -1.9160 H     1 <1>   0.0800 
 29 H       -1.6280     4.7510     0.8970 H     1 <1>   0.0800 
 30 H       -1.3570     2.1100     1.7500 H     1 <1>   0.1000 
 31 H       -0.6330     5.8550    -1.5970 H     1 <1>   0.0800 
 32 H       -2.6560     0.7610    -0.7000 H     1 <1>   0.1000 
 33 H       -2.5960     0.0820     0.9550 H     1 <1>   0.1000 
 34 H       -3.8870     2.0530     1.8270 H     1 <1>   0.1000 
 35 H       -3.9990     2.6960     0.1650 H     1 <1>   0.1000 
 36 H       -3.3560     6.3050     0.4890 H     1 <1>   0.1500 
 37 H       -2.4580     3.4020    -2.5200 H     1 <1>   0.1500 
 38 H       -4.5620     4.0780    -3.6210 H     1 <1>   0.1500 
 39 H        2.0020     6.1790     0.2580 H     1 <1>   0.3700 
 40 H       -5.9520     5.8120    -2.6150 H     1 <1>   0.1500 
 41 H        0.9180     8.5420     1.7390 H     1 <1>   0.0800 
 42 H        2.0790     7.4670     2.4780 H     1 <1>   0.0800 
 43 H        1.5200     9.5260    -0.5490 H     1 <1>   0.1500 
 44 H        4.4530     7.7900     2.0130 H     1 <1>   0.1500 
 45 H        6.1530     9.0410     0.7090 H     1 <1>   0.1500 
 46 H        5.4480    10.4600    -1.1440 H     1 <1>   0.1500 
@<TRIPOS>BOND
  1   1   2  2   
  2   2   3  am  
  3   2   4  1   
  4   3   5  1   
  5   3   6  1   
  6   4   7  1   
  7   4  27  1   
  8   4  28  1   
  9   5   8  1   
 10   5   9  1   
 11   5  29  1   
 12   6  10  1   
 13   6  11  1   
 14   6  30  1   
 15   7   9  1   
 16   8  12  ar  
 17   8  13  ar  
 18   9  14  1   
 19   9  31  1   
 20  10  11  1   
 21  10  32  1   
 22  10  33  1   
 23  11  34  1   
 24  11  35  1   
 25  12  15  ar  
 26  12  36  1   
 27  13  16  ar  
 28  13  37  1   
 29  14  17  2   
 30  14  18  am  
 31  15  19  ar  
 32  16  19  ar  
 33  16  38  1   
 34  18  20  1   
 35  18  39  1   
 36  19  40  1   
 37  20  21  1   
 38  20  41  1   
 39  20  42  1   
 40  21  22  ar  
 41  21  23  ar  
 42  22  24  ar  
 43  22  43  1   
 44  23  25  ar  
 45  23  44  1   
 46  24  26  ar  
 47  25  26  ar  
 48  25  45  1   
 49  26  46  1   
@<TRIPOS>SUBSTRUCTURE
  1 ****   9 GROUP 4 **** **** 0

# MOE 2024.06 (io_trps.svl 2023.06)
