@<TRIPOS>MOLECULE
NONAME
46 47 1 0 0 
SMALL
USER_CHARGES


@<TRIPOS>ATOM
  1 S        1.5750    -0.5960    -0.9670 S.o2  1 <1>   1.3330 
  2 O        1.6600    -0.9630    -2.3620 O.2   1 <1>  -0.6500 
  3 O        2.5310    -1.1380    -0.0270 O.2   1 <1>  -0.6500 
  4 N        0.0200    -1.0330    -0.4350 N.am  1 <1>  -0.8490 
  5 C        1.5630     1.1990    -0.8400 C.3   1 <1>  -0.0550 
  6 C       -0.0070    -2.3700     0.1670 C.3   1 <1>   0.1160 
  7 C       -1.0030    -0.9440    -1.4830 C.3   1 <1>   0.1160 
  8 C        1.8290     1.8170     0.5500 C.3   1 <1>  -0.0800 
  9 C        3.2560     1.5950     1.0590 C.3   1 <1>   0.2890 
 10 C        0.9440     1.3320     1.7030 C.3   1 <1>   0.1200 
 11 N        3.9470     2.9030     1.1550 N.pl3 1 <1>  -0.8690 
 12 C        3.0400     0.9960     2.4480 C.3   1 <1>   0.1200 
 13 O        1.7580     1.3900     2.8270 O.3   1 <1>  -0.5600 
 14 C        4.5600     3.5330     0.1010 C.ar  1 <1>   0.4100 
 15 N        4.6180     2.8730    -1.0370 N.ar  1 <1>  -0.6200 
 16 C        5.0860     4.8140     0.2260 C.ar  1 <1>  -0.1430 
 17 C        5.2060     3.4920    -2.0380 C.ar  1 <1>   0.4760 
 18 C        5.6670     5.3470    -0.8990 C.ar  1 <1>   0.1600 
 19 C        5.0030     5.5530     1.5660 C.3   1 <1>  -0.0170 
 20 N        5.7360     4.6990    -2.0450 N.ar  1 <1>  -0.6200 
 21 C        5.2830     2.7330    -3.3410 C.3   1 <1>  -0.0970 
 22 C        5.6860     6.9250     1.6010 C.3   1 <1>  -0.2400 
 23 H        2.3140     1.5810    -1.5040 H     1 <1>   0.0800 
 24 H        0.6220     1.5630    -1.2020 H     1 <1>   0.0800 
 25 H       -1.0020    -2.6110     0.5010 H     1 <1>   0.0800 
 26 H        0.6490    -2.4040     1.0210 H     1 <1>   0.0800 
 27 H        0.3170    -3.1090    -0.5470 H     1 <1>   0.0800 
 28 H       -1.9770    -1.1370    -1.0670 H     1 <1>   0.0800 
 29 H       -0.8070    -1.6620    -2.2640 H     1 <1>   0.0800 
 30 H       -1.0090     0.0420    -1.9170 H     1 <1>   0.0800 
 31 H        1.6570     2.8750     0.4550 H     1 <1>   0.0800 
 32 H        3.8350     0.9210     0.4500 H     1 <1>   0.0800 
 33 H        0.6330     0.3090     1.5920 H     1 <1>   0.0800 
 34 H        0.0850     1.9600     1.8580 H     1 <1>   0.0800 
 35 H        3.6390     3.4690     1.9470 H     1 <1>   0.4000 
 36 H        3.7580     1.3440     3.1680 H     1 <1>   0.0800 
 37 H        3.0550    -0.0790     2.3990 H     1 <1>   0.0800 
 38 H        6.0970     6.3320    -0.8860 H     1 <1>   0.1500 
 39 H        3.9660     5.6810     1.8220 H     1 <1>   0.0800 
 40 H        5.4520     4.9330     2.3230 H     1 <1>   0.0800 
 41 H        6.2940     2.7400    -3.7010 H     1 <1>   0.0800 
 42 H        4.6470     3.2050    -4.0650 H     1 <1>   0.0800 
 43 H        4.9680     1.7150    -3.2050 H     1 <1>   0.0800 
 44 H        5.2270     7.5950     0.8950 H     1 <1>   0.0800 
 45 H        6.7340     6.8310     1.3750 H     1 <1>   0.0800 
 46 H        5.5910     7.3540     2.5830 H     1 <1>   0.0800 
@<TRIPOS>BOND
  1   1   2  2   
  2   1   3  2   
  3   1   4  am  
  4   1   5  1   
  5   4   6  1   
  6   4   7  1   
  7   5   8  1   
  8   5  23  1   
  9   5  24  1   
 10   6  25  1   
 11   6  26  1   
 12   6  27  1   
 13   7  28  1   
 14   7  29  1   
 15   7  30  1   
 16   8   9  1   
 17   8  10  1   
 18   8  31  1   
 19   9  11  1   
 20   9  12  1   
 21   9  32  1   
 22  10  13  1   
 23  10  33  1   
 24  10  34  1   
 25  11  14  1   
 26  11  35  1   
 27  12  13  1   
 28  12  36  1   
 29  12  37  1   
 30  14  15  ar  
 31  14  16  ar  
 32  15  17  ar  
 33  16  18  ar  
 34  16  19  1   
 35  17  20  ar  
 36  17  21  1   
 37  18  20  ar  
 38  18  38  1   
 39  19  22  1   
 40  19  39  1   
 41  19  40  1   
 42  21  41  1   
 43  21  42  1   
 44  21  43  1   
 45  22  44  1   
 46  22  45  1   
 47  22  46  1   
@<TRIPOS>SUBSTRUCTURE
  1 ****   9 GROUP 4 **** **** 0

# MOE 2024.06 (io_trps.svl 2023.06)
