@<TRIPOS>MOLECULE
NONAME
48 51 1 0 0 
SMALL
USER_CHARGES


@<TRIPOS>ATOM
  1 S       -0.8300     0.2100     0.8670 S.3   1 <1>  -0.0800 
  2 C       -0.2260     1.2100    -0.4540 C.2   1 <1>   0.3250 
  3 C       -1.2250    -1.0560    -0.2540 C.2   1 <1>  -0.1400 
  4 N       -0.3290     0.6110    -1.5900 N.2   1 <1>  -0.5650 
  5 C        0.2920     2.5350    -0.1760 C.ar  1 <1>   0.0530 
  6 C       -0.8720    -0.6480    -1.4820 C.2   1 <1>   0.0770 
  7 C       -1.8530    -2.3070     0.3120 C.3   1 <1>   0.5230 
  8 C        0.4490     3.0440     1.1170 C.ar  1 <1>  -0.1500 
  9 C        0.6610     3.3720    -1.2320 C.ar  1 <1>  -0.1500 
 10 N       -2.9720    -2.7610    -0.5680 N.4   1 <1>  -0.9590 
 11 C        0.9430     4.3160     1.3410 C.ar  1 <1>  -0.1500 
 12 C        1.1560     4.6450    -1.0160 C.ar  1 <1>  -0.1500 
 13 C       -4.2860    -2.1660    -0.1750 C.3   1 <1>   0.4230 
 14 C       -3.0180    -4.2580    -0.5980 C.3   1 <1>   0.2630 
 15 C        1.2980     5.1210     0.2740 C.ar  1 <1>  -0.1500 
 16 C       -5.4160    -2.6270    -1.0950 C.3   1 <1>  -0.1600 
 17 C       -4.3160    -0.6440    -0.3080 C.3   1 <1>  -0.1600 
 18 C       -6.4990    -1.5480    -0.9770 C.3   1 <1>  -0.0800 
 19 C       -5.7950    -0.2810    -0.4710 C.3   1 <1>  -0.0800 
 20 C       -7.5930    -1.8760     0.0510 C.3   1 <1>  -0.1600 
 21 C       -6.4870     0.1060     0.8440 C.3   1 <1>  -0.1600 
 22 C       -7.8520    -0.5570     0.7610 C.3   1 <1>   0.2000 
 23 O       -8.3550    -0.7810     2.0230 O.3   1 <1>  -0.6800 
 24 H       -0.9710    -1.2090    -2.3970 H     1 <1>   0.1500 
 25 H       -2.2220    -2.1140     1.3070 H     1 <1>   0.0800 
 26 H       -1.0930    -3.0690     0.3780 H     1 <1>   0.0800 
 27 H        0.1890     2.4490     1.9730 H     1 <1>   0.1500 
 28 H        0.5590     3.0170    -2.2430 H     1 <1>   0.1500 
 29 H       -2.7640    -2.4160    -1.5130 H     1 <1>   0.4500 
 30 H        1.0540     4.6840     2.3460 H     1 <1>   0.1500 
 31 H        1.4320     5.2660    -1.8510 H     1 <1>   0.1500 
 32 H       -4.5360    -2.4330     0.8400 H     1 <1>   0.0800 
 33 H       -3.2670    -4.6470     0.3770 H     1 <1>   0.0800 
 34 H       -2.0620    -4.6580    -0.8960 H     1 <1>   0.0800 
 35 H       -3.7600    -4.5990    -1.3030 H     1 <1>   0.0800 
 36 H        1.6820     6.1120     0.4460 H     1 <1>   0.1500 
 37 H       -5.0750    -2.6470    -2.1160 H     1 <1>   0.0800 
 38 H       -5.7960    -3.5970    -0.8260 H     1 <1>   0.0800 
 39 H       -3.8800    -0.1470     0.5400 H     1 <1>   0.0800 
 40 H       -3.8010    -0.3400    -1.2030 H     1 <1>   0.0800 
 41 H       -6.9560    -1.3590    -1.9360 H     1 <1>   0.0800 
 42 H       -5.9140     0.5190    -1.1850 H     1 <1>   0.0800 
 43 H       -7.2440    -2.6070     0.7590 H     1 <1>   0.0800 
 44 H       -8.4870    -2.2370    -0.4280 H     1 <1>   0.0800 
 45 H       -6.5820     1.1740     0.9390 H     1 <1>   0.0800 
 46 H       -5.9450    -0.2820     1.6890 H     1 <1>   0.0800 
 47 H       -8.5490     0.0530     0.2090 H     1 <1>   0.0800 
 48 H       -7.7520    -1.3350     2.5480 H     1 <1>   0.4000 
@<TRIPOS>BOND
  1   1   2  1   
  2   1   3  1   
  3   2   4  2   
  4   2   5  1   
  5   3   6  2   
  6   3   7  1   
  7   4   6  1   
  8   5   8  ar  
  9   5   9  ar  
 10   6  24  1   
 11   7  10  1   
 12   7  25  1   
 13   7  26  1   
 14   8  11  ar  
 15   8  27  1   
 16   9  12  ar  
 17   9  28  1   
 18  10  13  1   
 19  10  14  1   
 20  10  29  1   
 21  11  15  ar  
 22  11  30  1   
 23  12  15  ar  
 24  12  31  1   
 25  13  16  1   
 26  13  17  1   
 27  13  32  1   
 28  14  33  1   
 29  14  34  1   
 30  14  35  1   
 31  15  36  1   
 32  16  18  1   
 33  16  37  1   
 34  16  38  1   
 35  17  19  1   
 36  17  39  1   
 37  17  40  1   
 38  18  19  1   
 39  18  20  1   
 40  18  41  1   
 41  19  21  1   
 42  19  42  1   
 43  20  22  1   
 44  20  43  1   
 45  20  44  1   
 46  21  22  1   
 47  21  45  1   
 48  21  46  1   
 49  22  23  1   
 50  22  47  1   
 51  23  48  1   
@<TRIPOS>SUBSTRUCTURE
  1 ****  17 GROUP 4 **** **** 0

# MOE 2024.06 (io_trps.svl 2023.06)
