@<TRIPOS>MOLECULE
NONAME
45 48 1 0 0 
SMALL
USER_CHARGES


@<TRIPOS>ATOM
  1 S        0.5360    -0.7890    -0.4300 S.3   1 <1>  -0.0800 
  2 C       -0.2240    -2.1040    -1.3160 C.ar  1 <1>   0.2970 
  3 C       -0.5790    -0.9790     0.9230 C.2   1 <1>  -0.1400 
  4 N        0.1880    -2.4830    -2.5070 N.ar  1 <1>  -0.5670 
  5 C       -1.2650    -2.6390    -0.5940 C.ar  1 <1>   0.0000 
  6 C       -1.4520    -1.9790     0.6840 C.2   1 <1>  -0.1810 
  7 C       -0.3640    -0.0150     2.0740 C.3   1 <1>  -0.0600 
  8 C       -0.5200    -3.4840    -2.9860 C.ar  1 <1>   0.4700 
  9 C       -1.9210    -3.6970    -1.2370 C.ar  1 <1>   0.4100 
 10 C       -2.5580    -2.4210     1.6300 C.3   1 <1>  -0.0590 
 11 N       -1.5450    -4.1170    -2.4340 N.ar  1 <1>  -0.6200 
 12 N       -2.9820    -4.3660    -0.6740 N.pl3 1 <1>  -0.8380 
 13 C       -4.2800    -4.3560    -1.4050 C.3   1 <1>   0.2090 
 14 C       -2.7230    -5.7360    -0.1520 C.3   1 <1>   0.2090 
 15 C       -4.6570    -5.8260    -1.5770 C.3   1 <1>   0.2000 
 16 C       -4.0030    -6.5330    -0.3980 C.3   1 <1>  -0.0800 
 17 O       -6.0320    -6.0220    -1.5540 O.3   1 <1>  -0.6800 
 18 C       -3.7560    -8.0280    -0.6480 C.3   1 <1>   0.0210 
 19 C       -2.9890    -8.6600     0.4980 C.2   1 <1>   0.1080 
 20 N       -3.3680    -8.5760     1.7360 N.2   1 <1>  -0.7070 
 21 C       -1.8100    -9.3850     0.3580 C.2   1 <1>  -0.1500 
 22 N       -2.4340    -9.2580     2.4250 N.pl3 1 <1>   0.3000 
 23 C       -1.4780    -9.7560     1.6130 C.2   1 <1>  -0.3320 
 24 C       -0.2900   -10.5690     2.0920 C.3   1 <1>  -0.0600 
 25 H       -1.0690    -0.1870     2.8640 H     1 <1>   0.0800 
 26 H       -0.4770     0.9960     1.7260 H     1 <1>   0.0800 
 27 H        0.6290    -0.1360     2.4670 H     1 <1>   0.0800 
 28 H       -0.2270    -3.8380    -3.9610 H     1 <1>   0.1500 
 29 H       -3.5100    -2.3410     1.1380 H     1 <1>   0.0800 
 30 H       -2.5840    -1.8180     2.5170 H     1 <1>   0.0800 
 31 H       -2.4030    -3.4440     1.9190 H     1 <1>   0.0800 
 32 H       -5.0110    -3.8440    -0.8050 H     1 <1>   0.0800 
 33 H       -4.1870    -3.8710    -2.3610 H     1 <1>   0.0800 
 34 H       -1.8960    -6.1740    -0.6850 H     1 <1>   0.0800 
 35 H       -2.4860    -5.7060     0.8980 H     1 <1>   0.0800 
 36 H       -4.2730    -6.1850    -2.5170 H     1 <1>   0.0800 
 37 H       -4.6170    -6.4170     0.4780 H     1 <1>   0.0800 
 38 H       -6.3830    -5.8310    -0.6630 H     1 <1>   0.4000 
 39 H       -3.2050    -8.1610    -1.5610 H     1 <1>   0.0800 
 40 H       -4.7000    -8.5330    -0.7510 H     1 <1>   0.0800 
 41 H       -1.2960    -9.5920    -0.5640 H     1 <1>   0.1500 
 42 H       -2.4790    -9.3680     3.4450 H     1 <1>   0.2700 
 43 H        0.3270   -10.8510     1.2570 H     1 <1>   0.0800 
 44 H       -0.6260   -11.4630     2.5860 H     1 <1>   0.0800 
 45 H        0.3050    -9.9910     2.7770 H     1 <1>   0.0800 
@<TRIPOS>BOND
  1   1   2  1   
  2   1   3  1   
  3   2   4  ar  
  4   2   5  ar  
  5   3   6  2   
  6   3   7  1   
  7   4   8  ar  
  8   5   6  1   
  9   5   9  ar  
 10   6  10  1   
 11   7  25  1   
 12   7  26  1   
 13   7  27  1   
 14   8  11  ar  
 15   8  28  1   
 16   9  11  ar  
 17   9  12  1   
 18  10  29  1   
 19  10  30  1   
 20  10  31  1   
 21  12  13  1   
 22  12  14  1   
 23  13  15  1   
 24  13  32  1   
 25  13  33  1   
 26  14  16  1   
 27  14  34  1   
 28  14  35  1   
 29  15  16  1   
 30  15  17  1   
 31  15  36  1   
 32  16  18  1   
 33  16  37  1   
 34  17  38  1   
 35  18  19  1   
 36  18  39  1   
 37  18  40  1   
 38  19  20  2   
 39  19  21  1   
 40  20  22  1   
 41  21  23  2   
 42  21  41  1   
 43  22  23  1   
 44  22  42  1   
 45  23  24  1   
 46  24  43  1   
 47  24  44  1   
 48  24  45  1   
@<TRIPOS>SUBSTRUCTURE
  1 ****  14 GROUP 4 **** **** 0

# MOE 2024.06 (io_trps.svl 2023.06)
