@<TRIPOS>MOLECULE
NONAME
39 40 1 0 0 
SMALL
USER_CHARGES


@<TRIPOS>ATOM
  1 S        0.0730    -0.3490    -0.8990 S.3   1 <1>  -0.0800 
  2 C       -1.4320    -0.8990    -0.2370 C.2   1 <1>   0.4420 
  3 C       -0.4410     1.2640    -0.5380 C.2   1 <1>   0.1980 
  4 N       -2.1630     0.0730     0.1750 N.2   1 <1>  -0.3380 
  5 N       -1.6410    -2.2590    -0.2390 N.am  1 <1>  -0.4940 
  6 N       -1.5910     1.3030    -0.0010 N.2   1 <1>  -0.3380 
  7 C        0.4850     2.4140    -0.8880 C.3   1 <1>   0.0200 
  8 C       -2.7080    -2.9920     0.2030 C.2   1 <1>   0.7160 
  9 C        1.6960     2.4730     0.0540 C.3   1 <1>  -0.1600 
 10 O       -3.6710    -2.4400     0.6920 O.2   1 <1>  -0.5700 
 11 C       -2.6400    -4.4280     0.0660 C.2   1 <1>  -0.0860 
 12 C        2.6120     3.6580    -0.2810 C.3   1 <1>  -0.1600 
 13 C       -3.6040    -5.3750     0.4430 C.2   1 <1>   0.1080 
 14 C       -1.6430    -5.2060    -0.4540 C.2   1 <1>  -0.3020 
 15 C        3.8170     3.7080     0.6650 C.3   1 <1>  -0.1600 
 16 N       -3.2420    -6.5900     0.1860 N.2   1 <1>  -0.7070 
 17 C       -4.9430    -5.0780     1.0870 C.3   1 <1>  -0.0590 
 18 N       -2.0310    -6.4860    -0.3690 N.pl3 1 <1>   0.3140 
 19 C        4.7300     4.8910     0.3310 C.3   1 <1>  -0.2400 
 20 C       -1.2930    -7.6790    -0.7990 C.3   1 <1>   0.0160 
 21 H       -0.8930    -2.8180    -0.6290 H     1 <1>   0.3700 
 22 H       -0.0720     3.3320    -0.8130 H     1 <1>   0.0800 
 23 H        0.8120     2.3050    -1.9060 H     1 <1>   0.0800 
 24 H        2.2560     1.5570    -0.0220 H     1 <1>   0.0800 
 25 H        1.3460     2.5660     1.0690 H     1 <1>   0.0800 
 26 H        2.0560     4.5770    -0.1980 H     1 <1>   0.0800 
 27 H        2.9610     3.5680    -1.2960 H     1 <1>   0.0800 
 28 H       -0.6970    -4.9230    -0.8730 H     1 <1>   0.1500 
 29 H        4.3800     2.7940     0.5860 H     1 <1>   0.0800 
 30 H        3.4750     3.8020     1.6820 H     1 <1>   0.0800 
 31 H       -4.7940    -4.5710     2.0220 H     1 <1>   0.0800 
 32 H       -5.4770    -5.9920     1.2670 H     1 <1>   0.0800 
 33 H       -5.5290    -4.4540     0.4380 H     1 <1>   0.0800 
 34 H        5.1030     4.8070    -0.6750 H     1 <1>   0.0800 
 35 H        5.5680     4.9090     1.0050 H     1 <1>   0.0800 
 36 H        4.1950     5.8190     0.4270 H     1 <1>   0.0800 
 37 H       -0.3470    -7.3920    -1.2170 H     1 <1>   0.0800 
 38 H       -1.8760    -8.2000    -1.5350 H     1 <1>   0.0800 
 39 H       -1.1390    -8.3160     0.0510 H     1 <1>   0.0800 
@<TRIPOS>BOND
  1   1   2  1   
  2   1   3  1   
  3   2   4  2   
  4   2   5  1   
  5   3   6  2   
  6   3   7  1   
  7   4   6  1   
  8   5   8  am  
  9   5  21  1   
 10   7   9  1   
 11   7  22  1   
 12   7  23  1   
 13   8  10  2   
 14   8  11  1   
 15   9  12  1   
 16   9  24  1   
 17   9  25  1   
 18  11  13  1   
 19  11  14  2   
 20  12  15  1   
 21  12  26  1   
 22  12  27  1   
 23  13  16  2   
 24  13  17  1   
 25  14  18  1   
 26  14  28  1   
 27  15  19  1   
 28  15  29  1   
 29  15  30  1   
 30  16  18  1   
 31  17  31  1   
 32  17  32  1   
 33  17  33  1   
 34  18  20  1   
 35  19  34  1   
 36  19  35  1   
 37  19  36  1   
 38  20  37  1   
 39  20  38  1   
 40  20  39  1   
@<TRIPOS>SUBSTRUCTURE
  1 ****   2 GROUP 4 **** **** 0

# MOE 2024.06 (io_trps.svl 2023.06)
