@<TRIPOS>MOLECULE
NONAME
45 48 1 0 0 
SMALL
USER_CHARGES


@<TRIPOS>ATOM
  1 S       -0.5870     1.7280     0.0740 S.3   1 <1>  -0.0800 
  2 C        1.1370     2.1080     0.1790 C.ar  1 <1>   0.0400 
  3 C       -0.2540     0.0550    -0.3990 C.2   1 <1>  -0.1400 
  4 C        1.8880     0.9880    -0.1430 C.ar  1 <1>   0.0000 
  5 C        1.6980     3.3230     0.5260 C.ar  1 <1>  -0.1500 
  6 C        1.0750    -0.1520    -0.4650 C.2   1 <1>  -0.1500 
  7 C       -1.4730    -0.8350    -0.6450 C.3   1 <1>   0.2640 
  8 C        3.2740     1.1010    -0.1140 C.ar  1 <1>  -0.1500 
  9 C        3.0780     3.4160     0.5500 C.ar  1 <1>  -0.1500 
 10 N       -2.2290    -0.9610     0.6580 N.3   1 <1>  -0.6890 
 11 C       -1.1550    -2.1790    -1.3580 C.2   1 <1>   0.9060 
 12 C        3.8600     2.3080     0.2310 C.ar  1 <1>  -0.1500 
 13 C       -3.5000    -1.7400     0.5700 C.3   1 <1>   0.2100 
 14 C       -1.6510    -1.9790     1.5850 C.3   1 <1>   0.2100 
 15 O       -2.0590    -2.7290    -2.0060 O.co2 1 <1>  -0.9000 
 16 O       -0.1650    -2.8610    -1.0630 O.co2 1 <1>  -0.9000 
 17 C       -2.8130    -2.9630     1.2450 C.3   1 <1>   0.4720 
 18 N       -2.5280    -4.1200     0.3230 N.4   1 <1>  -0.9280 
 19 C       -3.7480    -4.8840    -0.0190 C.3   1 <1>   0.3430 
 20 C       -1.3710    -4.9470     0.7520 C.3   1 <1>   0.3430 
 21 C       -3.4310    -5.9180    -1.0990 C.3   1 <1>  -0.1600 
 22 C       -1.0550    -6.0030    -0.3090 C.3   1 <1>  -0.1600 
 23 C       -2.2820    -6.8430    -0.6800 C.3   1 <1>  -0.1600 
 24 H        1.0700     4.1610     0.7680 H     1 <1>   0.1500 
 25 H        1.5440    -1.0840    -0.7320 H     1 <1>   0.1500 
 26 H       -2.1060    -0.2990    -1.3280 H     1 <1>   0.0800 
 27 H        3.8770     0.2460    -0.3600 H     1 <1>   0.1500 
 28 H        3.5510     4.3450     0.8170 H     1 <1>   0.1500 
 29 H        4.9330     2.3930     0.2540 H     1 <1>   0.1500 
 30 H       -3.8360    -1.8980    -0.4380 H     1 <1>   0.0000 
 31 H       -4.2510    -1.2980     1.2010 H     1 <1>   0.0000 
 32 H       -1.7080    -1.6270     2.6000 H     1 <1>   0.0000 
 33 H       -0.6640    -2.3030     1.3130 H     1 <1>   0.0000 
 34 H       -3.3320    -3.2980     2.1240 H     1 <1>   0.0000 
 35 H       -2.2100    -3.7050    -0.5900 H     1 <1>   0.4500 
 36 H       -4.5050    -4.2110    -0.3890 H     1 <1>   0.0800 
 37 H       -4.1240    -5.3810     0.8600 H     1 <1>   0.0800 
 38 H       -1.5900    -5.4260     1.6910 H     1 <1>   0.0800 
 39 H       -0.5030    -4.3180     0.8750 H     1 <1>   0.0800 
 40 H       -3.1670    -5.3990    -2.0070 H     1 <1>   0.0800 
 41 H       -4.3110    -6.5020    -1.3030 H     1 <1>   0.0800 
 42 H       -0.2690    -6.6420     0.0520 H     1 <1>   0.0800 
 43 H       -0.6800    -5.5000    -1.1860 H     1 <1>   0.0800 
 44 H       -2.0350    -7.5060    -1.4920 H     1 <1>   0.0800 
 45 H       -2.5830    -7.4420     0.1630 H     1 <1>   0.0800 
@<TRIPOS>BOND
  1   1   2  1   
  2   1   3  1   
  3   2   4  ar  
  4   2   5  ar  
  5   3   6  2   
  6   3   7  1   
  7   4   6  1   
  8   4   8  ar  
  9   5   9  ar  
 10   5  24  1   
 11   6  25  1   
 12   7  10  1   
 13   7  11  1   
 14   7  26  1   
 15   8  12  ar  
 16   8  27  1   
 17   9  12  ar  
 18   9  28  1   
 19  10  13  1   
 20  10  14  1   
 21  11  15  ar  
 22  11  16  ar  
 23  12  29  1   
 24  13  17  1   
 25  13  30  1   
 26  13  31  1   
 27  14  17  1   
 28  14  32  1   
 29  14  33  1   
 30  17  18  1   
 31  17  34  1   
 32  18  19  1   
 33  18  20  1   
 34  18  35  1   
 35  19  21  1   
 36  19  36  1   
 37  19  37  1   
 38  20  22  1   
 39  20  38  1   
 40  20  39  1   
 41  21  23  1   
 42  21  40  1   
 43  21  41  1   
 44  22  23  1   
 45  22  42  1   
 46  22  43  1   
 47  23  44  1   
 48  23  45  1   
@<TRIPOS>SUBSTRUCTURE
  1 ****   7 GROUP 4 **** **** 0

# MOE 2024.06 (io_trps.svl 2023.06)
