@<TRIPOS>MOLECULE
NONAME
53 56 1 0 0 
SMALL
USER_CHARGES


@<TRIPOS>ATOM
  1 O       -3.4580    -2.3190     0.3840 O.3   1 <1>  -0.5600 
  2 C       -3.4100    -3.3010     1.3790 C.3   1 <1>   0.1200 
  3 C       -3.1690    -2.7940    -0.8950 C.3   1 <1>   0.1200 
  4 C       -2.0030    -3.9180     1.4620 C.3   1 <1>   0.2090 
  5 C       -1.7420    -3.3740    -0.9450 C.3   1 <1>   0.2090 
  6 N       -1.5440    -4.4260     0.1150 N.pl3 1 <1>  -0.8380 
  7 C       -1.0470    -5.6830    -0.0450 C.ar  1 <1>   0.7710 
  8 N       -1.0720    -6.5280     0.9770 N.ar  1 <1>  -0.6200 
  9 N       -0.5360    -6.0410    -1.2380 N.ar  1 <1>  -0.1790 
 10 C       -0.6120    -7.7500     0.7960 C.ar  1 <1>   0.4100 
 11 C       -0.0050    -7.2660    -1.4580 C.ar  1 <1>   0.2180 
 12 N       -0.7520    -8.6390     1.8160 N.pl3 1 <1>  -0.8380 
 13 C       -0.0250    -8.1360    -0.4230 C.ar  1 <1>  -0.1500 
 14 C        0.5740    -7.5970    -2.8270 C.3   1 <1>  -0.0170 
 15 C       -1.1300   -10.0790     1.5780 C.3   1 <1>   0.3890 
 16 C       -0.8530    -8.2000     3.2400 C.3   1 <1>   0.1290 
 17 C        1.7850    -6.7200    -3.1710 C.3   1 <1>  -0.2400 
 18 C       -2.0970   -10.2450     0.4060 C.2   1 <1>   0.2980 
 19 O       -3.3170    -9.8060     0.5190 O.3   1 <1>  -0.2800 
 20 N       -1.8110   -10.7560    -0.7270 N.2   1 <1>  -0.3380 
 21 C       -3.7790   -10.0810    -0.6780 C.2   1 <1>   0.4250 
 22 N       -2.9050   -10.6470    -1.4410 N.2   1 <1>  -0.3380 
 23 C       -5.1410    -9.7310    -1.0240 C.ar  1 <1>   0.0530 
 24 C       -5.9510    -8.9900    -0.1600 C.ar  1 <1>  -0.1500 
 25 C       -5.6980   -10.1180    -2.2460 C.ar  1 <1>  -0.1500 
 26 C       -7.2480    -8.6480    -0.4990 C.ar  1 <1>  -0.1500 
 27 C       -6.9940    -9.7790    -2.5900 C.ar  1 <1>  -0.1500 
 28 C       -7.7720    -9.0410    -1.7160 C.ar  1 <1>  -0.1500 
 29 H       -4.1450    -4.0560     1.1590 H     1 <1>   0.0800 
 30 H       -3.6650    -2.8330     2.3140 H     1 <1>   0.0800 
 31 H       -3.2600    -1.9660    -1.5760 H     1 <1>   0.0800 
 32 H       -3.8990    -3.5390    -1.1590 H     1 <1>   0.0800 
 33 H       -2.0210    -4.6970     2.2040 H     1 <1>   0.0800 
 34 H       -1.3170    -3.1640     1.8080 H     1 <1>   0.0800 
 35 H       -1.0430    -2.5700    -0.7820 H     1 <1>   0.0800 
 36 H       -1.5750    -3.7660    -1.9310 H     1 <1>   0.0800 
 37 H       -0.5360    -5.3300    -1.9550 H     1 <1>   0.4570 
 38 H        0.3930    -9.1220    -0.5090 H     1 <1>   0.1500 
 39 H       -0.1860    -7.4820    -3.5800 H     1 <1>   0.0800 
 40 H        0.8800    -8.6300    -2.8420 H     1 <1>   0.0800 
 41 H       -1.5990   -10.4840     2.4570 H     1 <1>   0.0800 
 42 H       -0.2380   -10.6490     1.3860 H     1 <1>   0.0800 
 43 H       -0.4210    -7.2220     3.3660 H     1 <1>   0.0800 
 44 H       -0.3220    -8.8860     3.8770 H     1 <1>   0.0800 
 45 H       -1.8860    -8.1630     3.5390 H     1 <1>   0.0800 
 46 H        1.5160    -5.6810    -3.2430 H     1 <1>   0.0800 
 47 H        2.1960    -7.0240    -4.1190 H     1 <1>   0.0800 
 48 H        2.5540    -6.8300    -2.4250 H     1 <1>   0.0800 
 49 H       -5.5650    -8.6740     0.7930 H     1 <1>   0.1500 
 50 H       -5.1080   -10.6950    -2.9370 H     1 <1>   0.1500 
 51 H       -7.8530    -8.0770     0.1840 H     1 <1>   0.1500 
 52 H       -7.3990   -10.0900    -3.5370 H     1 <1>   0.1500 
 53 H       -8.7810    -8.7770    -1.9820 H     1 <1>   0.1500 
@<TRIPOS>BOND
  1   1   2  1   
  2   1   3  1   
  3   2   4  1   
  4   2  29  1   
  5   2  30  1   
  6   3   5  1   
  7   3  31  1   
  8   3  32  1   
  9   4   6  1   
 10   4  33  1   
 11   4  34  1   
 12   5   6  1   
 13   5  35  1   
 14   5  36  1   
 15   6   7  1   
 16   7   8  ar  
 17   7   9  ar  
 18   8  10  ar  
 19   9  11  ar  
 20   9  37  1   
 21  10  12  1   
 22  10  13  ar  
 23  11  13  ar  
 24  11  14  1   
 25  12  15  1   
 26  12  16  1   
 27  13  38  1   
 28  14  17  1   
 29  14  39  1   
 30  14  40  1   
 31  15  18  1   
 32  15  41  1   
 33  15  42  1   
 34  16  43  1   
 35  16  44  1   
 36  16  45  1   
 37  17  46  1   
 38  17  47  1   
 39  17  48  1   
 40  18  19  1   
 41  18  20  2   
 42  19  21  1   
 43  20  22  1   
 44  21  22  2   
 45  21  23  1   
 46  23  24  ar  
 47  23  25  ar  
 48  24  26  ar  
 49  24  49  1   
 50  25  27  ar  
 51  25  50  1   
 52  26  28  ar  
 53  26  51  1   
 54  27  28  ar  
 55  27  52  1   
 56  28  53  1   
@<TRIPOS>SUBSTRUCTURE
  1 ****   8 GROUP 4 **** **** 0

# MOE 2024.06 (io_trps.svl 2023.06)
