@<TRIPOS>MOLECULE
NONAME
46 47 1 0 0 
SMALL
USER_CHARGES


@<TRIPOS>ATOM
  1 O        0.8680     0.1970    -0.8550 O.3   1 <1>  -0.5600 
  2 C        0.5050     1.4810    -0.4680 C.3   1 <1>   0.1200 
  3 C        1.6720    -0.4890     0.0560 C.3   1 <1>   0.1200 
  4 C        1.7660     2.3570    -0.4010 C.3   1 <1>  -0.0800 
  5 C        3.0040     0.2550     0.2160 C.3   1 <1>  -0.1600 
  6 C        2.7790     1.7290     0.5780 C.3   1 <1>  -0.1600 
  7 C        1.3720     3.7890    -0.0140 C.3   1 <1>   0.3430 
  8 N        2.5540     4.6940     0.0350 N.4   1 <1>  -0.9590 
  9 C        2.2590     5.9480     0.7810 C.3   1 <1>   0.4860 
 10 C        3.1190     4.9810    -1.3040 C.3   1 <1>   0.4810 
 11 C        3.5600     6.6480     1.1110 C.ar  1 <1>  -0.1440 
 12 C        4.5590     4.5290    -1.2570 C.2   1 <1>  -0.2880 
 13 C        3.9540     7.7540     0.3670 C.ar  1 <1>   0.0820 
 14 C        4.3590     6.1890     2.1480 C.ar  1 <1>  -0.1500 
 15 C        5.0560     3.4460    -1.8640 C.2   1 <1>  -0.3000 
 16 O        3.1270     8.1570    -0.6340 O.3   1 <1>  -0.3620 
 17 C        5.1560     8.3900     0.6640 C.ar  1 <1>  -0.1500 
 18 C        5.5530     6.8260     2.4370 C.ar  1 <1>  -0.1500 
 19 C        3.3570     9.3680    -1.3270 C.3   1 <1>   0.0400 
 20 C        5.9510     7.9230     1.6950 C.ar  1 <1>  -0.1500 
 21 H        0.0020     1.4220     0.4830 H     1 <1>   0.0800 
 22 H       -0.1840     1.8530    -1.2070 H     1 <1>   0.0800 
 23 H        1.8370    -1.4800    -0.3320 H     1 <1>   0.0800 
 24 H        1.1470    -0.5650     0.9930 H     1 <1>   0.0800 
 25 H        2.1850     2.3650    -1.3910 H     1 <1>   0.0800 
 26 H        3.5470     0.1830    -0.7100 H     1 <1>   0.0800 
 27 H        3.5930    -0.2270     0.9770 H     1 <1>   0.0800 
 28 H        2.3990     1.7840     1.5840 H     1 <1>   0.0800 
 29 H        3.7250     2.2410     0.5430 H     1 <1>   0.0800 
 30 H        0.9030     3.7600     0.9570 H     1 <1>   0.0800 
 31 H        0.6500     4.1690    -0.7200 H     1 <1>   0.0800 
 32 H        3.3140     4.2190     0.5360 H     1 <1>   0.4500 
 33 H        1.7470     5.7200     1.7010 H     1 <1>   0.0800 
 34 H        1.6270     6.5950     0.1940 H     1 <1>   0.0800 
 35 H        3.0610     6.0300    -1.5440 H     1 <1>   0.0800 
 36 H        2.5920     4.4250    -2.0620 H     1 <1>   0.0800 
 37 H        5.1800     5.1890    -0.6720 H     1 <1>   0.1500 
 38 H        4.0670     5.3420     2.7440 H     1 <1>   0.1500 
 39 H        6.0930     3.1550    -1.8140 H     1 <1>   0.1500 
 40 H        4.4870     2.7550    -2.4660 H     1 <1>   0.1500 
 41 H        5.4940     9.2450     0.1080 H     1 <1>   0.1500 
 42 H        6.1760     6.4720     3.2430 H     1 <1>   0.1500 
 43 H        2.5460     9.5230    -2.0170 H     1 <1>   0.0800 
 44 H        4.2850     9.2960    -1.8670 H     1 <1>   0.0800 
 45 H        3.3890    10.1780    -0.6180 H     1 <1>   0.0800 
 46 H        6.8810     8.4160     1.9240 H     1 <1>   0.1500 
@<TRIPOS>BOND
  1   1   2  1   
  2   1   3  1   
  3   2   4  1   
  4   2  21  1   
  5   2  22  1   
  6   3   5  1   
  7   3  23  1   
  8   3  24  1   
  9   4   6  1   
 10   4   7  1   
 11   4  25  1   
 12   5   6  1   
 13   5  26  1   
 14   5  27  1   
 15   6  28  1   
 16   6  29  1   
 17   7   8  1   
 18   7  30  1   
 19   7  31  1   
 20   8   9  1   
 21   8  10  1   
 22   8  32  1   
 23   9  11  1   
 24   9  33  1   
 25   9  34  1   
 26  10  12  1   
 27  10  35  1   
 28  10  36  1   
 29  11  13  ar  
 30  11  14  ar  
 31  12  15  2   
 32  12  37  1   
 33  13  16  1   
 34  13  17  ar  
 35  14  18  ar  
 36  14  38  1   
 37  15  39  1   
 38  15  40  1   
 39  16  19  1   
 40  17  20  ar  
 41  17  41  1   
 42  18  20  ar  
 43  18  42  1   
 44  19  43  1   
 45  19  44  1   
 46  19  45  1   
 47  20  46  1   
@<TRIPOS>SUBSTRUCTURE
  1 ****   8 GROUP 4 **** **** 0

# MOE 2024.06 (io_trps.svl 2023.06)
