@<TRIPOS>MOLECULE
NONAME
45 48 1 0 0 
SMALL
USER_CHARGES


@<TRIPOS>ATOM
  1 O       -0.7220     4.2740    -2.2100 O.2   1 <1>  -0.5700 
  2 C       -0.5160     3.9250    -1.0600 C.2   1 <1>   0.7150 
  3 N       -1.5980     3.5500    -0.2850 N.am  1 <1>  -0.6600 
  4 C        0.8340     3.9310    -0.5310 C.2   1 <1>   0.0550 
  5 C       -2.9980     3.7420    -0.7990 C.3   1 <1>   0.1400 
  6 C       -1.4460     2.7950     0.9950 C.3   1 <1>   0.1400 
  7 O        1.8560     3.5040    -1.2680 O.3   1 <1>  -0.2800 
  8 C        1.3220     4.3250     0.6800 C.2   1 <1>  -0.1500 
  9 C       -4.0180     3.8790     0.3480 C.3   1 <1>   0.1440 
 10 C       -2.6420     1.8680     1.2320 C.3   1 <1>  -0.1600 
 11 C        2.9670     3.6090    -0.5740 C.2   1 <1>  -0.0400 
 12 C        2.7000     4.1110     0.6520 C.2   1 <1>  -0.1500 
 13 C       -5.3880     4.1380    -0.2600 C.ar  1 <1>   0.1670 
 14 C       -3.9930     2.6120     1.2470 C.3   1 <1>  -0.1600 
 15 C       -3.7690     5.1870     1.1550 C.3   1 <1>  -0.1600 
 16 C        4.2690     3.1760    -1.2260 C.3   1 <1>   0.3000 
 17 N       -6.1400     3.2450    -0.8660 N.ar  1 <1>  -0.6200 
 18 C       -5.7610     5.4430    -0.1260 C.ar  1 <1>  -0.1430 
 19 C       -4.7110     6.2590     0.5810 C.3   1 <1>  -0.0170 
 20 O        5.3380     3.6140    -0.4620 O.3   1 <1>  -0.6800 
 21 C       -7.2920     3.7130    -1.3230 C.ar  1 <1>   0.4770 
 22 C       -6.9780     5.8200    -0.6370 C.ar  1 <1>   0.1600 
 23 N       -7.7610     4.9510    -1.2430 N.ar  1 <1>  -0.6200 
 24 C       -8.1810     2.7090    -2.0170 C.3   1 <1>  -0.0970 
 25 H       -3.2630     2.8960    -1.4100 H     1 <1>   0.0800 
 26 H       -3.0420     4.6190    -1.4220 H     1 <1>   0.0800 
 27 H       -1.3670     3.4940     1.8090 H     1 <1>   0.0800 
 28 H       -0.5450     2.2040     0.9650 H     1 <1>   0.0800 
 29 H        0.7750     4.7310     1.5110 H     1 <1>   0.1500 
 30 H       -2.5120     1.3400     2.1590 H     1 <1>   0.0800 
 31 H       -2.6520     1.1330     0.4460 H     1 <1>   0.0800 
 32 H        3.3870     4.3120     1.4550 H     1 <1>   0.1500 
 33 H       -4.7420     1.9170     0.9090 H     1 <1>   0.0800 
 34 H       -4.2560     2.8680     2.2570 H     1 <1>   0.0800 
 35 H       -2.7450     5.5130     1.1160 H     1 <1>   0.0800 
 36 H       -4.0340     5.0410     2.1870 H     1 <1>   0.0800 
 37 H        4.3560     3.6100    -2.2080 H     1 <1>   0.0800 
 38 H        4.3180     2.1040    -1.3020 H     1 <1>   0.0800 
 39 H       -4.1940     6.8770    -0.1330 H     1 <1>   0.0800 
 40 H       -5.1360     6.8720     1.3570 H     1 <1>   0.0800 
 41 H        5.2600     4.5780    -0.3300 H     1 <1>   0.4000 
 42 H       -7.3150     6.8390    -0.5540 H     1 <1>   0.1500 
 43 H       -7.5830     2.0360    -2.6030 H     1 <1>   0.0800 
 44 H       -8.8770     3.2110    -2.6630 H     1 <1>   0.0800 
 45 H       -8.7240     2.1490    -1.2790 H     1 <1>   0.0800 
@<TRIPOS>BOND
  1   1   2  2   
  2   2   3  am  
  3   2   4  1   
  4   3   5  1   
  5   3   6  1   
  6   4   7  1   
  7   4   8  2   
  8   5   9  1   
  9   5  25  1   
 10   5  26  1   
 11   6  10  1   
 12   6  27  1   
 13   6  28  1   
 14   7  11  1   
 15   8  12  1   
 16   8  29  1   
 17   9  13  1   
 18   9  14  1   
 19   9  15  1   
 20  10  14  1   
 21  10  30  1   
 22  10  31  1   
 23  11  12  2   
 24  11  16  1   
 25  12  32  1   
 26  13  17  ar  
 27  13  18  ar  
 28  14  33  1   
 29  14  34  1   
 30  15  19  1   
 31  15  35  1   
 32  15  36  1   
 33  16  20  1   
 34  16  37  1   
 35  16  38  1   
 36  17  21  ar  
 37  18  19  1   
 38  18  22  ar  
 39  19  39  1   
 40  19  40  1   
 41  20  41  1   
 42  21  23  ar  
 43  21  24  1   
 44  22  23  ar  
 45  22  42  1   
 46  24  43  1   
 47  24  44  1   
 48  24  45  1   
@<TRIPOS>SUBSTRUCTURE
  1 ****   3 GROUP 4 **** **** 0

# MOE 2024.06 (io_trps.svl 2023.06)
