@<TRIPOS>MOLECULE
NONAME
54 57 1 0 0 
SMALL
USER_CHARGES


@<TRIPOS>ATOM
  1 O       -0.2830     0.3510     0.1940 O.2   1 <1>  -0.5700 
  2 C       -1.3010     0.9880     0.3880 C.2   1 <1>   0.5440 
  3 N       -2.5000     0.3130     0.4320 N.am  1 <1>  -0.6600 
  4 C       -1.2300     2.4280     0.5470 C.ar  1 <1>   0.0860 
  5 C       -3.8250     0.9310     0.1680 C.3   1 <1>   0.1400 
  6 C       -2.5780    -1.1630     0.2830 C.3   1 <1>   0.1400 
  7 C       -1.9010     3.0900     1.5770 C.ar  1 <1>  -0.1500 
  8 C       -0.4760     3.2050    -0.3340 C.ar  1 <1>  -0.1500 
  9 C       -4.6650    -0.1930    -0.4340 C.3   1 <1>   0.2000 
 10 C       -4.0660    -1.4800     0.1260 C.3   1 <1>  -0.0800 
 11 C       -1.8360     4.4650     1.7120 C.ar  1 <1>  -0.1500 
 12 C       -0.4050     4.5800    -0.2070 C.ar  1 <1>  -0.1500 
 13 O       -5.9980    -0.0840    -0.0760 O.3   1 <1>  -0.6800 
 14 C       -4.3420    -2.7100    -0.7510 C.3   1 <1>   0.0210 
 15 C       -1.0850     5.2180     0.8240 C.ar  1 <1>   0.0830 
 16 C       -3.6520    -3.9380    -0.1910 C.2   1 <1>   0.1080 
 17 O       -1.0550     6.5610     0.9930 O.3   1 <1>  -0.1650 
 18 N       -3.9550    -4.4500     0.9610 N.2   1 <1>  -0.7070 
 19 C       -2.6280    -4.6350    -0.8240 C.2   1 <1>  -0.1500 
 20 C        0.0240     7.3090     0.6510 C.ar  1 <1>   0.0830 
 21 N       -3.1260    -5.5020     1.0950 N.pl3 1 <1>   0.3000 
 22 C       -2.3110    -5.6330     0.0270 C.2   1 <1>  -0.3320 
 23 C       -0.1900     8.5150     0.0030 C.ar  1 <1>  -0.1500 
 24 C        1.3180     6.9020     0.9520 C.ar  1 <1>  -0.1500 
 25 C       -1.2620    -6.7200    -0.1170 C.3   1 <1>  -0.0600 
 26 C        0.8830     9.3120    -0.3640 C.ar  1 <1>  -0.1430 
 27 C        2.3900     7.6960     0.5880 C.ar  1 <1>  -0.1500 
 28 C        2.1720     8.8960    -0.0690 C.ar  1 <1>  -0.1500 
 29 C        0.6550    10.6320    -1.0780 C.3   1 <1>  -0.0970 
 30 H       -4.2500     1.2630     1.0990 H     1 <1>   0.0800 
 31 H       -3.7360     1.7540    -0.5190 H     1 <1>   0.0800 
 32 H       -2.0250    -1.4580    -0.5920 H     1 <1>   0.0800 
 33 H       -2.1610    -1.6560     1.1460 H     1 <1>   0.0800 
 34 H       -2.4740     2.5130     2.2810 H     1 <1>   0.1500 
 35 H        0.0590     2.7110    -1.1280 H     1 <1>   0.1500 
 36 H       -4.5960    -0.1600    -1.5090 H     1 <1>   0.0800 
 37 H       -4.4550    -1.6590     1.1130 H     1 <1>   0.0800 
 38 H       -2.3600     4.9620     2.5090 H     1 <1>   0.1500 
 39 H        0.1740     5.1530    -0.9110 H     1 <1>   0.1500 
 40 H       -6.1140    -0.3080     0.8680 H     1 <1>   0.4000 
 41 H       -4.0000    -2.5350    -1.7550 H     1 <1>   0.0800 
 42 H       -5.4010    -2.8960    -0.7850 H     1 <1>   0.0800 
 43 H       -2.2000    -4.4050    -1.7830 H     1 <1>   0.1500 
 44 H       -3.1400    -6.1070     1.9240 H     1 <1>   0.2700 
 45 H       -1.1980     8.8190    -0.2120 H     1 <1>   0.1500 
 46 H        1.4850     5.9740     1.4700 H     1 <1>   0.1500 
 47 H       -0.7430    -6.6120    -1.0530 H     1 <1>   0.0800 
 48 H       -1.7250    -7.6910    -0.0930 H     1 <1>   0.0800 
 49 H       -0.5440    -6.6520     0.6810 H     1 <1>   0.0800 
 50 H        3.3940     7.3830     0.8170 H     1 <1>   0.1500 
 51 H        3.0120     9.5080    -0.3470 H     1 <1>   0.1500 
 52 H        1.3750    10.7560    -1.8670 H     1 <1>   0.0800 
 53 H        0.7590    11.4440    -0.3810 H     1 <1>   0.0800 
 54 H       -0.3290    10.6680    -1.5070 H     1 <1>   0.0800 
@<TRIPOS>BOND
  1   1   2  2   
  2   2   3  am  
  3   2   4  1   
  4   3   5  1   
  5   3   6  1   
  6   4   7  ar  
  7   4   8  ar  
  8   5   9  1   
  9   5  30  1   
 10   5  31  1   
 11   6  10  1   
 12   6  32  1   
 13   6  33  1   
 14   7  11  ar  
 15   7  34  1   
 16   8  12  ar  
 17   8  35  1   
 18   9  10  1   
 19   9  13  1   
 20   9  36  1   
 21  10  14  1   
 22  10  37  1   
 23  11  15  ar  
 24  11  38  1   
 25  12  15  ar  
 26  12  39  1   
 27  13  40  1   
 28  14  16  1   
 29  14  41  1   
 30  14  42  1   
 31  15  17  1   
 32  16  18  2   
 33  16  19  1   
 34  17  20  1   
 35  18  21  1   
 36  19  22  2   
 37  19  43  1   
 38  20  23  ar  
 39  20  24  ar  
 40  21  22  1   
 41  21  44  1   
 42  22  25  1   
 43  23  26  ar  
 44  23  45  1   
 45  24  27  ar  
 46  24  46  1   
 47  25  47  1   
 48  25  48  1   
 49  25  49  1   
 50  26  28  ar  
 51  26  29  1   
 52  27  28  ar  
 53  27  50  1   
 54  28  51  1   
 55  29  52  1   
 56  29  53  1   
 57  29  54  1   
@<TRIPOS>SUBSTRUCTURE
  1 ****   4 GROUP 4 **** **** 0

# MOE 2024.06 (io_trps.svl 2023.06)
