@<TRIPOS>MOLECULE
NONAME
53 54 1 0 0 
SMALL
USER_CHARGES


@<TRIPOS>ATOM
  1 S        0.9220    -0.1510    -0.6200 S.o2  1 <1>   1.3330 
  2 O        1.2330    -0.3940    -2.0110 O.2   1 <1>  -0.6500 
  3 O        1.9940    -0.0440     0.3440 O.2   1 <1>  -0.6500 
  4 N       -0.1360    -1.3680    -0.0890 N.am  1 <1>  -0.8490 
  5 C       -0.0850     1.3270    -0.5450 C.3   1 <1>  -0.0550 
  6 C        0.2170    -2.6820    -0.6330 C.3   1 <1>   0.1160 
  7 C       -0.2460    -1.4460     1.3710 C.3   1 <1>   0.1160 
  8 C        0.6380     2.5810    -1.0750 C.3   1 <1>  -0.0800 
  9 C       -0.2530     3.8210    -1.1880 C.3   1 <1>   0.2000 
 10 C        1.8240     3.0390    -0.2130 C.3   1 <1>   0.1400 
 11 O       -1.0110     3.9400    -0.0320 O.3   1 <1>  -0.6800 
 12 C        0.7440     4.9760    -1.2200 C.3   1 <1>   0.1400 
 13 N        1.8460     4.5190    -0.3370 N.am  1 <1>  -0.6600 
 14 C        2.7060     5.3060     0.3780 C.2   1 <1>   0.5690 
 15 O        3.4760     4.8260     1.1750 O.2   1 <1>  -0.5700 
 16 C        2.6830     6.8130     0.1750 C.3   1 <1>  -0.0990 
 17 C        3.8930     7.5380     0.7790 C.3   1 <1>  -0.0170 
 18 C        3.8010     9.0270     0.4890 C.ar  1 <1>  -0.1440 
 19 C        4.3870     9.5550    -0.6500 C.ar  1 <1>  -0.1500 
 20 C        3.1210     9.8660     1.3560 C.ar  1 <1>  -0.1500 
 21 C        4.2980    10.9100    -0.9240 C.ar  1 <1>  -0.1440 
 22 C        3.0210    11.2220     1.0910 C.ar  1 <1>  -0.1440 
 23 C        3.6120    11.7370    -0.0500 C.ar  1 <1>  -0.1500 
 24 C        4.9420    11.4850    -2.1720 C.3   1 <1>  -0.0970 
 25 C        2.2740    12.1330     2.0470 C.3   1 <1>  -0.0970 
 26 H       -0.9670     1.1680    -1.1340 H     1 <1>   0.0800 
 27 H       -0.3980     1.4930     0.4670 H     1 <1>   0.0800 
 28 H       -0.4820    -3.4270    -0.2930 H     1 <1>   0.0800 
 29 H        1.2110    -2.9600    -0.3250 H     1 <1>   0.0800 
 30 H        0.1830    -2.6570    -1.7100 H     1 <1>   0.0800 
 31 H       -0.9900    -2.1740     1.6470 H     1 <1>   0.0800 
 32 H       -0.5410    -0.4920     1.7740 H     1 <1>   0.0800 
 33 H        0.6990    -1.7270     1.8060 H     1 <1>   0.0800 
 34 H        1.0200     2.3630    -2.0590 H     1 <1>   0.0800 
 35 H       -0.9150     3.8020    -2.0370 H     1 <1>   0.0800 
 36 H        2.7540     2.6160    -0.5580 H     1 <1>   0.0800 
 37 H        1.6830     2.7750     0.8220 H     1 <1>   0.0800 
 38 H       -0.4100     4.1450     0.7140 H     1 <1>   0.4000 
 39 H        0.2970     5.8950    -0.8790 H     1 <1>   0.0800 
 40 H        1.1250     5.1050    -2.2180 H     1 <1>   0.0800 
 41 H        2.6540     7.0180    -0.8780 H     1 <1>   0.0800 
 42 H        1.7860     7.2010     0.6200 H     1 <1>   0.0800 
 43 H        4.8020     7.1390     0.3630 H     1 <1>   0.0800 
 44 H        3.9250     7.3760     1.8430 H     1 <1>   0.0800 
 45 H        4.9160     8.9080    -1.3270 H     1 <1>   0.1500 
 46 H        2.6670     9.4620     2.2430 H     1 <1>   0.1500 
 47 H        3.5380    12.7890    -0.2600 H     1 <1>   0.1500 
 48 H        5.3060    12.4780    -1.9800 H     1 <1>   0.0800 
 49 H        4.2200    11.5260    -2.9670 H     1 <1>   0.0800 
 50 H        5.7700    10.8750    -2.4850 H     1 <1>   0.0800 
 51 H        1.8720    12.9810     1.5230 H     1 <1>   0.0800 
 52 H        2.9430    12.4820     2.8120 H     1 <1>   0.0800 
 53 H        1.4600    11.6050     2.5100 H     1 <1>   0.0800 
@<TRIPOS>BOND
  1   1   2  2   
  2   1   3  2   
  3   1   4  am  
  4   1   5  1   
  5   4   6  1   
  6   4   7  1   
  7   5   8  1   
  8   5  26  1   
  9   5  27  1   
 10   6  28  1   
 11   6  29  1   
 12   6  30  1   
 13   7  31  1   
 14   7  32  1   
 15   7  33  1   
 16   8   9  1   
 17   8  10  1   
 18   8  34  1   
 19   9  11  1   
 20   9  12  1   
 21   9  35  1   
 22  10  13  1   
 23  10  36  1   
 24  10  37  1   
 25  11  38  1   
 26  12  13  1   
 27  12  39  1   
 28  12  40  1   
 29  13  14  am  
 30  14  15  2   
 31  14  16  1   
 32  16  17  1   
 33  16  41  1   
 34  16  42  1   
 35  17  18  1   
 36  17  43  1   
 37  17  44  1   
 38  18  19  ar  
 39  18  20  ar  
 40  19  21  ar  
 41  19  45  1   
 42  20  22  ar  
 43  20  46  1   
 44  21  23  ar  
 45  21  24  1   
 46  22  23  ar  
 47  22  25  1   
 48  23  47  1   
 49  24  48  1   
 50  24  49  1   
 51  24  50  1   
 52  25  51  1   
 53  25  52  1   
 54  25  53  1   
@<TRIPOS>SUBSTRUCTURE
  1 ****  13 GROUP 4 **** **** 0

# MOE 2024.06 (io_trps.svl 2023.06)
