@<TRIPOS>MOLECULE
NONAME
55 58 1 0 0 
SMALL
USER_CHARGES


@<TRIPOS>ATOM
  1 O        0.7380    -0.4050     0.6440 O.3   1 <1>  -0.5600 
  2 C        1.8750    -1.0220     0.0930 C.3   1 <1>   0.4240 
  3 C       -0.5060    -0.7470     0.1100 C.3   1 <1>   0.1200 
  4 C        1.6140    -2.4930    -0.2860 C.ar  1 <1>  -0.1440 
  5 C        2.9410    -0.9480     1.1960 C.3   1 <1>  -0.1600 
  6 C        2.3140    -0.1950    -1.1270 C.3   1 <1>  -0.1600 
  7 C       -0.7820    -2.2200     0.3960 C.3   1 <1>  -0.0160 
  8 C        0.3590    -3.0650    -0.1330 C.ar  1 <1>  -0.1440 
  9 C        2.6370    -3.2830    -0.7940 C.ar  1 <1>  -0.1500 
 10 C        3.2790     0.5000     1.5470 C.3   1 <1>   0.2090 
 11 C        2.6810     1.2380    -0.7420 C.3   1 <1>   0.2090 
 12 C        0.1460    -4.3950    -0.4610 C.ar  1 <1>  -0.1500 
 13 C        2.4430    -4.6090    -1.1370 C.ar  1 <1>   0.0820 
 14 N        3.7450     1.1990     0.3090 N.pl3 1 <1>  -0.8380 
 15 C        1.1770    -5.1890    -0.9560 C.ar  1 <1>   0.0820 
 16 O        3.5580    -5.2250    -1.6290 O.3   1 <1>  -0.3630 
 17 C        4.9350     1.8490     0.1770 C.ar  1 <1>   0.4610 
 18 O        0.9720    -6.5080    -1.2490 O.3   1 <1>  -0.3630 
 19 C        3.4870    -6.3780    -2.4370 C.3   1 <1>   0.0400 
 20 N        6.0200     1.3370     0.7760 N.ar  1 <1>  -0.1790 
 21 C        5.1390     3.0010    -0.5510 C.ar  1 <1>  -0.1500 
 22 C       -0.1990    -7.1910    -0.8580 C.3   1 <1>   0.0400 
 23 C        7.2330     1.9110     0.6750 C.ar  1 <1>   0.7710 
 24 C        6.4050     3.5420    -0.6160 C.ar  1 <1>   0.3930 
 25 N        7.4610     3.0060    -0.0060 N.ar  1 <1>  -0.6200 
 26 N        8.2830     1.3610     1.2860 N.pl3 1 <1>  -0.9000 
 27 O        6.5660     4.6550    -1.3270 O.3   1 <1>  -0.3630 
 28 C        7.8100     5.3140    -1.4700 C.3   1 <1>   0.0400 
 29 H       -0.5030    -0.5530    -0.9480 H     1 <1>   0.0800 
 30 H       -1.2500    -0.1270     0.5800 H     1 <1>   0.0800 
 31 H        3.8350    -1.4500     0.8820 H     1 <1>   0.0800 
 32 H        2.5710    -1.4590     2.0660 H     1 <1>   0.0800 
 33 H        1.5330    -0.1900    -1.8640 H     1 <1>   0.0800 
 34 H        3.1710    -0.6520    -1.5860 H     1 <1>   0.0800 
 35 H       -1.7060    -2.5030    -0.0750 H     1 <1>   0.0800 
 36 H       -0.8840    -2.3670     1.4560 H     1 <1>   0.0800 
 37 H        3.6210    -2.8780    -0.9400 H     1 <1>   0.1500 
 38 H        4.0230     0.5300     2.3230 H     1 <1>   0.0800 
 39 H        2.3980     0.9960     1.9250 H     1 <1>   0.0800 
 40 H        1.8120     1.7510    -0.3600 H     1 <1>   0.0800 
 41 H        3.0220     1.7600    -1.6200 H     1 <1>   0.0800 
 42 H       -0.8390    -4.7960    -0.3220 H     1 <1>   0.1500 
 43 H        4.4420    -6.5150    -2.9100 H     1 <1>   0.0800 
 44 H        2.7230    -6.2390    -3.1810 H     1 <1>   0.0800 
 45 H        3.2650    -7.2250    -1.8140 H     1 <1>   0.0800 
 46 H        5.9250     0.4620     1.2650 H     1 <1>   0.4570 
 47 H        4.3310     3.4910    -1.0580 H     1 <1>   0.1500 
 48 H       -0.0750    -8.2300    -1.1040 H     1 <1>   0.0800 
 49 H       -1.0370    -6.7870    -1.3970 H     1 <1>   0.0800 
 50 H       -0.3300    -7.0810     0.2040 H     1 <1>   0.0800 
 51 H        9.1890     1.8310     1.1850 H     1 <1>   0.4000 
 52 H        8.3180     0.5160     1.8590 H     1 <1>   0.4000 
 53 H        7.6650     6.1820    -2.0880 H     1 <1>   0.0800 
 54 H        8.5100     4.6430    -1.9360 H     1 <1>   0.0800 
 55 H        8.1630     5.6100    -0.4970 H     1 <1>   0.0800 
@<TRIPOS>BOND
  1   1   2  1   
  2   1   3  1   
  3   2   4  1   
  4   2   5  1   
  5   2   6  1   
  6   3   7  1   
  7   3  29  1   
  8   3  30  1   
  9   4   8  ar  
 10   4   9  ar  
 11   5  10  1   
 12   5  31  1   
 13   5  32  1   
 14   6  11  1   
 15   6  33  1   
 16   6  34  1   
 17   7   8  1   
 18   7  35  1   
 19   7  36  1   
 20   8  12  ar  
 21   9  13  ar  
 22   9  37  1   
 23  10  14  1   
 24  10  38  1   
 25  10  39  1   
 26  11  14  1   
 27  11  40  1   
 28  11  41  1   
 29  12  15  ar  
 30  12  42  1   
 31  13  15  ar  
 32  13  16  1   
 33  14  17  1   
 34  15  18  1   
 35  16  19  1   
 36  17  20  ar  
 37  17  21  ar  
 38  18  22  1   
 39  19  43  1   
 40  19  44  1   
 41  19  45  1   
 42  20  23  ar  
 43  20  46  1   
 44  21  24  ar  
 45  21  47  1   
 46  22  48  1   
 47  22  49  1   
 48  22  50  1   
 49  23  25  ar  
 50  23  26  1   
 51  24  25  ar  
 52  24  27  1   
 53  26  51  1   
 54  26  52  1   
 55  27  28  1   
 56  28  53  1   
 57  28  54  1   
 58  28  55  1   
@<TRIPOS>SUBSTRUCTURE
  1 ****   6 GROUP 4 **** **** 0

# MOE 2024.06 (io_trps.svl 2023.06)
