@<TRIPOS>MOLECULE
NONAME
48 51 1 0 0 
SMALL
USER_CHARGES


@<TRIPOS>ATOM
  1 O       -2.5540    -1.1460    -1.8570 O.2   1 <1>  -0.5700 
  2 C       -2.1000    -0.3900    -1.0370 C.2   1 <1>   0.5950 
  3 C       -2.8490     0.6000    -0.3190 C.2   1 <1>  -0.0860 
  4 C       -0.6180    -0.4870    -0.6880 C.3   1 <1>  -0.0990 
  5 C       -4.1660     1.1050    -0.4740 C.2   1 <1>  -0.0860 
  6 C       -2.3310     1.2890     0.7250 C.2   1 <1>  -0.0400 
  7 C       -0.3360    -0.2090     0.8090 C.3   1 <1>  -0.1600 
  8 C       -4.2820     2.0580     0.4910 C.2   1 <1>  -0.0400 
  9 C       -5.1390     0.7150    -1.4650 C.2   1 <1>   0.7160 
 10 O       -3.1840     2.1530     1.2020 O.3   1 <1>  -0.2800 
 11 C       -0.9390     1.1250     1.2950 C.3   1 <1>   0.0200 
 12 C       -5.4380     2.9760     0.8270 C.3   1 <1>  -0.0600 
 13 O       -5.4750     1.5100    -2.3220 O.2   1 <1>  -0.5700 
 14 N       -5.7370    -0.5230    -1.4510 N.am  1 <1>  -0.6600 
 15 C       -6.4310    -1.0600    -2.6510 C.3   1 <1>   0.1400 
 16 C       -5.4060    -1.6270    -0.5170 C.3   1 <1>   0.1400 
 17 C       -6.7260    -2.5240    -2.3170 C.3   1 <1>   0.2000 
 18 C       -5.6020    -2.8970    -1.3480 C.3   1 <1>  -0.0800 
 19 O       -7.9460    -2.5890    -1.6590 O.3   1 <1>  -0.6800 
 20 C       -5.8390    -4.1550    -0.4960 C.3   1 <1>   0.0200 
 21 C       -4.6140    -4.5190     0.3280 C.2   1 <1>  -0.0400 
 22 O       -4.7430    -5.3360     1.3390 O.3   1 <1>  -0.0190 
 23 C       -3.3200    -4.1680     0.2490 C.2   1 <1>  -0.1500 
 24 N       -3.6090    -5.5460     1.9430 N.2   1 <1>  -0.4100 
 25 C       -2.7330    -4.8560     1.3060 C.2   1 <1>   0.1080 
 26 C       -1.2650    -4.8080     1.6670 C.3   1 <1>  -0.0590 
 27 H       -0.2620    -1.4680    -0.9460 H     1 <1>   0.0800 
 28 H       -0.0880     0.2250    -1.2940 H     1 <1>   0.0800 
 29 H       -0.7700    -1.0060     1.3880 H     1 <1>   0.0800 
 30 H        0.7250    -0.2140     0.9910 H     1 <1>   0.0800 
 31 H       -0.3330     1.9520     0.9700 H     1 <1>   0.0800 
 32 H       -0.9820     1.1390     2.3700 H     1 <1>   0.0800 
 33 H       -6.2630     2.8040     0.1590 H     1 <1>   0.0800 
 34 H       -5.1240     4.0000     0.7330 H     1 <1>   0.0800 
 35 H       -5.7610     2.8010     1.8370 H     1 <1>   0.0800 
 36 H       -7.3250    -0.5040    -2.8730 H     1 <1>   0.0800 
 37 H       -5.7590    -1.0030    -3.4910 H     1 <1>   0.0800 
 38 H       -4.4050    -1.5590    -0.1370 H     1 <1>   0.0800 
 39 H       -6.0960    -1.6040     0.3090 H     1 <1>   0.0800 
 40 H       -6.7700    -3.1560    -3.1880 H     1 <1>   0.0800 
 41 H       -4.7130    -3.0440    -1.9360 H     1 <1>   0.0800 
 42 H       -8.0020    -1.8480    -1.0230 H     1 <1>   0.4000 
 43 H       -6.0860    -4.9860    -1.1320 H     1 <1>   0.0800 
 44 H       -6.6690    -3.9950     0.1700 H     1 <1>   0.0800 
 45 H       -2.8170    -3.5220    -0.4480 H     1 <1>   0.1500 
 46 H       -0.6660    -4.8910     0.7790 H     1 <1>   0.0800 
 47 H       -1.0240    -5.6210     2.3270 H     1 <1>   0.0800 
 48 H       -1.0440    -3.8800     2.1610 H     1 <1>   0.0800 
@<TRIPOS>BOND
  1   1   2  2   
  2   2   3  1   
  3   2   4  1   
  4   3   5  1   
  5   3   6  2   
  6   4   7  1   
  7   4  27  1   
  8   4  28  1   
  9   5   8  2   
 10   5   9  1   
 11   6  10  1   
 12   6  11  1   
 13   7  11  1   
 14   7  29  1   
 15   7  30  1   
 16   8  10  1   
 17   8  12  1   
 18   9  13  2   
 19   9  14  am  
 20  11  31  1   
 21  11  32  1   
 22  12  33  1   
 23  12  34  1   
 24  12  35  1   
 25  14  15  1   
 26  14  16  1   
 27  15  17  1   
 28  15  36  1   
 29  15  37  1   
 30  16  18  1   
 31  16  38  1   
 32  16  39  1   
 33  17  18  1   
 34  17  19  1   
 35  17  40  1   
 36  18  20  1   
 37  18  41  1   
 38  19  42  1   
 39  20  21  1   
 40  20  43  1   
 41  20  44  1   
 42  21  22  1   
 43  21  23  2   
 44  22  24  1   
 45  23  25  1   
 46  23  45  1   
 47  24  25  2   
 48  25  26  1   
 49  26  46  1   
 50  26  47  1   
 51  26  48  1   
@<TRIPOS>SUBSTRUCTURE
  1 ****  16 GROUP 4 **** **** 0

# MOE 2024.06 (io_trps.svl 2023.06)
