@<TRIPOS>MOLECULE
NONAME
32 34 1 0 0 
SMALL
USER_CHARGES


@<TRIPOS>ATOM
  1 S        0.0900     0.0810    -0.6360 S.3   1 <1>  -0.4600 
  2 C        0.0720     1.8890    -0.5200 C.3   1 <1>   0.0700 
  3 C        1.4620    -0.3080     0.4790 C.3   1 <1>   0.0700 
  4 C        1.4740     2.4240    -0.8320 C.3   1 <1>   0.1100 
  5 C        2.6990     0.4920     0.0500 C.3   1 <1>   0.1100 
  6 N        2.4830     1.9510     0.1480 N.3   1 <1>  -0.8100 
  7 C        3.7670     2.6830     0.0000 C.3   1 <1>   0.2900 
  8 C        3.7260     4.1790     0.3360 C.2   1 <1>   0.2980 
  9 O        4.7280     4.9100    -0.0630 O.3   1 <1>  -0.2800 
 10 N        2.8240     4.8200     0.9750 N.2   1 <1>  -0.3380 
 11 C        4.3620     6.0870     0.3890 C.2   1 <1>   0.4250 
 12 N        3.2330     6.0660     1.0090 N.2   1 <1>  -0.3380 
 13 C        5.2020     7.2420     0.1680 C.ar  1 <1>   0.0530 
 14 C        6.4140     7.1450    -0.5190 C.ar  1 <1>   0.1600 
 15 C        4.8470     8.5050     0.6280 C.ar  1 <1>  -0.1500 
 16 N        7.2490     8.1400    -0.7720 N.ar  1 <1>  -0.6200 
 17 C        5.7010     9.5570     0.3760 C.ar  1 <1>  -0.1500 
 18 C        6.8740     9.3250    -0.3190 C.ar  1 <1>   0.1600 
 19 H       -0.2290     2.1530     0.4780 H     1 <1>   0.0800 
 20 H       -0.6510     2.2460    -1.2300 H     1 <1>   0.0800 
 21 H        1.6360    -1.3660     0.4120 H     1 <1>   0.0800 
 22 H        1.1580    -0.0460     1.4770 H     1 <1>   0.0800 
 23 H        1.4200     3.4980    -0.8090 H     1 <1>   0.0800 
 24 H        1.7580     2.1270    -1.8270 H     1 <1>   0.0800 
 25 H        2.9670     0.2240    -0.9580 H     1 <1>   0.0800 
 26 H        3.5110     0.2100     0.6990 H     1 <1>   0.0800 
 27 H        4.1190     2.5710    -1.0110 H     1 <1>   0.0800 
 28 H        4.4970     2.2380     0.6520 H     1 <1>   0.0800 
 29 H        6.7140     6.1780    -0.8850 H     1 <1>   0.1500 
 30 H        3.9260     8.6570     1.1670 H     1 <1>   0.1500 
 31 H        5.4620    10.5490     0.7150 H     1 <1>   0.1500 
 32 H        7.5370    10.1520    -0.5110 H     1 <1>   0.1500 
@<TRIPOS>BOND
  1   1   2  1   
  2   1   3  1   
  3   2   4  1   
  4   2  19  1   
  5   2  20  1   
  6   3   5  1   
  7   3  21  1   
  8   3  22  1   
  9   4   6  1   
 10   4  23  1   
 11   4  24  1   
 12   5   6  1   
 13   5  25  1   
 14   5  26  1   
 15   6   7  1   
 16   7   8  1   
 17   7  27  1   
 18   7  28  1   
 19   8   9  1   
 20   8  10  2   
 21   9  11  1   
 22  10  12  1   
 23  11  12  2   
 24  11  13  1   
 25  13  14  ar  
 26  13  15  ar  
 27  14  16  ar  
 28  14  29  1   
 29  15  17  ar  
 30  15  30  1   
 31  16  18  ar  
 32  17  18  ar  
 33  17  31  1   
 34  18  32  1   
@<TRIPOS>SUBSTRUCTURE
  1 ****   8 GROUP 4 **** **** 0

# MOE 2024.06 (io_trps.svl 2023.06)
