@<TRIPOS>MOLECULE
NONAME
47 48 1 0 0 
SMALL
USER_CHARGES


@<TRIPOS>ATOM
  1 CL      -0.6620    -0.2760    -1.9270 Cl    1 <1>  -0.1770 
  2 C       -1.3290    -0.0360    -0.3280 C.ar  1 <1>   0.1770 
  3 C       -2.4330     0.7860    -0.1300 C.ar  1 <1>  -0.1440 
  4 C       -0.7090    -0.6980     0.7190 C.ar  1 <1>  -0.1500 
  5 C       -2.8800     0.9050     1.1810 C.ar  1 <1>   0.1900 
  6 C       -3.1120     1.5390    -1.2820 C.3   1 <1>   0.0440 
  7 C       -1.1860    -0.5560     2.0120 C.ar  1 <1>  -0.1500 
  8 F       -3.9050     1.6710     1.4500 F     1 <1>  -0.1900 
  9 C       -2.2830     0.2530     2.2460 C.ar  1 <1>  -0.1500 
 10 C       -4.6230     1.3440    -1.3570 C.2   1 <1>   0.5690 
 11 O       -5.3150     2.3150    -1.1550 O.2   1 <1>  -0.5700 
 12 N       -5.2130     0.1320    -1.6130 N.am  1 <1>  -0.6600 
 13 C       -4.4430    -1.1330    -1.8620 C.3   1 <1>   0.3210 
 14 C       -6.7070    -0.0010    -1.7170 C.3   1 <1>   0.1400 
 15 C       -4.2010    -1.9690    -0.6020 C.2   1 <1>   0.0460 
 16 C       -7.3970    -0.1590    -0.3460 C.3   1 <1>   0.3430 
 17 N       -4.9570    -1.8670     0.5160 N.2   1 <1>  -0.5650 
 18 C       -3.2370    -2.9060    -0.4380 C.2   1 <1>  -0.3320 
 19 N       -7.0730     0.9770     0.5680 N.4   1 <1>  -0.9590 
 20 C       -4.4330    -2.7270     1.3270 C.2   1 <1>   0.0360 
 21 N       -3.3820    -3.3910     0.8080 N.pl3 1 <1>   0.0330 
 22 C       -2.1580    -3.4150    -1.3810 C.3   1 <1>  -0.0600 
 23 C       -6.7810     0.5070     1.9490 C.3   1 <1>   0.2630 
 24 C       -8.0730     2.0780     0.5220 C.3   1 <1>   0.2630 
 25 H        0.1460    -1.3190     0.5210 H     1 <1>   0.1500 
 26 H       -2.7010     1.2760    -2.2360 H     1 <1>   0.0800 
 27 H       -2.9170     2.5880    -1.1480 H     1 <1>   0.0800 
 28 H       -0.7040    -1.0680     2.8280 H     1 <1>   0.1500 
 29 H       -2.6690     0.3830     3.2410 H     1 <1>   0.1500 
 30 H       -3.4950    -0.9010    -2.3110 H     1 <1>   0.0800 
 31 H       -4.9780    -1.7400    -2.5690 H     1 <1>   0.0800 
 32 H       -6.9550    -0.8520    -2.3270 H     1 <1>   0.0800 
 33 H       -7.1070     0.8680    -2.2120 H     1 <1>   0.0800 
 34 H       -7.0720    -1.0860     0.0910 H     1 <1>   0.0800 
 35 H       -8.4630    -0.2250    -0.4840 H     1 <1>   0.0800 
 36 H       -6.1860     1.3730     0.1840 H     1 <1>   0.4500 
 37 H       -4.7830    -2.9180     2.3270 H     1 <1>   0.1500 
 38 H       -2.8210    -4.1160     1.2660 H     1 <1>   0.2700 
 39 H       -2.2060    -2.9130    -2.3290 H     1 <1>   0.0800 
 40 H       -2.2830    -4.4700    -1.5510 H     1 <1>   0.0800 
 41 H       -1.1830    -3.2470    -0.9570 H     1 <1>   0.0800 
 42 H       -7.6530     0.0480     2.3830 H     1 <1>   0.0800 
 43 H       -6.4740     1.3350     2.5660 H     1 <1>   0.0800 
 44 H       -5.9800    -0.2150     1.9300 H     1 <1>   0.0800 
 45 H       -9.0310     1.7320     0.8720 H     1 <1>   0.0800 
 46 H       -8.1750     2.4410    -0.4870 H     1 <1>   0.0800 
 47 H       -7.7480     2.8970     1.1440 H     1 <1>   0.0800 
@<TRIPOS>BOND
  1   1   2  1   
  2   2   3  ar  
  3   2   4  ar  
  4   3   5  ar  
  5   3   6  1   
  6   4   7  ar  
  7   4  25  1   
  8   5   8  1   
  9   5   9  ar  
 10   6  10  1   
 11   6  26  1   
 12   6  27  1   
 13   7   9  ar  
 14   7  28  1   
 15   9  29  1   
 16  10  11  2   
 17  10  12  am  
 18  12  13  1   
 19  12  14  1   
 20  13  15  1   
 21  13  30  1   
 22  13  31  1   
 23  14  16  1   
 24  14  32  1   
 25  14  33  1   
 26  15  17  1   
 27  15  18  2   
 28  16  19  1   
 29  16  34  1   
 30  16  35  1   
 31  17  20  2   
 32  18  21  1   
 33  18  22  1   
 34  19  23  1   
 35  19  24  1   
 36  19  36  1   
 37  20  21  1   
 38  20  37  1   
 39  21  38  1   
 40  22  39  1   
 41  22  40  1   
 42  22  41  1   
 43  23  42  1   
 44  23  43  1   
 45  23  44  1   
 46  24  45  1   
 47  24  46  1   
 48  24  47  1   
@<TRIPOS>SUBSTRUCTURE
  1 ****  15 GROUP 4 **** **** 0

# MOE 2024.06 (io_trps.svl 2023.06)
