@<TRIPOS>MOLECULE
NONAME
45 47 1 0 0 
SMALL
USER_CHARGES


@<TRIPOS>ATOM
  1 O        1.1050     0.0900     1.4340 O.3   1 <1>  -0.6800 
  2 C        1.4630    -0.3040     0.1470 C.3   1 <1>   0.2000 
  3 C        2.3160    -1.5670     0.2560 C.3   1 <1>  -0.0800 
  4 C        2.4400     0.7280    -0.4210 C.3   1 <1>   0.3430 
  5 C        3.7090    -1.0300     0.6300 C.3   1 <1>   0.3430 
  6 C        2.3290    -2.3570    -1.0720 C.3   1 <1>  -0.0170 
  7 N        3.7560     0.3970     0.1980 N.4   1 <1>  -0.9590 
  8 C        3.0660    -3.6830    -0.9460 C.ar  1 <1>   0.1670 
  9 C        4.0490     1.3220     1.3340 C.3   1 <1>   0.4860 
 10 N        4.3840    -3.6150    -0.8550 N.ar  1 <1>  -0.6200 
 11 C        2.3550    -4.8830    -0.9350 C.ar  1 <1>   0.1600 
 12 C        4.4080     2.7000     0.7840 C.ar  1 <1>   0.1670 
 13 C        4.9400    -4.8140    -0.7640 C.ar  1 <1>   0.1600 
 14 N        2.9090    -6.0780    -0.8320 N.ar  1 <1>  -0.6200 
 15 N        5.1690     2.7190    -0.3060 N.ar  1 <1>  -0.6200 
 16 C        3.9300     3.8370     1.4180 C.ar  1 <1>  -0.1500 
 17 C        4.2260    -6.0060    -0.7520 C.ar  1 <1>   0.1600 
 18 C        5.4720     3.9230    -0.7690 C.ar  1 <1>   0.1600 
 19 C        4.2510     5.0790     0.9160 C.ar  1 <1>  -0.1500 
 20 C        5.0460     5.1190    -0.2110 C.ar  1 <1>  -0.1440 
 21 C        5.4500     6.4520    -0.8230 C.3   1 <1>  -0.0170 
 22 C        6.7580     6.9520    -0.2070 C.3   1 <1>  -0.2400 
 23 H        0.3540    -0.4430     1.7730 H     1 <1>   0.4000 
 24 H        0.5710    -0.4090    -0.4480 H     1 <1>   0.0800 
 25 H        1.9460    -2.2190     1.0300 H     1 <1>   0.0800 
 26 H        2.1240     1.7350    -0.2030 H     1 <1>   0.0800 
 27 H        2.5080     0.6040    -1.4890 H     1 <1>   0.0800 
 28 H        4.4970    -1.5930     0.1610 H     1 <1>   0.0800 
 29 H        3.8340    -1.0930     1.6990 H     1 <1>   0.0800 
 30 H        2.7970    -1.7810    -1.8520 H     1 <1>   0.0800 
 31 H        1.3170    -2.5510    -1.3810 H     1 <1>   0.0800 
 32 H        4.5130     0.5920    -0.4820 H     1 <1>   0.4500 
 33 H        3.1980     1.3900     1.9910 H     1 <1>   0.0800 
 34 H        4.8910     0.9530     1.8930 H     1 <1>   0.0800 
 35 H        1.2830    -4.8600    -1.0150 H     1 <1>   0.1500 
 36 H        6.0130    -4.8600    -0.6960 H     1 <1>   0.1500 
 37 H        3.3140     3.7660     2.2970 H     1 <1>   0.1500 
 38 H        4.7650    -6.9340    -0.6730 H     1 <1>   0.1500 
 39 H        6.0980     3.9630    -1.6450 H     1 <1>   0.1500 
 40 H        3.8980     5.9820     1.3870 H     1 <1>   0.1500 
 41 H        5.5700     6.3450    -1.8870 H     1 <1>   0.0800 
 42 H        4.6730     7.1790    -0.6560 H     1 <1>   0.0800 
 43 H        7.5500     6.2450    -0.3840 H     1 <1>   0.0800 
 44 H        6.6440     7.0830     0.8540 H     1 <1>   0.0800 
 45 H        7.0350     7.8950    -0.6430 H     1 <1>   0.0800 
@<TRIPOS>BOND
  1   1   2  1   
  2   1  23  1   
  3   2   3  1   
  4   2   4  1   
  5   2  24  1   
  6   3   5  1   
  7   3   6  1   
  8   3  25  1   
  9   4   7  1   
 10   4  26  1   
 11   4  27  1   
 12   5   7  1   
 13   5  28  1   
 14   5  29  1   
 15   6   8  1   
 16   6  30  1   
 17   6  31  1   
 18   7   9  1   
 19   7  32  1   
 20   8  10  ar  
 21   8  11  ar  
 22   9  12  1   
 23   9  33  1   
 24   9  34  1   
 25  10  13  ar  
 26  11  14  ar  
 27  11  35  1   
 28  12  15  ar  
 29  12  16  ar  
 30  13  17  ar  
 31  13  36  1   
 32  14  17  ar  
 33  15  18  ar  
 34  16  19  ar  
 35  16  37  1   
 36  17  38  1   
 37  18  20  ar  
 38  18  39  1   
 39  19  20  ar  
 40  19  40  1   
 41  20  21  1   
 42  21  22  1   
 43  21  41  1   
 44  21  42  1   
 45  22  43  1   
 46  22  44  1   
 47  22  45  1   
@<TRIPOS>SUBSTRUCTURE
  1 ****   7 GROUP 4 **** **** 0

# MOE 2024.06 (io_trps.svl 2023.06)
