@<TRIPOS>MOLECULE
NONAME
55 57 1 0 0 
SMALL
USER_CHARGES


@<TRIPOS>ATOM
  1 O        0.9030     0.2400    -1.6090 O.2   1 <1>  -0.5700 
  2 C        1.7860    -0.4570    -1.1460 C.2   1 <1>   0.5440 
  3 N        1.4730    -1.7480    -0.8350 N.am  1 <1>  -0.7300 
  4 C        3.1240     0.0710    -0.9230 C.ar  1 <1>   0.0860 
  5 C        0.1150    -2.3490    -0.9510 C.3   1 <1>   0.2010 
  6 C        3.3510     1.4480    -0.8790 C.ar  1 <1>  -0.1500 
  7 C        4.2330    -0.7620    -0.7440 C.ar  1 <1>  -0.1500 
  8 C       -0.1080    -3.5240     0.0140 C.2   1 <1>   0.5690 
  9 C        4.6130     1.9710    -0.6620 C.ar  1 <1>  -0.1500 
 10 C        5.4980    -0.2460    -0.5250 C.ar  1 <1>  -0.1500 
 11 O        0.8790    -4.0650     0.4670 O.2   1 <1>  -0.5700 
 12 N       -1.3780    -3.9420     0.3520 N.am  1 <1>  -0.6600 
 13 C        5.6910     1.1230    -0.4820 C.ar  1 <1>  -0.1500 
 14 C       -2.6090    -3.3590    -0.2640 C.3   1 <1>   0.2200 
 15 C       -1.5480    -4.9980     1.4000 C.3   1 <1>   0.0600 
 16 C       -3.2690    -2.3270     0.6460 C.3   1 <1>  -0.1600 
 17 C       -3.7240    -4.3600    -0.5750 C.3   1 <1>  -0.1600 
 18 C       -4.7030    -2.2100     0.1110 C.3   1 <1>  -0.0800 
 19 C       -4.9860    -3.4930    -0.6800 C.3   1 <1>  -0.0800 
 20 C       -5.8010    -2.1280     1.1820 C.3   1 <1>  -0.1600 
 21 C       -6.2560    -4.0970    -0.0600 C.3   1 <1>  -0.1600 
 22 C       -6.9800    -2.9270     0.6170 C.3   1 <1>   0.4230 
 23 N       -7.7410    -2.1160    -0.3880 N.4   1 <1>  -0.9590 
 24 C       -8.3630    -0.8900     0.2110 C.3   1 <1>   0.2630 
 25 C       -8.8190    -2.9020    -1.0720 C.3   1 <1>   0.2630 
 26 H        2.1230    -2.3380    -0.3060 H     1 <1>   0.3700 
 27 H       -0.6130    -1.5840    -0.7530 H     1 <1>   0.0800 
 28 H       -0.0220    -2.6990    -1.9570 H     1 <1>   0.0800 
 29 H        2.5190     2.1160    -1.0190 H     1 <1>   0.1500 
 30 H        4.1110    -1.8290    -0.7830 H     1 <1>   0.1500 
 31 H        4.7570     3.0370    -0.6320 H     1 <1>   0.1500 
 32 H        6.3350    -0.9100    -0.3890 H     1 <1>   0.1500 
 33 H        6.6740     1.5260    -0.3120 H     1 <1>   0.1500 
 34 H       -2.3620    -2.8760    -1.1940 H     1 <1>   0.0800 
 35 H       -2.3650    -4.7530     2.0540 H     1 <1>   0.0800 
 36 H       -0.6590    -5.0870     2.0010 H     1 <1>   0.0800 
 37 H       -1.7370    -5.9470     0.9310 H     1 <1>   0.0800 
 38 H       -3.2660    -2.6840     1.6590 H     1 <1>   0.0800 
 39 H       -2.7550    -1.3830     0.6040 H     1 <1>   0.0800 
 40 H       -3.5280    -4.8870    -1.4920 H     1 <1>   0.0800 
 41 H       -3.8360    -5.0700     0.2220 H     1 <1>   0.0800 
 42 H       -4.7690    -1.3660    -0.5570 H     1 <1>   0.0800 
 43 H       -5.1600    -3.2350    -1.7130 H     1 <1>   0.0800 
 44 H       -6.0280    -1.1160     1.4590 H     1 <1>   0.0800 
 45 H       -5.4710    -2.6350     2.0720 H     1 <1>   0.0800 
 46 H       -5.9810    -4.7890     0.7180 H     1 <1>   0.0800 
 47 H       -6.8410    -4.6420    -0.7750 H     1 <1>   0.0800 
 48 H       -7.6370    -3.2700     1.4010 H     1 <1>   0.0800 
 49 H       -7.0530    -1.8200    -1.0950 H     1 <1>   0.4500 
 50 H       -9.0210    -1.1610     1.0210 H     1 <1>   0.0800 
 51 H       -8.9340    -0.3600    -0.5330 H     1 <1>   0.0800 
 52 H       -7.6060    -0.2220     0.5890 H     1 <1>   0.0800 
 53 H       -9.5070    -3.3050    -0.3460 H     1 <1>   0.0800 
 54 H       -8.4000    -3.7150    -1.6400 H     1 <1>   0.0800 
 55 H       -9.3680    -2.2690    -1.7500 H     1 <1>   0.0800 
@<TRIPOS>BOND
  1   1   2  2   
  2   2   3  am  
  3   2   4  1   
  4   3   5  1   
  5   3  26  1   
  6   4   6  ar  
  7   4   7  ar  
  8   5   8  1   
  9   5  27  1   
 10   5  28  1   
 11   6   9  ar  
 12   6  29  1   
 13   7  10  ar  
 14   7  30  1   
 15   8  11  2   
 16   8  12  am  
 17   9  13  ar  
 18   9  31  1   
 19  10  13  ar  
 20  10  32  1   
 21  12  14  1   
 22  12  15  1   
 23  13  33  1   
 24  14  16  1   
 25  14  17  1   
 26  14  34  1   
 27  15  35  1   
 28  15  36  1   
 29  15  37  1   
 30  16  18  1   
 31  16  38  1   
 32  16  39  1   
 33  17  19  1   
 34  17  40  1   
 35  17  41  1   
 36  18  19  1   
 37  18  20  1   
 38  18  42  1   
 39  19  21  1   
 40  19  43  1   
 41  20  22  1   
 42  20  44  1   
 43  20  45  1   
 44  21  22  1   
 45  21  46  1   
 46  21  47  1   
 47  22  23  1   
 48  22  48  1   
 49  23  24  1   
 50  23  25  1   
 51  23  49  1   
 52  24  50  1   
 53  24  51  1   
 54  24  52  1   
 55  25  53  1   
 56  25  54  1   
 57  25  55  1   
@<TRIPOS>SUBSTRUCTURE
  1 ****   5 GROUP 4 **** **** 0

# MOE 2024.06 (io_trps.svl 2023.06)
