@<TRIPOS>MOLECULE
NONAME
38 40 1 0 0 
SMALL
USER_CHARGES


@<TRIPOS>ATOM
  1 O        0.9630     1.2990     1.1070 O.3   1 <1>  -0.0190 
  2 N        1.7570     0.2820     1.2800 N.2   1 <1>  -0.4100 
  3 C        1.0120     1.7510    -0.1170 C.2   1 <1>  -0.0400 
  4 C        2.3230     0.0740     0.1460 C.2   1 <1>   0.1080 
  5 C        1.8810     0.9930    -0.8020 C.2   1 <1>  -0.1500 
  6 C        0.1700     2.9450    -0.5230 C.3   1 <1>   0.0200 
  7 C        3.3320    -1.0220    -0.1130 C.3   1 <1>  -0.0590 
  8 C        0.5500     4.1930     0.2890 C.3   1 <1>  -0.0800 
  9 C       -0.1790     5.4520    -0.1770 C.3   1 <1>   0.2000 
 10 C        2.0310     4.5580     0.1960 C.3   1 <1>   0.2090 
 11 O       -1.4280     5.5260     0.4230 O.3   1 <1>  -0.6800 
 12 C        0.7230     6.6210     0.2220 C.3   1 <1>   0.2090 
 13 N        2.0780     6.0300     0.3580 N.pl3 1 <1>  -0.8380 
 14 C        3.2360     6.7570     0.2420 C.ar  1 <1>   0.7200 
 15 N        4.3650     6.0720     0.1310 N.ar  1 <1>  -0.6200 
 16 N        3.1130     8.0830     0.2560 N.ar  1 <1>  -0.6200 
 17 C        5.4610     6.7770     0.0300 C.ar  1 <1>   0.4100 
 18 C        4.2300     8.7630     0.1530 C.ar  1 <1>   0.1600 
 19 N        6.5890     6.0200    -0.0790 N.pl3 1 <1>  -0.9000 
 20 C        5.4600     8.1650     0.0370 C.ar  1 <1>   0.0730 
 21 C        6.6570     8.9280    -0.0660 C.1   1 <1>   0.4840 
 22 N        7.6150     9.5420    -0.1340 N.1   1 <1>  -0.5570 
 23 H        2.1900     1.0510    -1.8290 H     1 <1>   0.1500 
 24 H        0.3100     3.1330    -1.5720 H     1 <1>   0.0800 
 25 H       -0.8690     2.7140    -0.3610 H     1 <1>   0.0800 
 26 H        2.9970    -1.6430    -0.9230 H     1 <1>   0.0800 
 27 H        3.4470    -1.6300     0.7660 H     1 <1>   0.0800 
 28 H        4.2820    -0.5900    -0.3640 H     1 <1>   0.0800 
 29 H        0.3370     4.0190     1.3300 H     1 <1>   0.0800 
 30 H       -0.3160     5.4540    -1.2450 H     1 <1>   0.0800 
 31 H        2.4340     4.2970    -0.7690 H     1 <1>   0.0800 
 32 H        2.6050     4.0690     0.9660 H     1 <1>   0.0800 
 33 H       -1.3380     5.4970     1.3950 H     1 <1>   0.4000 
 34 H        0.4260     7.0390     1.1680 H     1 <1>   0.0800 
 35 H        0.7130     7.3840    -0.5380 H     1 <1>   0.0800 
 36 H        4.1590     9.8380     0.1640 H     1 <1>   0.1500 
 37 H        6.4690     5.0160     0.0700 H     1 <1>   0.4000 
 38 H        7.5210     6.3850     0.1370 H     1 <1>   0.4000 
@<TRIPOS>BOND
  1   1   2  1   
  2   1   3  1   
  3   2   4  2   
  4   3   5  2   
  5   3   6  1   
  6   4   5  1   
  7   4   7  1   
  8   5  23  1   
  9   6   8  1   
 10   6  24  1   
 11   6  25  1   
 12   7  26  1   
 13   7  27  1   
 14   7  28  1   
 15   8   9  1   
 16   8  10  1   
 17   8  29  1   
 18   9  11  1   
 19   9  12  1   
 20   9  30  1   
 21  10  13  1   
 22  10  31  1   
 23  10  32  1   
 24  11  33  1   
 25  12  13  1   
 26  12  34  1   
 27  12  35  1   
 28  13  14  1   
 29  14  15  ar  
 30  14  16  ar  
 31  15  17  ar  
 32  16  18  ar  
 33  17  19  1   
 34  17  20  ar  
 35  18  20  ar  
 36  18  36  1   
 37  19  37  1   
 38  19  38  1   
 39  20  21  1   
 40  21  22  3   
@<TRIPOS>SUBSTRUCTURE
  1 ****  10 GROUP 4 **** **** 0

# MOE 2024.06 (io_trps.svl 2023.06)
