@<TRIPOS>MOLECULE
NONAME
48 50 1 0 0 
SMALL
USER_CHARGES


@<TRIPOS>ATOM
  1 O       -0.1850     0.8680     0.9450 O.3   1 <1>  -0.3630 
  2 C       -0.4340     1.6930    -0.0990 C.ar  1 <1>   0.0830 
  3 C       -0.9470     0.9180     2.1310 C.3   1 <1>   0.0400 
  4 C       -1.1790     2.8630     0.0050 C.ar  1 <1>  -0.1500 
  5 C        0.0970     1.3270    -1.3230 C.ar  1 <1>  -0.1500 
  6 C       -1.3910     3.6630    -1.1140 C.ar  1 <1>  -0.1430 
  7 C       -0.1190     2.1100    -2.4410 C.ar  1 <1>  -0.1500 
  8 C       -0.8620     3.2720    -2.3370 C.ar  1 <1>  -0.1500 
  9 C       -2.1640     4.9740    -1.0330 C.3   1 <1>   0.5660 
 10 N       -1.4550     5.9120    -0.1130 N.4   1 <1>  -0.9590 
 11 C       -3.6050     4.7350    -0.5640 C.3   1 <1>  -0.1600 
 12 C       -2.1780     7.2220    -0.0120 C.3   1 <1>   0.3430 
 13 C       -0.0180     6.1000    -0.5560 C.3   1 <1>   0.3430 
 14 C       -4.3850     6.0460    -0.4290 C.3   1 <1>  -0.1600 
 15 C       -3.6150     7.0170     0.4700 C.3   1 <1>  -0.1600 
 16 C        0.9270     6.7030     0.4960 C.3   1 <1>   0.0960 
 17 N        0.6950     8.1440     0.6670 N.pl3 1 <1>   0.3140 
 18 N        0.2790     8.9190    -0.3520 N.2   1 <1>  -0.7070 
 19 C        0.8230     8.8550     1.8020 C.2   1 <1>  -0.3020 
 20 C        0.1750    10.1080     0.1550 C.2   1 <1>   0.1080 
 21 C        0.4970    10.1300     1.5060 C.2   1 <1>  -0.1500 
 22 C       -0.2460    11.3100    -0.6590 C.3   1 <1>  -0.0590 
 23 H       -0.6660     0.0790     2.7420 H     1 <1>   0.0800 
 24 H       -1.9910     0.8510     1.8800 H     1 <1>   0.0800 
 25 H       -0.7290     1.8330     2.6510 H     1 <1>   0.0800 
 26 H       -1.5850     3.1450     0.9570 H     1 <1>   0.1500 
 27 H        0.6740     0.4210    -1.3950 H     1 <1>   0.1500 
 28 H        0.2910     1.8100    -3.3910 H     1 <1>   0.1500 
 29 H       -1.0180     3.8640    -3.2240 H     1 <1>   0.1500 
 30 H       -2.1980     5.4140    -2.0160 H     1 <1>   0.0800 
 31 H       -1.4700     5.4640     0.8070 H     1 <1>   0.4500 
 32 H       -3.6080     4.2180     0.3780 H     1 <1>   0.0800 
 33 H       -4.1010     4.1000    -1.2780 H     1 <1>   0.0800 
 34 H       -2.1820     7.7120    -0.9730 H     1 <1>   0.0800 
 35 H       -1.6770     7.8750     0.6840 H     1 <1>   0.0800 
 36 H        0.0140     6.7120    -1.4440 H     1 <1>   0.0800 
 37 H        0.3950     5.1410    -0.8200 H     1 <1>   0.0800 
 38 H       -5.3600     5.8540    -0.0110 H     1 <1>   0.0800 
 39 H       -4.5260     6.4880    -1.4020 H     1 <1>   0.0800 
 40 H       -4.1170     7.9690     0.4780 H     1 <1>   0.0800 
 41 H       -3.6030     6.6550     1.4840 H     1 <1>   0.0800 
 42 H        1.9410     6.5840     0.1610 H     1 <1>   0.0800 
 43 H        0.8200     6.2020     1.4390 H     1 <1>   0.0800 
 44 H        1.1390     8.4350     2.7400 H     1 <1>   0.1500 
 45 H        0.4870    10.9920     2.1510 H     1 <1>   0.1500 
 46 H        0.4450    11.4540    -1.4690 H     1 <1>   0.0800 
 47 H       -0.2540    12.1940    -0.0480 H     1 <1>   0.0800 
 48 H       -1.2280    11.1520    -1.0620 H     1 <1>   0.0800 
@<TRIPOS>BOND
  1   1   2  1   
  2   1   3  1   
  3   2   4  ar  
  4   2   5  ar  
  5   3  23  1   
  6   3  24  1   
  7   3  25  1   
  8   4   6  ar  
  9   4  26  1   
 10   5   7  ar  
 11   5  27  1   
 12   6   8  ar  
 13   6   9  1   
 14   7   8  ar  
 15   7  28  1   
 16   8  29  1   
 17   9  10  1   
 18   9  11  1   
 19   9  30  1   
 20  10  12  1   
 21  10  13  1   
 22  10  31  1   
 23  11  14  1   
 24  11  32  1   
 25  11  33  1   
 26  12  15  1   
 27  12  34  1   
 28  12  35  1   
 29  13  16  1   
 30  13  36  1   
 31  13  37  1   
 32  14  15  1   
 33  14  38  1   
 34  14  39  1   
 35  15  40  1   
 36  15  41  1   
 37  16  17  1   
 38  16  42  1   
 39  16  43  1   
 40  17  18  1   
 41  17  19  1   
 42  18  20  2   
 43  19  21  2   
 44  19  44  1   
 45  20  21  1   
 46  20  22  1   
 47  21  45  1   
 48  22  46  1   
 49  22  47  1   
 50  22  48  1   
@<TRIPOS>SUBSTRUCTURE
  1 ****  10 GROUP 4 **** **** 0

# MOE 2024.06 (io_trps.svl 2023.06)
