@<TRIPOS>MOLECULE
NONAME
57 59 1 0 0 
SMALL
USER_CHARGES


@<TRIPOS>ATOM
  1 O        1.9120     1.4800    -0.5570 O.2   1 <1>  -0.5700 
  2 C        1.2220     2.0270     0.2670 C.2   1 <1>   0.5690 
  3 N        0.2690     2.9420     0.0060 N.am  1 <1>  -0.6600 
  4 C        1.3580     1.8040     1.7470 C.3   1 <1>  -0.0990 
  5 C       -0.3610     3.4920     1.2150 C.3   1 <1>   0.1400 
  6 C       -0.1390     3.4130    -1.3540 C.3   1 <1>   0.2010 
  7 C        0.2050     2.6270     2.3520 C.3   1 <1>  -0.1600 
  8 C        0.1230     4.9040    -1.6020 C.2   1 <1>   0.5690 
  9 O       -0.8390     5.6370    -1.5380 O.2   1 <1>  -0.5700 
 10 N        1.3790     5.3930    -1.8930 N.am  1 <1>  -0.6600 
 11 C        2.6200     4.5520    -1.8600 C.3   1 <1>   0.1400 
 12 C        1.5580     6.8230    -2.2900 C.3   1 <1>   0.1400 
 13 C        3.2900     4.5920    -0.4780 C.3   1 <1>   0.1400 
 14 C        2.7650     7.5130    -1.6400 C.3   1 <1>  -0.1600 
 15 N        3.9540     5.9040    -0.1940 N.am  1 <1>  -0.6600 
 16 C        3.0410     7.0830    -0.1970 C.3   1 <1>   0.1400 
 17 C        5.3180     5.9810     0.0080 C.2   1 <1>   0.5690 
 18 O        6.0000     4.9810    -0.0540 O.2   1 <1>  -0.5700 
 19 C        6.0130     7.3330     0.3340 C.3   1 <1>   0.2610 
 20 O        5.8920     8.2460    -0.7220 O.3   1 <1>  -0.6800 
 21 C        7.5110     7.2410     0.7360 C.3   1 <1>  -0.0800 
 22 C        7.9790     8.5420     1.4210 C.3   1 <1>  -0.1600 
 23 C        8.4620     6.8960    -0.4350 C.3   1 <1>  -0.1600 
 24 C        9.4360     8.4390     1.8940 C.3   1 <1>  -0.1600 
 25 C        9.9150     6.7820     0.0440 C.3   1 <1>  -0.1600 
 26 C       10.3720     8.0720     0.7360 C.3   1 <1>  -0.1600 
 27 H        1.2680     0.7580     1.9780 H     1 <1>   0.0800 
 28 H        2.3130     2.1720     2.0720 H     1 <1>   0.0800 
 29 H       -0.0750     4.5250     1.3330 H     1 <1>   0.0800 
 30 H       -1.4330     3.4140     1.1550 H     1 <1>   0.0800 
 31 H        0.3640     2.8340    -2.1060 H     1 <1>   0.0800 
 32 H       -1.1920     3.2350    -1.4730 H     1 <1>   0.0800 
 33 H        0.5380     3.2370     3.1730 H     1 <1>   0.0800 
 34 H       -0.5680     1.9670     2.7070 H     1 <1>   0.0800 
 35 H        2.3810     3.5310    -2.0930 H     1 <1>   0.0800 
 36 H        3.3180     4.8880    -2.6060 H     1 <1>   0.0800 
 37 H        1.6500     6.8780    -3.3610 H     1 <1>   0.0800 
 38 H        0.6770     7.3800    -2.0190 H     1 <1>   0.0800 
 39 H        4.0080     3.7930    -0.4340 H     1 <1>   0.0800 
 40 H        2.5570     4.4010     0.2840 H     1 <1>   0.0800 
 41 H        2.5720     8.5710    -1.6480 H     1 <1>   0.0800 
 42 H        3.6430     7.3600    -2.2410 H     1 <1>   0.0800 
 43 H        2.1200     6.8380     0.3060 H     1 <1>   0.0800 
 44 H        3.4880     7.9030     0.3340 H     1 <1>   0.0800 
 45 H        5.4820     7.7540     1.1670 H     1 <1>   0.0800 
 46 H        6.4200     7.9180    -1.4740 H     1 <1>   0.4000 
 47 H        7.5900     6.4520     1.4650 H     1 <1>   0.0800 
 48 H        7.8890     9.3650     0.7330 H     1 <1>   0.0800 
 49 H        7.3510     8.7540     2.2690 H     1 <1>   0.0800 
 50 H        8.1760     5.9640    -0.8890 H     1 <1>   0.0800 
 51 H        8.4120     7.6610    -1.1900 H     1 <1>   0.0800 
 52 H        9.7430     9.3780     2.3210 H     1 <1>   0.0800 
 53 H        9.5100     7.6880     2.6620 H     1 <1>   0.0800 
 54 H       10.0000     5.9570     0.7300 H     1 <1>   0.0800 
 55 H       10.5570     6.5780    -0.7960 H     1 <1>   0.0800 
 56 H       11.3740     7.9460     1.1080 H     1 <1>   0.0800 
 57 H       10.3840     8.8760     0.0200 H     1 <1>   0.0800 
@<TRIPOS>BOND
  1   1   2  2   
  2   2   3  am  
  3   2   4  1   
  4   3   5  1   
  5   3   6  1   
  6   4   7  1   
  7   4  27  1   
  8   4  28  1   
  9   5   7  1   
 10   5  29  1   
 11   5  30  1   
 12   6   8  1   
 13   6  31  1   
 14   6  32  1   
 15   7  33  1   
 16   7  34  1   
 17   8   9  2   
 18   8  10  am  
 19  10  11  1   
 20  10  12  1   
 21  11  13  1   
 22  11  35  1   
 23  11  36  1   
 24  12  14  1   
 25  12  37  1   
 26  12  38  1   
 27  13  15  1   
 28  13  39  1   
 29  13  40  1   
 30  14  16  1   
 31  14  41  1   
 32  14  42  1   
 33  15  16  1   
 34  15  17  am  
 35  16  43  1   
 36  16  44  1   
 37  17  18  2   
 38  17  19  1   
 39  19  20  1   
 40  19  21  1   
 41  19  45  1   
 42  20  46  1   
 43  21  22  1   
 44  21  23  1   
 45  21  47  1   
 46  22  24  1   
 47  22  48  1   
 48  22  49  1   
 49  23  25  1   
 50  23  50  1   
 51  23  51  1   
 52  24  26  1   
 53  24  52  1   
 54  24  53  1   
 55  25  26  1   
 56  25  54  1   
 57  25  55  1   
 58  26  56  1   
 59  26  57  1   
@<TRIPOS>SUBSTRUCTURE
  1 ****  15 GROUP 4 **** **** 0

# MOE 2024.06 (io_trps.svl 2023.06)
