@<TRIPOS>MOLECULE
NONAME
45 46 1 0 0 
SMALL
USER_CHARGES


@<TRIPOS>ATOM
  1 S       -0.4000     0.5740    -0.1850 S.o2  1 <1>   1.0900 
  2 O       -1.1530     0.3400    -1.3960 O.2   1 <1>  -0.6500 
  3 O       -0.9090     0.0810     1.0740 O.2   1 <1>  -0.6500 
  4 C       -0.1620     2.3340    -0.0360 C.3   1 <1>  -0.0550 
  5 C        1.2540    -0.0980    -0.4270 C.3   1 <1>  -0.0550 
  6 C        0.1640     2.9550    -1.3880 C.3   1 <1>   0.2090 
  7 C        2.2200     0.0880     0.7580 C.3   1 <1>  -0.2400 
  8 N        0.7180     4.3140    -1.1770 N.pl3 1 <1>  -0.8690 
  9 C        2.0710     4.5270    -1.0370 C.ar  1 <1>   0.4100 
 10 N        2.8210     3.4900    -0.6850 N.ar  1 <1>  -0.6200 
 11 C        2.5820     5.7970    -1.2630 C.ar  1 <1>  -0.1500 
 12 C        4.1160     3.7310    -0.5730 C.ar  1 <1>   0.1600 
 13 C        3.9320     6.0560    -1.1340 C.ar  1 <1>   0.0860 
 14 C        4.7090     4.9590    -0.7820 C.ar  1 <1>  -0.1500 
 15 C        4.4880     7.3740    -1.3680 C.2   1 <1>   0.5440 
 16 O        4.2210     7.9390    -2.4110 O.2   1 <1>  -0.5700 
 17 N        5.2990     8.0030    -0.4450 N.am  1 <1>  -0.6600 
 18 C        6.0390     9.2530    -0.7820 C.3   1 <1>   0.1400 
 19 C        5.3590     7.6310     0.9970 C.3   1 <1>   0.1400 
 20 C        5.5000    10.4170     0.0550 C.3   1 <1>  -0.1600 
 21 C        4.8200     8.7840     1.8520 C.3   1 <1>  -0.1600 
 22 C        5.5500    10.1020     1.5570 C.3   1 <1>  -0.1600 
 23 H        0.6280     2.5400     0.6580 H     1 <1>   0.0800 
 24 H       -1.0600     2.7880     0.3350 H     1 <1>   0.0800 
 25 H        1.6970     0.3370    -1.3020 H     1 <1>   0.0800 
 26 H        1.1630    -1.1520    -0.6140 H     1 <1>   0.0800 
 27 H       -0.7280     3.0110    -1.9910 H     1 <1>   0.0800 
 28 H        0.8840     2.3570    -1.9200 H     1 <1>   0.0800 
 29 H        2.4120     1.1310     0.9350 H     1 <1>   0.0800 
 30 H        3.1550    -0.3990     0.5480 H     1 <1>   0.0800 
 31 H        1.7990    -0.3440     1.6500 H     1 <1>   0.0800 
 32 H        0.2140     5.0480    -1.6790 H     1 <1>   0.4000 
 33 H        1.9200     6.5940    -1.5460 H     1 <1>   0.1500 
 34 H        4.7410     2.8980    -0.2990 H     1 <1>   0.1500 
 35 H        5.7720     5.0750    -0.6790 H     1 <1>   0.1500 
 36 H        5.9420     9.4840    -1.8290 H     1 <1>   0.0800 
 37 H        7.0850     9.1060    -0.5730 H     1 <1>   0.0800 
 38 H        6.3810     7.4270     1.2640 H     1 <1>   0.0800 
 39 H        4.7760     6.7500     1.1950 H     1 <1>   0.0800 
 40 H        4.4850    10.6130    -0.2440 H     1 <1>   0.0800 
 41 H        6.0780    11.3000    -0.1500 H     1 <1>   0.0800 
 42 H        4.9290     8.5370     2.8930 H     1 <1>   0.0800 
 43 H        3.7690     8.9010     1.6510 H     1 <1>   0.0800 
 44 H        5.0920    10.9040     2.1120 H     1 <1>   0.0800 
 45 H        6.5760    10.0210     1.8710 H     1 <1>   0.0800 
@<TRIPOS>BOND
  1   1   2  2   
  2   1   3  2   
  3   1   4  1   
  4   1   5  1   
  5   4   6  1   
  6   4  23  1   
  7   4  24  1   
  8   5   7  1   
  9   5  25  1   
 10   5  26  1   
 11   6   8  1   
 12   6  27  1   
 13   6  28  1   
 14   7  29  1   
 15   7  30  1   
 16   7  31  1   
 17   8   9  1   
 18   8  32  1   
 19   9  10  ar  
 20   9  11  ar  
 21  10  12  ar  
 22  11  13  ar  
 23  11  33  1   
 24  12  14  ar  
 25  12  34  1   
 26  13  14  ar  
 27  13  15  1   
 28  14  35  1   
 29  15  16  2   
 30  15  17  am  
 31  17  18  1   
 32  17  19  1   
 33  18  20  1   
 34  18  36  1   
 35  18  37  1   
 36  19  21  1   
 37  19  38  1   
 38  19  39  1   
 39  20  22  1   
 40  20  40  1   
 41  20  41  1   
 42  21  22  1   
 43  21  42  1   
 44  21  43  1   
 45  22  44  1   
 46  22  45  1   
@<TRIPOS>SUBSTRUCTURE
  1 ****   9 GROUP 4 **** **** 0

# MOE 2024.06 (io_trps.svl 2023.06)
