@<TRIPOS>MOLECULE
Untitled Document
30 31 1 0 0 
SMALL
USER_CHARGES


@<TRIPOS>ATOM
  1 F        0.0070    -1.4630     2.1840 F     1 <1>  -0.1500 
  2 C        0.8710    -1.9750     1.3480 C.2   1 <1>   0.0110 
  3 C        1.7970    -1.3130     0.6680 C.2   1 <1>  -0.2760 
  4 C        0.8210    -3.4670     1.1170 C.3   1 <1>   0.3580 
  5 C        2.5920    -2.2730    -0.1870 C.3   1 <1>   0.3380 
  6 C        2.0870     0.1720     0.6300 C.3   1 <1>   0.2580 
  7 N       -0.4920    -3.9060     0.5430 N.am  1 <1>  -0.4690 
  8 C        2.0310    -3.6890     0.1690 C.3   1 <1>   0.2000 
  9 O        3.9300    -2.1460     0.1710 O.3   1 <1>  -0.6800 
 10 O        3.3350     0.3710     1.1900 O.3   1 <1>  -0.6800 
 11 C       -0.9480    -3.4220    -0.6800 C.2   1 <1>   0.8410 
 12 C       -1.2780    -4.7690     1.2670 C.2   1 <1>  -0.0410 
 13 O        3.0060    -4.4470     0.8240 O.3   1 <1>  -0.6800 
 14 O       -0.2380    -2.6840    -1.3500 O.2   1 <1>  -0.5700 
 15 N       -2.1630    -3.7640    -1.1790 N.2   1 <1>  -0.6610 
 16 C       -2.4820    -5.1090     0.7620 C.2   1 <1>  -0.1360 
 17 C       -2.8860    -4.5690    -0.4830 C.2   1 <1>   0.4860 
 18 N       -4.0860    -4.8870    -1.0040 N.pl3 1 <1>  -0.8500 
 19 H        0.9980    -3.9720     2.0500 H     1 <1>   0.0800 
 20 H        2.4740    -2.0470    -1.2330 H     1 <1>   0.0800 
 21 H        1.3630     0.7280     1.2020 H     1 <1>   0.0800 
 22 H        2.1010     0.5380    -0.3830 H     1 <1>   0.0800 
 23 H        1.7400    -4.2190    -0.7200 H     1 <1>   0.0800 
 24 H        4.0790    -1.1950     0.3890 H     1 <1>   0.4000 
 25 H        3.2980     0.1370     2.1390 H     1 <1>   0.4000 
 26 H       -0.9140    -5.1430     2.2100 H     1 <1>   0.1500 
 27 H        3.8370    -3.9140     0.7720 H     1 <1>   0.4000 
 28 H       -3.1500    -5.7770     1.2690 H     1 <1>   0.1500 
 29 H       -4.3470    -4.4710    -1.9000 H     1 <1>   0.4000 
 30 H       -4.7740    -5.4930    -0.5600 H     1 <1>   0.4000 
@<TRIPOS>BOND
  1   1   2  1   
  2   2   3  2   
  3   2   4  1   
  4   3   5  1   
  5   3   6  1   
  6   4   7  1   
  7   4   8  1   
  8   4  19  1   
  9   5   8  1   
 10   5   9  1   
 11   5  20  1   
 12   6  10  1   
 13   6  21  1   
 14   6  22  1   
 15   7  11  am  
 16   7  12  1   
 17   8  13  1   
 18   8  23  1   
 19   9  24  1   
 20  10  25  1   
 21  11  14  2   
 22  11  15  1   
 23  12  16  2   
 24  12  26  1   
 25  13  27  1   
 26  15  17  2   
 27  16  17  1   
 28  16  28  1   
 29  17  18  1   
 30  18  29  1   
 31  18  30  1   
@<TRIPOS>SUBSTRUCTURE
  1 ****   4 GROUP 4 **** **** 0

# MOE 2024.06 (io_trps.svl 2023.06)
