@<TRIPOS>MOLECULE
NONAME
56 59 1 0 0 
SMALL
USER_CHARGES


@<TRIPOS>ATOM
  1 O       -1.8450    -0.1470     2.2020 O.2   1 <1>  -0.5700 
  2 C       -1.8940     0.3970     1.1180 C.2   1 <1>   0.5440 
  3 N       -2.2470    -0.3290     0.0030 N.am  1 <1>  -0.6600 
  4 C       -1.6020     1.8050     1.0280 C.ar  1 <1>   0.0860 
  5 C       -2.5640    -1.7970     0.0910 C.3   1 <1>   0.3640 
  6 C       -2.5630     0.3370    -1.2980 C.3   1 <1>   0.1400 
  7 C       -0.4190     2.2940     0.4650 C.ar  1 <1>   0.0000 
  8 C       -2.4790     2.7770     1.4740 C.ar  1 <1>  -0.1500 
  9 C       -1.3100    -2.6160    -0.2620 C.ar  1 <1>  -0.1440 
 10 C       -3.8260    -2.1420    -0.7540 C.3   1 <1>   0.2000 
 11 C       -2.8480    -0.6700    -2.4200 C.3   1 <1>   0.1200 
 12 C       -0.2560     3.6510     0.3540 C.ar  1 <1>   0.3970 
 13 C        0.7760     1.7960    -0.0850 C.2   1 <1>   0.1080 
 14 C       -2.1940     4.1350     1.3200 C.ar  1 <1>   0.1660 
 15 C       -0.2580    -2.6180     0.6460 C.ar  1 <1>  -0.1500 
 16 C       -1.1720    -3.3650    -1.4280 C.ar  1 <1>  -0.1500 
 17 O       -3.8360    -1.6010    -2.0640 O.3   1 <1>  -0.5600 
 18 C       -5.1160    -1.6700    -0.0680 C.3   1 <1>   0.1200 
 19 O        0.9080     3.8700    -0.2320 O.3   1 <1>  -0.0190 
 20 N       -1.1030     4.6000     0.7550 N.ar  1 <1>  -0.5670 
 21 N        1.5310     2.7440    -0.4960 N.2   1 <1>  -0.4100 
 22 C        1.1560     0.3310    -0.1710 C.3   1 <1>  -0.0590 
 23 C       -3.1810     5.1710     1.8180 C.3   1 <1>  -0.0970 
 24 C        0.9110    -3.3150     0.3950 C.ar  1 <1>   0.0830 
 25 C       -0.0050    -4.0620    -1.6920 C.ar  1 <1>  -0.1500 
 26 O       -5.3670    -2.4240     1.0740 O.3   1 <1>  -0.6800 
 27 O        1.8810    -3.2700     1.3390 O.3   1 <1>  -0.3630 
 28 C        1.0510    -4.0270    -0.7990 C.ar  1 <1>   0.0830 
 29 C        2.1050    -4.4700     2.0460 C.3   1 <1>   0.0400 
 30 O        2.1790    -4.6990    -1.1380 O.3   1 <1>  -0.3630 
 31 C        3.3530    -3.9320    -1.2960 C.3   1 <1>   0.0400 
 32 H       -2.8040    -2.0420     1.1120 H     1 <1>   0.0800 
 33 H       -3.4240     0.9700    -1.1720 H     1 <1>   0.0800 
 34 H       -1.7350     0.9550    -1.5970 H     1 <1>   0.0800 
 35 H       -3.3970     2.4720     1.9450 H     1 <1>   0.1500 
 36 H       -3.8900    -3.2090    -0.8650 H     1 <1>   0.0800 
 37 H       -1.9490    -1.1980    -2.6790 H     1 <1>   0.0800 
 38 H       -3.1930    -0.1540    -3.2980 H     1 <1>   0.0800 
 39 H       -0.3380    -2.0750     1.5710 H     1 <1>   0.1500 
 40 H       -1.9640    -3.4210    -2.1540 H     1 <1>   0.1500 
 41 H       -5.9580    -1.7810    -0.7300 H     1 <1>   0.0800 
 42 H       -5.0260    -0.6410     0.2320 H     1 <1>   0.0800 
 43 H        1.1060    -0.1170     0.8040 H     1 <1>   0.0800 
 44 H        2.1600     0.2300    -0.5410 H     1 <1>   0.0800 
 45 H        0.4920    -0.1900    -0.8350 H     1 <1>   0.0800 
 46 H       -4.0350     4.7100     2.2790 H     1 <1>   0.0800 
 47 H       -3.5140     5.7770     0.9960 H     1 <1>   0.0800 
 48 H       -2.7000     5.8060     2.5400 H     1 <1>   0.0800 
 49 H        0.0950    -4.6330    -2.5970 H     1 <1>   0.1500 
 50 H       -5.6990    -3.3150     0.8430 H     1 <1>   0.4000 
 51 H        2.8520    -4.2850     2.7950 H     1 <1>   0.0800 
 52 H        2.4460    -5.2260     1.3630 H     1 <1>   0.0800 
 53 H        1.1830    -4.7740     2.5100 H     1 <1>   0.0800 
 54 H        4.1070    -4.5600    -1.7350 H     1 <1>   0.0800 
 55 H        3.6850    -3.5840    -0.3350 H     1 <1>   0.0800 
 56 H        3.1420    -3.1000    -1.9440 H     1 <1>   0.0800 
@<TRIPOS>BOND
  1   1   2  2   
  2   2   3  am  
  3   2   4  1   
  4   3   5  1   
  5   3   6  1   
  6   4   7  ar  
  7   4   8  ar  
  8   5   9  1   
  9   5  10  1   
 10   5  32  1   
 11   6  11  1   
 12   6  33  1   
 13   6  34  1   
 14   7  12  ar  
 15   7  13  1   
 16   8  14  ar  
 17   8  35  1   
 18   9  15  ar  
 19   9  16  ar  
 20  10  17  1   
 21  10  18  1   
 22  10  36  1   
 23  11  17  1   
 24  11  37  1   
 25  11  38  1   
 26  12  19  1   
 27  12  20  ar  
 28  13  21  2   
 29  13  22  1   
 30  14  20  ar  
 31  14  23  1   
 32  15  24  ar  
 33  15  39  1   
 34  16  25  ar  
 35  16  40  1   
 36  18  26  1   
 37  18  41  1   
 38  18  42  1   
 39  19  21  1   
 40  22  43  1   
 41  22  44  1   
 42  22  45  1   
 43  23  46  1   
 44  23  47  1   
 45  23  48  1   
 46  24  27  1   
 47  24  28  ar  
 48  25  28  ar  
 49  25  49  1   
 50  26  50  1   
 51  27  29  1   
 52  28  30  1   
 53  29  51  1   
 54  29  52  1   
 55  29  53  1   
 56  30  31  1   
 57  31  54  1   
 58  31  55  1   
 59  31  56  1   
@<TRIPOS>SUBSTRUCTURE
  1 ****   3 GROUP 4 **** **** 0

# MOE 2024.06 (io_trps.svl 2023.06)
