@<TRIPOS>MOLECULE
NONAME
52 53 1 0 0 
SMALL
USER_CHARGES


@<TRIPOS>ATOM
  1 O        0.4530     1.1230    -0.0410 O.2   1 <1>  -0.5700 
  2 C        0.3670     2.3200    -0.1470 C.2   1 <1>   0.5690 
  3 N       -0.2780     3.0520     0.7860 N.am  1 <1>  -0.7300 
  4 C        0.9530     3.0300    -1.3680 C.3   1 <1>   0.1810 
  5 C       -0.5130     4.5140     0.6800 C.3   1 <1>   0.3640 
  6 O        1.1490     4.4120    -1.1530 O.3   1 <1>  -0.5600 
  7 C       -2.0130     4.7560     0.8380 C.ar  1 <1>  -0.1440 
  8 C        0.0100     5.1090    -0.6590 C.3   1 <1>   0.2610 
  9 C       -2.9410     4.0110     0.1190 C.ar  1 <1>  -0.1500 
 10 C       -2.4710     5.7350     1.7090 C.ar  1 <1>  -0.1500 
 11 C        0.3460     6.6030    -0.5360 C.2   1 <1>   0.5690 
 12 C       -4.2980     4.2430     0.2680 C.ar  1 <1>  -0.1500 
 13 C       -3.8270     5.9680     1.8580 C.ar  1 <1>  -0.1500 
 14 O       -0.0850     7.2740     0.3750 O.2   1 <1>  -0.5700 
 15 N        1.1600     7.1640    -1.4740 N.am  1 <1>  -0.7300 
 16 C       -4.7420     5.2220     1.1380 C.ar  1 <1>  -0.1500 
 17 C        1.4730     8.6000    -1.5740 C.3   1 <1>   0.1400 
 18 C        2.5890     8.9370    -0.5860 C.3   1 <1>  -0.1600 
 19 C        2.7540    10.4510    -0.4670 C.3   1 <1>   0.3430 
 20 N        3.7550    10.7800     0.5900 N.4   1 <1>  -0.9590 
 21 C        3.1560    10.6430     1.9480 C.3   1 <1>   0.3430 
 22 C        4.3350    12.1370     0.3900 C.3   1 <1>   0.3430 
 23 C        4.2650    10.4550     2.9770 C.3   1 <1>  -0.2400 
 24 C        5.3460    12.0960    -0.7500 C.3   1 <1>  -0.2400 
 25 H       -0.7190     2.5690     1.5700 H     1 <1>   0.3700 
 26 H        0.2950     2.9040    -2.2070 H     1 <1>   0.0800 
 27 H        1.9080     2.5960    -1.6050 H     1 <1>   0.0800 
 28 H        0.0090     4.9870     1.4950 H     1 <1>   0.0800 
 29 H       -0.7620     5.0160    -1.4010 H     1 <1>   0.0800 
 30 H       -2.6170     3.2410    -0.5590 H     1 <1>   0.1500 
 31 H       -1.7740     6.3300     2.2740 H     1 <1>   0.1500 
 32 H       -5.0090     3.6600    -0.2920 H     1 <1>   0.1500 
 33 H       -4.1700     6.7310     2.5350 H     1 <1>   0.1500 
 34 H        1.6130     6.5280    -2.1410 H     1 <1>   0.3700 
 35 H       -5.7960     5.4030     1.2550 H     1 <1>   0.1500 
 36 H        1.7630     8.8380    -2.5840 H     1 <1>   0.0800 
 37 H        0.5830     9.1600    -1.3330 H     1 <1>   0.0800 
 38 H        3.5070     8.4920    -0.9260 H     1 <1>   0.0800 
 39 H        2.3270     8.5230     0.3710 H     1 <1>   0.0800 
 40 H        1.8060    10.9060    -0.2260 H     1 <1>   0.0800 
 41 H        3.0780    10.8380    -1.4190 H     1 <1>   0.0800 
 42 H        4.5230    10.0990     0.5220 H     1 <1>   0.4500 
 43 H        2.5660    11.5150     2.1870 H     1 <1>   0.0800 
 44 H        2.5060     9.7830     1.9820 H     1 <1>   0.0800 
 45 H        3.5550    12.8500     0.1750 H     1 <1>   0.0800 
 46 H        4.8410    12.4560     1.2860 H     1 <1>   0.0800 
 47 H        4.8990    11.3200     3.0420 H     1 <1>   0.0800 
 48 H        4.8560     9.5870     2.7460 H     1 <1>   0.0800 
 49 H        3.8210    10.3020     3.9450 H     1 <1>   0.0800 
 50 H        4.8800    11.8600    -1.6880 H     1 <1>   0.0800 
 51 H        6.1260    11.3860    -0.5420 H     1 <1>   0.0800 
 52 H        5.8020    13.0660    -0.8480 H     1 <1>   0.0800 
@<TRIPOS>BOND
  1   1   2  2   
  2   2   3  am  
  3   2   4  1   
  4   3   5  1   
  5   3  25  1   
  6   4   6  1   
  7   4  26  1   
  8   4  27  1   
  9   5   7  1   
 10   5   8  1   
 11   5  28  1   
 12   6   8  1   
 13   7   9  ar  
 14   7  10  ar  
 15   8  11  1   
 16   8  29  1   
 17   9  12  ar  
 18   9  30  1   
 19  10  13  ar  
 20  10  31  1   
 21  11  14  2   
 22  11  15  am  
 23  12  16  ar  
 24  12  32  1   
 25  13  16  ar  
 26  13  33  1   
 27  15  17  1   
 28  15  34  1   
 29  16  35  1   
 30  17  18  1   
 31  17  36  1   
 32  17  37  1   
 33  18  19  1   
 34  18  38  1   
 35  18  39  1   
 36  19  20  1   
 37  19  40  1   
 38  19  41  1   
 39  20  21  1   
 40  20  22  1   
 41  20  42  1   
 42  21  23  1   
 43  21  43  1   
 44  21  44  1   
 45  22  24  1   
 46  22  45  1   
 47  22  46  1   
 48  23  47  1   
 49  23  48  1   
 50  23  49  1   
 51  24  50  1   
 52  24  51  1   
 53  24  52  1   
@<TRIPOS>SUBSTRUCTURE
  1 ****  11 GROUP 4 **** **** 0

# MOE 2024.06 (io_trps.svl 2023.06)
