@<TRIPOS>MOLECULE
NONAME
40 43 1 0 0 
SMALL
USER_CHARGES


@<TRIPOS>ATOM
  1 S       -0.1360     0.0340     1.0930 S.3   1 <1>  -0.0800 
  2 C        1.0160    -1.0450     0.2770 C.ar  1 <1>   0.0400 
  3 C        0.9860     1.3880     0.9990 C.2   1 <1>  -0.1100 
  4 C        0.9040    -2.3900    -0.0590 C.ar  1 <1>   0.4100 
  5 C        2.1670    -0.3570    -0.0120 C.ar  1 <1>   0.2560 
  6 C        2.1330     1.0220     0.3990 C.2   1 <1>  -0.1810 
  7 N        1.9270    -2.9870    -0.6440 N.ar  1 <1>  -0.6200 
  8 N       -0.2250    -3.1580     0.1880 N.pl3 1 <1>  -0.8380 
  9 N        3.1900    -0.9590    -0.6110 N.ar  1 <1>  -0.5660 
 10 C        3.3220     1.9330     0.1500 C.3   1 <1>  -0.0590 
 11 C        2.9970    -2.2340    -0.8800 C.ar  1 <1>   0.4700 
 12 C       -1.5930    -2.6310    -0.0570 C.3   1 <1>   0.2090 
 13 C       -0.2160    -4.6340    -0.0080 C.3   1 <1>   0.2090 
 14 C       -2.4370    -3.8460    -0.4500 C.3   1 <1>   0.2000 
 15 C       -1.6810    -5.0570     0.0860 C.3   1 <1>  -0.0800 
 16 O       -3.7080    -3.8000     0.1070 O.3   1 <1>  -0.6800 
 17 C       -2.0160    -6.3500    -0.6770 C.3   1 <1>  -0.0170 
 18 C       -1.2920    -7.5530    -0.0930 C.ar  1 <1>   0.1670 
 19 N       -0.0450    -7.7440    -0.4910 N.ar  1 <1>  -0.6200 
 20 C       -1.9460    -8.3850     0.8140 C.ar  1 <1>   0.1600 
 21 C        0.5000    -8.8090     0.0730 C.ar  1 <1>   0.1600 
 22 N       -1.4030    -9.4490     1.3810 N.ar  1 <1>  -0.6200 
 23 C       -0.1570    -9.6330     0.9790 C.ar  1 <1>   0.1600 
 24 H        0.6570     2.3250     1.4120 H     1 <1>   0.1500 
 25 H        4.1920     1.5430     0.6490 H     1 <1>   0.0800 
 26 H        3.1250     2.9230     0.5190 H     1 <1>   0.0800 
 27 H        3.5260     1.9890    -0.9040 H     1 <1>   0.0800 
 28 H        3.8170    -2.7410    -1.3600 H     1 <1>   0.1500 
 29 H       -1.9660    -2.1880     0.8490 H     1 <1>   0.0800 
 30 H       -1.5820    -1.9030    -0.8500 H     1 <1>   0.0800 
 31 H        0.1820    -4.8680    -0.9820 H     1 <1>   0.0800 
 32 H        0.3860    -5.1160     0.7440 H     1 <1>   0.0800 
 33 H       -2.5340    -3.8870    -1.5220 H     1 <1>   0.0800 
 34 H       -1.9040    -5.1850     1.1300 H     1 <1>   0.0800 
 35 H       -3.6450    -3.7270     1.0800 H     1 <1>   0.4000 
 36 H       -1.7450    -6.2470    -1.7130 H     1 <1>   0.0800 
 37 H       -3.0780    -6.5170    -0.6370 H     1 <1>   0.0800 
 38 H       -2.9620    -8.1600     1.0850 H     1 <1>   0.1500 
 39 H        1.5150    -9.0410    -0.1940 H     1 <1>   0.1500 
 40 H        0.3710   -10.4780     1.3850 H     1 <1>   0.1500 
@<TRIPOS>BOND
  1   1   2  1   
  2   1   3  1   
  3   2   4  ar  
  4   2   5  ar  
  5   3   6  2   
  6   3  24  1   
  7   4   7  ar  
  8   4   8  1   
  9   5   6  1   
 10   5   9  ar  
 11   6  10  1   
 12   7  11  ar  
 13   8  12  1   
 14   8  13  1   
 15   9  11  ar  
 16  10  25  1   
 17  10  26  1   
 18  10  27  1   
 19  11  28  1   
 20  12  14  1   
 21  12  29  1   
 22  12  30  1   
 23  13  15  1   
 24  13  31  1   
 25  13  32  1   
 26  14  15  1   
 27  14  16  1   
 28  14  33  1   
 29  15  17  1   
 30  15  34  1   
 31  16  35  1   
 32  17  18  1   
 33  17  36  1   
 34  17  37  1   
 35  18  19  ar  
 36  18  20  ar  
 37  19  21  ar  
 38  20  22  ar  
 39  20  38  1   
 40  21  23  ar  
 41  21  39  1   
 42  22  23  ar  
 43  23  40  1   
@<TRIPOS>SUBSTRUCTURE
  1 ****   8 GROUP 4 **** **** 0

# MOE 2024.06 (io_trps.svl 2023.06)
