@<TRIPOS>MOLECULE
NONAME
46 48 1 0 0 
SMALL
USER_CHARGES


@<TRIPOS>ATOM
  1 F        0.2360     1.2070    -0.6050 F     1 <1>  -0.1900 
  2 C        1.0410     2.2050    -0.3570 C.ar  1 <1>   0.1900 
  3 C        1.3740     3.0640    -1.3870 C.ar  1 <1>  -0.1500 
  4 C        1.5310     2.3640     0.9250 C.ar  1 <1>  -0.1500 
  5 C        2.2260     4.1230    -1.1180 C.ar  1 <1>  -0.1500 
  6 C        2.3820     3.4260     1.1810 C.ar  1 <1>  -0.1500 
  7 C        2.7310     4.3190     0.1680 C.ar  1 <1>  -0.0230 
  8 N        3.5920     5.4150     0.4510 N.pl3 1 <1>   0.5930 
  9 N        4.8660     5.2450     0.8700 N.2   1 <1>  -0.7070 
 10 C        3.2960     6.7360     0.3920 C.2   1 <1>  -0.3320 
 11 C        5.3320     6.4330     1.0600 C.2   1 <1>   0.1080 
 12 C        4.4040     7.4370     0.7680 C.2   1 <1>  -0.0860 
 13 C        1.9260     7.2830     0.0080 C.3   1 <1>  -0.0600 
 14 C        6.7440     6.6760     1.5510 C.3   1 <1>  -0.0590 
 15 C        4.6490     8.8560     0.8770 C.2   1 <1>   0.7160 
 16 O        5.0380     9.3240     1.9310 O.2   1 <1>  -0.5700 
 17 N        4.4700     9.7050    -0.1990 N.am  1 <1>  -0.6600 
 18 C        4.4880    11.1860    -0.0210 C.3   1 <1>   0.1400 
 19 C        4.2990     9.2300    -1.6010 C.3   1 <1>   0.0600 
 20 C        5.9200    11.7260    -0.1020 C.3   1 <1>   0.0210 
 21 C        5.9670    13.2410    -0.0500 C.2   1 <1>   0.3350 
 22 N        4.9650    14.0230     0.0420 N.2   1 <1>  -0.4100 
 23 N        7.1270    13.8780    -0.1100 N.2   1 <1>  -0.5650 
 24 O        5.4260    15.2360     0.0530 O.3   1 <1>  -0.0190 
 25 C        6.7220    15.0800    -0.0400 C.2   1 <1>   0.2980 
 26 C        7.6050    16.3070    -0.0560 C.3   1 <1>  -0.0600 
 27 H        0.9770     2.9020    -2.3730 H     1 <1>   0.1500 
 28 H        1.2550     1.6710     1.6990 H     1 <1>   0.1500 
 29 H        2.5040     4.7970    -1.9090 H     1 <1>   0.1500 
 30 H        2.7840     3.5690     2.1700 H     1 <1>   0.1500 
 31 H        1.1620     6.8220     0.6090 H     1 <1>   0.0800 
 32 H        1.7190     7.0860    -1.0290 H     1 <1>   0.0800 
 33 H        1.8850     8.3450     0.1700 H     1 <1>   0.0800 
 34 H        7.2820     5.7470     1.5990 H     1 <1>   0.0800 
 35 H        6.7140     7.1130     2.5330 H     1 <1>   0.0800 
 36 H        7.2570     7.3430     0.8840 H     1 <1>   0.0800 
 37 H        4.0670    11.4400     0.9380 H     1 <1>   0.0800 
 38 H        3.8780    11.6460    -0.7800 H     1 <1>   0.0800 
 39 H        4.5410     8.1850    -1.6870 H     1 <1>   0.0800 
 40 H        4.9510     9.7810    -2.2570 H     1 <1>   0.0800 
 41 H        3.2810     9.3810    -1.9130 H     1 <1>   0.0800 
 42 H        6.3770    11.4090    -1.0200 H     1 <1>   0.0800 
 43 H        6.4940    11.3400     0.7210 H     1 <1>   0.0800 
 44 H        8.6360    16.0150    -0.1350 H     1 <1>   0.0800 
 45 H        7.4660    16.8640     0.8520 H     1 <1>   0.0800 
 46 H        7.3490    16.9260    -0.8960 H     1 <1>   0.0800 
@<TRIPOS>BOND
  1   1   2  1   
  2   2   3  ar  
  3   2   4  ar  
  4   3   5  ar  
  5   3  27  1   
  6   4   6  ar  
  7   4  28  1   
  8   5   7  ar  
  9   5  29  1   
 10   6   7  ar  
 11   6  30  1   
 12   7   8  1   
 13   8   9  1   
 14   8  10  1   
 15   9  11  2   
 16  10  12  2   
 17  10  13  1   
 18  11  12  1   
 19  11  14  1   
 20  12  15  1   
 21  13  31  1   
 22  13  32  1   
 23  13  33  1   
 24  14  34  1   
 25  14  35  1   
 26  14  36  1   
 27  15  16  2   
 28  15  17  am  
 29  17  18  1   
 30  17  19  1   
 31  18  20  1   
 32  18  37  1   
 33  18  38  1   
 34  19  39  1   
 35  19  40  1   
 36  19  41  1   
 37  20  21  1   
 38  20  42  1   
 39  20  43  1   
 40  21  22  2   
 41  21  23  1   
 42  22  24  1   
 43  23  25  2   
 44  24  25  1   
 45  25  26  1   
 46  26  44  1   
 47  26  45  1   
 48  26  46  1   
@<TRIPOS>SUBSTRUCTURE
  1 ****  12 GROUP 4 **** **** 0

# MOE 2024.06 (io_trps.svl 2023.06)
