@<TRIPOS>MOLECULE
NONAME
50 53 1 0 0 
SMALL
USER_CHARGES


@<TRIPOS>ATOM
  1 S        0.2800     0.3520    -1.7770 S.3   1 <1>  -0.0800 
  2 C        0.9480    -0.9260    -0.7850 C.2   1 <1>  -0.1400 
  3 C        1.7370     1.3080    -1.5680 C.2   1 <1>  -0.1100 
  4 C        2.1820    -0.6200    -0.3560 C.2   1 <1>  -0.1810 
  5 C        0.1490    -2.1810    -0.5120 C.3   1 <1>   0.0200 
  6 C        2.6400     0.6710    -0.7920 C.2   1 <1>  -0.1810 
  7 C        2.9770    -1.5840     0.5140 C.3   1 <1>   0.0210 
  8 C        0.8230    -2.9700     0.6260 C.3   1 <1>  -0.1600 
  9 C        4.0110     1.1990    -0.3950 C.3   1 <1>   0.3900 
 10 C        2.3580    -2.9970     0.4800 C.3   1 <1>  -0.1600 
 11 N        4.0460     2.6700    -0.5310 N.pl3 1 <1>  -0.8690 
 12 C        5.1080     3.3960    -0.0540 C.ar  1 <1>   0.4100 
 13 N        6.2130     2.7320     0.2550 N.ar  1 <1>  -0.6200 
 14 C        4.9810     4.7710     0.0810 C.ar  1 <1>  -0.1500 
 15 C        7.2120     3.4610     0.7200 C.ar  1 <1>   0.1600 
 16 C        6.0270     5.5400     0.5520 C.ar  1 <1>   0.0860 
 17 C        7.1730     4.8300     0.8860 C.ar  1 <1>  -0.1500 
 18 C        5.9250     6.9780     0.6960 C.2   1 <1>   0.5440 
 19 O        4.9690     7.4420     1.2880 O.2   1 <1>  -0.5700 
 20 N        6.8750     7.8340     0.1780 N.am  1 <1>  -0.6600 
 21 C        7.7880     7.4790    -0.9430 C.3   1 <1>   0.1400 
 22 C        6.9330     9.2670     0.5790 C.3   1 <1>   0.1400 
 23 C        9.2320     7.8180    -0.5590 C.3   1 <1>  -0.1600 
 24 C        8.3700     9.6330     0.9700 C.3   1 <1>  -0.1600 
 25 C        9.3710     9.2900    -0.1440 C.3   1 <1>  -0.1600 
 26 H        1.7680     2.2640    -2.0600 H     1 <1>   0.1500 
 27 H        0.1210    -2.7740    -1.4090 H     1 <1>   0.0800 
 28 H       -0.8580    -1.9260    -0.2360 H     1 <1>   0.0800 
 29 H        2.9800    -1.2140     1.5240 H     1 <1>   0.0800 
 30 H        3.9940    -1.6390     0.1690 H     1 <1>   0.0800 
 31 H        0.4360    -3.9740     0.6430 H     1 <1>   0.0800 
 32 H        0.5740    -2.5040     1.5640 H     1 <1>   0.0800 
 33 H        4.7700     0.7600    -1.0200 H     1 <1>   0.0800 
 34 H        4.2170     0.9410     0.6300 H     1 <1>   0.0800 
 35 H        2.7890    -3.5930     1.2650 H     1 <1>   0.0800 
 36 H        2.6070    -3.4610    -0.4590 H     1 <1>   0.0800 
 37 H        3.1240     3.0730    -0.3600 H     1 <1>   0.4000 
 38 H        4.0560     5.2460    -0.1860 H     1 <1>   0.1500 
 39 H        8.1130     2.9330     0.9830 H     1 <1>   0.1500 
 40 H        8.0250     5.3550     1.2780 H     1 <1>   0.1500 
 41 H        7.5040     8.0500    -1.8120 H     1 <1>   0.0800 
 42 H        7.7080     6.4370    -1.1970 H     1 <1>   0.0800 
 43 H        6.2780     9.4550     1.4130 H     1 <1>   0.0800 
 44 H        6.6070     9.8760    -0.2460 H     1 <1>   0.0800 
 45 H        9.8790     7.6170    -1.3950 H     1 <1>   0.0800 
 46 H        9.5380     7.1820     0.2530 H     1 <1>   0.0800 
 47 H        8.6280     9.0990     1.8680 H     1 <1>   0.0800 
 48 H        8.4200    10.6840     1.1900 H     1 <1>   0.0800 
 49 H        9.1830     9.9200    -0.9960 H     1 <1>   0.0800 
 50 H       10.3740     9.4810     0.1960 H     1 <1>   0.0800 
@<TRIPOS>BOND
  1   1   2  1   
  2   1   3  1   
  3   2   4  2   
  4   2   5  1   
  5   3   6  2   
  6   3  26  1   
  7   4   6  1   
  8   4   7  1   
  9   5   8  1   
 10   5  27  1   
 11   5  28  1   
 12   6   9  1   
 13   7  10  1   
 14   7  29  1   
 15   7  30  1   
 16   8  10  1   
 17   8  31  1   
 18   8  32  1   
 19   9  11  1   
 20   9  33  1   
 21   9  34  1   
 22  10  35  1   
 23  10  36  1   
 24  11  12  1   
 25  11  37  1   
 26  12  13  ar  
 27  12  14  ar  
 28  13  15  ar  
 29  14  16  ar  
 30  14  38  1   
 31  15  17  ar  
 32  15  39  1   
 33  16  17  ar  
 34  16  18  1   
 35  17  40  1   
 36  18  19  2   
 37  18  20  am  
 38  20  21  1   
 39  20  22  1   
 40  21  23  1   
 41  21  41  1   
 42  21  42  1   
 43  22  24  1   
 44  22  43  1   
 45  22  44  1   
 46  23  25  1   
 47  23  45  1   
 48  23  46  1   
 49  24  25  1   
 50  24  47  1   
 51  24  48  1   
 52  25  49  1   
 53  25  50  1   
@<TRIPOS>SUBSTRUCTURE
  1 ****  12 GROUP 4 **** **** 0

# MOE 2024.06 (io_trps.svl 2023.06)
