@<TRIPOS>MOLECULE
NONAME
57 59 1 0 0 
SMALL
USER_CHARGES


@<TRIPOS>ATOM
  1 O       -1.1290     0.2190     0.0110 O.2   1 <1>  -0.5700 
  2 C       -1.8830     1.0530    -0.4650 C.2   1 <1>   0.5440 
  3 N       -3.1420     0.6270    -0.8320 N.am  1 <1>  -0.6600 
  4 C       -1.4790     2.4420    -0.5880 C.ar  1 <1>   0.0860 
  5 C       -3.3930    -0.8110    -1.0400 C.3   1 <1>   0.1400 
  6 C       -4.3550     1.3180    -0.3270 C.3   1 <1>   0.1400 
  7 C       -0.5750     3.0090     0.3100 C.ar  1 <1>  -0.1500 
  8 C       -1.9730     3.2610    -1.6060 C.ar  1 <1>  -0.1500 
  9 C       -3.8560    -1.3270     0.3340 C.3   1 <1>   0.4230 
 10 C       -4.9470     0.5550     0.8880 C.3   1 <1>  -0.1600 
 11 C       -0.1900     4.3340     0.2140 C.ar  1 <1>   0.0830 
 12 C       -1.6080     4.5900    -1.7060 C.ar  1 <1>  -0.1500 
 13 N       -3.3340    -2.6960     0.7040 N.4   1 <1>  -0.9590 
 14 C       -5.4030    -0.9710     0.5590 C.3   1 <1>   0.0000 
 15 O        0.7170     4.7870     1.1130 O.3   1 <1>  -0.3620 
 16 C       -0.7320     5.1450    -0.7890 C.ar  1 <1>   0.0830 
 17 C       -3.7130    -3.7270    -0.2760 C.3   1 <1>   0.3430 
 18 C       -1.8500    -2.6520     0.9210 C.3   1 <1>   0.2630 
 19 C       -5.9080    -2.4590     0.1670 C.3   1 <1>  -0.1600 
 20 C       -6.9250    -0.5760     0.8640 C.3   1 <1>   0.1200 
 21 C        1.9840     5.1380     0.6000 C.3   1 <1>   0.0400 
 22 O       -0.4420     6.4600    -0.9180 O.3   1 <1>  -0.3630 
 23 C       -5.1180    -3.4160    -0.7610 C.3   1 <1>  -0.1600 
 24 O       -7.4550     0.0870    -0.2400 O.3   1 <1>  -0.6800 
 25 C       -0.8090     7.3350     0.1280 C.3   1 <1>   0.1200 
 26 C       -2.2940     7.6710     0.0010 C.3   1 <1>  -0.2400 
 27 H       -4.1580    -0.9330    -1.7870 H     1 <1>   0.0800 
 28 H       -2.4920    -1.2950    -1.3730 H     1 <1>   0.0800 
 29 H       -4.1120     2.3270    -0.0350 H     1 <1>   0.0800 
 30 H       -5.0880     1.3710    -1.1160 H     1 <1>   0.0800 
 31 H       -0.1570     2.4050     1.0950 H     1 <1>   0.1500 
 32 H       -2.6530     2.8480    -2.3310 H     1 <1>   0.1500 
 33 H       -3.2820    -0.7220     1.0110 H     1 <1>   0.0800 
 34 H       -4.2620     0.6060     1.7200 H     1 <1>   0.0800 
 35 H       -5.6920     1.2630     1.2090 H     1 <1>   0.0800 
 36 H       -2.0010     5.2100    -2.4920 H     1 <1>   0.1500 
 37 H       -3.7840    -2.9340     1.5960 H     1 <1>   0.4500 
 38 H       -3.0330    -3.7260    -1.1130 H     1 <1>   0.0800 
 39 H       -3.6860    -4.7000     0.1890 H     1 <1>   0.0800 
 40 H       -1.3410    -2.3970     0.0050 H     1 <1>   0.0800 
 41 H       -1.4890    -3.6080     1.2640 H     1 <1>   0.0800 
 42 H       -1.6010    -1.9030     1.6560 H     1 <1>   0.0800 
 43 H       -6.1060    -2.9980     1.0800 H     1 <1>   0.0800 
 44 H       -6.8360    -2.4360    -0.3890 H     1 <1>   0.0800 
 45 H       -7.0600     0.0410     1.7380 H     1 <1>   0.0800 
 46 H       -7.6050    -1.3820     1.0980 H     1 <1>   0.0800 
 47 H        2.6220     5.3930     1.4260 H     1 <1>   0.0800 
 48 H        1.8820     5.9820    -0.0590 H     1 <1>   0.0800 
 49 H        2.3890     4.2950     0.0670 H     1 <1>   0.0800 
 50 H       -5.0640    -2.9980    -1.7510 H     1 <1>   0.0800 
 51 H       -5.6540    -4.3450    -0.8610 H     1 <1>   0.0800 
 52 H       -8.3970     0.3160    -0.0980 H     1 <1>   0.4000 
 53 H       -0.5950     6.8760     1.0770 H     1 <1>   0.0800 
 54 H       -0.2130     8.2250     0.0270 H     1 <1>   0.0800 
 55 H       -2.8900     6.7850     0.1250 H     1 <1>   0.0800 
 56 H       -2.4930     8.1090    -0.9600 H     1 <1>   0.0800 
 57 H       -2.5710     8.3760     0.7640 H     1 <1>   0.0800 
@<TRIPOS>BOND
  1   1   2  2   
  2   2   3  am  
  3   2   4  1   
  4   3   5  1   
  5   3   6  1   
  6   4   7  ar  
  7   4   8  ar  
  8   5   9  1   
  9   5  27  1   
 10   5  28  1   
 11   6  10  1   
 12   6  29  1   
 13   6  30  1   
 14   7  11  ar  
 15   7  31  1   
 16   8  12  ar  
 17   8  32  1   
 18   9  13  1   
 19   9  14  1   
 20   9  33  1   
 21  10  14  1   
 22  10  34  1   
 23  10  35  1   
 24  11  15  1   
 25  11  16  ar  
 26  12  16  ar  
 27  12  36  1   
 28  13  17  1   
 29  13  18  1   
 30  13  37  1   
 31  14  19  1   
 32  14  20  1   
 33  15  21  1   
 34  16  22  1   
 35  17  23  1   
 36  17  38  1   
 37  17  39  1   
 38  18  40  1   
 39  18  41  1   
 40  18  42  1   
 41  19  23  1   
 42  19  43  1   
 43  19  44  1   
 44  20  24  1   
 45  20  45  1   
 46  20  46  1   
 47  21  47  1   
 48  21  48  1   
 49  21  49  1   
 50  22  25  1   
 51  23  50  1   
 52  23  51  1   
 53  24  52  1   
 54  25  26  1   
 55  25  53  1   
 56  25  54  1   
 57  26  55  1   
 58  26  56  1   
 59  26  57  1   
@<TRIPOS>SUBSTRUCTURE
  1 ****   2 GROUP 4 **** **** 0

# MOE 2024.06 (io_trps.svl 2023.06)
