@<TRIPOS>MOLECULE
NONAME
63 66 1 0 0 
SMALL
USER_CHARGES


@<TRIPOS>ATOM
  1 O        0.6290    -1.6730    -1.9560 O.3   1 <1>  -0.6800 
  2 C        0.0920    -1.9500    -0.7070 C.3   1 <1>   0.1200 
  3 C        1.1160    -1.6790     0.4340 C.3   1 <1>   0.0000 
  4 C        2.5200    -2.3040     0.1820 C.3   1 <1>   0.4230 
  5 C        1.2750    -0.1460     0.6270 C.3   1 <1>  -0.1600 
  6 C        0.5440    -2.2750     1.7510 C.3   1 <1>  -0.1600 
  7 N        2.4850    -3.8240     0.0150 N.4   1 <1>  -0.9590 
  8 C        3.3360    -1.5260    -0.9020 C.3   1 <1>   0.3430 
  9 C        2.0160     0.5550    -0.5160 C.3   1 <1>   0.3430 
 10 C        1.0880    -3.6800     2.0880 C.3   1 <1>  -0.1600 
 11 C        1.4280    -4.5010     0.8440 C.3   1 <1>   0.3430 
 12 C        2.3660    -4.3070    -1.4040 C.3   1 <1>   0.2630 
 13 N        3.3810    -0.0360    -0.6720 N.4   1 <1>  -0.9590 
 14 C        4.1180     0.6670    -1.7630 C.3   1 <1>   0.4860 
 15 C        4.3970     2.0780    -1.2910 C.ar  1 <1>  -0.1430 
 16 C        5.3660     2.3120    -0.3270 C.ar  1 <1>  -0.1500 
 17 C        3.6820     3.1500    -1.8070 C.ar  1 <1>  -0.1500 
 18 C        5.5940     3.5960     0.1290 C.ar  1 <1>  -0.1500 
 19 C        3.9210     4.4320    -1.3490 C.ar  1 <1>  -0.1500 
 20 C        4.8750     4.6790    -0.3650 C.ar  1 <1>   0.1000 
 21 N        5.1250     5.9720     0.1230 N.pl3 1 <1>  -0.5690 
 22 C        6.3970     6.3860     0.5390 C.ar  1 <1>   0.1000 
 23 C        4.0410     6.9880     0.1470 C.3   1 <1>   0.1290 
 24 C        7.4700     6.3550    -0.3450 C.ar  1 <1>  -0.1500 
 25 C        6.6180     6.8260     1.8400 C.ar  1 <1>  -0.1500 
 26 C        8.7310     6.7570     0.0570 C.ar  1 <1>  -0.1500 
 27 C        7.8770     7.2300     2.2460 C.ar  1 <1>  -0.1500 
 28 C        8.9360     7.1960     1.3540 C.ar  1 <1>  -0.1500 
 29 H       -0.0800    -1.6960    -2.6420 H     1 <1>   0.4000 
 30 H       -0.7840    -1.3350    -0.5780 H     1 <1>   0.0800 
 31 H       -0.2290    -2.9770    -0.7130 H     1 <1>   0.0800 
 32 H        3.0580    -2.1300     1.0980 H     1 <1>   0.0800 
 33 H        1.8060     0.0680     1.5390 H     1 <1>   0.0800 
 34 H        0.3030     0.3070     0.7250 H     1 <1>   0.0800 
 35 H        0.7670    -1.6410     2.5940 H     1 <1>   0.0800 
 36 H       -0.5320    -2.3180     1.6950 H     1 <1>   0.0800 
 37 H        3.3800    -4.1860     0.3790 H     1 <1>   0.4500 
 38 H        2.8920    -1.7100    -1.8650 H     1 <1>   0.0800 
 39 H        4.3420    -1.9090    -0.9190 H     1 <1>   0.0800 
 40 H        2.0940     1.6090    -0.2950 H     1 <1>   0.0800 
 41 H        1.4600     0.4490    -1.4340 H     1 <1>   0.0800 
 42 H        0.3520    -4.2110     2.6690 H     1 <1>   0.0800 
 43 H        1.9670    -3.6000     2.7040 H     1 <1>   0.0800 
 44 H        0.5290    -4.6240     0.2610 H     1 <1>   0.0800 
 45 H        1.7640    -5.4840     1.1360 H     1 <1>   0.0800 
 46 H        1.4480    -3.9590    -1.8470 H     1 <1>   0.0800 
 47 H        2.3680    -5.3850    -1.4330 H     1 <1>   0.0800 
 48 H        3.1920    -3.9550    -2.0010 H     1 <1>   0.0800 
 49 H        3.9030     0.1960     0.1850 H     1 <1>   0.4500 
 50 H        5.0550     0.1740    -1.9660 H     1 <1>   0.0800 
 51 H        3.5330     0.6840    -2.6690 H     1 <1>   0.0800 
 52 H        5.9590     1.5130     0.0820 H     1 <1>   0.1500 
 53 H        2.9380     3.0060    -2.5730 H     1 <1>   0.1500 
 54 H        6.3440     3.7710     0.8810 H     1 <1>   0.1500 
 55 H        3.3670     5.2520    -1.7670 H     1 <1>   0.1500 
 56 H        4.2920     7.7880     0.8200 H     1 <1>   0.0800 
 57 H        3.1230     6.5330     0.4740 H     1 <1>   0.0800 
 58 H        3.9100     7.3960    -0.8390 H     1 <1>   0.0800 
 59 H        7.3040     6.0130    -1.3500 H     1 <1>   0.1500 
 60 H        5.7980     6.8430     2.5330 H     1 <1>   0.1500 
 61 H        9.5510     6.7290    -0.6380 H     1 <1>   0.1500 
 62 H        8.0360     7.5680     3.2550 H     1 <1>   0.1500 
 63 H        9.9160     7.5090     1.6680 H     1 <1>   0.1500 
@<TRIPOS>BOND
  1   1   2  1   
  2   1  29  1   
  3   2   3  1   
  4   2  30  1   
  5   2  31  1   
  6   3   4  1   
  7   3   5  1   
  8   3   6  1   
  9   4   7  1   
 10   4   8  1   
 11   4  32  1   
 12   5   9  1   
 13   5  33  1   
 14   5  34  1   
 15   6  10  1   
 16   6  35  1   
 17   6  36  1   
 18   7  11  1   
 19   7  12  1   
 20   7  37  1   
 21   8  13  1   
 22   8  38  1   
 23   8  39  1   
 24   9  13  1   
 25   9  40  1   
 26   9  41  1   
 27  10  11  1   
 28  10  42  1   
 29  10  43  1   
 30  11  44  1   
 31  11  45  1   
 32  12  46  1   
 33  12  47  1   
 34  12  48  1   
 35  13  14  1   
 36  13  49  1   
 37  14  15  1   
 38  14  50  1   
 39  14  51  1   
 40  15  16  ar  
 41  15  17  ar  
 42  16  18  ar  
 43  16  52  1   
 44  17  19  ar  
 45  17  53  1   
 46  18  20  ar  
 47  18  54  1   
 48  19  20  ar  
 49  19  55  1   
 50  20  21  1   
 51  21  22  1   
 52  21  23  1   
 53  22  24  ar  
 54  22  25  ar  
 55  23  56  1   
 56  23  57  1   
 57  23  58  1   
 58  24  26  ar  
 59  24  59  1   
 60  25  27  ar  
 61  25  60  1   
 62  26  28  ar  
 63  26  61  1   
 64  27  28  ar  
 65  27  62  1   
 66  28  63  1   
@<TRIPOS>SUBSTRUCTURE
  1 ****  15 GROUP 4 **** **** 0

# MOE 2024.06 (io_trps.svl 2023.06)
