@<TRIPOS>MOLECULE
NONAME
33 34 1 0 0 
SMALL
USER_CHARGES


@<TRIPOS>ATOM
  1 N       -0.2850     0.2320    -0.5420 N.ar  1 <1>  -0.6200 
  2 C       -1.2770     0.8800     0.0480 C.ar  1 <1>   0.4100 
  3 C        0.6980     0.9880    -0.9900 C.ar  1 <1>   0.4700 
  4 N       -2.3430     0.1560     0.5480 N.3   1 <1>  -0.5900 
  5 C       -1.2460     2.2490     0.1700 C.ar  1 <1>  -0.1500 
  6 N        0.8220     2.2980    -0.9340 N.ar  1 <1>  -0.6200 
  7 C       -2.5610    -1.2870     0.1850 C.3   1 <1>   0.2450 
  8 C       -3.7270     0.4590     0.0450 C.3   1 <1>   0.2450 
  9 C       -0.1720     2.9350    -0.3420 C.ar  1 <1>   0.4100 
 10 C       -4.0780    -1.0240     0.2800 C.3   1 <1>   0.0000 
 11 C       -2.0000    -2.2250     1.2500 C.3   1 <1>  -0.2400 
 12 N       -0.1080     4.3130    -0.2640 N.pl3 1 <1>  -0.8380 
 13 C        1.2120     4.9830    -0.1270 C.3   1 <1>   0.2090 
 14 C       -1.1740     5.1120    -0.9260 C.3   1 <1>   0.1290 
 15 C        1.1200     6.0780     0.9320 C.3   1 <1>  -0.2400 
 16 H        1.5080     0.4630    -1.4680 H     1 <1>   0.1500 
 17 H       -2.0350     2.7740     0.6640 H     1 <1>   0.1500 
 18 H       -2.2360    -1.5070    -0.8180 H     1 <1>   0.0000 
 19 H       -3.7190     0.7460    -0.9920 H     1 <1>   0.0000 
 20 H       -4.2530     1.1380     0.6920 H     1 <1>   0.0000 
 21 H       -4.4940    -1.2050     1.2570 H     1 <1>   0.0000 
 22 H       -4.6500    -1.4680    -0.5140 H     1 <1>   0.0000 
 23 H       -2.3250    -1.9250     2.2290 H     1 <1>   0.0800 
 24 H       -0.9260    -2.2040     1.2120 H     1 <1>   0.0800 
 25 H       -2.3320    -3.2290     1.0610 H     1 <1>   0.0800 
 26 H        1.5120     5.3950    -1.0750 H     1 <1>   0.0800 
 27 H        1.9570     4.2670     0.1790 H     1 <1>   0.0800 
 28 H       -1.9400     4.4660    -1.3180 H     1 <1>   0.0800 
 29 H       -0.7580     5.6800    -1.7390 H     1 <1>   0.0800 
 30 H       -1.6180     5.7850    -0.2130 H     1 <1>   0.0800 
 31 H        0.4420     6.8510     0.6220 H     1 <1>   0.0800 
 32 H        2.0900     6.5150     1.0810 H     1 <1>   0.0800 
 33 H        0.7860     5.6560     1.8630 H     1 <1>   0.0800 
@<TRIPOS>BOND
  1   1   2  ar  
  2   1   3  ar  
  3   2   4  1   
  4   2   5  ar  
  5   3   6  ar  
  6   3  16  1   
  7   4   7  1   
  8   4   8  1   
  9   5   9  ar  
 10   5  17  1   
 11   6   9  ar  
 12   7  10  1   
 13   7  11  1   
 14   7  18  1   
 15   8  10  1   
 16   8  19  1   
 17   8  20  1   
 18   9  12  1   
 19  10  21  1   
 20  10  22  1   
 21  11  23  1   
 22  11  24  1   
 23  11  25  1   
 24  12  13  1   
 25  12  14  1   
 26  13  15  1   
 27  13  26  1   
 28  13  27  1   
 29  14  28  1   
 30  14  29  1   
 31  14  30  1   
 32  15  31  1   
 33  15  32  1   
 34  15  33  1   
@<TRIPOS>SUBSTRUCTURE
  1 ****   5 GROUP 4 **** **** 0

# MOE 2024.06 (io_trps.svl 2023.06)
