@<TRIPOS>MOLECULE
NONAME
52 55 1 0 0 
SMALL
USER_CHARGES


@<TRIPOS>ATOM
  1 O       -0.5190    -0.5900    -0.4600 O.3   1 <1>  -0.2800 
  2 C       -0.5650    -1.8000     0.0810 C.2   1 <1>   0.0870 
  3 C        0.7180    -0.3330    -0.8250 C.2   1 <1>  -0.0400 
  4 C       -1.8200    -2.3300     0.5640 C.ar  1 <1>   0.0530 
  5 C        0.6870    -2.3300     0.0600 C.2   1 <1>  -0.1500 
  6 C        1.5190    -1.3760    -0.5290 C.2   1 <1>  -0.1500 
  7 C        1.0230     0.9990    -1.4730 C.3   1 <1>  -0.0600 
  8 C       -2.0000    -3.6990     0.7570 C.ar  1 <1>  -0.1500 
  9 C       -2.8970    -1.4940     0.8520 C.ar  1 <1>  -0.1500 
 10 C       -3.2030    -4.2180     1.2120 C.ar  1 <1>  -0.1430 
 11 C       -4.0970    -1.9970     1.3170 C.ar  1 <1>  -0.1500 
 12 C       -4.2520    -3.3580     1.5000 C.ar  1 <1>  -0.1500 
 13 C       -3.3770    -5.7130     1.3870 C.3   1 <1>   0.4860 
 14 N       -3.5210    -6.3290     0.0400 N.4   1 <1>  -0.9590 
 15 C       -4.8320    -5.9570    -0.5820 C.3   1 <1>   0.3430 
 16 C       -3.5100    -7.8200     0.1490 C.3   1 <1>   0.3430 
 17 C       -5.7900    -7.1010    -0.2390 C.3   1 <1>   0.2000 
 18 C       -4.8780    -8.3260    -0.3230 C.3   1 <1>  -0.0800 
 19 O       -6.2370    -6.9250     1.0680 O.3   1 <1>  -0.6800 
 20 C       -5.3440    -9.5750     0.4490 C.3   1 <1>   0.0210 
 21 C       -4.3710   -10.7250     0.2670 C.2   1 <1>   0.1080 
 22 N       -3.1200   -10.6550     0.6110 N.2   1 <1>  -0.7070 
 23 C       -4.6990   -11.9620    -0.2750 C.2   1 <1>  -0.1500 
 24 N       -2.6160   -11.8700     0.3050 N.pl3 1 <1>   0.3000 
 25 C       -3.5530   -12.6730    -0.2380 C.2   1 <1>  -0.3320 
 26 C       -3.2940   -14.0990    -0.6890 C.3   1 <1>  -0.0600 
 27 H        1.0140    -3.2870     0.4220 H     1 <1>   0.1500 
 28 H        2.5760    -1.4800    -0.6980 H     1 <1>   0.1500 
 29 H        2.0680     1.0650    -1.7150 H     1 <1>   0.0800 
 30 H        0.7680     1.7970    -0.7990 H     1 <1>   0.0800 
 31 H        0.4460     1.1050    -2.3730 H     1 <1>   0.0800 
 32 H       -1.1750    -4.3540     0.5420 H     1 <1>   0.1500 
 33 H       -2.7860    -0.4320     0.7120 H     1 <1>   0.1500 
 34 H       -4.9080    -1.3240     1.5380 H     1 <1>   0.1500 
 35 H       -5.1930    -3.7340     1.8680 H     1 <1>   0.1500 
 36 H       -4.2470    -5.9200     1.9880 H     1 <1>   0.0800 
 37 H       -2.5120    -6.1160     1.8880 H     1 <1>   0.0800 
 38 H       -2.7490    -5.9870    -0.5430 H     1 <1>   0.4500 
 39 H       -5.2050    -5.0120    -0.2250 H     1 <1>   0.0800 
 40 H       -4.7170    -5.9070    -1.6520 H     1 <1>   0.0800 
 41 H       -2.7270    -8.2550    -0.4520 H     1 <1>   0.0800 
 42 H       -3.3530    -8.1200     1.1730 H     1 <1>   0.0800 
 43 H       -6.6400    -7.1410    -0.9000 H     1 <1>   0.0800 
 44 H       -4.7750    -8.5980    -1.3590 H     1 <1>   0.0800 
 45 H       -7.0030    -7.5060     1.2640 H     1 <1>   0.4000 
 46 H       -6.3160    -9.8790     0.1020 H     1 <1>   0.0800 
 47 H       -5.4140    -9.3680     1.5030 H     1 <1>   0.0800 
 48 H       -5.6650   -12.2690    -0.6360 H     1 <1>   0.1500 
 49 H       -1.6360   -12.1250     0.4820 H     1 <1>   0.2700 
 50 H       -4.1960   -14.5330    -1.0830 H     1 <1>   0.0800 
 51 H       -2.9620   -14.6980     0.1410 H     1 <1>   0.0800 
 52 H       -2.5420   -14.1180    -1.4580 H     1 <1>   0.0800 
@<TRIPOS>BOND
  1   1   2  1   
  2   1   3  1   
  3   2   4  1   
  4   2   5  2   
  5   3   6  2   
  6   3   7  1   
  7   4   8  ar  
  8   4   9  ar  
  9   5   6  1   
 10   5  27  1   
 11   6  28  1   
 12   7  29  1   
 13   7  30  1   
 14   7  31  1   
 15   8  10  ar  
 16   8  32  1   
 17   9  11  ar  
 18   9  33  1   
 19  10  12  ar  
 20  10  13  1   
 21  11  12  ar  
 22  11  34  1   
 23  12  35  1   
 24  13  14  1   
 25  13  36  1   
 26  13  37  1   
 27  14  15  1   
 28  14  16  1   
 29  14  38  1   
 30  15  17  1   
 31  15  39  1   
 32  15  40  1   
 33  16  18  1   
 34  16  41  1   
 35  16  42  1   
 36  17  18  1   
 37  17  19  1   
 38  17  43  1   
 39  18  20  1   
 40  18  44  1   
 41  19  45  1   
 42  20  21  1   
 43  20  46  1   
 44  20  47  1   
 45  21  22  2   
 46  21  23  1   
 47  22  24  1   
 48  23  25  2   
 49  23  48  1   
 50  24  25  1   
 51  24  49  1   
 52  25  26  1   
 53  26  50  1   
 54  26  51  1   
 55  26  52  1   
@<TRIPOS>SUBSTRUCTURE
  1 ****  14 GROUP 4 **** **** 0

# MOE 2024.06 (io_trps.svl 2023.06)
