@<TRIPOS>MOLECULE
NONAME
15 15 1 0 0 
SMALL
USER_CHARGES


@<TRIPOS>ATOM
  1 S        6.4580    -2.9580     0.0200 S.3   1 <1>  -0.9530 
  2 C        6.4540    -1.2920     0.0060 C.ar  1 <1>   0.5730 
  3 N        7.6500    -0.6650    -0.0370 N.ar  1 <1>  -0.3100 
  4 N        5.2600    -0.7100     0.0360 N.ar  1 <1>  -0.6200 
  5 N        7.7020     0.6350    -0.0430 N.ar  1 <1>  -0.3100 
  6 C        5.3300     0.5990     0.0220 C.ar  1 <1>   0.1660 
  7 C        6.5410     1.2770    -0.0080 C.ar  1 <1>   0.1660 
  8 C        3.9860     1.3050     0.0390 C.3   1 <1>  -0.0970 
  9 C        6.6470     2.7930    -0.0020 C.3   1 <1>  -0.0960 
 10 H        3.2240     0.6440    -0.3340 H     1 <1>   0.0800 
 11 H        4.0020     2.1800    -0.5820 H     1 <1>   0.0800 
 12 H        3.7370     1.5760     1.0480 H     1 <1>   0.0800 
 13 H        7.5480     3.0910     0.5030 H     1 <1>   0.0800 
 14 H        5.8160     3.2430     0.5070 H     1 <1>   0.0800 
 15 H        6.6860     3.1510    -1.0140 H     1 <1>   0.0800 
@<TRIPOS>BOND
  1   1   2  1   
  2   2   3  ar  
  3   2   4  ar  
  4   3   5  ar  
  5   4   6  ar  
  6   5   7  ar  
  7   6   7  ar  
  8   6   8  1   
  9   7   9  1   
 10   8  10  1   
 11   8  11  1   
 12   8  12  1   
 13   9  13  1   
 14   9  14  1   
 15   9  15  1   
@<TRIPOS>SUBSTRUCTURE
  1 ****   6 GROUP 4 **** **** 0

# MOE 2024.06 (io_trps.svl 2023.06)
