@<TRIPOS>MOLECULE
NONAME
39 40 1 0 0 
SMALL
USER_CHARGES


@<TRIPOS>ATOM
  1 N        0.2440    -0.3090     0.1730 N.ar  1 <1>  -0.6200 
  2 C        0.3410    -1.5330    -0.2920 C.ar  1 <1>   0.7710 
  3 C        1.1790     0.5610    -0.1620 C.ar  1 <1>   0.4100 
  4 N        1.3390    -1.9300    -1.0980 N.ar  1 <1>  -0.1790 
  5 N       -0.6200    -2.3760     0.0880 N.pl3 1 <1>  -0.8690 
  6 N        1.0660     1.8000     0.3830 N.pl3 1 <1>  -0.8380 
  7 C        2.2370     0.2180    -1.0440 C.ar  1 <1>  -0.1430 
  8 C        2.2970    -1.0600    -1.4970 C.ar  1 <1>   0.2110 
  9 C       -0.9520    -3.7640    -0.2590 C.3   1 <1>   0.4330 
 10 C        2.1450     2.4270     1.1960 C.3   1 <1>   0.1290 
 11 C       -0.2630     2.4590     0.5390 C.3   1 <1>   0.1290 
 12 C        3.2640     1.2470    -1.5140 C.3   1 <1>  -0.0970 
 13 C       -2.4160    -4.0000     0.0740 C.ar  1 <1>  -0.1430 
 14 C       -0.0320    -4.7060     0.5150 C.3   1 <1>  -0.2400 
 15 C       -2.8780    -3.9300     1.3830 C.ar  1 <1>   0.1600 
 16 C       -3.3240    -4.2890    -0.9280 C.ar  1 <1>  -0.1500 
 17 N       -4.1310    -4.1170     1.7570 N.ar  1 <1>  -0.6200 
 18 C       -4.6350    -4.4900    -0.5530 C.ar  1 <1>  -0.1500 
 19 C       -4.9810    -4.3940     0.7830 C.ar  1 <1>   0.1600 
 20 H        1.3330    -2.9010    -1.3870 H     1 <1>   0.4570 
 21 H       -1.3360    -1.9410     0.6810 H     1 <1>   0.4000 
 22 H        3.0690    -1.4050    -2.1660 H     1 <1>   0.1500 
 23 H       -0.8080    -3.9160    -1.3160 H     1 <1>   0.0800 
 24 H        2.9630     1.7420     1.3310 H     1 <1>   0.0800 
 25 H        1.7650     2.6930     2.1670 H     1 <1>   0.0800 
 26 H        2.5020     3.3160     0.7050 H     1 <1>   0.0800 
 27 H       -0.9800     2.0250    -0.1360 H     1 <1>   0.0800 
 28 H       -0.1810     3.5100     0.3210 H     1 <1>   0.0800 
 29 H       -0.6180     2.3320     1.5480 H     1 <1>   0.0800 
 30 H        2.7710     2.1690    -1.7700 H     1 <1>   0.0800 
 31 H        3.7950     0.9030    -2.3830 H     1 <1>   0.0800 
 32 H        3.9820     1.4450    -0.7380 H     1 <1>   0.0800 
 33 H       -0.0950    -4.5240     1.5730 H     1 <1>   0.0800 
 34 H        0.9890    -4.5970     0.2030 H     1 <1>   0.0800 
 35 H       -0.3300    -5.7240     0.3340 H     1 <1>   0.0800 
 36 H       -2.1830    -3.7050     2.1740 H     1 <1>   0.1500 
 37 H       -3.0390    -4.3590    -1.9640 H     1 <1>   0.1500 
 38 H       -5.3880    -4.7200    -1.2860 H     1 <1>   0.1500 
 39 H       -6.0090    -4.5530     1.0650 H     1 <1>   0.1500 
@<TRIPOS>BOND
  1   1   2  ar  
  2   1   3  ar  
  3   2   4  ar  
  4   2   5  1   
  5   3   6  1   
  6   3   7  ar  
  7   4   8  ar  
  8   4  20  1   
  9   5   9  1   
 10   5  21  1   
 11   6  10  1   
 12   6  11  1   
 13   7   8  ar  
 14   7  12  1   
 15   8  22  1   
 16   9  13  1   
 17   9  14  1   
 18   9  23  1   
 19  10  24  1   
 20  10  25  1   
 21  10  26  1   
 22  11  27  1   
 23  11  28  1   
 24  11  29  1   
 25  12  30  1   
 26  12  31  1   
 27  12  32  1   
 28  13  15  ar  
 29  13  16  ar  
 30  14  33  1   
 31  14  34  1   
 32  14  35  1   
 33  15  17  ar  
 34  15  36  1   
 35  16  18  ar  
 36  16  37  1   
 37  17  19  ar  
 38  18  19  ar  
 39  18  38  1   
 40  19  39  1   
@<TRIPOS>SUBSTRUCTURE
  1 ****   5 GROUP 4 **** **** 0

# MOE 2024.06 (io_trps.svl 2023.06)
