@<TRIPOS>MOLECULE
NONAME
51 54 1 0 0 
SMALL
USER_CHARGES


@<TRIPOS>ATOM
  1 O       -0.3900     0.6210    -0.3600 O.2   1 <1>  -0.5700 
  2 C       -1.4970     1.0890    -0.4710 C.2   1 <1>   0.5690 
  3 N       -2.6090     0.2940    -0.4860 N.am  1 <1>  -0.6600 
  4 C       -1.6580     2.6010    -0.5950 C.3   1 <1>  -0.0990 
  5 C       -4.0200     0.7430    -0.5620 C.3   1 <1>   0.1400 
  6 C       -2.5340    -1.1810    -0.3620 C.3   1 <1>   0.1400 
  7 C       -0.3260     3.3750    -0.6420 C.3   1 <1>  -0.1600 
  8 C       -4.8510    -0.5400    -0.4970 C.3   1 <1>   0.2000 
  9 C       -3.9310    -1.6080     0.0920 C.3   1 <1>  -0.0800 
 10 C       -0.5430     4.8900    -0.7670 C.3   1 <1>   0.0200 
 11 O       -5.9680    -0.3830     0.3080 O.3   1 <1>  -0.6800 
 12 C       -4.3290    -3.0310    -0.3360 C.3   1 <1>  -0.0170 
 13 C        0.7750     5.6420    -0.7870 C.2   1 <1>   0.2980 
 14 C       -3.4240    -4.0830     0.2850 C.ar  1 <1>   0.1660 
 15 O        1.5580     5.5170    -1.8260 O.3   1 <1>  -0.0190 
 16 N        1.2040     6.4070     0.1300 N.2   1 <1>  -0.5650 
 17 N       -2.2780    -4.3150    -0.3340 N.ar  1 <1>  -0.6200 
 18 C       -3.8180    -4.7440     1.4470 C.ar  1 <1>   0.1600 
 19 N        2.5770     6.2660    -1.5450 N.2   1 <1>  -0.4100 
 20 C        2.3740     6.7910    -0.3890 C.2   1 <1>   0.4620 
 21 C       -1.5570    -5.2370     0.2840 C.ar  1 <1>   0.1600 
 22 N       -3.1000    -5.6670     2.0660 N.ar  1 <1>  -0.6200 
 23 C        3.2770     7.6920     0.2990 C.ar  1 <1>   0.0540 
 24 C       -1.9550    -5.8900     1.4440 C.ar  1 <1>   0.1600 
 25 C        2.9790     8.1960     1.5660 C.ar  1 <1>   0.1600 
 26 C        4.4800     8.0980    -0.2660 C.ar  1 <1>  -0.1500 
 27 N        3.7350     9.0210     2.2750 N.ar  1 <1>  -0.6200 
 28 C        5.2830     8.9560     0.4530 C.ar  1 <1>  -0.1500 
 29 C        4.8700     9.3830     1.7020 C.ar  1 <1>   0.1600 
 30 H       -2.2120     2.8040    -1.4930 H     1 <1>   0.0800 
 31 H       -2.2340     2.9430     0.2450 H     1 <1>   0.0800 
 32 H       -4.2380     1.3850     0.2740 H     1 <1>   0.0800 
 33 H       -4.1990     1.2600    -1.4880 H     1 <1>   0.0800 
 34 H       -2.2950    -1.6020    -1.3240 H     1 <1>   0.0800 
 35 H       -1.7780    -1.4750     0.3480 H     1 <1>   0.0800 
 36 H        0.2350     3.1710     0.2560 H     1 <1>   0.0800 
 37 H        0.2590     3.0250    -1.4770 H     1 <1>   0.0800 
 38 H       -5.1810    -0.8090    -1.4870 H     1 <1>   0.0800 
 39 H       -3.9450    -1.5420     1.1660 H     1 <1>   0.0800 
 40 H       -1.1250     5.2410     0.0660 H     1 <1>   0.0800 
 41 H       -1.0800     5.1140    -1.6710 H     1 <1>   0.0800 
 42 H       -5.7030    -0.1810     1.2260 H     1 <1>   0.4000 
 43 H       -4.2820    -3.1200    -1.4080 H     1 <1>   0.0800 
 44 H       -5.3470    -3.2160    -0.0420 H     1 <1>   0.0800 
 45 H       -4.7690    -4.4980     1.8860 H     1 <1>   0.1500 
 46 H       -0.6050    -5.4880    -0.1500 H     1 <1>   0.1500 
 47 H       -1.2980    -6.6260     1.8730 H     1 <1>   0.1500 
 48 H        2.0520     7.8940     2.0240 H     1 <1>   0.1500 
 49 H        4.7770     7.7490    -1.2410 H     1 <1>   0.1500 
 50 H        6.2210     9.2940     0.0520 H     1 <1>   0.1500 
 51 H        5.5030    10.0550     2.2580 H     1 <1>   0.1500 
@<TRIPOS>BOND
  1   1   2  2   
  2   2   3  am  
  3   2   4  1   
  4   3   5  1   
  5   3   6  1   
  6   4   7  1   
  7   4  30  1   
  8   4  31  1   
  9   5   8  1   
 10   5  32  1   
 11   5  33  1   
 12   6   9  1   
 13   6  34  1   
 14   6  35  1   
 15   7  10  1   
 16   7  36  1   
 17   7  37  1   
 18   8   9  1   
 19   8  11  1   
 20   8  38  1   
 21   9  12  1   
 22   9  39  1   
 23  10  13  1   
 24  10  40  1   
 25  10  41  1   
 26  11  42  1   
 27  12  14  1   
 28  12  43  1   
 29  12  44  1   
 30  13  15  1   
 31  13  16  2   
 32  14  17  ar  
 33  14  18  ar  
 34  15  19  1   
 35  16  20  1   
 36  17  21  ar  
 37  18  22  ar  
 38  18  45  1   
 39  19  20  2   
 40  20  23  1   
 41  21  24  ar  
 42  21  46  1   
 43  22  24  ar  
 44  23  25  ar  
 45  23  26  ar  
 46  24  47  1   
 47  25  27  ar  
 48  25  48  1   
 49  26  28  ar  
 50  26  49  1   
 51  27  29  ar  
 52  28  29  ar  
 53  28  50  1   
 54  29  51  1   
@<TRIPOS>SUBSTRUCTURE
  1 ****   4 GROUP 4 **** **** 0

# MOE 2024.06 (io_trps.svl 2023.06)
