@<TRIPOS>MOLECULE
NONAME
45 47 1 0 0 
SMALL
USER_CHARGES


@<TRIPOS>ATOM
  1 O       -2.1190     0.3710     2.9260 O.2   1 <1>  -0.5700 
  2 C       -2.4270     0.9610     1.9080 C.2   1 <1>   0.5440 
  3 N       -3.4100     0.4270     1.1080 N.am  1 <1>  -0.6600 
  4 C       -1.7900     2.2140     1.5920 C.ar  1 <1>   0.0860 
  5 C       -3.8700     1.0000    -0.1870 C.3   1 <1>   0.1400 
  6 C       -3.8660    -0.9780     1.2410 C.3   1 <1>   0.1400 
  7 C       -0.8580     2.3220     0.5530 C.ar  1 <1>   0.3920 
  8 C       -2.0780     3.3590     2.3210 C.ar  1 <1>  -0.1500 
  9 C       -4.7860    -0.0700    -0.7860 C.3   1 <1>   0.2000 
 10 C       -4.2890    -1.3840    -0.1760 C.3   1 <1>  -0.0800 
 11 O       -0.5560     1.2060    -0.1460 O.3   1 <1>  -0.3630 
 12 N       -0.2470     3.4530     0.1980 N.ar  1 <1>  -0.6200 
 13 C       -1.4450     4.5290     1.9680 C.ar  1 <1>  -0.1500 
 14 O       -6.0770     0.1550    -0.3370 O.3   1 <1>  -0.6800 
 15 C       -3.0920    -1.9370    -0.9740 C.3   1 <1>   0.0200 
 16 C        0.4690     1.1970    -1.1180 C.3   1 <1>   0.1200 
 17 C       -0.5510     4.5220     0.9120 C.ar  1 <1>   0.1600 
 18 C       -2.5560    -3.2140    -0.3600 C.2   1 <1>  -0.0400 
 19 C        0.5710    -0.2130    -1.6950 C.3   1 <1>  -0.2400 
 20 O       -3.2660    -4.3100    -0.3890 O.3   1 <1>  -0.0190 
 21 C       -1.4040    -3.4830     0.2730 C.2   1 <1>  -0.1500 
 22 N       -2.6510    -5.2990     0.1930 N.2   1 <1>  -0.4100 
 23 C       -1.5270    -4.8300     0.6020 C.2   1 <1>   0.1080 
 24 C       -0.4860    -5.6380     1.3440 C.3   1 <1>  -0.0590 
 25 H       -4.3850     1.9340    -0.0460 H     1 <1>   0.0800 
 26 H       -3.0240     1.1500    -0.8330 H     1 <1>   0.0800 
 27 H       -3.0870    -1.6050     1.6400 H     1 <1>   0.0800 
 28 H       -4.7100    -1.0100     1.9090 H     1 <1>   0.0800 
 29 H       -2.7760     3.3190     3.1400 H     1 <1>   0.1500 
 30 H       -4.7980    -0.0650    -1.8620 H     1 <1>   0.0800 
 31 H       -5.0670    -2.1280    -0.1550 H     1 <1>   0.0800 
 32 H       -1.6380     5.4410     2.5060 H     1 <1>   0.1500 
 33 H       -6.0660     0.2510     0.6360 H     1 <1>   0.4000 
 34 H       -2.2990    -1.2110    -0.9970 H     1 <1>   0.0800 
 35 H       -3.3900    -2.1410    -1.9870 H     1 <1>   0.0800 
 36 H        0.2210     1.9100    -1.8860 H     1 <1>   0.0800 
 37 H        1.3900     1.4840    -0.6400 H     1 <1>   0.0800 
 38 H       -0.0620     5.4430     0.6430 H     1 <1>   0.1500 
 39 H       -0.3390    -0.4730    -2.2030 H     1 <1>   0.0800 
 40 H        0.7670    -0.9210    -0.9100 H     1 <1>   0.0800 
 41 H        1.3790    -0.2540    -2.4030 H     1 <1>   0.0800 
 42 H       -0.5740    -2.8390     0.4960 H     1 <1>   0.1500 
 43 H       -0.2060    -5.1290     2.2480 H     1 <1>   0.0800 
 44 H        0.3820    -5.7680     0.7250 H     1 <1>   0.0800 
 45 H       -0.8840    -6.6040     1.5970 H     1 <1>   0.0800 
@<TRIPOS>BOND
  1   1   2  2   
  2   2   3  am  
  3   2   4  1   
  4   3   5  1   
  5   3   6  1   
  6   4   7  ar  
  7   4   8  ar  
  8   5   9  1   
  9   5  25  1   
 10   5  26  1   
 11   6  10  1   
 12   6  27  1   
 13   6  28  1   
 14   7  11  1   
 15   7  12  ar  
 16   8  13  ar  
 17   8  29  1   
 18   9  10  1   
 19   9  14  1   
 20   9  30  1   
 21  10  15  1   
 22  10  31  1   
 23  11  16  1   
 24  12  17  ar  
 25  13  17  ar  
 26  13  32  1   
 27  14  33  1   
 28  15  18  1   
 29  15  34  1   
 30  15  35  1   
 31  16  19  1   
 32  16  36  1   
 33  16  37  1   
 34  17  38  1   
 35  18  20  1   
 36  18  21  2   
 37  19  39  1   
 38  19  40  1   
 39  19  41  1   
 40  20  22  1   
 41  21  23  1   
 42  21  42  1   
 43  22  23  2   
 44  23  24  1   
 45  24  43  1   
 46  24  44  1   
 47  24  45  1   
@<TRIPOS>SUBSTRUCTURE
  1 ****   3 GROUP 4 **** **** 0

# MOE 2024.06 (io_trps.svl 2023.06)
