@<TRIPOS>MOLECULE
NONAME
53 55 1 0 0 
SMALL
USER_CHARGES


@<TRIPOS>ATOM
  1 O        0.5290    -0.5550    -1.4750 O.2   1 <1>  -0.5700 
  2 C       -0.3400     0.2640    -1.2800 C.2   1 <1>   0.5690 
  3 N       -1.6230    -0.1150    -0.9820 N.am  1 <1>  -0.6600 
  4 C        0.0350     1.7510    -1.3930 C.3   1 <1>   0.1710 
  5 C       -2.7190     0.8050    -0.5910 C.3   1 <1>   0.1400 
  6 C       -2.0330    -1.5270    -0.8080 C.3   1 <1>   0.1400 
  7 N       -0.0930     2.5540    -0.1380 N.3   1 <1>  -0.8100 
  8 C       -3.8780    -0.1080    -0.1860 C.3   1 <1>   0.2000 
  9 C       -3.2490    -1.4670     0.1170 C.3   1 <1>  -0.0800 
 10 C        0.1920     3.9770    -0.4170 C.3   1 <1>   0.1100 
 11 C        0.8020     2.0150     0.8990 C.3   1 <1>   0.0300 
 12 O       -4.5350     0.3700     0.9370 O.3   1 <1>  -0.6800 
 13 C       -4.2320    -2.6340    -0.0690 C.3   1 <1>  -0.0170 
 14 C       -0.3350     4.8860     0.6950 C.3   1 <1>   0.1200 
 15 C       -3.5670    -3.9670     0.2230 C.ar  1 <1>   0.1670 
 16 O       -0.1110     6.2100     0.3230 O.3   1 <1>  -0.5600 
 17 N       -2.9780    -4.5710    -0.7630 N.ar  1 <1>  -0.6200 
 18 C       -3.6110    -4.4750     1.5320 C.ar  1 <1>  -0.1500 
 19 C       -0.5790     7.1390     1.2450 C.3   1 <1>   0.0400 
 20 C       -2.3640    -5.7530    -0.5050 C.ar  1 <1>   0.3100 
 21 C       -3.0080    -5.6620     1.8180 C.ar  1 <1>  -0.1500 
 22 C       -2.3530    -6.3430     0.7780 C.ar  1 <1>   0.0000 
 23 C       -1.7080    -6.4200    -1.5520 C.ar  1 <1>  -0.1500 
 24 C       -1.6910    -7.5730     0.9610 C.ar  1 <1>  -0.1500 
 25 C       -1.0690    -7.6160    -1.3540 C.ar  1 <1>  -0.1500 
 26 C       -1.0620    -8.1980    -0.0820 C.ar  1 <1>  -0.1500 
 27 H       -0.5990     2.1800    -2.1480 H     1 <1>   0.0800 
 28 H        1.0480     1.8120    -1.7490 H     1 <1>   0.0800 
 29 H       -2.4000     1.4100     0.2400 H     1 <1>   0.0800 
 30 H       -2.9960     1.4310    -1.4210 H     1 <1>   0.0800 
 31 H       -2.2980    -1.9360    -1.7680 H     1 <1>   0.0800 
 32 H       -1.2380    -2.1160    -0.3810 H     1 <1>   0.0800 
 33 H       -4.5880    -0.1760    -0.9930 H     1 <1>   0.0800 
 34 H       -2.8760    -1.4720     1.1260 H     1 <1>   0.0800 
 35 H        1.2520     4.1260    -0.5380 H     1 <1>   0.0800 
 36 H       -0.3010     4.2660    -1.3290 H     1 <1>   0.0800 
 37 H        0.6900     2.5650     1.8170 H     1 <1>   0.0800 
 38 H        1.8290     2.0710     0.5790 H     1 <1>   0.0800 
 39 H        0.5590     0.9850     1.1010 H     1 <1>   0.0800 
 40 H       -3.9010     0.4820     1.6720 H     1 <1>   0.4000 
 41 H       -4.6030    -2.6420    -1.0800 H     1 <1>   0.0800 
 42 H       -5.0760    -2.5010     0.5840 H     1 <1>   0.0800 
 43 H        0.1830     4.7010     1.6190 H     1 <1>   0.0800 
 44 H       -1.3930     4.7370     0.8200 H     1 <1>   0.0800 
 45 H       -4.1210    -3.9170     2.2950 H     1 <1>   0.1500 
 46 H       -0.3600     8.1230     0.8690 H     1 <1>   0.0800 
 47 H       -0.0780     6.9910     2.1860 H     1 <1>   0.0800 
 48 H       -1.6430     7.0230     1.3590 H     1 <1>   0.0800 
 49 H       -3.0200    -6.0830     2.8070 H     1 <1>   0.1500 
 50 H       -1.7240    -5.9560    -2.5200 H     1 <1>   0.1500 
 51 H       -1.6870    -8.0150     1.9420 H     1 <1>   0.1500 
 52 H       -0.5700    -8.1160    -2.1650 H     1 <1>   0.1500 
 53 H       -0.5560    -9.1370     0.0610 H     1 <1>   0.1500 
@<TRIPOS>BOND
  1   1   2  2   
  2   2   3  am  
  3   2   4  1   
  4   3   5  1   
  5   3   6  1   
  6   4   7  1   
  7   4  27  1   
  8   4  28  1   
  9   5   8  1   
 10   5  29  1   
 11   5  30  1   
 12   6   9  1   
 13   6  31  1   
 14   6  32  1   
 15   7  10  1   
 16   7  11  1   
 17   8   9  1   
 18   8  12  1   
 19   8  33  1   
 20   9  13  1   
 21   9  34  1   
 22  10  14  1   
 23  10  35  1   
 24  10  36  1   
 25  11  37  1   
 26  11  38  1   
 27  11  39  1   
 28  12  40  1   
 29  13  15  1   
 30  13  41  1   
 31  13  42  1   
 32  14  16  1   
 33  14  43  1   
 34  14  44  1   
 35  15  17  ar  
 36  15  18  ar  
 37  16  19  1   
 38  17  20  ar  
 39  18  21  ar  
 40  18  45  1   
 41  19  46  1   
 42  19  47  1   
 43  19  48  1   
 44  20  22  ar  
 45  20  23  ar  
 46  21  22  ar  
 47  21  49  1   
 48  22  24  ar  
 49  23  25  ar  
 50  23  50  1   
 51  24  26  ar  
 52  24  51  1   
 53  25  26  ar  
 54  25  52  1   
 55  26  53  1   
@<TRIPOS>SUBSTRUCTURE
  1 ****   6 GROUP 4 **** **** 0

# MOE 2024.06 (io_trps.svl 2023.06)
