@<TRIPOS>MOLECULE
NONAME
49 50 1 0 0 
SMALL
USER_CHARGES


@<TRIPOS>ATOM
  1 S        1.2800     0.5190     0.5420 S.o2  1 <1>   1.3330 
  2 O        0.8790    -0.8120     0.1460 O.2   1 <1>  -0.6500 
  3 O        1.9630     0.7140     1.8030 O.2   1 <1>  -0.6500 
  4 N       -0.1010     1.5050     0.5530 N.am  1 <1>  -0.8490 
  5 C        2.2680     1.2170    -0.7760 C.3   1 <1>  -0.0550 
  6 C       -1.2420     0.8450     1.1900 C.3   1 <1>   0.1160 
  7 C        0.1250     2.8200     1.1610 C.3   1 <1>   0.1160 
  8 C        3.4790     0.3490    -1.1790 C.3   1 <1>  -0.0800 
  9 C        4.4540     1.0030    -2.1490 C.3   1 <1>   0.2200 
 10 C        4.4010    -0.0700    -0.0280 C.3   1 <1>   0.1200 
 11 N        4.7750     2.3790    -1.7070 N.am  1 <1>  -0.7300 
 12 C        5.6810     0.1310    -1.9290 C.3   1 <1>   0.1200 
 13 O        5.6900    -0.1640    -0.5620 O.3   1 <1>  -0.5600 
 14 C        4.1530     3.5220    -2.1110 C.2   1 <1>   0.5440 
 15 O        3.4310     3.4640    -3.0890 O.2   1 <1>  -0.5700 
 16 C        4.3290     4.7620    -1.3830 C.ar  1 <1>   0.0860 
 17 C        4.3940     4.8230     0.0210 C.ar  1 <1>   0.0820 
 18 C        4.4340     5.9610    -2.0900 C.ar  1 <1>  -0.1500 
 19 O        4.2480     3.6670     0.7190 O.3   1 <1>  -0.3630 
 20 C        4.5880     6.0420     0.6670 C.ar  1 <1>  -0.1500 
 21 C        4.6190     7.1670    -1.4450 C.ar  1 <1>  -0.1500 
 22 C        4.1590     3.6070     2.1270 C.3   1 <1>   0.0400 
 23 C        4.7040     7.2180    -0.0640 C.ar  1 <1>   0.0820 
 24 O        4.8960     8.4370     0.4880 O.3   1 <1>  -0.3620 
 25 C        5.0370     8.6180     1.8790 C.3   1 <1>   0.0400 
 26 H        1.6520     1.3590    -1.6420 H     1 <1>   0.0800 
 27 H        2.5950     2.1830    -0.4570 H     1 <1>   0.0800 
 28 H       -2.1090     1.4820     1.1570 H     1 <1>   0.0800 
 29 H       -1.0130     0.6080     2.2160 H     1 <1>   0.0800 
 30 H       -1.4770    -0.0680     0.6680 H     1 <1>   0.0800 
 31 H       -0.7620     3.4250     1.0700 H     1 <1>   0.0800 
 32 H        0.9310     3.3290     0.6620 H     1 <1>   0.0800 
 33 H        0.3730     2.7150     2.2050 H     1 <1>   0.0800 
 34 H        3.1040    -0.5540    -1.6300 H     1 <1>   0.0800 
 35 H        4.1120     0.9970    -3.1710 H     1 <1>   0.0800 
 36 H        4.1210    -1.0220     0.3910 H     1 <1>   0.0800 
 37 H        4.4280     0.6760     0.7490 H     1 <1>   0.0800 
 38 H        5.2800     2.4100    -0.8150 H     1 <1>   0.3700 
 39 H        6.5970     0.6250    -2.2010 H     1 <1>   0.0800 
 40 H        5.5900    -0.7980    -2.4650 H     1 <1>   0.0800 
 41 H        4.3680     5.9370    -3.1640 H     1 <1>   0.1500 
 42 H        4.6500     6.0800     1.7340 H     1 <1>   0.1500 
 43 H        4.7010     8.0810    -2.0080 H     1 <1>   0.1500 
 44 H        3.9700     2.5850     2.4080 H     1 <1>   0.0800 
 45 H        3.3440     4.2280     2.4550 H     1 <1>   0.0800 
 46 H        5.0910     3.9350     2.5520 H     1 <1>   0.0800 
 47 H        5.2010     9.6650     2.0640 H     1 <1>   0.0800 
 48 H        5.8840     8.0500     2.2210 H     1 <1>   0.0800 
 49 H        4.1330     8.2990     2.3660 H     1 <1>   0.0800 
@<TRIPOS>BOND
  1   1   2  2   
  2   1   3  2   
  3   1   4  am  
  4   1   5  1   
  5   4   6  1   
  6   4   7  1   
  7   5   8  1   
  8   5  26  1   
  9   5  27  1   
 10   6  28  1   
 11   6  29  1   
 12   6  30  1   
 13   7  31  1   
 14   7  32  1   
 15   7  33  1   
 16   8   9  1   
 17   8  10  1   
 18   8  34  1   
 19   9  11  1   
 20   9  12  1   
 21   9  35  1   
 22  10  13  1   
 23  10  36  1   
 24  10  37  1   
 25  11  14  am  
 26  11  38  1   
 27  12  13  1   
 28  12  39  1   
 29  12  40  1   
 30  14  15  2   
 31  14  16  1   
 32  16  17  ar  
 33  16  18  ar  
 34  17  19  1   
 35  17  20  ar  
 36  18  21  ar  
 37  18  41  1   
 38  19  22  1   
 39  20  23  ar  
 40  20  42  1   
 41  21  23  ar  
 42  21  43  1   
 43  22  44  1   
 44  22  45  1   
 45  22  46  1   
 46  23  24  1   
 47  24  25  1   
 48  25  47  1   
 49  25  48  1   
 50  25  49  1   
@<TRIPOS>SUBSTRUCTURE
  1 ****  19 GROUP 4 **** **** 0

# MOE 2024.06 (io_trps.svl 2023.06)
