@<TRIPOS>MOLECULE
NONAME
57 60 1 0 0 
SMALL
USER_CHARGES


@<TRIPOS>ATOM
  1 O        0.5220     0.2670    -0.4420 O.2   1 <1>  -0.5700 
  2 C        1.4320    -0.5370    -0.5290 C.2   1 <1>   0.5440 
  3 N        2.7040    -0.1380    -0.1900 N.am  1 <1>  -0.6600 
  4 C        1.1500    -1.8860    -0.9770 C.ar  1 <1>   0.0860 
  5 C        3.8170    -1.0530     0.1520 C.3   1 <1>   0.1400 
  6 C        3.0000     1.2410     0.2580 C.3   1 <1>   0.1400 
  7 C        0.1110    -2.6280    -0.4520 C.ar  1 <1>  -0.1500 
  8 C        1.8870    -2.5260    -1.9640 C.ar  1 <1>  -0.1500 
  9 C        4.6930    -0.2540     1.1090 C.3   1 <1>  -0.1600 
 10 C        4.4510     1.2020     0.7240 C.3   1 <1>  -0.1600 
 11 C       -0.1460    -3.9210    -0.8900 C.ar  1 <1>   0.4100 
 12 C        1.5700    -3.8170    -2.3350 C.ar  1 <1>   0.1600 
 13 N        0.5830    -4.5260    -1.8190 N.ar  1 <1>  -0.6200 
 14 N       -1.2050    -4.6260    -0.3490 N.pl3 1 <1>  -0.8380 
 15 C       -2.5790    -4.0830    -0.5760 C.3   1 <1>   0.2090 
 16 C       -1.1920    -6.1200    -0.4290 C.3   1 <1>   0.2090 
 17 C       -3.6250    -4.7970     0.3080 C.3   1 <1>   0.2950 
 18 C       -2.3070    -6.7460     0.4420 C.3   1 <1>   0.2000 
 19 O       -3.5510    -6.1870     0.1220 O.3   1 <1>  -0.5600 
 20 C       -5.0490    -4.3080    -0.0170 C.3   1 <1>  -0.1950 
 21 C       -2.4440    -8.2620     0.2490 C.3   1 <1>  -0.1600 
 22 C       -6.2690    -5.1310     0.2650 C.3   1 <1>  -0.2000 
 23 C       -5.8480    -4.8660    -1.1540 C.3   1 <1>  -0.2000 
 24 C       -1.1990    -9.0430     0.6990 C.3   1 <1>  -0.1600 
 25 C       -1.4220   -10.5540     0.5690 C.3   1 <1>  -0.1600 
 26 C       -0.1800   -11.3340     1.0100 C.3   1 <1>  -0.2400 
 27 H        3.4550    -1.9570     0.6110 H     1 <1>   0.0800 
 28 H        4.3670    -1.2890    -0.7430 H     1 <1>   0.0800 
 29 H        2.8550     1.9420    -0.5460 H     1 <1>   0.0800 
 30 H        2.3450     1.4930     1.0760 H     1 <1>   0.0800 
 31 H       -0.5080    -2.2020     0.3130 H     1 <1>   0.1500 
 32 H        2.7000    -2.0100    -2.4400 H     1 <1>   0.1500 
 33 H        4.3560    -0.4260     2.1170 H     1 <1>   0.0800 
 34 H        5.7290    -0.5340     1.0340 H     1 <1>   0.0800 
 35 H        5.0890     1.4760    -0.0980 H     1 <1>   0.0800 
 36 H        4.6250     1.8790     1.5430 H     1 <1>   0.0800 
 37 H        2.1570    -4.2950    -3.1010 H     1 <1>   0.1500 
 38 H       -2.5980    -3.0300    -0.3610 H     1 <1>   0.0800 
 39 H       -2.8460    -4.2150    -1.6100 H     1 <1>   0.0800 
 40 H       -1.3270    -6.4250    -1.4530 H     1 <1>   0.0800 
 41 H       -0.2330    -6.4770    -0.1000 H     1 <1>   0.0800 
 42 H       -3.4150    -4.5910     1.3430 H     1 <1>   0.0800 
 43 H       -2.1070    -6.5360     1.4780 H     1 <1>   0.0800 
 44 H       -5.1440    -3.2510     0.1620 H     1 <1>   0.1000 
 45 H       -3.2890    -8.5960     0.8260 H     1 <1>   0.0800 
 46 H       -2.6430    -8.4680    -0.7880 H     1 <1>   0.0800 
 47 H       -6.1500    -6.1290     0.6520 H     1 <1>   0.1000 
 48 H       -7.1490    -4.6430     0.6440 H     1 <1>   0.1000 
 49 H       -6.4390    -4.1960    -1.7540 H     1 <1>   0.1000 
 50 H       -5.4460    -5.6860    -1.7250 H     1 <1>   0.1000 
 51 H       -0.3520    -8.7640     0.0960 H     1 <1>   0.0800 
 52 H       -0.9760    -8.8040     1.7250 H     1 <1>   0.0800 
 53 H       -2.2610   -10.8510     1.1760 H     1 <1>   0.0800 
 54 H       -1.6480   -10.8000    -0.4550 H     1 <1>   0.0800 
 55 H        0.0520   -11.1220     2.0390 H     1 <1>   0.0800 
 56 H        0.6670   -11.0700     0.4020 H     1 <1>   0.0800 
 57 H       -0.3550   -12.3910     0.9110 H     1 <1>   0.0800 
@<TRIPOS>BOND
  1   1   2  2   
  2   2   3  am  
  3   2   4  1   
  4   3   5  1   
  5   3   6  1   
  6   4   7  ar  
  7   4   8  ar  
  8   5   9  1   
  9   5  27  1   
 10   5  28  1   
 11   6  10  1   
 12   6  29  1   
 13   6  30  1   
 14   7  11  ar  
 15   7  31  1   
 16   8  12  ar  
 17   8  32  1   
 18   9  10  1   
 19   9  33  1   
 20   9  34  1   
 21  10  35  1   
 22  10  36  1   
 23  11  13  ar  
 24  11  14  1   
 25  12  13  ar  
 26  12  37  1   
 27  14  15  1   
 28  14  16  1   
 29  15  17  1   
 30  15  38  1   
 31  15  39  1   
 32  16  18  1   
 33  16  40  1   
 34  16  41  1   
 35  17  19  1   
 36  17  20  1   
 37  17  42  1   
 38  18  19  1   
 39  18  21  1   
 40  18  43  1   
 41  20  22  1   
 42  20  23  1   
 43  20  44  1   
 44  21  24  1   
 45  21  45  1   
 46  21  46  1   
 47  22  23  1   
 48  22  47  1   
 49  22  48  1   
 50  23  49  1   
 51  23  50  1   
 52  24  25  1   
 53  24  51  1   
 54  24  52  1   
 55  25  26  1   
 56  25  53  1   
 57  25  54  1   
 58  26  55  1   
 59  26  56  1   
 60  26  57  1   
@<TRIPOS>SUBSTRUCTURE
  1 ****  11 GROUP 4 **** **** 0

# MOE 2024.06 (io_trps.svl 2023.06)
