@<TRIPOS>MOLECULE
NONAME
44 45 1 0 0 
SMALL
USER_CHARGES


@<TRIPOS>ATOM
  1 S        1.3250     1.5530     1.2550 S.o2  1 <1>   1.3330 
  2 O        1.0560     2.6500     2.1570 O.2   1 <1>  -0.6500 
  3 O        0.2250     0.8770     0.6030 O.2   1 <1>  -0.6500 
  4 N        2.2010     0.3890     2.1280 N.am  1 <1>  -0.8490 
  5 C        2.4670     2.0990    -0.0140 C.3   1 <1>  -0.0550 
  6 C        3.1760     0.9720     3.0580 C.3   1 <1>   0.1160 
  7 C        1.3180    -0.5310     2.8510 C.3   1 <1>   0.1160 
  8 C        2.8250     1.0350    -1.0780 C.3   1 <1>  -0.0800 
  9 C        3.6450     1.5610    -2.2510 C.3   1 <1>   0.2200 
 10 C        3.6770    -0.1300    -0.5570 C.3   1 <1>   0.1200 
 11 N        4.6630     2.5240    -1.7740 N.am  1 <1>  -0.7300 
 12 C        4.3430     0.2890    -2.7050 C.3   1 <1>   0.1200 
 13 O        4.6520    -0.3860    -1.5250 O.3   1 <1>  -0.5600 
 14 C        4.5590     3.8740    -1.8670 C.2   1 <1>   0.5690 
 15 O        3.6960     4.4000    -2.5260 O.2   1 <1>  -0.5700 
 16 C        5.5120     4.7350    -1.0600 C.3   1 <1>   0.0440 
 17 C        5.2300     4.5750     0.4300 C.ar  1 <1>  -0.1440 
 18 C        6.1400     3.9510     1.2710 C.ar  1 <1>  -0.1500 
 19 C        4.0290     5.0410     0.9530 C.ar  1 <1>  -0.1500 
 20 C        5.8200     3.8060     2.6080 C.ar  1 <1>   0.1900 
 21 C        3.7250     4.8820     2.2970 C.ar  1 <1>  -0.1500 
 22 F        6.6720     3.2070     3.3960 F     1 <1>  -0.1900 
 23 C        4.6290     4.2610     3.1410 C.ar  1 <1>  -0.1500 
 24 H        2.0280     2.9380    -0.5190 H     1 <1>   0.0800 
 25 H        3.3630     2.4460     0.4590 H     1 <1>   0.0800 
 26 H        3.7430     0.1920     3.5370 H     1 <1>   0.0800 
 27 H        2.6760     1.5560     3.8130 H     1 <1>   0.0800 
 28 H        3.8620     1.6070     2.5260 H     1 <1>   0.0800 
 29 H        1.8980    -1.2670     3.3800 H     1 <1>   0.0800 
 30 H        0.6740    -1.0450     2.1580 H     1 <1>   0.0800 
 31 H        0.7060     0.0120     3.5530 H     1 <1>   0.0800 
 32 H        1.9110     0.6220    -1.4700 H     1 <1>   0.0800 
 33 H        3.0370     1.9980    -3.0270 H     1 <1>   0.0800 
 34 H        3.0880    -1.0190    -0.4090 H     1 <1>   0.0800 
 35 H        4.1900     0.1190     0.3560 H     1 <1>   0.0800 
 36 H        5.3890     2.0940    -1.1950 H     1 <1>   0.3700 
 37 H        5.2420     0.4810    -3.2630 H     1 <1>   0.0800 
 38 H        3.6770    -0.3320    -3.2790 H     1 <1>   0.0800 
 39 H        6.5220     4.4540    -1.2920 H     1 <1>   0.0800 
 40 H        5.3810     5.7640    -1.3430 H     1 <1>   0.0800 
 41 H        7.0810     3.5790     0.9090 H     1 <1>   0.1500 
 42 H        3.3140     5.5280     0.3090 H     1 <1>   0.1500 
 43 H        2.7830     5.2380     2.6820 H     1 <1>   0.1500 
 44 H        4.4160     4.1320     4.1860 H     1 <1>   0.1500 
@<TRIPOS>BOND
  1   1   2  2   
  2   1   3  2   
  3   1   4  am  
  4   1   5  1   
  5   4   6  1   
  6   4   7  1   
  7   5   8  1   
  8   5  24  1   
  9   5  25  1   
 10   6  26  1   
 11   6  27  1   
 12   6  28  1   
 13   7  29  1   
 14   7  30  1   
 15   7  31  1   
 16   8   9  1   
 17   8  10  1   
 18   8  32  1   
 19   9  11  1   
 20   9  12  1   
 21   9  33  1   
 22  10  13  1   
 23  10  34  1   
 24  10  35  1   
 25  11  14  am  
 26  11  36  1   
 27  12  13  1   
 28  12  37  1   
 29  12  38  1   
 30  14  15  2   
 31  14  16  1   
 32  16  17  1   
 33  16  39  1   
 34  16  40  1   
 35  17  18  ar  
 36  17  19  ar  
 37  18  20  ar  
 38  18  41  1   
 39  19  21  ar  
 40  19  42  1   
 41  20  22  1   
 42  20  23  ar  
 43  21  23  ar  
 44  21  43  1   
 45  23  44  1   
@<TRIPOS>SUBSTRUCTURE
  1 ****   5 GROUP 4 **** **** 0

# MOE 2024.06 (io_trps.svl 2023.06)
