@<TRIPOS>MOLECULE
NONAME
49 51 1 0 0 
SMALL
USER_CHARGES


@<TRIPOS>ATOM
  1 S       -0.3780     0.4880     0.2750 S.3   1 <1>  -0.0800 
  2 C       -0.0020    -1.1010    -0.3180 C.2   1 <1>   0.4620 
  3 C        0.1160     1.1040    -1.2680 C.2   1 <1>   0.1980 
  4 N        0.4360    -1.0720    -1.5290 N.2   1 <1>  -0.3380 
  5 N       -0.1950    -2.2070     0.4870 N.pl3 1 <1>  -0.8220 
  6 N        0.4960     0.1840    -2.0620 N.2   1 <1>  -0.3380 
  7 C        0.0370     2.6130    -1.4810 C.3   1 <1>   0.1000 
  8 C        0.2020    -3.5570     0.0040 C.3   1 <1>   0.2090 
  9 C       -0.9990    -2.1900     1.7440 C.3   1 <1>   0.2090 
 10 C        0.0090     2.9770    -2.9720 C.3   1 <1>  -0.2400 
 11 C        1.2140     3.3170    -0.7930 C.3   1 <1>  -0.2400 
 12 C       -1.0520    -4.3650    -0.4130 C.3   1 <1>   0.0000 
 13 C       -1.6810    -3.5480     1.9760 C.3   1 <1>  -0.1600 
 14 C       -2.1820    -4.1150     0.6430 C.3   1 <1>   0.2000 
 15 C       -1.5900    -3.8120    -1.7570 C.3   1 <1>   0.1200 
 16 C       -0.6620    -5.8620    -0.6390 C.3   1 <1>  -0.0170 
 17 O       -2.9110    -5.2520     0.9140 O.3   1 <1>  -0.6800 
 18 O       -0.6100    -3.7970    -2.7420 O.3   1 <1>  -0.6800 
 19 C       -0.2410    -6.6750     0.5890 C.ar  1 <1>  -0.1440 
 20 C       -1.1240    -7.5800     1.1650 C.ar  1 <1>  -0.1500 
 21 C        1.0360    -6.5610     1.1220 C.ar  1 <1>  -0.1500 
 22 C       -0.7590    -8.3120     2.2810 C.ar  1 <1>  -0.1500 
 23 C        1.4040    -7.2920     2.2380 C.ar  1 <1>  -0.1500 
 24 C        0.5050    -8.1640     2.8230 C.ar  1 <1>  -0.1500 
 25 H       -0.8800     2.9620    -1.0370 H     1 <1>   0.0800 
 26 H        0.9100    -3.4870    -0.8040 H     1 <1>   0.0800 
 27 H        0.7070    -4.0440     0.8150 H     1 <1>   0.0800 
 28 H       -0.3620    -1.9500     2.5780 H     1 <1>   0.0800 
 29 H       -1.7600    -1.4330     1.6690 H     1 <1>   0.0800 
 30 H        0.9170     2.6570    -3.4530 H     1 <1>   0.0800 
 31 H       -0.0950     4.0390    -3.1000 H     1 <1>   0.0800 
 32 H       -0.8200     2.4900    -3.4540 H     1 <1>   0.0800 
 33 H        2.1460     2.9730    -1.2080 H     1 <1>   0.0800 
 34 H        1.2120     3.1070     0.2610 H     1 <1>   0.0800 
 35 H        1.1460     4.3820    -0.9290 H     1 <1>   0.0800 
 36 H       -2.5060    -3.4110     2.6520 H     1 <1>   0.0800 
 37 H       -0.9830    -4.2290     2.4310 H     1 <1>   0.0800 
 38 H       -2.8870    -3.4030     0.2480 H     1 <1>   0.0800 
 39 H       -1.9460    -2.8010    -1.6460 H     1 <1>   0.0800 
 40 H       -2.4030    -4.4220    -2.1120 H     1 <1>   0.0800 
 41 H       -1.4920    -6.3630    -1.1060 H     1 <1>   0.0800 
 42 H        0.1430    -5.9070    -1.3520 H     1 <1>   0.0800 
 43 H       -2.3020    -5.9290     1.2800 H     1 <1>   0.4000 
 44 H       -0.0930    -2.9610    -2.6750 H     1 <1>   0.4000 
 45 H       -2.1040    -7.7330     0.7440 H     1 <1>   0.1500 
 46 H        1.7610    -5.9100     0.6680 H     1 <1>   0.1500 
 47 H       -1.4550    -9.0030     2.7240 H     1 <1>   0.1500 
 48 H        2.3940    -7.1870     2.6470 H     1 <1>   0.1500 
 49 H        0.7900    -8.7320     3.6920 H     1 <1>   0.1500 
@<TRIPOS>BOND
  1   1   2  1   
  2   1   3  1   
  3   2   4  2   
  4   2   5  1   
  5   3   6  2   
  6   3   7  1   
  7   4   6  1   
  8   5   8  1   
  9   5   9  1   
 10   7  10  1   
 11   7  11  1   
 12   7  25  1   
 13   8  12  1   
 14   8  26  1   
 15   8  27  1   
 16   9  13  1   
 17   9  28  1   
 18   9  29  1   
 19  10  30  1   
 20  10  31  1   
 21  10  32  1   
 22  11  33  1   
 23  11  34  1   
 24  11  35  1   
 25  12  14  1   
 26  12  15  1   
 27  12  16  1   
 28  13  14  1   
 29  13  36  1   
 30  13  37  1   
 31  14  17  1   
 32  14  38  1   
 33  15  18  1   
 34  15  39  1   
 35  15  40  1   
 36  16  19  1   
 37  16  41  1   
 38  16  42  1   
 39  17  43  1   
 40  18  44  1   
 41  19  20  ar  
 42  19  21  ar  
 43  20  22  ar  
 44  20  45  1   
 45  21  23  ar  
 46  21  46  1   
 47  22  24  ar  
 48  22  47  1   
 49  23  24  ar  
 50  23  48  1   
 51  24  49  1   
@<TRIPOS>SUBSTRUCTURE
  1 ****   8 GROUP 4 **** **** 0

# MOE 2024.06 (io_trps.svl 2023.06)
