@<TRIPOS>MOLECULE
NONAME
53 55 1 0 0 
SMALL
USER_CHARGES


@<TRIPOS>ATOM
  1 S        0.0050     0.1560     0.2520 S.o2  1 <1>   1.4470 
  2 O        0.6000     0.8450    -0.8650 O.2   1 <1>  -0.6500 
  3 O        0.4350     0.4160     1.6020 O.2   1 <1>  -0.6500 
  4 N       -1.5390     0.7480     0.2480 N.am  1 <1>  -0.9780 
  5 C       -0.2030    -1.6200    -0.0660 C.ar  1 <1>  -0.0090 
  6 C       -0.0790    -2.1440    -1.3470 C.ar  1 <1>  -0.1500 
  7 C       -0.5080    -2.5030     0.9620 C.ar  1 <1>  -0.1500 
  8 C       -0.2540    -3.4950    -1.5900 C.ar  1 <1>  -0.1500 
  9 C       -0.6840    -3.8540     0.7200 C.ar  1 <1>  -0.1500 
 10 C       -0.5720    -4.3830    -0.5640 C.ar  1 <1>   0.0860 
 11 C       -0.7720    -5.7970    -0.8300 C.2   1 <1>   0.5440 
 12 O       -0.0320    -6.3700    -1.6070 O.2   1 <1>  -0.5700 
 13 N       -1.7630    -6.5270    -0.2090 N.am  1 <1>  -0.6600 
 14 C       -3.2240    -6.2510    -0.3310 C.3   1 <1>   0.2200 
 15 C       -1.4600    -7.9330     0.1780 C.3   1 <1>   0.0600 
 16 C       -3.6420    -5.2030    -1.3630 C.3   1 <1>  -0.1600 
 17 C       -3.8260    -5.7410     0.9730 C.3   1 <1>  -0.1600 
 18 C       -5.0680    -4.8180    -0.9430 C.3   1 <1>  -0.0800 
 19 C       -5.1710    -5.1250     0.5550 C.3   1 <1>  -0.0800 
 20 C       -5.4270    -3.3320    -1.1210 C.3   1 <1>  -0.1600 
 21 C       -5.5360    -3.8050     1.2520 C.3   1 <1>  -0.1600 
 22 C       -6.1000    -2.8750     0.1780 C.3   1 <1>   0.4230 
 23 N       -7.5990    -2.9410     0.1320 N.4   1 <1>  -0.9590 
 24 C       -8.1750    -4.2480    -0.3210 C.3   1 <1>   0.2630 
 25 C       -8.1570    -1.8230    -0.6910 C.3   1 <1>   0.2630 
 26 H       -1.5120     1.4240    -0.5130 H     1 <1>   0.4200 
 27 H       -1.5630     1.3010     1.1020 H     1 <1>   0.4200 
 28 H        0.1650    -1.4880    -2.1670 H     1 <1>   0.1500 
 29 H       -0.6010    -2.1270     1.9680 H     1 <1>   0.1500 
 30 H       -0.1410    -3.8810    -2.5890 H     1 <1>   0.1500 
 31 H       -0.9020    -4.5200     1.5380 H     1 <1>   0.1500 
 32 H       -3.7230    -7.1710    -0.5940 H     1 <1>   0.0800 
 33 H       -1.9590    -8.1800     1.0980 H     1 <1>   0.0800 
 34 H       -0.3990    -8.0570     0.3160 H     1 <1>   0.0800 
 35 H       -1.7840    -8.6030    -0.6000 H     1 <1>   0.0800 
 36 H       -3.0100    -4.3410    -1.3030 H     1 <1>   0.0800 
 37 H       -3.6120    -5.6030    -2.3620 H     1 <1>   0.0800 
 38 H       -3.9590    -6.5390     1.6820 H     1 <1>   0.0800 
 39 H       -3.1780    -4.9950     1.3920 H     1 <1>   0.0800 
 40 H       -5.7690    -5.4390    -1.4750 H     1 <1>   0.0800 
 41 H       -5.9490    -5.8550     0.7080 H     1 <1>   0.0800 
 42 H       -6.0280    -3.1650    -1.9960 H     1 <1>   0.0800 
 43 H       -4.5260    -2.7540    -1.2300 H     1 <1>   0.0800 
 44 H       -4.6420    -3.3430     1.6320 H     1 <1>   0.0800 
 45 H       -6.2090    -3.9530     2.0780 H     1 <1>   0.0800 
 46 H       -5.8070    -1.8610     0.4000 H     1 <1>   0.0800 
 47 H       -7.9180    -2.7920     1.1010 H     1 <1>   0.4500 
 48 H       -7.8590    -4.4690    -1.3270 H     1 <1>   0.0800 
 49 H       -9.2520    -4.2100    -0.2990 H     1 <1>   0.0800 
 50 H       -7.8510    -5.0450     0.3270 H     1 <1>   0.0800 
 51 H       -7.8680    -1.9360    -1.7240 H     1 <1>   0.0800 
 52 H       -7.7910    -0.8740    -0.3330 H     1 <1>   0.0800 
 53 H       -9.2340    -1.8180    -0.6350 H     1 <1>   0.0800 
@<TRIPOS>BOND
  1   1   2  2   
  2   1   3  2   
  3   1   4  am  
  4   1   5  1   
  5   4  26  1   
  6   4  27  1   
  7   5   6  ar  
  8   5   7  ar  
  9   6   8  ar  
 10   6  28  1   
 11   7   9  ar  
 12   7  29  1   
 13   8  10  ar  
 14   8  30  1   
 15   9  10  ar  
 16   9  31  1   
 17  10  11  1   
 18  11  12  2   
 19  11  13  am  
 20  13  14  1   
 21  13  15  1   
 22  14  16  1   
 23  14  17  1   
 24  14  32  1   
 25  15  33  1   
 26  15  34  1   
 27  15  35  1   
 28  16  18  1   
 29  16  36  1   
 30  16  37  1   
 31  17  19  1   
 32  17  38  1   
 33  17  39  1   
 34  18  19  1   
 35  18  20  1   
 36  18  40  1   
 37  19  21  1   
 38  19  41  1   
 39  20  22  1   
 40  20  42  1   
 41  20  43  1   
 42  21  22  1   
 43  21  44  1   
 44  21  45  1   
 45  22  23  1   
 46  22  46  1   
 47  23  24  1   
 48  23  25  1   
 49  23  47  1   
 50  24  48  1   
 51  24  49  1   
 52  24  50  1   
 53  25  51  1   
 54  25  52  1   
 55  25  53  1   
@<TRIPOS>SUBSTRUCTURE
  1 ****  16 GROUP 4 **** **** 0

# MOE 2024.06 (io_trps.svl 2023.06)
