@<TRIPOS>MOLECULE
NONAME
41 43 1 0 0 
SMALL
USER_CHARGES


@<TRIPOS>ATOM
  1 O       -0.6420     0.8810     1.9240 O.3   1 <1>  -0.5600 
  2 C        0.1620     1.1980     0.8220 C.3   1 <1>   0.1200 
  3 C       -1.9270     1.4100     1.7770 C.3   1 <1>   0.1200 
  4 C       -0.5990     2.2390     0.0030 C.3   1 <1>   0.2890 
  5 C       -2.0420     1.9040     0.3330 C.3   1 <1>  -0.0800 
  6 N       -0.2950     3.5970     0.5180 N.pl3 1 <1>  -0.8690 
  7 C       -2.6050     0.8250    -0.6120 C.3   1 <1>  -0.0170 
  8 C        0.2900     4.6120    -0.1980 C.ar  1 <1>   0.4100 
  9 C       -4.0520     0.4930    -0.2810 C.ar  1 <1>  -0.1430 
 10 N        0.4200     4.4350    -1.4950 N.ar  1 <1>  -0.6200 
 11 C        0.7290     5.7750     0.4290 C.ar  1 <1>  -0.1430 
 12 C       -4.4080    -0.6800     0.3550 C.ar  1 <1>  -0.1500 
 13 C       -5.0850     1.3500    -0.6010 C.ar  1 <1>  -0.1500 
 14 C        0.9960     5.4220    -2.1470 C.ar  1 <1>   0.4700 
 15 C        1.3250     6.7280    -0.3700 C.ar  1 <1>   0.1670 
 16 C        0.5380     5.9490     1.9380 C.3   1 <1>  -0.0970 
 17 C       -5.7410    -0.9290     0.6360 C.ar  1 <1>   0.1600 
 18 C       -6.3870     1.0060    -0.2750 C.ar  1 <1>   0.1600 
 19 N        1.4610     6.5590    -1.6690 N.ar  1 <1>  -0.6200 
 20 C        1.8710     8.0380     0.1700 C.3   1 <1>  -0.0970 
 21 N       -6.7400    -0.1130     0.3370 N.ar  1 <1>  -0.6200 
 22 H        1.1150     1.5620     1.1610 H     1 <1>   0.0800 
 23 H        0.2990     0.2970     0.2510 H     1 <1>   0.0800 
 24 H       -2.6510     0.6560     2.0300 H     1 <1>   0.0800 
 25 H       -2.0180     2.2330     2.4640 H     1 <1>   0.0800 
 26 H       -0.3800     2.1580    -1.0470 H     1 <1>   0.0800 
 27 H       -2.6640     2.7800     0.2710 H     1 <1>   0.0800 
 28 H       -0.2220     3.6360     1.5350 H     1 <1>   0.4000 
 29 H       -2.0080    -0.0690    -0.5540 H     1 <1>   0.0800 
 30 H       -2.5580     1.1810    -1.6270 H     1 <1>   0.0800 
 31 H       -3.6630    -1.4010     0.6370 H     1 <1>   0.1500 
 32 H       -4.8910     2.2820    -1.0990 H     1 <1>   0.1500 
 33 H        1.1030     5.2830    -3.2090 H     1 <1>   0.1500 
 34 H        0.7260     6.9540     2.2620 H     1 <1>   0.0800 
 35 H        1.2050     5.2900     2.4660 H     1 <1>   0.0800 
 36 H       -0.4750     5.7090     2.2100 H     1 <1>   0.0800 
 37 H       -6.0000    -1.8480     1.1330 H     1 <1>   0.1500 
 38 H       -7.1790     1.6870    -0.5320 H     1 <1>   0.1500 
 39 H        2.5190     7.8550     1.0060 H     1 <1>   0.0800 
 40 H        1.0590     8.6730     0.4730 H     1 <1>   0.0800 
 41 H        2.4380     8.5480    -0.5880 H     1 <1>   0.0800 
@<TRIPOS>BOND
  1   1   2  1   
  2   1   3  1   
  3   2   4  1   
  4   2  22  1   
  5   2  23  1   
  6   3   5  1   
  7   3  24  1   
  8   3  25  1   
  9   4   5  1   
 10   4   6  1   
 11   4  26  1   
 12   5   7  1   
 13   5  27  1   
 14   6   8  1   
 15   6  28  1   
 16   7   9  1   
 17   7  29  1   
 18   7  30  1   
 19   8  10  ar  
 20   8  11  ar  
 21   9  12  ar  
 22   9  13  ar  
 23  10  14  ar  
 24  11  15  ar  
 25  11  16  1   
 26  12  17  ar  
 27  12  31  1   
 28  13  18  ar  
 29  13  32  1   
 30  14  19  ar  
 31  14  33  1   
 32  15  19  ar  
 33  15  20  1   
 34  16  34  1   
 35  16  35  1   
 36  16  36  1   
 37  17  21  ar  
 38  17  37  1   
 39  18  21  ar  
 40  18  38  1   
 41  20  39  1   
 42  20  40  1   
 43  20  41  1   
@<TRIPOS>SUBSTRUCTURE
  1 ****   5 GROUP 4 **** **** 0

# MOE 2024.06 (io_trps.svl 2023.06)
