@<TRIPOS>MOLECULE
NONAME
50 52 1 0 0 
SMALL
USER_CHARGES


@<TRIPOS>ATOM
  1 O        0.8390     0.7760     1.3390 O.3   1 <1>  -0.2800 
  2 C        1.3650     1.3880     0.2960 C.2   1 <1>  -0.0400 
  3 C        0.7360    -0.5050     1.0470 C.2   1 <1>  -0.0100 
  4 C        1.6070     0.4980    -0.6960 C.2   1 <1>  -0.1500 
  5 C        1.5840     2.8920     0.4090 C.3   1 <1>   0.6030 
  6 C        1.1940    -0.7440    -0.1990 C.2   1 <1>  -0.1500 
  7 N        0.3560     3.6410    -0.0560 N.4   1 <1>  -0.9590 
  8 C        2.9030     3.2730    -0.3370 C.3   1 <1>   0.2090 
  9 C        0.2650     5.0490     0.4170 C.3   1 <1>   0.3430 
 10 C       -0.9160     3.0130     0.4020 C.3   1 <1>   0.3430 
 11 N        3.1770     4.7470    -0.4500 N.pl3 1 <1>  -0.8690 
 12 C       -1.2000     5.4210     0.2400 C.3   1 <1>  -0.1600 
 13 C       -1.9670     4.0980     0.2270 C.3   1 <1>  -0.1600 
 14 C        4.1520     5.5660    -0.0290 C.ar  1 <1>   0.7710 
 15 N        3.8900     6.8350    -0.2190 N.ar  1 <1>  -0.6200 
 16 N        5.2920     5.1200     0.5320 N.ar  1 <1>  -0.1790 
 17 C        4.8080     7.7150     0.1380 C.ar  1 <1>   0.4100 
 18 C        6.2370     5.9960     0.9530 C.ar  1 <1>   0.2110 
 19 N        4.5290     9.0130    -0.1380 N.pl3 1 <1>  -0.8380 
 20 C        6.0150     7.3220     0.7740 C.ar  1 <1>  -0.1440 
 21 C        3.1830     9.6050     0.1030 C.3   1 <1>   0.1290 
 22 C        5.4150     9.8650    -0.9820 C.3   1 <1>   0.1290 
 23 C        7.0300     8.3460     1.2800 C.3   1 <1>  -0.0970 
 24 H        0.3280    -1.1820     1.7810 H     1 <1>   0.1500 
 25 H        2.0220     0.6360    -1.6800 H     1 <1>   0.1500 
 26 H        1.7330     3.1010     1.4560 H     1 <1>   0.0800 
 27 H        1.2440    -1.6830    -0.7260 H     1 <1>   0.1500 
 28 H        0.3200     3.6290    -1.0820 H     1 <1>   0.4500 
 29 H        2.8630     2.8650    -1.3330 H     1 <1>   0.0800 
 30 H        3.7180     2.7850     0.1670 H     1 <1>   0.0800 
 31 H        0.9050     5.7150    -0.1390 H     1 <1>   0.0800 
 32 H        0.5190     5.1010     1.4640 H     1 <1>   0.0800 
 33 H       -0.8410     2.7490     1.4450 H     1 <1>   0.0800 
 34 H       -1.1560     2.1270    -0.1670 H     1 <1>   0.0800 
 35 H        2.5100     5.2610    -1.0400 H     1 <1>   0.4000 
 36 H       -1.3380     5.9450    -0.6910 H     1 <1>   0.0800 
 37 H       -1.5250     6.0630     1.0410 H     1 <1>   0.0800 
 38 H       -2.6940     4.0470     1.0200 H     1 <1>   0.0800 
 39 H       -2.4780     3.9660    -0.7110 H     1 <1>   0.0800 
 40 H        5.4330     4.1190     0.6050 H     1 <1>   0.4570 
 41 H        7.1320     5.6150     1.4200 H     1 <1>   0.1500 
 42 H        2.6140     8.9830     0.7730 H     1 <1>   0.0800 
 43 H        2.6510     9.6960    -0.8280 H     1 <1>   0.0800 
 44 H        3.2870    10.5800     0.5470 H     1 <1>   0.0800 
 45 H        6.2350     9.2870    -1.3720 H     1 <1>   0.0800 
 46 H        5.8030    10.6810    -0.3970 H     1 <1>   0.0800 
 47 H        4.8590    10.2630    -1.8130 H     1 <1>   0.0800 
 48 H        6.5230     9.1520     1.7830 H     1 <1>   0.0800 
 49 H        7.5940     8.7550     0.4610 H     1 <1>   0.0800 
 50 H        7.7200     7.9040     1.9760 H     1 <1>   0.0800 
@<TRIPOS>BOND
  1   1   2  1   
  2   1   3  1   
  3   2   4  2   
  4   2   5  1   
  5   3   6  2   
  6   3  24  1   
  7   4   6  1   
  8   4  25  1   
  9   5   7  1   
 10   5   8  1   
 11   5  26  1   
 12   6  27  1   
 13   7   9  1   
 14   7  10  1   
 15   7  28  1   
 16   8  11  1   
 17   8  29  1   
 18   8  30  1   
 19   9  12  1   
 20   9  31  1   
 21   9  32  1   
 22  10  13  1   
 23  10  33  1   
 24  10  34  1   
 25  11  14  1   
 26  11  35  1   
 27  12  13  1   
 28  12  36  1   
 29  12  37  1   
 30  13  38  1   
 31  13  39  1   
 32  14  15  ar  
 33  14  16  ar  
 34  15  17  ar  
 35  16  18  ar  
 36  16  40  1   
 37  17  19  1   
 38  17  20  ar  
 39  18  20  ar  
 40  18  41  1   
 41  19  21  1   
 42  19  22  1   
 43  20  23  1   
 44  21  42  1   
 45  21  43  1   
 46  21  44  1   
 47  22  45  1   
 48  22  46  1   
 49  22  47  1   
 50  23  48  1   
 51  23  49  1   
 52  23  50  1   
@<TRIPOS>SUBSTRUCTURE
  1 ****  11 GROUP 4 **** **** 0

# MOE 2024.06 (io_trps.svl 2023.06)
