@<TRIPOS>MOLECULE
NONAME
47 50 1 0 0 
SMALL
USER_CHARGES


@<TRIPOS>ATOM
  1 O       -0.8260    -0.7050    -1.2210 O.2   1 <1>  -0.5700 
  2 C       -1.6110    -1.5140    -0.7460 C.2   1 <1>   0.6160 
  3 N       -2.4010    -2.3050    -1.5690 N.am  1 <1>  -0.4690 
  4 C       -1.7540    -1.6770     0.6590 C.2   1 <1>  -0.1360 
  5 C       -3.2920    -3.2010    -1.0280 C.2   1 <1>  -0.0410 
  6 C       -2.2560    -2.1830    -3.0430 C.3   1 <1>   0.0600 
  7 C       -2.6430    -2.5600     1.1830 C.2   1 <1>  -0.1500 
  8 C       -3.4650    -3.3520     0.3270 C.2   1 <1>   0.0140 
  9 C       -4.4190    -4.2730     0.9010 C.2   1 <1>   0.6160 
 10 O       -4.0640    -4.9960     1.8150 O.2   1 <1>  -0.5700 
 11 N       -5.7260    -4.3550     0.4600 N.am  1 <1>  -0.6600 
 12 C       -6.4140    -3.2670    -0.3050 C.3   1 <1>   0.1400 
 13 C       -6.6120    -5.4760     0.9130 C.3   1 <1>   0.1400 
 14 C       -7.5630    -2.6400     0.5160 C.3   1 <1>   0.1430 
 15 C       -8.1050    -5.1300     0.7860 C.3   1 <1>  -0.1600 
 16 C       -8.4130    -1.8370    -0.4550 C.ar  1 <1>   0.1670 
 17 C       -8.3800    -3.7060     1.2940 C.3   1 <1>  -0.1600 
 18 C       -7.0300    -1.5340     1.4660 C.3   1 <1>  -0.1600 
 19 N       -9.2640    -2.3410    -1.3220 N.ar  1 <1>  -0.6200 
 20 C       -8.1750    -0.5000    -0.3440 C.ar  1 <1>  -0.1430 
 21 C       -7.1400    -0.1990     0.7100 C.3   1 <1>  -0.0170 
 22 C       -9.8840    -1.4380    -2.0690 C.ar  1 <1>   0.4770 
 23 C       -8.8700     0.3460    -1.1720 C.ar  1 <1>   0.1600 
 24 N       -9.7370    -0.1200    -2.0480 N.ar  1 <1>  -0.6200 
 25 C      -10.8810    -1.9710    -3.0690 C.3   1 <1>  -0.0970 
 26 H       -1.1190    -1.0670     1.2720 H     1 <1>   0.1500 
 27 H       -3.8690    -3.8020    -1.7110 H     1 <1>   0.1500 
 28 H       -2.4670    -1.1710    -3.3420 H     1 <1>   0.0800 
 29 H       -2.9310    -2.8490    -3.5490 H     1 <1>   0.0800 
 30 H       -1.2450    -2.4240    -3.3240 H     1 <1>   0.0800 
 31 H       -2.7500    -2.6940     2.2470 H     1 <1>   0.1500 
 32 H       -6.8160    -3.6940    -1.2080 H     1 <1>   0.0800 
 33 H       -5.7290    -2.4920    -0.5950 H     1 <1>   0.0800 
 34 H       -6.3980    -5.6950     1.9460 H     1 <1>   0.0800 
 35 H       -6.3900    -6.3580     0.3370 H     1 <1>   0.0800 
 36 H       -8.6810    -5.8390     1.3540 H     1 <1>   0.0800 
 37 H       -8.4130    -5.2170    -0.2420 H     1 <1>   0.0800 
 38 H       -9.4320    -3.4890     1.2250 H     1 <1>   0.0800 
 39 H       -8.1130    -3.6810     2.3360 H     1 <1>   0.0800 
 40 H       -6.0260    -1.7300     1.7990 H     1 <1>   0.0800 
 41 H       -7.6660    -1.4680     2.3320 H     1 <1>   0.0800 
 42 H       -6.2040     0.0530     0.2400 H     1 <1>   0.0800 
 43 H       -7.4520     0.6000     1.3600 H     1 <1>   0.0800 
 44 H       -8.7170     1.4100    -1.1210 H     1 <1>   0.1500 
 45 H      -10.7280    -3.0220    -3.2280 H     1 <1>   0.0800 
 46 H      -10.7690    -1.4550    -4.0040 H     1 <1>   0.0800 
 47 H      -11.8750    -1.8110    -2.6960 H     1 <1>   0.0800 
@<TRIPOS>BOND
  1   1   2  2   
  2   2   3  am  
  3   2   4  1   
  4   3   5  1   
  5   3   6  1   
  6   4   7  2   
  7   4  26  1   
  8   5   8  2   
  9   5  27  1   
 10   6  28  1   
 11   6  29  1   
 12   6  30  1   
 13   7   8  1   
 14   7  31  1   
 15   8   9  1   
 16   9  10  2   
 17   9  11  am  
 18  11  12  1   
 19  11  13  1   
 20  12  14  1   
 21  12  32  1   
 22  12  33  1   
 23  13  15  1   
 24  13  34  1   
 25  13  35  1   
 26  14  16  1   
 27  14  17  1   
 28  14  18  1   
 29  15  17  1   
 30  15  36  1   
 31  15  37  1   
 32  16  19  ar  
 33  16  20  ar  
 34  17  38  1   
 35  17  39  1   
 36  18  21  1   
 37  18  40  1   
 38  18  41  1   
 39  19  22  ar  
 40  20  21  1   
 41  20  23  ar  
 42  21  42  1   
 43  21  43  1   
 44  22  24  ar  
 45  22  25  1   
 46  23  24  ar  
 47  23  44  1   
 48  25  45  1   
 49  25  46  1   
 50  25  47  1   
@<TRIPOS>SUBSTRUCTURE
  1 ****  12 GROUP 4 **** **** 0

# MOE 2024.06 (io_trps.svl 2023.06)
