@<TRIPOS>MOLECULE
NONAME
50 53 1 0 0 
SMALL
USER_CHARGES


@<TRIPOS>ATOM
  1 S       -1.8830    -2.7260     1.6600 S.3   1 <1>  -0.0800 
  2 C       -2.0240    -0.9830     1.7240 C.2   1 <1>   0.1980 
  3 C       -2.5590    -2.6890     0.0590 C.2   1 <1>  -0.1100 
  4 N       -2.5170    -0.4550     0.6770 N.2   1 <1>  -0.5650 
  5 C       -1.5580    -0.2950     2.9850 C.3   1 <1>  -0.0600 
  6 C       -2.8250    -1.4150    -0.2740 C.2   1 <1>   0.0460 
  7 C       -3.4300    -0.9220    -1.5780 C.3   1 <1>   0.0820 
  8 C       -4.0910    -2.0400    -2.3680 C.2   1 <1>   0.5690 
  9 O       -3.5330    -2.4020    -3.3780 O.2   1 <1>  -0.5700 
 10 N       -5.2680    -2.6170    -1.9470 N.am  1 <1>  -0.6600 
 11 C       -5.8670    -3.7720    -2.6720 C.3   1 <1>   0.1400 
 12 C       -6.0380    -2.2300    -0.7290 C.3   1 <1>   0.1400 
 13 C       -5.9100    -4.9850    -1.7380 C.3   1 <1>  -0.1600 
 14 C       -6.0990    -3.4150     0.2380 C.3   1 <1>  -0.1600 
 15 C       -6.6640    -4.6840    -0.4300 C.3   1 <1>   0.4240 
 16 O       -7.9690    -4.3630    -0.8640 O.3   1 <1>  -0.5600 
 17 C       -6.6590    -5.9120     0.5260 C.ar  1 <1>  -0.1430 
 18 C       -9.0070    -4.4760     0.0530 C.3   1 <1>   0.1200 
 19 C       -5.4730    -6.4520     1.0440 C.ar  1 <1>   0.0830 
 20 C       -7.8650    -6.5060     0.8960 C.ar  1 <1>  -0.1430 
 21 C       -9.1800    -5.9490     0.3890 C.3   1 <1>  -0.0170 
 22 O       -4.2840    -5.8780     0.7120 O.3   1 <1>  -0.3630 
 23 C       -5.5180    -7.5600     1.8890 C.ar  1 <1>  -0.1500 
 24 C       -7.8960    -7.6070     1.7350 C.ar  1 <1>  -0.1500 
 25 C       -3.0460    -6.3520     1.1940 C.3   1 <1>   0.0400 
 26 C       -6.7230    -8.1360     2.2310 C.ar  1 <1>  -0.1500 
 27 H       -2.6910    -3.6210    -0.4620 H     1 <1>   0.1500 
 28 H       -2.1230    -0.6530     3.8250 H     1 <1>   0.0800 
 29 H       -1.7020     0.7660     2.8930 H     1 <1>   0.0800 
 30 H       -0.5150    -0.4940     3.1440 H     1 <1>   0.0800 
 31 H       -2.6510    -0.4810    -2.1710 H     1 <1>   0.0800 
 32 H       -4.1550    -0.1570    -1.3780 H     1 <1>   0.0800 
 33 H       -5.2930    -4.0150    -3.5500 H     1 <1>   0.0800 
 34 H       -6.8630    -3.5130    -2.9900 H     1 <1>   0.0800 
 35 H       -7.0360    -1.9500    -1.0230 H     1 <1>   0.0800 
 36 H       -5.5930    -1.3890    -0.2290 H     1 <1>   0.0800 
 37 H       -4.8980    -5.2760    -1.5420 H     1 <1>   0.0800 
 38 H       -6.3870    -5.8090    -2.2340 H     1 <1>   0.0800 
 39 H       -6.6880    -3.1580     1.0970 H     1 <1>   0.0800 
 40 H       -5.1070    -3.5960     0.5960 H     1 <1>   0.0800 
 41 H       -9.8980    -4.0860    -0.4050 H     1 <1>   0.0800 
 42 H       -8.7760    -3.9000     0.9310 H     1 <1>   0.0800 
 43 H       -9.4890    -6.4850    -0.4900 H     1 <1>   0.0800 
 44 H       -9.9440    -6.0520     1.1380 H     1 <1>   0.0800 
 45 H       -4.6250    -7.9930     2.2950 H     1 <1>   0.1500 
 46 H       -8.8350    -8.0590     2.0060 H     1 <1>   0.1500 
 47 H       -2.2680    -5.7370     0.7800 H     1 <1>   0.0800 
 48 H       -2.9130    -7.3700     0.8740 H     1 <1>   0.0800 
 49 H       -3.0370    -6.2770     2.2670 H     1 <1>   0.0800 
 50 H       -6.7500    -8.9920     2.8820 H     1 <1>   0.1500 
@<TRIPOS>BOND
  1   1   2  1   
  2   1   3  1   
  3   2   4  2   
  4   2   5  1   
  5   3   6  2   
  6   3  27  1   
  7   4   6  1   
  8   5  28  1   
  9   5  29  1   
 10   5  30  1   
 11   6   7  1   
 12   7   8  1   
 13   7  31  1   
 14   7  32  1   
 15   8   9  2   
 16   8  10  am  
 17  10  11  1   
 18  10  12  1   
 19  11  13  1   
 20  11  33  1   
 21  11  34  1   
 22  12  14  1   
 23  12  35  1   
 24  12  36  1   
 25  13  15  1   
 26  13  37  1   
 27  13  38  1   
 28  14  15  1   
 29  14  39  1   
 30  14  40  1   
 31  15  16  1   
 32  15  17  1   
 33  16  18  1   
 34  17  19  ar  
 35  17  20  ar  
 36  18  21  1   
 37  18  41  1   
 38  18  42  1   
 39  19  22  1   
 40  19  23  ar  
 41  20  21  1   
 42  20  24  ar  
 43  21  43  1   
 44  21  44  1   
 45  22  25  1   
 46  23  26  ar  
 47  23  45  1   
 48  24  26  ar  
 49  24  46  1   
 50  25  47  1   
 51  25  48  1   
 52  25  49  1   
 53  26  50  1   
@<TRIPOS>SUBSTRUCTURE
  1 ****  14 GROUP 4 **** **** 0

# MOE 2024.06 (io_trps.svl 2023.06)
