@<TRIPOS>MOLECULE
NONAME
46 47 1 0 0 
SMALL
USER_CHARGES


@<TRIPOS>ATOM
  1 CL      -0.3190    -1.0840    -3.0170 Cl    1 <1>  -0.1770 
  2 C       -0.6720    -2.5190    -2.0720 C.ar  1 <1>   0.1770 
  3 C        0.3670    -3.3720    -1.7200 C.ar  1 <1>  -0.1440 
  4 C       -1.9840    -2.7750    -1.6950 C.ar  1 <1>  -0.1440 
  5 C        0.0790    -4.5040    -0.9730 C.ar  1 <1>  -0.1500 
  6 C        1.7990    -3.0780    -2.1430 C.3   1 <1>  -0.0960 
  7 C       -2.2490    -3.9110    -0.9490 C.ar  1 <1>  -0.1500 
  8 C       -3.1160    -1.8370    -2.0880 C.3   1 <1>  -0.0960 
  9 C       -1.2300    -4.7770    -0.5820 C.ar  1 <1>   0.0830 
 10 O       -1.6010    -5.8580     0.1500 O.3   1 <1>  -0.3630 
 11 C       -0.6890    -6.8370     0.6310 C.3   1 <1>   0.2610 
 12 C       -1.4010    -8.1830     0.8820 C.2   1 <1>   0.5690 
 13 C        0.0220    -6.3020     1.8860 C.3   1 <1>  -0.2400 
 14 O       -0.8370    -9.1690     0.4550 O.2   1 <1>  -0.5700 
 15 N       -2.6050    -8.3110     1.5430 N.am  1 <1>  -0.6600 
 16 C       -3.2060    -9.6650     1.7340 C.3   1 <1>   0.3200 
 17 C       -3.4380    -7.1740     2.0570 C.3   1 <1>   0.1400 
 18 C       -3.8760   -10.1350     0.4520 C.2   1 <1>   0.0070 
 19 C       -4.5830    -6.7990     1.1040 C.3   1 <1>   0.1200 
 20 N       -5.1490   -10.3230     0.3020 N.2   1 <1>  -0.5650 
 21 N       -3.1610   -10.3890    -0.6630 N.pl3 1 <1>   0.0330 
 22 O       -5.6480    -7.6770     1.2460 O.3   1 <1>  -0.6800 
 23 C       -5.2680   -10.7220    -0.9790 C.2   1 <1>   0.0770 
 24 C       -4.0620   -10.7670    -1.5860 C.2   1 <1>  -0.3020 
 25 H        0.8850    -5.1580    -0.7040 H     1 <1>   0.1500 
 26 H        2.1130    -2.1310    -1.7410 H     1 <1>   0.0800 
 27 H        1.8640    -3.0360    -3.2160 H     1 <1>   0.0800 
 28 H        2.4740    -3.8370    -1.7910 H     1 <1>   0.0800 
 29 H       -3.2540    -4.1380    -0.6420 H     1 <1>   0.1500 
 30 H       -2.9380    -0.8560    -1.6830 H     1 <1>   0.0800 
 31 H       -4.0600    -2.1920    -1.7170 H     1 <1>   0.0800 
 32 H       -3.1770    -1.7630    -3.1590 H     1 <1>   0.0800 
 33 H        0.0320    -7.0180    -0.1450 H     1 <1>   0.0800 
 34 H       -0.6760    -6.1420     2.6860 H     1 <1>   0.0800 
 35 H        0.5320    -5.3800     1.6740 H     1 <1>   0.0800 
 36 H        0.7500    -7.0210     2.2160 H     1 <1>   0.0800 
 37 H       -3.9340    -9.6380     2.5260 H     1 <1>   0.0800 
 38 H       -2.4400   -10.3670     2.0150 H     1 <1>   0.0800 
 39 H       -2.8240    -6.3060     2.1960 H     1 <1>   0.0800 
 40 H       -3.8440    -7.4200     3.0230 H     1 <1>   0.0800 
 41 H       -4.2560    -6.8040     0.0790 H     1 <1>   0.0800 
 42 H       -4.9500    -5.8190     1.3510 H     1 <1>   0.0800 
 43 H       -2.1410   -10.2690    -0.7460 H     1 <1>   0.2700 
 44 H       -5.4360    -8.5690     0.8580 H     1 <1>   0.4000 
 45 H       -6.2300   -10.9590    -1.4040 H     1 <1>   0.1500 
 46 H       -3.8030   -11.0370    -2.5930 H     1 <1>   0.1500 
@<TRIPOS>BOND
  1   1   2  1   
  2   2   3  ar  
  3   2   4  ar  
  4   3   5  ar  
  5   3   6  1   
  6   4   7  ar  
  7   4   8  1   
  8   5   9  ar  
  9   5  25  1   
 10   6  26  1   
 11   6  27  1   
 12   6  28  1   
 13   7   9  ar  
 14   7  29  1   
 15   8  30  1   
 16   8  31  1   
 17   8  32  1   
 18   9  10  1   
 19  10  11  1   
 20  11  12  1   
 21  11  13  1   
 22  11  33  1   
 23  12  14  2   
 24  12  15  am  
 25  13  34  1   
 26  13  35  1   
 27  13  36  1   
 28  15  16  1   
 29  15  17  1   
 30  16  18  1   
 31  16  37  1   
 32  16  38  1   
 33  17  19  1   
 34  17  39  1   
 35  17  40  1   
 36  18  20  2   
 37  18  21  1   
 38  19  22  1   
 39  19  41  1   
 40  19  42  1   
 41  20  23  1   
 42  21  24  1   
 43  21  43  1   
 44  22  44  1   
 45  23  24  2   
 46  23  45  1   
 47  24  46  1   
@<TRIPOS>SUBSTRUCTURE
  1 ****  10 GROUP 4 **** **** 0

# MOE 2024.06 (io_trps.svl 2023.06)
