@<TRIPOS>MOLECULE
NONAME
51 54 1 0 0 
SMALL
USER_CHARGES


@<TRIPOS>ATOM
  1 O       -0.0280    -1.9720    -0.9170 O.3   1 <1>  -0.6800 
  2 C        1.0690    -2.7280    -1.2610 C.3   1 <1>   0.2000 
  3 C        1.8370    -3.1300    -0.0070 C.3   1 <1>  -0.1600 
  4 C        2.0430    -1.8740    -2.0610 C.3   1 <1>  -0.1600 
  5 C        3.2950    -3.2690    -0.4700 C.3   1 <1>  -0.0800 
  6 C        3.4180    -2.4970    -1.7890 C.3   1 <1>  -0.0800 
  7 C        4.3430    -2.6760     0.4860 C.3   1 <1>  -0.1600 
  8 C        4.5650    -1.4880    -1.6160 C.3   1 <1>  -0.1600 
  9 C        5.3520    -1.9120    -0.3770 C.3   1 <1>   0.4230 
 10 N        6.5520    -2.7280    -0.7530 N.4   1 <1>  -0.9590 
 11 C        7.4860    -2.8920     0.3990 C.3   1 <1>   0.4860 
 12 C        6.2710    -4.0400    -1.4140 C.3   1 <1>   0.2630 
 13 C        8.0010    -1.5230     0.7900 C.ar  1 <1>  -0.1440 
 14 C        8.9030    -0.8290    -0.0550 C.ar  1 <1>   0.0000 
 15 C        7.5540    -0.9590     1.9540 C.ar  1 <1>  -0.1500 
 16 C        9.2730     0.4950     0.2920 C.ar  1 <1>   0.0000 
 17 C        9.4580    -1.3940    -1.2300 C.ar  1 <1>  -0.1500 
 18 C        7.9530     0.3290     2.3110 C.ar  1 <1>  -0.1500 
 19 C        8.7850     1.0510     1.5020 C.ar  1 <1>  -0.1440 
 20 C       10.1220     1.2020    -0.5910 C.ar  1 <1>  -0.1500 
 21 C       10.2830    -0.6810    -2.0520 C.ar  1 <1>  -0.1500 
 22 C        9.1850     2.4580     1.9300 C.3   1 <1>  -0.0970 
 23 C       10.6120     0.6370    -1.7330 C.ar  1 <1>  -0.1500 
 24 H       -0.6670    -2.5070    -0.4090 H     1 <1>   0.4000 
 25 H        0.7520    -3.5890    -1.8260 H     1 <1>   0.0800 
 26 H        1.7420    -2.3480     0.7270 H     1 <1>   0.0800 
 27 H        1.4640    -4.0520     0.4020 H     1 <1>   0.0800 
 28 H        1.8000    -1.8840    -3.1080 H     1 <1>   0.0800 
 29 H        1.9990    -0.8630    -1.6940 H     1 <1>   0.0800 
 30 H        3.5060    -4.3090    -0.6560 H     1 <1>   0.0800 
 31 H        3.6470    -3.1920    -2.5800 H     1 <1>   0.0800 
 32 H        4.7910    -3.4260     1.1110 H     1 <1>   0.0800 
 33 H        3.8720    -1.9520     1.1280 H     1 <1>   0.0800 
 34 H        4.1580    -0.5130    -1.4130 H     1 <1>   0.0800 
 35 H        5.1770    -1.4110    -2.4960 H     1 <1>   0.0800 
 36 H        5.6790    -1.0260     0.1450 H     1 <1>   0.0800 
 37 H        7.0670    -2.1310    -1.4150 H     1 <1>   0.4500 
 38 H        6.9770    -3.3480     1.2320 H     1 <1>   0.0800 
 39 H        8.3180    -3.5200     0.1250 H     1 <1>   0.0800 
 40 H        5.7320    -4.6890    -0.7440 H     1 <1>   0.0800 
 41 H        7.1920    -4.5230    -1.6970 H     1 <1>   0.0800 
 42 H        5.6780    -3.8910    -2.3010 H     1 <1>   0.0800 
 43 H        6.8840    -1.4760     2.6200 H     1 <1>   0.1500 
 44 H        9.2510    -2.4120    -1.4950 H     1 <1>   0.1500 
 45 H        7.5860     0.7410     3.2360 H     1 <1>   0.1500 
 46 H       10.3960     2.2150    -0.3600 H     1 <1>   0.1500 
 47 H       10.6990    -1.1150    -2.9460 H     1 <1>   0.1500 
 48 H        8.7470     2.7160     2.8770 H     1 <1>   0.0800 
 49 H        8.8520     3.1750     1.2010 H     1 <1>   0.0800 
 50 H       10.2540     2.5240     2.0280 H     1 <1>   0.0800 
 51 H       11.2590     1.1920    -2.3920 H     1 <1>   0.1500 
@<TRIPOS>BOND
  1   1   2  1   
  2   1  24  1   
  3   2   3  1   
  4   2   4  1   
  5   2  25  1   
  6   3   5  1   
  7   3  26  1   
  8   3  27  1   
  9   4   6  1   
 10   4  28  1   
 11   4  29  1   
 12   5   6  1   
 13   5   7  1   
 14   5  30  1   
 15   6   8  1   
 16   6  31  1   
 17   7   9  1   
 18   7  32  1   
 19   7  33  1   
 20   8   9  1   
 21   8  34  1   
 22   8  35  1   
 23   9  10  1   
 24   9  36  1   
 25  10  11  1   
 26  10  12  1   
 27  10  37  1   
 28  11  13  1   
 29  11  38  1   
 30  11  39  1   
 31  12  40  1   
 32  12  41  1   
 33  12  42  1   
 34  13  14  ar  
 35  13  15  ar  
 36  14  16  ar  
 37  14  17  ar  
 38  15  18  ar  
 39  15  43  1   
 40  16  19  ar  
 41  16  20  ar  
 42  17  21  ar  
 43  17  44  1   
 44  18  19  ar  
 45  18  45  1   
 46  19  22  1   
 47  20  23  ar  
 48  20  46  1   
 49  21  23  ar  
 50  21  47  1   
 51  22  48  1   
 52  22  49  1   
 53  22  50  1   
 54  23  51  1   
@<TRIPOS>SUBSTRUCTURE
  1 ****   9 GROUP 4 **** **** 0

# MOE 2024.06 (io_trps.svl 2023.06)
