@<TRIPOS>MOLECULE
NONAME
47 49 1 0 0 
SMALL
USER_CHARGES


@<TRIPOS>ATOM
  1 O       -0.2210    -1.2190    -1.8870 O.2   1 <1>  -0.5700 
  2 C       -0.3720    -1.7790    -0.8180 C.2   1 <1>   0.5440 
  3 N        0.6010    -1.6370     0.1340 N.am  1 <1>  -0.7300 
  4 C       -1.5600    -2.5600    -0.5590 C.ar  1 <1>   0.0860 
  5 C        1.8560    -0.8800    -0.0410 C.3   1 <1>   0.1400 
  6 C       -2.7220    -2.3480    -1.3000 C.ar  1 <1>   0.1600 
  7 C       -1.6210    -3.5480     0.4220 C.ar  1 <1>  -0.1500 
  8 C        2.9690    -1.6030     0.7080 C.3   1 <1>  -0.2400 
  9 N       -3.8730    -2.9820    -1.1480 N.ar  1 <1>  -0.6200 
 10 C       -2.8080    -4.2180     0.5940 C.ar  1 <1>  -0.1500 
 11 C       -3.9090    -3.9110    -0.2010 C.ar  1 <1>   0.4100 
 12 N       -5.0870    -4.5860    -0.0260 N.pl3 1 <1>  -0.8380 
 13 C       -5.1500    -5.9880    -0.5360 C.3   1 <1>   0.3900 
 14 C       -6.3750    -3.8300    -0.1450 C.3   1 <1>   0.2090 
 15 C       -6.4470    -6.6460    -0.0890 C.2   1 <1>  -0.1810 
 16 C       -7.4880    -4.4870     0.6910 C.3   1 <1>   0.0200 
 17 C       -7.4870    -5.9870     0.4540 C.2   1 <1>  -0.3320 
 18 C       -6.8480    -7.9770    -0.1250 C.2   1 <1>   0.1080 
 19 N       -8.4450    -6.8970     0.7280 N.pl3 1 <1>   0.3140 
 20 N       -8.0480    -8.1330     0.3640 N.2   1 <1>  -0.7070 
 21 C       -6.0170    -9.1370    -0.6620 C.3   1 <1>   0.3010 
 22 C       -9.7640    -6.6560     1.3460 C.3   1 <1>   0.0960 
 23 O       -6.8940   -10.1350    -1.0320 O.3   1 <1>  -0.6800 
 24 C      -10.8180    -6.3120     0.2850 C.3   1 <1>  -0.2400 
 25 H        0.4300    -1.9800     1.0790 H     1 <1>   0.3700 
 26 H        1.7290     0.1170     0.3470 H     1 <1>   0.0800 
 27 H        2.1010    -0.8100    -1.0890 H     1 <1>   0.0800 
 28 H       -2.6890    -1.5960    -2.0700 H     1 <1>   0.1500 
 29 H       -0.7650    -3.7860     1.0270 H     1 <1>   0.1500 
 30 H        2.7480    -1.6530     1.7590 H     1 <1>   0.0800 
 31 H        3.8930    -1.0690     0.5800 H     1 <1>   0.0800 
 32 H        3.0940    -2.5960     0.3160 H     1 <1>   0.0800 
 33 H       -2.9140    -4.9800     1.3420 H     1 <1>   0.1500 
 34 H       -4.3110    -6.5450    -0.1580 H     1 <1>   0.0800 
 35 H       -5.1030    -5.9750    -1.6120 H     1 <1>   0.0800 
 36 H       -6.6680    -3.8140    -1.1810 H     1 <1>   0.0800 
 37 H       -6.2310    -2.8120     0.1770 H     1 <1>   0.0800 
 38 H       -8.4340    -4.0600     0.4120 H     1 <1>   0.0800 
 39 H       -7.3140    -4.2860     1.7320 H     1 <1>   0.0800 
 40 H       -5.3720    -9.5230     0.1060 H     1 <1>   0.0800 
 41 H       -5.4450    -8.8500    -1.5250 H     1 <1>   0.0800 
 42 H       -9.6700    -5.8550     2.0560 H     1 <1>   0.0800 
 43 H      -10.0520    -7.5480     1.8730 H     1 <1>   0.0800 
 44 H       -7.7480    -9.8720    -0.6110 H     1 <1>   0.4000 
 45 H      -10.5410    -5.4190    -0.2450 H     1 <1>   0.0800 
 46 H      -11.7720    -6.1540     0.7550 H     1 <1>   0.0800 
 47 H      -10.9110    -7.1250    -0.4140 H     1 <1>   0.0800 
@<TRIPOS>BOND
  1   1   2  2   
  2   2   3  am  
  3   2   4  1   
  4   3   5  1   
  5   3  25  1   
  6   4   6  ar  
  7   4   7  ar  
  8   5   8  1   
  9   5  26  1   
 10   5  27  1   
 11   6   9  ar  
 12   6  28  1   
 13   7  10  ar  
 14   7  29  1   
 15   8  30  1   
 16   8  31  1   
 17   8  32  1   
 18   9  11  ar  
 19  10  11  ar  
 20  10  33  1   
 21  11  12  1   
 22  12  13  1   
 23  12  14  1   
 24  13  15  1   
 25  13  34  1   
 26  13  35  1   
 27  14  16  1   
 28  14  36  1   
 29  14  37  1   
 30  15  17  2   
 31  15  18  1   
 32  16  17  1   
 33  16  38  1   
 34  16  39  1   
 35  17  19  1   
 36  18  20  2   
 37  18  21  1   
 38  19  20  1   
 39  19  22  1   
 40  21  23  1   
 41  21  40  1   
 42  21  41  1   
 43  22  24  1   
 44  22  42  1   
 45  22  43  1   
 46  23  44  1   
 47  24  45  1   
 48  24  46  1   
 49  24  47  1   
@<TRIPOS>SUBSTRUCTURE
  1 ****  12 GROUP 4 **** **** 0

# MOE 2024.06 (io_trps.svl 2023.06)
