@<TRIPOS>MOLECULE
NONAME
45 47 1 0 0 
SMALL
USER_CHARGES


@<TRIPOS>ATOM
  1 CL      -0.1650    -0.0770    -1.4000 Cl    1 <1>  -0.1770 
  2 C        1.1720    -0.9230    -0.6270 C.ar  1 <1>   0.1770 
  3 C        1.0050    -2.2030    -0.0130 C.ar  1 <1>   0.4100 
  4 C        2.4050    -0.3420    -0.6460 C.ar  1 <1>   0.2170 
  5 N        2.0540    -2.8350     0.4990 N.ar  1 <1>  -0.6200 
  6 N       -0.1830    -2.8710     0.1060 N.pl3 1 <1>  -0.8380 
  7 N        3.4250    -1.0360    -0.0800 N.ar  1 <1>  -0.1790 
  8 C        2.7480     1.0160    -1.2540 C.3   1 <1>  -0.0970 
  9 C        3.2280    -2.2480     0.4620 C.ar  1 <1>   0.7710 
 10 C       -1.5590    -2.3110    -0.0040 C.3   1 <1>   0.2090 
 11 C       -0.2750    -4.3130     0.4720 C.3   1 <1>   0.2090 
 12 N        4.2430    -2.9180     0.9980 N.pl3 1 <1>  -0.9000 
 13 C       -2.4790    -3.3170     0.6980 C.3   1 <1>  -0.0800 
 14 C       -1.7640    -4.6640     0.5150 C.3   1 <1>  -0.0800 
 15 C       -3.9770    -3.2990     0.2610 C.3   1 <1>   0.2800 
 16 C       -2.2480    -5.3730    -0.7610 C.3   1 <1>  -0.1600 
 17 O       -4.0980    -2.8050    -1.0240 O.3   1 <1>  -0.6800 
 18 C       -4.5400    -4.7320     0.2300 C.3   1 <1>  -0.1600 
 19 C       -4.8520    -2.4070     1.1690 C.3   1 <1>  -0.1600 
 20 C       -3.7560    -5.6840    -0.6980 C.3   1 <1>  -0.1600 
 21 C       -4.4570    -0.9200     1.2220 C.3   1 <1>  -0.2400 
 22 H        4.3710    -0.6710    -0.0550 H     1 <1>   0.4570 
 23 H        1.8810     1.5090    -1.6550 H     1 <1>   0.0800 
 24 H        3.4560     0.8980    -2.0550 H     1 <1>   0.0800 
 25 H        3.1710     1.6640    -0.5070 H     1 <1>   0.0800 
 26 H       -1.6260    -1.3440     0.4610 H     1 <1>   0.0800 
 27 H       -1.8010    -2.2280    -1.0490 H     1 <1>   0.0800 
 28 H        0.2550    -4.9200    -0.2420 H     1 <1>   0.0800 
 29 H        0.1580    -4.4560     1.4480 H     1 <1>   0.0800 
 30 H        5.2270    -2.6550     1.0770 H     1 <1>   0.4000 
 31 H        4.0310    -3.8390     1.3990 H     1 <1>   0.4000 
 32 H       -2.4370    -3.1000     1.7500 H     1 <1>   0.0800 
 33 H       -1.9500    -5.3110     1.3550 H     1 <1>   0.0800 
 34 H       -2.0600    -4.7320    -1.6060 H     1 <1>   0.0800 
 35 H       -1.6990    -6.2850    -0.9160 H     1 <1>   0.0800 
 36 H       -5.0280    -2.8640    -1.3060 H     1 <1>   0.4000 
 37 H       -4.4950    -5.1260     1.2310 H     1 <1>   0.0800 
 38 H       -5.5780    -4.7250    -0.0530 H     1 <1>   0.0800 
 39 H       -5.8750    -2.4760     0.8430 H     1 <1>   0.0800 
 40 H       -4.8210    -2.7990     2.1700 H     1 <1>   0.0800 
 41 H       -3.9020    -6.6950    -0.3580 H     1 <1>   0.0800 
 42 H       -4.1550    -5.6200    -1.6960 H     1 <1>   0.0800 
 43 H       -4.4270    -0.4970     0.2330 H     1 <1>   0.0800 
 44 H       -3.4960    -0.7950     1.6850 H     1 <1>   0.0800 
 45 H       -5.1790    -0.3730     1.8020 H     1 <1>   0.0800 
@<TRIPOS>BOND
  1   1   2  1   
  2   2   3  ar  
  3   2   4  ar  
  4   3   5  ar  
  5   3   6  1   
  6   4   7  ar  
  7   4   8  1   
  8   5   9  ar  
  9   6  10  1   
 10   6  11  1   
 11   7   9  ar  
 12   7  22  1   
 13   8  23  1   
 14   8  24  1   
 15   8  25  1   
 16   9  12  1   
 17  10  13  1   
 18  10  26  1   
 19  10  27  1   
 20  11  14  1   
 21  11  28  1   
 22  11  29  1   
 23  12  30  1   
 24  12  31  1   
 25  13  14  1   
 26  13  15  1   
 27  13  32  1   
 28  14  16  1   
 29  14  33  1   
 30  15  17  1   
 31  15  18  1   
 32  15  19  1   
 33  16  20  1   
 34  16  34  1   
 35  16  35  1   
 36  17  36  1   
 37  18  20  1   
 38  18  37  1   
 39  18  38  1   
 40  19  21  1   
 41  19  39  1   
 42  19  40  1   
 43  20  41  1   
 44  20  42  1   
 45  21  43  1   
 46  21  44  1   
 47  21  45  1   
@<TRIPOS>SUBSTRUCTURE
  1 ****   6 GROUP 4 **** **** 0

# MOE 2024.06 (io_trps.svl 2023.06)
