@<TRIPOS>MOLECULE
NONAME
64 69 1 0 0 
SMALL
USER_CHARGES


@<TRIPOS>ATOM
  1 O       -0.7180    -0.7250     0.6070 O.3   1 <1>  -0.5600 
  2 C       -1.7130    -1.7080     0.6170 C.3   1 <1>   0.1200 
  3 C        0.5700    -1.2150     0.8210 C.3   1 <1>   0.1200 
  4 C       -1.4600    -2.7430    -0.4920 C.3   1 <1>   0.2090 
  5 C        0.9550    -2.2200    -0.2830 C.3   1 <1>   0.2090 
  6 N       -0.0660    -3.3200    -0.3950 N.pl3 1 <1>  -0.8380 
  7 C        0.1520    -4.6630    -0.3740 C.ar  1 <1>   0.7710 
  8 N       -0.8820    -5.4900    -0.2960 N.ar  1 <1>  -0.6200 
  9 N        1.4130    -5.1260    -0.4370 N.ar  1 <1>  -0.1790 
 10 C       -0.6530    -6.7820    -0.2620 C.ar  1 <1>   0.4100 
 11 C        1.6990    -6.4490    -0.4090 C.ar  1 <1>   0.2180 
 12 N       -1.7690    -7.5230    -0.1710 N.pl3 1 <1>  -0.8690 
 13 C        0.6520    -7.3040    -0.3180 C.ar  1 <1>  -0.1500 
 14 C        3.1530    -6.8970    -0.4820 C.3   1 <1>  -0.0170 
 15 C       -2.0640    -8.9620    -0.0690 C.3   1 <1>   0.3690 
 16 C        3.9650    -6.4240     0.7310 C.3   1 <1>  -0.2400 
 17 C       -3.5900    -9.0910     0.0370 C.3   1 <1>  -0.1600 
 18 C       -1.5960    -9.7140    -1.3280 C.3   1 <1>  -0.1600 
 19 C       -1.4330    -9.5700     1.1970 C.3   1 <1>  -0.1600 
 20 C       -4.0150   -10.5780     0.1490 C.3   1 <1>   0.2560 
 21 C       -1.9720   -11.2030    -1.2180 C.3   1 <1>  -0.0800 
 22 C       -1.8090   -11.0590     1.3050 C.3   1 <1>  -0.0800 
 23 N       -5.5130   -10.7150     0.2540 N.pl3 1 <1>   0.5800 
 24 C       -3.5020   -11.3280    -1.1040 C.3   1 <1>  -0.1600 
 25 C       -3.3410   -11.1850     1.4030 C.3   1 <1>  -0.1600 
 26 C       -1.3210   -11.8010     0.0450 C.3   1 <1>  -0.1600 
 27 N       -6.1300   -11.8890     0.3530 N.2   1 <1>  -0.4180 
 28 N       -6.3600    -9.6960     0.2600 N.2   1 <1>  -0.7070 
 29 N       -7.3760   -11.6320     0.4230 N.2   1 <1>  -0.2270 
 30 C       -7.4740   -10.3120     0.3640 C.2   1 <1>   0.3350 
 31 C       -8.8120    -9.6140     0.4180 C.3   1 <1>  -0.0590 
 32 H       -2.6590    -1.2190     0.4590 H     1 <1>   0.0800 
 33 H       -1.7280    -2.1800     1.5840 H     1 <1>   0.0800 
 34 H        0.6060    -1.6770     1.7930 H     1 <1>   0.0800 
 35 H        1.2420    -0.3750     0.8120 H     1 <1>   0.0800 
 36 H       -1.5760    -2.2580    -1.4470 H     1 <1>   0.0800 
 37 H       -2.2200    -3.5010    -0.4270 H     1 <1>   0.0800 
 38 H        1.9320    -2.6050    -0.0600 H     1 <1>   0.0800 
 39 H        1.0110    -1.6900    -1.2200 H     1 <1>   0.0800 
 40 H        2.1380    -4.4280    -0.5260 H     1 <1>   0.4570 
 41 H       -2.6290    -6.9690    -0.1530 H     1 <1>   0.4000 
 42 H        0.8010    -8.3630    -0.2890 H     1 <1>   0.1500 
 43 H        3.6030    -6.5270    -1.3880 H     1 <1>   0.0800 
 44 H        3.1940    -7.9730    -0.5240 H     1 <1>   0.0800 
 45 H        4.0210    -5.3520     0.7780 H     1 <1>   0.0800 
 46 H        4.9700    -6.8080     0.6670 H     1 <1>   0.0800 
 47 H        3.5270    -6.7910     1.6440 H     1 <1>   0.0800 
 48 H       -4.0470    -8.6570    -0.8360 H     1 <1>   0.0800 
 49 H       -3.9340    -8.5580     0.9060 H     1 <1>   0.0800 
 50 H       -0.5330    -9.6380    -1.4480 H     1 <1>   0.0800 
 51 H       -2.0590    -9.2870    -2.2000 H     1 <1>   0.0800 
 52 H       -1.7840    -9.0430     2.0670 H     1 <1>   0.0800 
 53 H       -0.3650    -9.4890     1.1700 H     1 <1>   0.0800 
 54 H       -1.6280   -11.7330    -2.0910 H     1 <1>   0.0800 
 55 H       -1.3530   -11.4890     2.1820 H     1 <1>   0.0800 
 56 H       -3.9650   -10.9220    -1.9870 H     1 <1>   0.0800 
 57 H       -3.7680   -12.3700    -1.0420 H     1 <1>   0.0800 
 58 H       -3.6050   -12.2250     1.4940 H     1 <1>   0.0800 
 59 H       -3.6890   -10.6770     2.2860 H     1 <1>   0.0800 
 60 H       -0.2500   -11.7320    -0.0280 H     1 <1>   0.0800 
 61 H       -1.5700   -12.8470     0.1210 H     1 <1>   0.0800 
 62 H       -8.6740    -8.5510     0.3560 H     1 <1>   0.0800 
 63 H       -9.3050    -9.8530     1.3410 H     1 <1>   0.0800 
 64 H       -9.4210    -9.9400    -0.4050 H     1 <1>   0.0800 
@<TRIPOS>BOND
  1   1   2  1   
  2   1   3  1   
  3   2   4  1   
  4   2  32  1   
  5   2  33  1   
  6   3   5  1   
  7   3  34  1   
  8   3  35  1   
  9   4   6  1   
 10   4  36  1   
 11   4  37  1   
 12   5   6  1   
 13   5  38  1   
 14   5  39  1   
 15   6   7  1   
 16   7   8  ar  
 17   7   9  ar  
 18   8  10  ar  
 19   9  11  ar  
 20   9  40  1   
 21  10  12  1   
 22  10  13  ar  
 23  11  13  ar  
 24  11  14  1   
 25  12  15  1   
 26  12  41  1   
 27  13  42  1   
 28  14  16  1   
 29  14  43  1   
 30  14  44  1   
 31  15  17  1   
 32  15  18  1   
 33  15  19  1   
 34  16  45  1   
 35  16  46  1   
 36  16  47  1   
 37  17  20  1   
 38  17  48  1   
 39  17  49  1   
 40  18  21  1   
 41  18  50  1   
 42  18  51  1   
 43  19  22  1   
 44  19  52  1   
 45  19  53  1   
 46  20  23  1   
 47  20  24  1   
 48  20  25  1   
 49  21  24  1   
 50  21  26  1   
 51  21  54  1   
 52  22  25  1   
 53  22  26  1   
 54  22  55  1   
 55  23  27  1   
 56  23  28  1   
 57  24  56  1   
 58  24  57  1   
 59  25  58  1   
 60  25  59  1   
 61  26  60  1   
 62  26  61  1   
 63  27  29  2   
 64  28  30  2   
 65  29  30  1   
 66  30  31  1   
 67  31  62  1   
 68  31  63  1   
 69  31  64  1   
@<TRIPOS>SUBSTRUCTURE
  1 ****  12 GROUP 4 **** **** 0

# MOE 2024.06 (io_trps.svl 2023.06)
