@<TRIPOS>MOLECULE
NONAME
47 48 1 0 0 
SMALL
USER_CHARGES


@<TRIPOS>ATOM
  1 S       -0.6270    -0.6680    -0.6850 S.o2  1 <1>   1.3330 
  2 O        0.5970    -0.0190    -1.0780 O.2   1 <1>  -0.6500 
  3 O       -1.1070    -1.8260    -1.3940 O.2   1 <1>  -0.6500 
  4 N       -0.3090    -1.2500     0.8300 N.am  1 <1>  -0.9780 
  5 C       -1.9310     0.5450    -0.4450 C.3   1 <1>  -0.0550 
  6 C       -3.2210    -0.0270     0.1710 C.3   1 <1>  -0.1600 
  7 C       -4.3150     1.0490     0.3110 C.3   1 <1>  -0.0990 
  8 C       -5.6220     0.5380     0.9110 C.2   1 <1>   0.5690 
  9 O       -5.6520    -0.5940     1.3350 O.2   1 <1>  -0.5700 
 10 N       -6.7250     1.3530     0.9590 N.am  1 <1>  -0.6600 
 11 C       -8.0490     0.8270     1.4130 C.3   1 <1>   0.1400 
 12 C       -6.7790     2.7750     0.5220 C.3   1 <1>   0.1400 
 13 C       -9.1060     0.9190     0.2870 C.3   1 <1>   0.0000 
 14 C       -7.7910     2.9220    -0.6190 C.3   1 <1>  -0.1600 
 15 C      -10.4520     0.3920     0.8280 C.3   1 <1>   0.2000 
 16 C       -9.1750     2.3790    -0.2240 C.3   1 <1>  -0.1600 
 17 C       -8.7850    -0.0770    -0.8420 C.3   1 <1>  -0.1600 
 18 O      -11.4970     0.8360     0.0090 O.3   1 <1>  -0.5600 
 19 C      -10.3590    -1.1360     0.7140 C.3   1 <1>  -0.1600 
 20 C       -9.3070    -1.4350    -0.3640 C.3   1 <1>  -0.1600 
 21 C      -12.7490     0.8750     0.6170 C.3   1 <1>   0.0400 
 22 H        0.6990    -1.3820     0.8300 H     1 <1>   0.4200 
 23 H       -0.7130    -2.1840     0.8190 H     1 <1>   0.4200 
 24 H       -1.5600     1.3260     0.1900 H     1 <1>   0.0800 
 25 H       -2.1660     0.9830    -1.3960 H     1 <1>   0.0800 
 26 H       -3.5890    -0.8280    -0.4490 H     1 <1>   0.0800 
 27 H       -3.0020    -0.4380     1.1430 H     1 <1>   0.0800 
 28 H       -4.5310     1.4480    -0.6630 H     1 <1>   0.0800 
 29 H       -3.9520     1.8430     0.9360 H     1 <1>   0.0800 
 30 H       -7.9520    -0.1920     1.7450 H     1 <1>   0.0800 
 31 H       -8.3730     1.4100     2.2580 H     1 <1>   0.0800 
 32 H       -7.0870     3.3820     1.3570 H     1 <1>   0.0800 
 33 H       -5.8170     3.1270     0.1990 H     1 <1>   0.0800 
 34 H       -7.8790     3.9600    -0.8840 H     1 <1>   0.0800 
 35 H       -7.4250     2.3950    -1.4820 H     1 <1>   0.0800 
 36 H      -10.6310     0.7240     1.8370 H     1 <1>   0.0800 
 37 H       -9.8360     2.4450    -1.0710 H     1 <1>   0.0800 
 38 H       -9.5870     3.0000     0.5530 H     1 <1>   0.0800 
 39 H       -9.3310     0.2030    -1.7260 H     1 <1>   0.0800 
 40 H       -7.7380    -0.1170    -1.0830 H     1 <1>   0.0800 
 41 H      -10.0220    -1.5420     1.6510 H     1 <1>   0.0800 
 42 H      -11.3070    -1.5800     0.4690 H     1 <1>   0.0800 
 43 H       -8.5000    -2.0080     0.0610 H     1 <1>   0.0800 
 44 H       -9.7320    -1.9870    -1.1840 H     1 <1>   0.0800 
 45 H      -13.4650     1.1990    -0.1170 H     1 <1>   0.0800 
 46 H      -12.7250     1.5770     1.4320 H     1 <1>   0.0800 
 47 H      -13.0110    -0.1070     0.9700 H     1 <1>   0.0800 
@<TRIPOS>BOND
  1   1   2  2   
  2   1   3  2   
  3   1   4  am  
  4   1   5  1   
  5   4  22  1   
  6   4  23  1   
  7   5   6  1   
  8   5  24  1   
  9   5  25  1   
 10   6   7  1   
 11   6  26  1   
 12   6  27  1   
 13   7   8  1   
 14   7  28  1   
 15   7  29  1   
 16   8   9  2   
 17   8  10  am  
 18  10  11  1   
 19  10  12  1   
 20  11  13  1   
 21  11  30  1   
 22  11  31  1   
 23  12  14  1   
 24  12  32  1   
 25  12  33  1   
 26  13  15  1   
 27  13  16  1   
 28  13  17  1   
 29  14  16  1   
 30  14  34  1   
 31  14  35  1   
 32  15  18  1   
 33  15  19  1   
 34  15  36  1   
 35  16  37  1   
 36  16  38  1   
 37  17  20  1   
 38  17  39  1   
 39  17  40  1   
 40  18  21  1   
 41  19  20  1   
 42  19  41  1   
 43  19  42  1   
 44  20  43  1   
 45  20  44  1   
 46  21  45  1   
 47  21  46  1   
 48  21  47  1   
@<TRIPOS>SUBSTRUCTURE
  1 ****   8 GROUP 4 **** **** 0

# MOE 2024.06 (io_trps.svl 2023.06)
