@<TRIPOS>MOLECULE
NONAME
49 51 1 0 0 
SMALL
USER_CHARGES


@<TRIPOS>ATOM
  1 CL       3.3300     0.3920     3.2570 Cl    1 <1>  -0.1230 
  2 C        4.4730     0.5490     1.9340 C.2   1 <1>   0.1230 
  3 C        4.6060     1.6360     1.0670 C.2   1 <1>   0.2030 
  4 C        5.3750    -0.3720     1.5650 C.2   1 <1>  -0.3020 
  5 N        5.5610     1.3690     0.1760 N.2   1 <1>  -0.7070 
  6 C        3.8390     2.8680     1.1670 C.2   1 <1>   0.7160 
  7 N        6.0250     0.1470     0.5080 N.pl3 1 <1>   0.3140 
  8 O        3.5340     3.3250     2.2530 O.2   1 <1>  -0.5700 
  9 N        3.5130     3.6120     0.0420 N.am  1 <1>  -0.6600 
 10 C        7.1340    -0.5040    -0.2040 C.3   1 <1>   0.0160 
 11 C        3.4290     3.0280    -1.3330 C.3   1 <1>   0.1400 
 12 C        3.3340     5.0830     0.1250 C.3   1 <1>   0.1400 
 13 C        4.7180     3.2270    -2.1600 C.3   1 <1>   0.3430 
 14 C        4.6990     5.7660    -0.0070 C.3   1 <1>  -0.1600 
 15 N        5.7620     4.0160    -1.4330 N.4   1 <1>  -0.9590 
 16 C        5.4470     5.4700    -1.3100 C.3   1 <1>   0.3430 
 17 C        7.1250     3.7500    -1.9520 C.3   1 <1>   0.4860 
 18 C        8.1380     4.3240    -0.9820 C.ar  1 <1>  -0.1430 
 19 C        8.2690     3.7790     0.2870 C.ar  1 <1>  -0.1500 
 20 C        8.9380     5.3970    -1.3460 C.ar  1 <1>  -0.1500 
 21 C        9.1760     4.3010     1.1920 C.ar  1 <1>   0.0830 
 22 C        9.8490     5.9230    -0.4460 C.ar  1 <1>  -0.1500 
 23 O        9.2250     3.7050     2.4080 O.3   1 <1>  -0.3630 
 24 C        9.9700     5.3810     0.8210 C.ar  1 <1>  -0.1500 
 25 C       10.0900     4.1710     3.4200 C.3   1 <1>   0.0400 
 26 H        5.5830    -1.3380     1.9880 H     1 <1>   0.1500 
 27 H        6.8690    -1.5220    -0.4220 H     1 <1>   0.0800 
 28 H        8.0100    -0.4840     0.4180 H     1 <1>   0.0800 
 29 H        7.3300     0.0210    -1.1190 H     1 <1>   0.0800 
 30 H        2.5980     3.4680    -1.8560 H     1 <1>   0.0800 
 31 H        3.2230     1.9730    -1.2630 H     1 <1>   0.0800 
 32 H        2.8900     5.3460     1.0720 H     1 <1>   0.0800 
 33 H        2.6640     5.4180    -0.6490 H     1 <1>   0.0800 
 34 H        4.4780     3.6990    -3.0980 H     1 <1>   0.0800 
 35 H        5.1100     2.2480    -2.3810 H     1 <1>   0.0800 
 36 H        5.3170     5.5010     0.8340 H     1 <1>   0.0800 
 37 H        4.5420     6.8280     0.0510 H     1 <1>   0.0800 
 38 H        5.7570     3.6270    -0.4740 H     1 <1>   0.4500 
 39 H        6.3630     6.0390    -1.3020 H     1 <1>   0.0800 
 40 H        4.8630     5.7950    -2.1550 H     1 <1>   0.0800 
 41 H        7.2490     4.1940    -2.9260 H     1 <1>   0.0800 
 42 H        7.2840     2.6870    -2.0330 H     1 <1>   0.0800 
 43 H        7.6740     2.9420     0.6040 H     1 <1>   0.1500 
 44 H        8.8670     5.8360    -2.3280 H     1 <1>   0.1500 
 45 H       10.4700     6.7560    -0.7310 H     1 <1>   0.1500 
 46 H       10.6850     5.8070     1.5000 H     1 <1>   0.1500 
 47 H        9.9470     3.5570     4.2910 H     1 <1>   0.0800 
 48 H        9.8420     5.1920     3.6490 H     1 <1>   0.0800 
 49 H       11.1070     4.0880     3.0780 H     1 <1>   0.0800 
@<TRIPOS>BOND
  1   1   2  1   
  2   2   3  1   
  3   2   4  2   
  4   3   5  2   
  5   3   6  1   
  6   4   7  1   
  7   4  26  1   
  8   5   7  1   
  9   6   8  2   
 10   6   9  am  
 11   7  10  1   
 12   9  11  1   
 13   9  12  1   
 14  10  27  1   
 15  10  28  1   
 16  10  29  1   
 17  11  13  1   
 18  11  30  1   
 19  11  31  1   
 20  12  14  1   
 21  12  32  1   
 22  12  33  1   
 23  13  15  1   
 24  13  34  1   
 25  13  35  1   
 26  14  16  1   
 27  14  36  1   
 28  14  37  1   
 29  15  16  1   
 30  15  17  1   
 31  15  38  1   
 32  16  39  1   
 33  16  40  1   
 34  17  18  1   
 35  17  41  1   
 36  17  42  1   
 37  18  19  ar  
 38  18  20  ar  
 39  19  21  ar  
 40  19  43  1   
 41  20  22  ar  
 42  20  44  1   
 43  21  23  1   
 44  21  24  ar  
 45  22  24  ar  
 46  22  45  1   
 47  23  25  1   
 48  24  46  1   
 49  25  47  1   
 50  25  48  1   
 51  25  49  1   
@<TRIPOS>SUBSTRUCTURE
  1 ****   5 GROUP 4 **** **** 0

# MOE 2024.06 (io_trps.svl 2023.06)
