@<TRIPOS>MOLECULE
NONAME
54 56 1 0 0 
SMALL
USER_CHARGES


@<TRIPOS>ATOM
  1 S       -1.3110    -1.0280     1.1750 S.3   1 <1>  -0.0800 
  2 C       -1.7360    -2.1900    -0.0330 C.2   1 <1>   0.1980 
  3 C       -1.5210    -2.2890     2.3390 C.2   1 <1>   0.1980 
  4 N       -1.9880    -3.3410     0.4540 N.2   1 <1>  -0.3380 
  5 C       -1.7720    -1.7480    -1.4880 C.3   1 <1>   0.2900 
  6 N       -1.8690    -3.3960     1.8160 N.2   1 <1>  -0.3380 
  7 C       -1.2790    -1.9580     3.7940 C.3   1 <1>  -0.0600 
  8 N       -3.1750    -1.6210    -1.9560 N.3   1 <1>  -0.8100 
  9 C       -3.3350    -1.9630    -3.3880 C.3   1 <1>   0.1100 
 10 C       -3.7280    -0.2760    -1.6690 C.3   1 <1>   0.1100 
 11 C       -4.6490    -2.7210    -3.6560 C.3   1 <1>   0.1400 
 12 C       -5.2610    -0.2520    -1.5300 C.3   1 <1>  -0.1600 
 13 N       -5.7280    -2.3870    -2.6790 N.am  1 <1>  -0.6600 
 14 C       -6.0790    -0.9470    -2.6340 C.3   1 <1>   0.1400 
 15 C       -5.9880    -3.1370    -1.5640 C.2   1 <1>   0.5690 
 16 O       -7.0450    -3.0620    -0.9730 O.2   1 <1>  -0.5700 
 17 C       -4.9080    -4.0420    -0.9470 C.3   1 <1>   0.4040 
 18 N       -5.4580    -4.9890     0.0910 N.4   1 <1>  -0.9590 
 19 C       -4.4250    -5.2640     1.1250 C.3   1 <1>   0.3430 
 20 C       -6.0910    -6.1690    -0.5540 C.3   1 <1>   0.3430 
 21 C       -4.9640    -6.0740     2.3050 C.3   1 <1>  -0.1600 
 22 C       -7.1730    -6.7440     0.3580 C.3   1 <1>  -0.1600 
 23 C       -5.2650    -7.5370     1.9500 C.3   1 <1>  -0.1600 
 24 C       -6.6730    -7.7720     1.3870 C.3   1 <1>  -0.1600 
 25 H       -1.2600    -2.5070    -2.0540 H     1 <1>   0.0800 
 26 H       -1.2400    -0.8220    -1.6200 H     1 <1>   0.0800 
 27 H       -0.2690    -1.6180     3.9280 H     1 <1>   0.0800 
 28 H       -1.4340    -2.8330     4.3990 H     1 <1>   0.0800 
 29 H       -1.9570    -1.1880     4.1130 H     1 <1>   0.0800 
 30 H       -2.5270    -2.5890    -3.7270 H     1 <1>   0.0800 
 31 H       -3.3080    -1.0720    -3.9920 H     1 <1>   0.0800 
 32 H       -3.4240     0.4150    -2.4370 H     1 <1>   0.0800 
 33 H       -3.3210     0.0880    -0.7400 H     1 <1>   0.0800 
 34 H       -4.4550    -3.7780    -3.6300 H     1 <1>   0.0800 
 35 H       -4.9910    -2.4950    -4.6510 H     1 <1>   0.0800 
 36 H       -5.5680     0.7780    -1.4950 H     1 <1>   0.0800 
 37 H       -5.5280    -0.6700    -0.5760 H     1 <1>   0.0800 
 38 H       -5.8890    -0.4860    -3.5880 H     1 <1>   0.0800 
 39 H       -7.1310    -0.8480    -2.4200 H     1 <1>   0.0800 
 40 H       -4.1930    -3.3840    -0.4870 H     1 <1>   0.0800 
 41 H       -4.4010    -4.5880    -1.7210 H     1 <1>   0.0800 
 42 H       -6.2250    -4.4510     0.5270 H     1 <1>   0.4500 
 43 H       -4.0610    -4.3240     1.5060 H     1 <1>   0.0800 
 44 H       -3.5870    -5.7800     0.6840 H     1 <1>   0.0800 
 45 H       -5.3550    -6.9190    -0.7920 H     1 <1>   0.0800 
 46 H       -6.5650    -5.8530    -1.4700 H     1 <1>   0.0800 
 47 H       -5.8210    -5.5920     2.7410 H     1 <1>   0.0800 
 48 H       -4.1910    -6.0740     3.0540 H     1 <1>   0.0800 
 49 H       -7.9040    -7.2350    -0.2610 H     1 <1>   0.0800 
 50 H       -7.6870    -5.9410     0.8570 H     1 <1>   0.0800 
 51 H       -5.1670    -8.1340     2.8420 H     1 <1>   0.0800 
 52 H       -4.5260    -7.9010     1.2560 H     1 <1>   0.0800 
 53 H       -6.6890    -8.7520     0.9390 H     1 <1>   0.0800 
 54 H       -7.3760    -7.7950     2.2040 H     1 <1>   0.0800 
@<TRIPOS>BOND
  1   1   2  1   
  2   1   3  1   
  3   2   4  2   
  4   2   5  1   
  5   3   6  2   
  6   3   7  1   
  7   4   6  1   
  8   5   8  1   
  9   5  25  1   
 10   5  26  1   
 11   7  27  1   
 12   7  28  1   
 13   7  29  1   
 14   8   9  1   
 15   8  10  1   
 16   9  11  1   
 17   9  30  1   
 18   9  31  1   
 19  10  12  1   
 20  10  32  1   
 21  10  33  1   
 22  11  13  1   
 23  11  34  1   
 24  11  35  1   
 25  12  14  1   
 26  12  36  1   
 27  12  37  1   
 28  13  14  1   
 29  13  15  am  
 30  14  38  1   
 31  14  39  1   
 32  15  16  2   
 33  15  17  1   
 34  17  18  1   
 35  17  40  1   
 36  17  41  1   
 37  18  19  1   
 38  18  20  1   
 39  18  42  1   
 40  19  21  1   
 41  19  43  1   
 42  19  44  1   
 43  20  22  1   
 44  20  45  1   
 45  20  46  1   
 46  21  23  1   
 47  21  47  1   
 48  21  48  1   
 49  22  24  1   
 50  22  49  1   
 51  22  50  1   
 52  23  24  1   
 53  23  51  1   
 54  23  52  1   
 55  24  53  1   
 56  24  54  1   
@<TRIPOS>SUBSTRUCTURE
  1 ****  17 GROUP 4 **** **** 0

# MOE 2024.06 (io_trps.svl 2023.06)
