@<TRIPOS>MOLECULE
NONAME
60 62 1 0 0 
SMALL
USER_CHARGES


@<TRIPOS>ATOM
  1 O       -2.2230     1.1140     2.6590 O.2   1 <1>  -0.5700 
  2 C       -2.2620     1.5280     1.5240 C.2   1 <1>   0.5690 
  3 N       -2.6080     0.7150     0.4740 N.am  1 <1>  -0.6600 
  4 C       -1.9100     2.9870     1.3250 C.3   1 <1>   0.1570 
  5 C       -2.5180    -0.7750     0.6580 C.3   1 <1>   0.3640 
  6 C       -2.9450     1.2270    -0.8950 C.3   1 <1>   0.1400 
  7 N       -0.6550     3.1160     0.5620 N.pl3 1 <1>   0.3140 
  8 C       -1.0490    -1.2150     0.6050 C.ar  1 <1>  -0.1440 
  9 C       -3.3700    -1.6180    -0.3420 C.3   1 <1>   0.2000 
 10 C       -3.1650     0.1070    -1.9180 C.3   1 <1>   0.1200 
 11 N       -0.6500     3.7650    -0.6160 N.2   1 <1>  -0.7070 
 12 C        0.5780     2.6690     0.8690 C.2   1 <1>  -0.3320 
 13 C       -0.6450    -2.2870     1.3860 C.ar  1 <1>  -0.1500 
 14 C       -0.0980    -0.5800    -0.1820 C.ar  1 <1>  -0.1500 
 15 O       -3.9830    -0.8670    -1.3600 O.3   1 <1>  -0.5600 
 16 C       -4.4910    -2.3910     0.3650 C.3   1 <1>   0.1200 
 17 C        0.5690     3.7060    -1.0350 C.2   1 <1>   0.1080 
 18 C        1.4200     3.0300    -0.1460 C.2   1 <1>  -0.0860 
 19 C        0.9270     1.9030     2.1410 C.3   1 <1>  -0.0600 
 20 C        0.6670    -2.7320     1.4050 C.ar  1 <1>   0.0830 
 21 C        1.2210    -0.9950    -0.1670 C.ar  1 <1>  -0.1500 
 22 O       -3.9620    -3.3250     1.2510 O.3   1 <1>  -0.6800 
 23 C        0.9530     4.3070    -2.3710 C.3   1 <1>  -0.0590 
 24 C        2.8310     2.7850    -0.2970 C.2   1 <1>   0.5950 
 25 O        0.8800    -3.8130     2.2120 O.3   1 <1>  -0.3630 
 26 C        1.6280    -2.0580     0.6300 C.ar  1 <1>   0.0830 
 27 O        3.3600     1.7320    -0.0420 O.2   1 <1>  -0.5700 
 28 C        3.7330     3.8980    -0.7810 C.3   1 <1>  -0.1790 
 29 C        2.0870    -4.5390     2.2210 C.3   1 <1>   0.0400 
 30 O        2.9430    -2.4130     0.6540 O.3   1 <1>  -0.3630 
 31 C        3.9330    -1.4060     0.5990 C.3   1 <1>   0.0400 
 32 H       -1.7790     3.4600     2.2780 H     1 <1>   0.0800 
 33 H       -2.6990     3.4840     0.7950 H     1 <1>   0.0800 
 34 H       -2.8700    -1.0020     1.6510 H     1 <1>   0.0800 
 35 H       -3.8430     1.8160    -0.8340 H     1 <1>   0.0800 
 36 H       -2.1590     1.8590    -1.2620 H     1 <1>   0.0800 
 37 H       -2.7320    -2.3320    -0.8320 H     1 <1>   0.0800 
 38 H       -2.2340    -0.3410    -2.2180 H     1 <1>   0.0800 
 39 H       -3.6580     0.4950    -2.7920 H     1 <1>   0.0800 
 40 H       -1.3590    -2.7970     2.0090 H     1 <1>   0.1500 
 41 H       -0.3580     0.2570    -0.8040 H     1 <1>   0.1500 
 42 H       -5.0960    -2.9180    -0.3530 H     1 <1>   0.0800 
 43 H       -5.1100    -1.7140     0.9290 H     1 <1>   0.0800 
 44 H        1.9890     1.7700     2.2300 H     1 <1>   0.0800 
 45 H        0.4730     0.9280     2.1320 H     1 <1>   0.0800 
 46 H        0.5790     2.4340     3.0090 H     1 <1>   0.0800 
 47 H        1.9260    -0.4690    -0.7840 H     1 <1>   0.1500 
 48 H       -3.5040    -4.0440     0.7720 H     1 <1>   0.4000 
 49 H        1.6060     3.6440    -2.9060 H     1 <1>   0.0800 
 50 H        1.4370     5.2530    -2.2220 H     1 <1>   0.0800 
 51 H        0.0700     4.4660    -2.9630 H     1 <1>   0.0800 
 52 H        3.2880     4.8550    -0.5840 H     1 <1>   0.0800 
 53 H        3.9110     3.7890    -1.8340 H     1 <1>   0.0800 
 54 H        4.6730     3.8450    -0.2640 H     1 <1>   0.0800 
 55 H        1.9500    -5.4090     2.8360 H     1 <1>   0.0800 
 56 H        2.8620    -3.9180     2.6340 H     1 <1>   0.0800 
 57 H        2.3250    -4.8320     1.2140 H     1 <1>   0.0800 
 58 H        4.8680    -1.8360     0.9070 H     1 <1>   0.0800 
 59 H        3.6590    -0.6060     1.2650 H     1 <1>   0.0800 
 60 H        4.0160    -1.0440    -0.4100 H     1 <1>   0.0800 
@<TRIPOS>BOND
  1   1   2  2   
  2   2   3  am  
  3   2   4  1   
  4   3   5  1   
  5   3   6  1   
  6   4   7  1   
  7   4  32  1   
  8   4  33  1   
  9   5   8  1   
 10   5   9  1   
 11   5  34  1   
 12   6  10  1   
 13   6  35  1   
 14   6  36  1   
 15   7  11  1   
 16   7  12  1   
 17   8  13  ar  
 18   8  14  ar  
 19   9  15  1   
 20   9  16  1   
 21   9  37  1   
 22  10  15  1   
 23  10  38  1   
 24  10  39  1   
 25  11  17  2   
 26  12  18  2   
 27  12  19  1   
 28  13  20  ar  
 29  13  40  1   
 30  14  21  ar  
 31  14  41  1   
 32  16  22  1   
 33  16  42  1   
 34  16  43  1   
 35  17  18  1   
 36  17  23  1   
 37  18  24  1   
 38  19  44  1   
 39  19  45  1   
 40  19  46  1   
 41  20  25  1   
 42  20  26  ar  
 43  21  26  ar  
 44  21  47  1   
 45  22  48  1   
 46  23  49  1   
 47  23  50  1   
 48  23  51  1   
 49  24  27  2   
 50  24  28  1   
 51  25  29  1   
 52  26  30  1   
 53  28  52  1   
 54  28  53  1   
 55  28  54  1   
 56  29  55  1   
 57  29  56  1   
 58  29  57  1   
 59  30  31  1   
 60  31  58  1   
 61  31  59  1   
 62  31  60  1   
@<TRIPOS>SUBSTRUCTURE
  1 ****  14 GROUP 4 **** **** 0

# MOE 2024.06 (io_trps.svl 2023.06)
