@<TRIPOS>MOLECULE
NONAME
58 60 1 0 0 
SMALL
USER_CHARGES


@<TRIPOS>ATOM
  1 O       -0.3140    -2.5620    -2.3300 O.2   1 <1>  -0.5700 
  2 C        0.2200    -2.0620    -1.3710 C.2   1 <1>   0.5690 
  3 N        1.0100    -2.7860    -0.5400 N.am  1 <1>  -0.7300 
  4 C       -0.0130    -0.5800    -1.0710 C.3   1 <1>  -0.0190 
  5 C        1.2820    -4.2520    -0.6610 C.3   1 <1>   0.2010 
  6 C        1.2990     0.2230    -1.0620 C.3   1 <1>  -0.2400 
  7 C       -0.7660    -0.3800     0.2560 C.3   1 <1>  -0.2400 
  8 C        0.8370    -5.0450     0.5720 C.2   1 <1>   0.5690 
  9 O        1.7030    -5.3610     1.3560 O.2   1 <1>  -0.5700 
 10 N       -0.4830    -5.3720     0.7850 N.am  1 <1>  -0.6600 
 11 C       -1.6160    -4.9770    -0.0990 C.3   1 <1>   0.1400 
 12 C       -0.9120    -6.1410     1.9860 C.3   1 <1>   0.1400 
 13 C       -2.3490    -6.2340    -0.5690 C.3   1 <1>  -0.1600 
 14 C       -1.6460    -7.4080     1.5420 C.3   1 <1>  -0.1600 
 15 C       -2.8290    -7.0920     0.6140 C.3   1 <1>   0.4240 
 16 O       -3.7110    -6.3160     1.3910 O.3   1 <1>  -0.5600 
 17 C       -3.4960    -8.3960     0.1240 C.ar  1 <1>  -0.1440 
 18 C       -5.0430    -6.2540     0.9850 C.3   1 <1>   0.1200 
 19 C       -4.8380    -8.6560     0.3680 C.ar  1 <1>  -0.1440 
 20 C       -2.7620    -9.3390    -0.5830 C.ar  1 <1>  -0.1500 
 21 C       -5.6660    -7.6390     1.1280 C.3   1 <1>  -0.0170 
 22 C       -5.4220    -9.8300    -0.0810 C.ar  1 <1>  -0.1500 
 23 C       -3.3270   -10.5200    -1.0340 C.ar  1 <1>   0.0820 
 24 C       -4.6860   -10.7740    -0.7920 C.ar  1 <1>   0.0820 
 25 O       -2.4670   -11.3450    -1.6990 O.3   1 <1>  -0.3630 
 26 O       -5.2650   -11.9170    -1.2650 O.3   1 <1>  -0.3620 
 27 C       -2.6120   -12.7470    -1.6510 C.3   1 <1>   0.0400 
 28 C       -6.6550   -12.1440    -1.1900 C.3   1 <1>   0.0400 
 29 H        1.4050    -2.3420     0.2910 H     1 <1>   0.3700 
 30 H       -0.6300    -0.1910    -1.8620 H     1 <1>   0.0800 
 31 H        2.3400    -4.3940    -0.7880 H     1 <1>   0.0800 
 32 H        0.8000    -4.6510    -1.5350 H     1 <1>   0.0800 
 33 H        1.9440    -0.1020    -0.2650 H     1 <1>   0.0800 
 34 H        1.0950     1.2710    -0.9350 H     1 <1>   0.0800 
 35 H        1.8160     0.0890    -1.9970 H     1 <1>   0.0800 
 36 H       -0.1810    -0.7310     1.0870 H     1 <1>   0.0800 
 37 H       -1.6930    -0.9260     0.2350 H     1 <1>   0.0800 
 38 H       -0.9880     0.6620     0.4060 H     1 <1>   0.0800 
 39 H       -1.2780    -4.4250    -0.9550 H     1 <1>   0.0800 
 40 H       -2.2890    -4.3450     0.4550 H     1 <1>   0.0800 
 41 H       -1.5650    -5.5270     2.5830 H     1 <1>   0.0800 
 42 H       -0.0640    -6.4110     2.5920 H     1 <1>   0.0800 
 43 H       -1.6760    -6.8060    -1.1790 H     1 <1>   0.0800 
 44 H       -3.1810    -5.9640    -1.1910 H     1 <1>   0.0800 
 45 H       -2.0070    -7.9420     2.4020 H     1 <1>   0.0800 
 46 H       -0.9390    -8.0430     1.0420 H     1 <1>   0.0800 
 47 H       -5.0880    -5.9110    -0.0340 H     1 <1>   0.0800 
 48 H       -5.5480    -5.5460     1.6180 H     1 <1>   0.0800 
 49 H       -1.7230    -9.1730    -0.7990 H     1 <1>   0.1500 
 50 H       -6.6710    -7.6150     0.7460 H     1 <1>   0.0800 
 51 H       -5.7040    -7.9070     2.1680 H     1 <1>   0.0800 
 52 H       -6.4600    -9.9900     0.1350 H     1 <1>   0.1500 
 53 H       -1.6700   -13.1900    -1.9180 H     1 <1>   0.0800 
 54 H       -3.3660   -13.0420    -2.3580 H     1 <1>   0.0800 
 55 H       -2.8880   -13.0380    -0.6530 H     1 <1>   0.0800 
 56 H       -6.8680   -13.0730    -1.6870 H     1 <1>   0.0800 
 57 H       -7.1670   -11.3390    -1.6860 H     1 <1>   0.0800 
 58 H       -6.9430   -12.2090    -0.1560 H     1 <1>   0.0800 
@<TRIPOS>BOND
  1   1   2  2   
  2   2   3  am  
  3   2   4  1   
  4   3   5  1   
  5   3  29  1   
  6   4   6  1   
  7   4   7  1   
  8   4  30  1   
  9   5   8  1   
 10   5  31  1   
 11   5  32  1   
 12   6  33  1   
 13   6  34  1   
 14   6  35  1   
 15   7  36  1   
 16   7  37  1   
 17   7  38  1   
 18   8   9  2   
 19   8  10  am  
 20  10  11  1   
 21  10  12  1   
 22  11  13  1   
 23  11  39  1   
 24  11  40  1   
 25  12  14  1   
 26  12  41  1   
 27  12  42  1   
 28  13  15  1   
 29  13  43  1   
 30  13  44  1   
 31  14  15  1   
 32  14  45  1   
 33  14  46  1   
 34  15  16  1   
 35  15  17  1   
 36  16  18  1   
 37  17  19  ar  
 38  17  20  ar  
 39  18  21  1   
 40  18  47  1   
 41  18  48  1   
 42  19  21  1   
 43  19  22  ar  
 44  20  23  ar  
 45  20  49  1   
 46  21  50  1   
 47  21  51  1   
 48  22  24  ar  
 49  22  52  1   
 50  23  24  ar  
 51  23  25  1   
 52  24  26  1   
 53  25  27  1   
 54  26  28  1   
 55  27  53  1   
 56  27  54  1   
 57  27  55  1   
 58  28  56  1   
 59  28  57  1   
 60  28  58  1   
@<TRIPOS>SUBSTRUCTURE
  1 ****  13 GROUP 4 **** **** 0

# MOE 2024.06 (io_trps.svl 2023.06)
