@<TRIPOS>MOLECULE
NONAME
58 61 1 0 0 
SMALL
USER_CHARGES


@<TRIPOS>ATOM
  1 O       -2.0390     0.5660    -0.3480 O.2   1 <1>  -0.5700 
  2 C       -2.5110     1.3440    -1.1600 C.2   1 <1>   0.5440 
  3 N       -3.6950     0.9600    -1.7420 N.am  1 <1>  -0.6600 
  4 C       -1.9070     2.6370    -1.4330 C.ar  1 <1>   0.0860 
  5 C       -4.9470     1.3800    -1.0400 C.3   1 <1>   0.1400 
  6 C       -3.7890    -0.4370    -2.2830 C.3   1 <1>   0.1400 
  7 C       -0.9220     3.1590    -0.5960 C.ar  1 <1>  -0.1500 
  8 C       -2.2880     3.4120    -2.5310 C.ar  1 <1>  -0.1500 
  9 C       -5.2420     0.4540     0.1740 C.3   1 <1>   0.4230 
 10 C       -4.4240    -1.4170    -1.2650 C.3   1 <1>   0.3430 
 11 C       -0.3460     4.3960    -0.8260 C.ar  1 <1>   0.0830 
 12 C       -1.7200     4.6490    -2.7750 C.ar  1 <1>  -0.1500 
 13 N       -4.4360    -0.8240     0.1150 N.4   1 <1>  -0.9590 
 14 C       -6.7530     0.1520     0.3010 C.3   1 <1>   0.1200 
 15 O        0.5960     4.8010     0.0590 O.3   1 <1>  -0.3630 
 16 C       -0.7500     5.1470    -1.9240 C.ar  1 <1>  -0.1500 
 17 C       -4.8000    -1.7390     1.2360 C.3   1 <1>   0.5180 
 18 O       -6.9980    -0.7130     1.3760 O.3   1 <1>  -0.5600 
 19 C        1.2850     6.0230    -0.1130 C.3   1 <1>   0.1200 
 20 C       -4.0380    -3.0630     1.1020 C.3   1 <1>  -0.1950 
 21 C       -6.3290    -1.9460     1.3180 C.3   1 <1>   0.1200 
 22 C        2.2960     6.1730     1.0170 C.3   1 <1>   0.1200 
 23 C       -3.4480    -3.7140     2.3150 C.3   1 <1>  -0.2000 
 24 C       -2.5500    -3.1250     1.2660 C.3   1 <1>  -0.2000 
 25 O        2.9690     7.3790     0.8420 O.3   1 <1>  -0.5600 
 26 C        3.9250     7.6370     1.8130 C.3   1 <1>   0.1200 
 27 C        4.5650     8.9790     1.4820 C.3   1 <1>  -0.2400 
 28 H       -4.8530     2.3970    -0.6980 H     1 <1>   0.0800 
 29 H       -5.7640     1.3530    -1.7410 H     1 <1>   0.0800 
 30 H       -4.3610    -0.4360    -3.1950 H     1 <1>   0.0800 
 31 H       -2.8000    -0.7870    -2.5290 H     1 <1>   0.0800 
 32 H       -0.5910     2.5930     0.2560 H     1 <1>   0.1500 
 33 H       -3.0360     3.0430    -3.2090 H     1 <1>   0.1500 
 34 H       -4.9550     0.9930     1.0620 H     1 <1>   0.0800 
 35 H       -3.8550    -2.3330    -1.2750 H     1 <1>   0.0800 
 36 H       -5.4290    -1.6510    -1.5720 H     1 <1>   0.0800 
 37 H       -2.0300     5.2280    -3.6290 H     1 <1>   0.1500 
 38 H       -3.4490    -0.5210     0.2580 H     1 <1>   0.4500 
 39 H       -7.1400    -0.2990    -0.5960 H     1 <1>   0.0800 
 40 H       -7.2980     1.0610     0.4890 H     1 <1>   0.0800 
 41 H       -0.3240     6.1110    -2.1330 H     1 <1>   0.1500 
 42 H       -4.4900    -1.2770     2.1590 H     1 <1>   0.0800 
 43 H        1.7910     5.9980    -1.0620 H     1 <1>   0.0800 
 44 H        0.5700     6.8250    -0.0800 H     1 <1>   0.0800 
 45 H       -4.4930    -3.7360     0.3950 H     1 <1>   0.1000 
 46 H       -6.5750    -2.4930     2.2110 H     1 <1>   0.0800 
 47 H       -6.6930    -2.4980     0.4690 H     1 <1>   0.0800 
 48 H        3.0120     5.3700     0.9850 H     1 <1>   0.0800 
 49 H        1.7910     6.1940     1.9680 H     1 <1>   0.0800 
 50 H       -3.4910    -3.2230     3.2740 H     1 <1>   0.1000 
 51 H       -3.4860    -4.7870     2.4070 H     1 <1>   0.1000 
 52 H       -1.9780    -3.8010     0.6530 H     1 <1>   0.1000 
 53 H       -1.9930    -2.2370     1.5170 H     1 <1>   0.1000 
 54 H        3.4440     7.6730     2.7760 H     1 <1>   0.0800 
 55 H        4.6610     6.8510     1.7960 H     1 <1>   0.0800 
 56 H        3.8190     9.7540     1.4890 H     1 <1>   0.0800 
 57 H        5.0300     8.9370     0.5140 H     1 <1>   0.0800 
 58 H        5.3150     9.2170     2.2150 H     1 <1>   0.0800 
@<TRIPOS>BOND
  1   1   2  2   
  2   2   3  am  
  3   2   4  1   
  4   3   5  1   
  5   3   6  1   
  6   4   7  ar  
  7   4   8  ar  
  8   5   9  1   
  9   5  28  1   
 10   5  29  1   
 11   6  10  1   
 12   6  30  1   
 13   6  31  1   
 14   7  11  ar  
 15   7  32  1   
 16   8  12  ar  
 17   8  33  1   
 18   9  13  1   
 19   9  14  1   
 20   9  34  1   
 21  10  13  1   
 22  10  35  1   
 23  10  36  1   
 24  11  15  1   
 25  11  16  ar  
 26  12  16  ar  
 27  12  37  1   
 28  13  17  1   
 29  13  38  1   
 30  14  18  1   
 31  14  39  1   
 32  14  40  1   
 33  15  19  1   
 34  16  41  1   
 35  17  20  1   
 36  17  21  1   
 37  17  42  1   
 38  18  21  1   
 39  19  22  1   
 40  19  43  1   
 41  19  44  1   
 42  20  23  1   
 43  20  24  1   
 44  20  45  1   
 45  21  46  1   
 46  21  47  1   
 47  22  25  1   
 48  22  48  1   
 49  22  49  1   
 50  23  24  1   
 51  23  50  1   
 52  23  51  1   
 53  24  52  1   
 54  24  53  1   
 55  25  26  1   
 56  26  27  1   
 57  26  54  1   
 58  26  55  1   
 59  27  56  1   
 60  27  57  1   
 61  27  58  1   
@<TRIPOS>SUBSTRUCTURE
  1 ****   2 GROUP 4 **** **** 0

# MOE 2024.06 (io_trps.svl 2023.06)
