@<TRIPOS>MOLECULE
NONAME
63 66 1 0 0 
SMALL
USER_CHARGES


@<TRIPOS>ATOM
  1 CL       0.6340    -1.0450     3.3190 Cl    1 <1>  -0.1770 
  2 C       -0.1860    -1.3860     1.8160 C.ar  1 <1>   0.1770 
  3 C       -1.0780    -2.4370     1.7570 C.ar  1 <1>  -0.1500 
  4 C        0.0740    -0.5970     0.7110 C.ar  1 <1>  -0.1500 
  5 C       -1.7350    -2.7180     0.5670 C.ar  1 <1>   0.1000 
  6 C       -0.5790    -0.8710    -0.4800 C.ar  1 <1>  -0.1500 
  7 N       -2.6310    -3.7770     0.5130 N.pl3 1 <1>  -0.8380 
  8 C       -1.4750    -1.9240    -0.5480 C.ar  1 <1>  -0.1500 
  9 C       -2.2050    -4.9710    -0.2700 C.3   1 <1>   0.2090 
 10 C       -4.0740    -3.4240     0.3830 C.3   1 <1>   0.2090 
 11 C       -3.1210    -6.1770     0.0320 C.3   1 <1>   0.3430 
 12 C       -4.9650    -4.6510     0.6700 C.3   1 <1>   0.3430 
 13 N       -4.5910    -5.8620    -0.1620 N.4   1 <1>  -0.9590 
 14 C       -5.4910    -6.9950     0.1960 C.3   1 <1>   0.3430 
 15 C       -5.3770    -8.1650    -0.7910 C.3   1 <1>  -0.1600 
 16 C       -6.4410    -9.2000    -0.4160 C.3   1 <1>   0.3430 
 17 N       -6.5510   -10.3430    -1.3740 N.4   1 <1>  -0.9590 
 18 C       -7.7610   -11.2000    -1.1180 C.3   1 <1>   0.4230 
 19 C       -5.3180   -11.1980    -1.4080 C.3   1 <1>   0.2630 
 20 C       -7.7870   -11.8210     0.2860 C.3   1 <1>  -0.1600 
 21 C       -9.0630   -10.4080    -1.2720 C.3   1 <1>  -0.1600 
 22 C       -9.1460   -11.4870     0.9330 C.3   1 <1>  -0.0800 
 23 C       -9.7740   -10.3530     0.0920 C.3   1 <1>  -0.0800 
 24 C       -9.0160   -11.1560     2.4360 C.3   1 <1>   0.1400 
 25 C       -9.7260    -8.9600     0.7740 C.3   1 <1>  -0.0990 
 26 N       -8.3340    -9.8500     2.5800 N.am  1 <1>  -0.7300 
 27 C       -8.5820    -8.8140     1.7560 C.2   1 <1>   0.5690 
 28 O       -7.8670    -7.8410     1.7280 O.2   1 <1>  -0.5700 
 29 H       -1.2630    -3.0350     2.6280 H     1 <1>   0.1500 
 30 H        0.7740     0.2160     0.7860 H     1 <1>   0.1500 
 31 H       -0.3860    -0.2650    -1.3490 H     1 <1>   0.1500 
 32 H       -1.9770    -2.1310    -1.4740 H     1 <1>   0.1500 
 33 H       -2.2270    -4.7430    -1.3210 H     1 <1>   0.0800 
 34 H       -1.1890    -5.2190    -0.0070 H     1 <1>   0.0800 
 35 H       -4.3090    -2.6410     1.0850 H     1 <1>   0.0800 
 36 H       -4.2690    -3.0490    -0.6070 H     1 <1>   0.0800 
 37 H       -2.9490    -6.4730     1.0540 H     1 <1>   0.0800 
 38 H       -2.8310    -6.9970    -0.6030 H     1 <1>   0.0800 
 39 H       -5.9930    -4.3840     0.4890 H     1 <1>   0.0800 
 40 H       -4.8690    -4.8910     1.7160 H     1 <1>   0.0800 
 41 H       -4.7320    -5.5990    -1.1460 H     1 <1>   0.4500 
 42 H       -5.2710    -7.3330     1.1980 H     1 <1>   0.0800 
 43 H       -6.5110    -6.6420     0.1970 H     1 <1>   0.0800 
 44 H       -4.4000    -8.6070    -0.7230 H     1 <1>   0.0800 
 45 H       -5.5610    -7.8120    -1.7900 H     1 <1>   0.0800 
 46 H       -7.3890    -8.6910    -0.3900 H     1 <1>   0.0800 
 47 H       -6.2470    -9.5720     0.5780 H     1 <1>   0.0800 
 48 H       -6.6860    -9.9560    -2.3190 H     1 <1>   0.4500 
 49 H       -7.7760   -11.9990    -1.8430 H     1 <1>   0.0800 
 50 H       -5.1230   -11.6160    -0.4340 H     1 <1>   0.0800 
 51 H       -4.4630   -10.6180    -1.7130 H     1 <1>   0.0800 
 52 H       -5.4450   -12.0080    -2.1080 H     1 <1>   0.0800 
 53 H       -7.6920   -12.8900     0.2040 H     1 <1>   0.0800 
 54 H       -6.9780   -11.4710     0.8980 H     1 <1>   0.0800 
 55 H       -8.9270    -9.4380    -1.7150 H     1 <1>   0.0800 
 56 H       -9.6940   -10.9700    -1.9390 H     1 <1>   0.0800 
 57 H       -9.7750   -12.3570     0.8390 H     1 <1>   0.0800 
 58 H      -10.8170   -10.5790    -0.0670 H     1 <1>   0.0800 
 59 H       -8.4530   -11.9230     2.9410 H     1 <1>   0.0800 
 60 H       -9.9920   -11.0970     2.8890 H     1 <1>   0.0800 
 61 H      -10.6300    -8.8280     1.3410 H     1 <1>   0.0800 
 62 H       -9.6980    -8.1680     0.0490 H     1 <1>   0.0800 
 63 H       -7.7170    -9.7130     3.3870 H     1 <1>   0.3700 
@<TRIPOS>BOND
  1   1   2  1   
  2   2   3  ar  
  3   2   4  ar  
  4   3   5  ar  
  5   3  29  1   
  6   4   6  ar  
  7   4  30  1   
  8   5   7  1   
  9   5   8  ar  
 10   6   8  ar  
 11   6  31  1   
 12   7   9  1   
 13   7  10  1   
 14   8  32  1   
 15   9  11  1   
 16   9  33  1   
 17   9  34  1   
 18  10  12  1   
 19  10  35  1   
 20  10  36  1   
 21  11  13  1   
 22  11  37  1   
 23  11  38  1   
 24  12  13  1   
 25  12  39  1   
 26  12  40  1   
 27  13  14  1   
 28  13  41  1   
 29  14  15  1   
 30  14  42  1   
 31  14  43  1   
 32  15  16  1   
 33  15  44  1   
 34  15  45  1   
 35  16  17  1   
 36  16  46  1   
 37  16  47  1   
 38  17  18  1   
 39  17  19  1   
 40  17  48  1   
 41  18  20  1   
 42  18  21  1   
 43  18  49  1   
 44  19  50  1   
 45  19  51  1   
 46  19  52  1   
 47  20  22  1   
 48  20  53  1   
 49  20  54  1   
 50  21  23  1   
 51  21  55  1   
 52  21  56  1   
 53  22  23  1   
 54  22  24  1   
 55  22  57  1   
 56  23  25  1   
 57  23  58  1   
 58  24  26  1   
 59  24  59  1   
 60  24  60  1   
 61  25  27  1   
 62  25  61  1   
 63  25  62  1   
 64  26  27  am  
 65  26  63  1   
 66  27  28  2   
@<TRIPOS>SUBSTRUCTURE
  1 ****  14 GROUP 4 **** **** 0

# MOE 2024.06 (io_trps.svl 2023.06)
