@<TRIPOS>MOLECULE
NONAME
51 53 1 0 0 
SMALL
USER_CHARGES


@<TRIPOS>ATOM
  1 O       -0.0920     0.3070    -0.5920 O.2   1 <1>  -0.5700 
  2 C       -0.8380     1.2300    -0.3830 C.2   1 <1>   0.5690 
  3 N       -2.1910     1.1830    -0.2020 N.am  1 <1>  -0.4770 
  4 C       -0.3210     2.6380    -0.2810 C.3   1 <1>  -0.0990 
  5 C       -3.0410     0.0590    -0.1900 C.ar  1 <1>   0.1170 
  6 C       -2.7240     2.5410     0.0330 C.3   1 <1>   0.1400 
  7 C       -1.4900     3.3900     0.3740 C.3   1 <1>  -0.0190 
  8 C       -2.6080    -1.1690     0.3000 C.ar  1 <1>  -0.1500 
  9 C       -4.3490     0.1460    -0.6570 C.ar  1 <1>  -0.1500 
 10 C       -1.6150     4.8480    -0.0450 C.2   1 <1>   0.5690 
 11 C       -3.4490    -2.2660     0.3280 C.ar  1 <1>  -0.1500 
 12 C       -5.1930    -0.9500    -0.6290 C.ar  1 <1>  -0.1500 
 13 O       -2.6990     5.2640    -0.3690 O.2   1 <1>  -0.5700 
 14 N       -0.4880     5.6200    -0.0150 N.am  1 <1>  -0.4940 
 15 C       -4.7530    -2.1690    -0.1340 C.ar  1 <1>  -0.1430 
 16 C       -0.3270     6.9680    -0.3580 C.2   1 <1>   0.2040 
 17 C       -5.6690    -3.3910    -0.0950 C.3   1 <1>   0.0630 
 18 O       -1.3230     7.7060    -0.7880 O.3   1 <1>  -0.0190 
 19 C        0.7740     7.7460    -0.3310 C.2   1 <1>  -0.1810 
 20 C       -6.1070    -3.7900    -1.5080 C.3   1 <1>  -0.2400 
 21 C       -6.8860    -3.1330     0.8000 C.3   1 <1>  -0.2400 
 22 N       -0.9450     8.9310    -1.0490 N.2   1 <1>  -0.4100 
 23 C        0.3100     8.9820    -0.7820 C.2   1 <1>   0.1080 
 24 C        2.1970     7.4080     0.0800 C.3   1 <1>  -0.0590 
 25 C        1.1410    10.2430    -0.9500 C.3   1 <1>   0.0210 
 26 C        1.2270    11.0300     0.3620 C.3   1 <1>  -0.2400 
 27 H       -0.1250     2.9970    -1.2750 H     1 <1>   0.0800 
 28 H        0.5730     2.6720     0.3140 H     1 <1>   0.0800 
 29 H       -3.4380     2.5430     0.8390 H     1 <1>   0.0800 
 30 H       -3.1960     2.8880    -0.8710 H     1 <1>   0.0800 
 31 H       -1.3680     3.3610     1.4420 H     1 <1>   0.0800 
 32 H       -1.6020    -1.2700     0.6640 H     1 <1>   0.1500 
 33 H       -4.7170     1.0720    -1.0550 H     1 <1>   0.1500 
 34 H       -3.0780    -3.1990     0.7130 H     1 <1>   0.1500 
 35 H       -6.1980    -0.8490    -0.9970 H     1 <1>   0.1500 
 36 H        0.3630     5.1620     0.2980 H     1 <1>   0.3700 
 37 H       -5.1230    -4.2180     0.3250 H     1 <1>   0.0800 
 38 H       -6.7010    -3.0160    -1.9590 H     1 <1>   0.0800 
 39 H       -6.6870    -4.6950    -1.4770 H     1 <1>   0.0800 
 40 H       -5.2410    -3.9590    -2.1230 H     1 <1>   0.0800 
 41 H       -7.4970    -2.3450     0.3990 H     1 <1>   0.0800 
 42 H       -6.5600    -2.8480     1.7840 H     1 <1>   0.0800 
 43 H       -7.4830    -4.0240     0.8810 H     1 <1>   0.0800 
 44 H        2.2730     6.3830     0.3920 H     1 <1>   0.0800 
 45 H        2.5020     8.0380     0.8970 H     1 <1>   0.0800 
 46 H        2.8650     7.5640    -0.7480 H     1 <1>   0.0800 
 47 H        0.6850    10.8590    -1.7050 H     1 <1>   0.0800 
 48 H        2.1270     9.9840    -1.2890 H     1 <1>   0.0800 
 49 H        0.2390    11.3020     0.6900 H     1 <1>   0.0800 
 50 H        1.8020    11.9270     0.2190 H     1 <1>   0.0800 
 51 H        1.6920    10.4370     1.1280 H     1 <1>   0.0800 
@<TRIPOS>BOND
  1   1   2  2   
  2   2   3  am  
  3   2   4  1   
  4   3   5  1   
  5   3   6  1   
  6   4   7  1   
  7   4  27  1   
  8   4  28  1   
  9   5   8  ar  
 10   5   9  ar  
 11   6   7  1   
 12   6  29  1   
 13   6  30  1   
 14   7  10  1   
 15   7  31  1   
 16   8  11  ar  
 17   8  32  1   
 18   9  12  ar  
 19   9  33  1   
 20  10  13  2   
 21  10  14  am  
 22  11  15  ar  
 23  11  34  1   
 24  12  15  ar  
 25  12  35  1   
 26  14  16  1   
 27  14  36  1   
 28  15  17  1   
 29  16  18  1   
 30  16  19  2   
 31  17  20  1   
 32  17  21  1   
 33  17  37  1   
 34  18  22  1   
 35  19  23  1   
 36  19  24  1   
 37  20  38  1   
 38  20  39  1   
 39  20  40  1   
 40  21  41  1   
 41  21  42  1   
 42  21  43  1   
 43  22  23  2   
 44  23  25  1   
 45  24  44  1   
 46  24  45  1   
 47  24  46  1   
 48  25  26  1   
 49  25  47  1   
 50  25  48  1   
 51  26  49  1   
 52  26  50  1   
 53  26  51  1   
@<TRIPOS>SUBSTRUCTURE
  1 ****   7 GROUP 4 **** **** 0

# MOE 2024.06 (io_trps.svl 2023.06)
