@<TRIPOS>MOLECULE
NONAME
55 57 1 0 0 
SMALL
USER_CHARGES


@<TRIPOS>ATOM
  1 O       -1.1380     5.4300     2.9650 O.2   1 <1>  -0.5700 
  2 C       -1.6330     5.2690     1.8730 C.2   1 <1>   0.5690 
  3 N       -2.7470     4.4710     1.7030 N.am  1 <1>  -0.6600 
  4 C       -0.9700     6.0150     0.7170 C.3   1 <1>   0.0440 
  5 C       -3.4280     4.2870     0.3850 C.3   1 <1>   0.2200 
  6 C       -3.2950     3.7350     2.8860 C.3   1 <1>   0.0600 
  7 C       -0.4340     5.1080    -0.3890 C.ar  1 <1>  -0.1440 
  8 C       -4.9510     4.3820     0.4330 C.3   1 <1>  -0.1600 
  9 C       -3.1720     2.9160    -0.2310 C.3   1 <1>  -0.1600 
 10 C        0.3230     3.9910    -0.0730 C.ar  1 <1>  -0.1500 
 11 C       -0.7000     5.3910    -1.7210 C.ar  1 <1>  -0.1500 
 12 C       -5.4140     3.7030    -0.8650 C.3   1 <1>  -0.0800 
 13 C       -4.2720     2.7640    -1.2910 C.3   1 <1>  -0.0800 
 14 C        0.8020     3.1520    -1.0670 C.ar  1 <1>   0.0820 
 15 C       -0.2240     4.5600    -2.7210 C.ar  1 <1>  -0.1500 
 16 C       -6.6610     2.8250    -0.6980 C.3   1 <1>  -0.1600 
 17 C       -4.8650     1.3520    -1.3660 C.3   1 <1>  -0.1600 
 18 O        1.5250     2.0780    -0.6640 O.3   1 <1>  -0.3620 
 19 C        0.5240     3.4410    -2.4000 C.ar  1 <1>  -0.1500 
 20 C       -6.1110     1.4140    -0.4870 C.3   1 <1>   0.4230 
 21 C        2.1380     1.2150    -1.5950 C.3   1 <1>   0.0400 
 22 N       -7.0820     0.3120    -0.7730 N.4   1 <1>  -0.9590 
 23 C       -7.6780     0.3200    -2.1500 C.3   1 <1>   0.2630 
 24 C       -8.1690     0.2870     0.2540 C.3   1 <1>   0.2630 
 25 H       -1.6760     6.7190     0.3210 H     1 <1>   0.0800 
 26 H       -0.1450     6.5830     1.1090 H     1 <1>   0.0800 
 27 H       -3.0920     5.0310    -0.3140 H     1 <1>   0.0800 
 28 H       -3.6550     2.7640     2.6010 H     1 <1>   0.0800 
 29 H       -4.0990     4.3020     3.3210 H     1 <1>   0.0800 
 30 H       -2.5330     3.5980     3.6340 H     1 <1>   0.0800 
 31 H       -5.3380     3.8500     1.2820 H     1 <1>   0.0800 
 32 H       -5.2720     5.4080     0.4790 H     1 <1>   0.0800 
 33 H       -2.1950     2.8630    -0.6770 H     1 <1>   0.0800 
 34 H       -3.2560     2.1530     0.5200 H     1 <1>   0.0800 
 35 H        0.5480     3.7540     0.9520 H     1 <1>   0.1500 
 36 H       -1.2760     6.2600    -1.9900 H     1 <1>   0.1500 
 37 H       -5.5750     4.4540    -1.6230 H     1 <1>   0.0800 
 38 H       -3.8820     3.0660    -2.2500 H     1 <1>   0.0800 
 39 H       -0.4340     4.7870    -3.7520 H     1 <1>   0.1500 
 40 H       -7.2300     2.8870    -1.6070 H     1 <1>   0.0800 
 41 H       -7.2720     3.1500     0.1260 H     1 <1>   0.0800 
 42 H       -4.1680     0.6060    -1.0270 H     1 <1>   0.0800 
 43 H       -5.1210     1.1580    -2.3910 H     1 <1>   0.0800 
 44 H        0.8800     2.8130    -3.1930 H     1 <1>   0.1500 
 45 H       -5.7820     1.3420     0.5380 H     1 <1>   0.0800 
 46 H        2.6850     0.4680    -1.0480 H     1 <1>   0.0800 
 47 H        2.8120     1.7860    -2.2090 H     1 <1>   0.0800 
 48 H        1.3750     0.7460    -2.1910 H     1 <1>   0.0800 
 49 H       -6.5460    -0.5630    -0.6780 H     1 <1>   0.4500 
 50 H       -8.2700     1.2080    -2.3010 H     1 <1>   0.0800 
 51 H       -8.3140    -0.5400    -2.2850 H     1 <1>   0.0800 
 52 H       -6.9050     0.2880    -2.9000 H     1 <1>   0.0800 
 53 H       -8.7640     1.1840     0.1910 H     1 <1>   0.0800 
 54 H       -7.7490     0.2220     1.2450 H     1 <1>   0.0800 
 55 H       -8.8130    -0.5640     0.0980 H     1 <1>   0.0800 
@<TRIPOS>BOND
  1   1   2  2   
  2   2   3  am  
  3   2   4  1   
  4   3   5  1   
  5   3   6  1   
  6   4   7  1   
  7   4  25  1   
  8   4  26  1   
  9   5   8  1   
 10   5   9  1   
 11   5  27  1   
 12   6  28  1   
 13   6  29  1   
 14   6  30  1   
 15   7  10  ar  
 16   7  11  ar  
 17   8  12  1   
 18   8  31  1   
 19   8  32  1   
 20   9  13  1   
 21   9  33  1   
 22   9  34  1   
 23  10  14  ar  
 24  10  35  1   
 25  11  15  ar  
 26  11  36  1   
 27  12  13  1   
 28  12  16  1   
 29  12  37  1   
 30  13  17  1   
 31  13  38  1   
 32  14  18  1   
 33  14  19  ar  
 34  15  19  ar  
 35  15  39  1   
 36  16  20  1   
 37  16  40  1   
 38  16  41  1   
 39  17  20  1   
 40  17  42  1   
 41  17  43  1   
 42  18  21  1   
 43  19  44  1   
 44  20  22  1   
 45  20  45  1   
 46  21  46  1   
 47  21  47  1   
 48  21  48  1   
 49  22  23  1   
 50  22  24  1   
 51  22  49  1   
 52  23  50  1   
 53  23  51  1   
 54  23  52  1   
 55  24  53  1   
 56  24  54  1   
 57  24  55  1   
@<TRIPOS>SUBSTRUCTURE
  1 ****   9 GROUP 4 **** **** 0

# MOE 2024.06 (io_trps.svl 2023.06)
