@<TRIPOS>MOLECULE
NONAME
39 41 1 0 0 
SMALL
USER_CHARGES


@<TRIPOS>ATOM
  1 O       -0.6970     0.5160     0.4270 O.co2 1 <1>  -0.9000 
  2 C       -0.7770     1.7270     0.7000 C.2   1 <1>   0.9790 
  3 O        0.1970     2.2850     1.2370 O.co2 1 <1>  -0.9000 
  4 C       -1.9810     2.4730     0.4040 C.ar  1 <1>  -0.1790 
  5 C       -2.0680     3.8250     0.7190 C.ar  1 <1>   0.1600 
  6 C       -3.0940     1.8940    -0.1980 C.ar  1 <1>  -0.1500 
  7 N       -3.1130     4.6110     0.5030 N.ar  1 <1>  -0.6200 
  8 C       -4.1860     2.6920    -0.4320 C.ar  1 <1>  -0.1500 
  9 C       -4.1640     4.0350    -0.0680 C.ar  1 <1>   0.4100 
 10 N       -5.2800     4.8170    -0.2840 N.pl3 1 <1>  -0.8380 
 11 C       -6.4630     4.5550     0.5770 C.3   1 <1>   0.2090 
 12 C       -5.0880     6.2500    -0.6110 C.3   1 <1>   0.2090 
 13 C       -7.7700     5.0380    -0.0990 C.3   1 <1>   0.0000 
 14 C       -6.3410     6.7820    -1.3130 C.3   1 <1>  -0.1600 
 15 C       -8.9470     4.7650     0.8610 C.3   1 <1>   0.2000 
 16 C       -7.6140     6.5310    -0.4840 C.3   1 <1>  -0.1600 
 17 C       -8.1040     4.1470    -1.3140 C.3   1 <1>  -0.1600 
 18 O      -10.0660     5.4810     0.4730 O.3   1 <1>  -0.6800 
 19 C       -9.2760     3.2860     0.6730 C.3   1 <1>  -0.1600 
 20 C       -8.8830     2.9400    -0.7710 C.3   1 <1>  -0.1600 
 21 H       -1.2070     4.2790     1.1820 H     1 <1>   0.1500 
 22 H       -3.0740     0.8510    -0.4660 H     1 <1>   0.1500 
 23 H       -5.0660     2.2970    -0.8990 H     1 <1>   0.1500 
 24 H       -6.5180     3.5030     0.7940 H     1 <1>   0.0800 
 25 H       -6.3250     5.0750     1.5090 H     1 <1>   0.0800 
 26 H       -4.9030     6.7990     0.2970 H     1 <1>   0.0800 
 27 H       -4.2300     6.3600    -1.2530 H     1 <1>   0.0800 
 28 H       -6.2250     7.8370    -1.4860 H     1 <1>   0.0800 
 29 H       -6.4250     6.3010    -2.2710 H     1 <1>   0.0800 
 30 H       -8.7280     5.0200     1.8840 H     1 <1>   0.0800 
 31 H       -8.4690     6.8720    -1.0410 H     1 <1>   0.0800 
 32 H       -7.5620     7.1180     0.4170 H     1 <1>   0.0800 
 33 H       -8.7340     4.6880    -1.9990 H     1 <1>   0.0800 
 34 H       -7.2200     3.8410    -1.8470 H     1 <1>   0.0800 
 35 H      -10.2780     5.2500    -0.4510 H     1 <1>   0.4000 
 36 H       -8.6710     2.7070     1.3480 H     1 <1>   0.0800 
 37 H      -10.3100     3.0710     0.8820 H     1 <1>   0.0800 
 38 H       -8.2650     2.0580    -0.7830 H     1 <1>   0.0800 
 39 H       -9.7570     2.7590    -1.3730 H     1 <1>   0.0800 
@<TRIPOS>BOND
  1   1   2  ar  
  2   2   3  ar  
  3   2   4  1   
  4   4   5  ar  
  5   4   6  ar  
  6   5   7  ar  
  7   5  21  1   
  8   6   8  ar  
  9   6  22  1   
 10   7   9  ar  
 11   8   9  ar  
 12   8  23  1   
 13   9  10  1   
 14  10  11  1   
 15  10  12  1   
 16  11  13  1   
 17  11  24  1   
 18  11  25  1   
 19  12  14  1   
 20  12  26  1   
 21  12  27  1   
 22  13  15  1   
 23  13  16  1   
 24  13  17  1   
 25  14  16  1   
 26  14  28  1   
 27  14  29  1   
 28  15  18  1   
 29  15  19  1   
 30  15  30  1   
 31  16  31  1   
 32  16  32  1   
 33  17  20  1   
 34  17  33  1   
 35  17  34  1   
 36  18  35  1   
 37  19  20  1   
 38  19  36  1   
 39  19  37  1   
 40  20  38  1   
 41  20  39  1   
@<TRIPOS>SUBSTRUCTURE
  1 ****  10 GROUP 4 **** **** 0

# MOE 2024.06 (io_trps.svl 2023.06)
