@<TRIPOS>MOLECULE
NONAME
48 51 1 0 0 
SMALL
USER_CHARGES


@<TRIPOS>ATOM
  1 S       -1.0330    -0.1840     0.6600 S.o2  1 <1>   1.0900 
  2 O        0.2750    -0.3140     0.0620 O.2   1 <1>  -0.6500 
  3 O       -1.2810     0.7090     1.7670 O.2   1 <1>  -0.6500 
  4 C       -1.6160    -1.8140     1.0340 C.3   1 <1>  -0.0550 
  5 C       -2.2120     0.1030    -0.6530 C.3   1 <1>  -0.0550 
  6 C       -2.1060    -2.3560    -0.3060 C.3   1 <1>   0.1760 
  7 C       -2.9120    -1.2270    -0.9790 C.3   1 <1>  -0.1600 
  8 N       -2.9230    -3.5840    -0.1400 N.pl3 1 <1>   0.3140 
  9 N       -3.9090    -3.6510     0.7790 N.2   1 <1>  -0.7070 
 10 C       -2.8450    -4.7260    -0.8700 C.2   1 <1>  -0.3320 
 11 C       -4.4410    -4.8190     0.6080 C.2   1 <1>   0.1080 
 12 C       -3.8240    -5.5390    -0.4150 C.2   1 <1>   0.0630 
 13 C       -1.8300    -4.9790    -1.9760 C.3   1 <1>  -0.0600 
 14 C       -5.6070    -5.3160     1.4350 C.3   1 <1>  -0.0590 
 15 N       -4.1920    -6.8400    -0.8320 N.am  1 <1>  -0.4930 
 16 C       -4.5070    -7.2830    -2.0830 C.2   1 <1>   0.5690 
 17 O       -4.3250    -6.6380    -3.0890 O.2   1 <1>  -0.5700 
 18 C       -5.1260    -8.6550    -2.2250 C.3   1 <1>   0.1570 
 19 N       -6.1890    -8.8240    -1.2210 N.pl3 1 <1>   0.3140 
 20 N       -5.8920    -9.0130     0.0750 N.2   1 <1>  -0.7070 
 21 C       -7.5080    -8.7750    -1.4430 C.2   1 <1>  -0.3020 
 22 C       -7.0660    -9.0900     0.6670 C.ar  1 <1>   0.2890 
 23 C       -8.1270    -8.9430    -0.2430 C.ar  1 <1>   0.0000 
 24 C       -7.3530    -9.2840     2.0370 C.ar  1 <1>  -0.1500 
 25 C       -9.4670    -8.9860     0.2180 C.ar  1 <1>  -0.1500 
 26 C       -8.6470    -9.3230     2.4660 C.ar  1 <1>  -0.1500 
 27 C       -9.7150    -9.1720     1.5460 C.ar  1 <1>  -0.1500 
 28 H       -2.4350    -1.7500     1.7260 H     1 <1>   0.0800 
 29 H       -0.8390    -2.4260     1.4470 H     1 <1>   0.0800 
 30 H       -1.7000     0.4760    -1.5210 H     1 <1>   0.0800 
 31 H       -2.9400     0.8320    -0.3500 H     1 <1>   0.0800 
 32 H       -1.2500    -2.5850    -0.9130 H     1 <1>   0.0800 
 33 H       -2.9800    -1.3830    -2.0420 H     1 <1>   0.0800 
 34 H       -3.9070    -1.2040    -0.5650 H     1 <1>   0.0800 
 35 H       -0.8300    -4.8170    -1.6170 H     1 <1>   0.0800 
 36 H       -2.0210    -4.3280    -2.8100 H     1 <1>   0.0800 
 37 H       -1.8970    -5.9950    -2.3220 H     1 <1>   0.0800 
 38 H       -6.0380    -4.5000     1.9860 H     1 <1>   0.0800 
 39 H       -5.2690    -6.0650     2.1260 H     1 <1>   0.0800 
 40 H       -6.3600    -5.7390     0.7950 H     1 <1>   0.0800 
 41 H       -4.5240    -7.4530    -0.0740 H     1 <1>   0.3700 
 42 H       -4.3770    -9.4070    -2.0710 H     1 <1>   0.0800 
 43 H       -5.5440    -8.7650    -3.2070 H     1 <1>   0.0800 
 44 H       -7.9540    -8.6220    -2.4080 H     1 <1>   0.1500 
 45 H       -6.5200    -9.3980     2.7060 H     1 <1>   0.1500 
 46 H      -10.2570    -8.8690    -0.5010 H     1 <1>   0.1500 
 47 H       -8.8850    -9.4700     3.5060 H     1 <1>   0.1500 
 48 H      -10.7230    -9.2090     1.9240 H     1 <1>   0.1500 
@<TRIPOS>BOND
  1   1   2  2   
  2   1   3  2   
  3   1   4  1   
  4   1   5  1   
  5   4   6  1   
  6   4  28  1   
  7   4  29  1   
  8   5   7  1   
  9   5  30  1   
 10   5  31  1   
 11   6   7  1   
 12   6   8  1   
 13   6  32  1   
 14   7  33  1   
 15   7  34  1   
 16   8   9  1   
 17   8  10  1   
 18   9  11  2   
 19  10  12  2   
 20  10  13  1   
 21  11  12  1   
 22  11  14  1   
 23  12  15  1   
 24  13  35  1   
 25  13  36  1   
 26  13  37  1   
 27  14  38  1   
 28  14  39  1   
 29  14  40  1   
 30  15  16  am  
 31  15  41  1   
 32  16  17  2   
 33  16  18  1   
 34  18  19  1   
 35  18  42  1   
 36  18  43  1   
 37  19  20  1   
 38  19  21  1   
 39  20  22  2   
 40  21  23  2   
 41  21  44  1   
 42  22  23  ar  
 43  22  24  ar  
 44  23  25  ar  
 45  24  26  ar  
 46  24  45  1   
 47  25  27  ar  
 48  25  46  1   
 49  26  27  ar  
 50  26  47  1   
 51  27  48  1   
@<TRIPOS>SUBSTRUCTURE
  1 ****  12 GROUP 4 **** **** 0

# MOE 2024.06 (io_trps.svl 2023.06)
