@<TRIPOS>MOLECULE
NONAME
50 52 1 0 0 
SMALL
USER_CHARGES


@<TRIPOS>ATOM
  1 O       -0.8020     1.2510    -2.3430 O.2   1 <1>  -0.5700 
  2 C       -1.0470     1.5770    -1.1950 C.2   1 <1>   0.5440 
  3 N       -2.0180     0.8770    -0.5050 N.am  1 <1>  -0.6600 
  4 C       -0.3760     2.7260    -0.6290 C.ar  1 <1>   0.0860 
  5 C       -2.7700    -0.2200    -1.2030 C.3   1 <1>   0.1400 
  6 C       -2.4190     1.2190     0.8880 C.3   1 <1>   0.1400 
  7 C        0.6700     2.6190     0.2960 C.ar  1 <1>   0.0820 
  8 C       -0.7710     4.0090    -1.0080 C.ar  1 <1>  -0.1500 
  9 C       -3.9800    -0.8050    -0.4410 C.3   1 <1>   0.1400 
 10 C       -3.6940     2.0690     0.8810 C.3   1 <1>  -0.1600 
 11 O        1.1060     1.4150     0.6990 O.3   1 <1>  -0.5320 
 12 C        1.2800     3.7480     0.8190 C.ar  1 <1>  -0.1500 
 13 C       -0.1710     5.1420    -0.4870 C.ar  1 <1>  -0.1430 
 14 N       -5.0510     0.1740    -0.0320 N.am  1 <1>  -0.6600 
 15 C       -4.7470     1.6350    -0.1450 C.3   1 <1>   0.1400 
 16 C        0.8590     5.0060     0.4300 C.ar  1 <1>  -0.1500 
 17 C       -0.6200     6.5270    -0.9150 C.3   1 <1>  -0.0970 
 18 C       -6.3350    -0.2630     0.2330 C.2   1 <1>   0.7160 
 19 O       -7.2560     0.5330     0.2160 O.2   1 <1>  -0.5700 
 20 C       -6.6060    -1.6530     0.5150 C.2   1 <1>  -0.0860 
 21 C       -7.5010    -2.5310    -0.0220 C.2   1 <1>  -0.3320 
 22 C       -5.9520    -2.4200     1.4820 C.2   1 <1>   0.1390 
 23 N       -7.3370    -3.7110     0.6040 N.pl3 1 <1>   0.3140 
 24 C       -8.5210    -2.2720    -1.1210 C.3   1 <1>  -0.0600 
 25 N       -6.3700    -3.6430     1.5320 N.2   1 <1>  -0.7070 
 26 C       -8.0810    -4.9570     0.3770 C.3   1 <1>   0.0160 
 27 H       -2.0770    -1.0180    -1.4040 H     1 <1>   0.0800 
 28 H       -3.1100     0.1460    -2.1560 H     1 <1>   0.0800 
 29 H       -1.6340     1.7560     1.3900 H     1 <1>   0.0800 
 30 H       -2.5790     0.3160     1.4490 H     1 <1>   0.0800 
 31 H       -1.5640     4.1000    -1.7290 H     1 <1>   0.1500 
 32 H       -3.6160    -1.3140     0.4330 H     1 <1>   0.0800 
 33 H       -4.4280    -1.5540    -1.0730 H     1 <1>   0.0800 
 34 H       -3.4230     3.0880     0.6730 H     1 <1>   0.0800 
 35 H       -4.1310     2.0540     1.8630 H     1 <1>   0.0800 
 36 H        1.9130     1.4460     1.2440 H     1 <1>   0.4500 
 37 H        2.0820     3.6560     1.5280 H     1 <1>   0.1500 
 38 H       -4.4070     1.8530    -1.1420 H     1 <1>   0.0800 
 39 H       -5.6360     2.2210     0.0140 H     1 <1>   0.0800 
 40 H        1.3340     5.8810     0.8390 H     1 <1>   0.1500 
 41 H       -1.4540     6.4710    -1.5920 H     1 <1>   0.0800 
 42 H        0.1870     7.0370    -1.4090 H     1 <1>   0.0800 
 43 H       -0.9170     7.0990    -0.0540 H     1 <1>   0.0800 
 44 H       -5.1790    -2.0350     2.1250 H     1 <1>   0.1500 
 45 H       -8.4570    -1.2540    -1.4620 H     1 <1>   0.0800 
 46 H       -9.5160    -2.4380    -0.7480 H     1 <1>   0.0800 
 47 H       -8.3450    -2.9230    -1.9580 H     1 <1>   0.0800 
 48 H       -7.9540    -5.2620    -0.6440 H     1 <1>   0.0800 
 49 H       -9.1200    -4.7890     0.5870 H     1 <1>   0.0800 
 50 H       -7.7000    -5.7190     1.0310 H     1 <1>   0.0800 
@<TRIPOS>BOND
  1   1   2  2   
  2   2   3  am  
  3   2   4  1   
  4   3   5  1   
  5   3   6  1   
  6   4   7  ar  
  7   4   8  ar  
  8   5   9  1   
  9   5  27  1   
 10   5  28  1   
 11   6  10  1   
 12   6  29  1   
 13   6  30  1   
 14   7  11  1   
 15   7  12  ar  
 16   8  13  ar  
 17   8  31  1   
 18   9  14  1   
 19   9  32  1   
 20   9  33  1   
 21  10  15  1   
 22  10  34  1   
 23  10  35  1   
 24  11  36  1   
 25  12  16  ar  
 26  12  37  1   
 27  13  16  ar  
 28  13  17  1   
 29  14  15  1   
 30  14  18  am  
 31  15  38  1   
 32  15  39  1   
 33  16  40  1   
 34  17  41  1   
 35  17  42  1   
 36  17  43  1   
 37  18  19  2   
 38  18  20  1   
 39  20  21  2   
 40  20  22  1   
 41  21  23  1   
 42  21  24  1   
 43  22  25  2   
 44  22  44  1   
 45  23  25  1   
 46  23  26  1   
 47  24  45  1   
 48  24  46  1   
 49  24  47  1   
 50  26  48  1   
 51  26  49  1   
 52  26  50  1   
@<TRIPOS>SUBSTRUCTURE
  1 ****   6 GROUP 4 **** **** 0

# MOE 2024.06 (io_trps.svl 2023.06)
