@<TRIPOS>MOLECULE
NONAME
48 52 1 0 0 
SMALL
USER_CHARGES


@<TRIPOS>ATOM
  1 O       -0.8240    -0.2950     0.3140 O.3   1 <1>  -0.2800 
  2 C       -0.6680     0.7880    -0.3720 C.2   1 <1>   0.3930 
  3 C       -0.8750    -1.2230    -0.5870 C.2   1 <1>   0.2980 
  4 N       -0.6170     0.5640    -1.6310 N.2   1 <1>  -0.3380 
  5 C       -0.5700     2.1240     0.3480 C.3   1 <1>  -0.0150 
  6 N       -0.7520    -0.7560    -1.7730 N.2   1 <1>  -0.3380 
  7 C       -1.0670    -2.6830    -0.1890 C.3   1 <1>   0.2900 
  8 C        0.1910     3.2760    -0.2360 C.3   1 <1>  -0.2000 
  9 C        0.7220     2.5590     0.9700 C.3   1 <1>  -0.2000 
 10 N       -2.3930    -2.9480     0.4180 N.3   1 <1>  -0.8100 
 11 C       -3.5050    -2.5990    -0.4770 C.3   1 <1>   0.1100 
 12 C       -2.5720    -4.3650     0.7800 C.3   1 <1>   0.1100 
 13 C       -4.6760    -3.4200     0.0450 C.3   1 <1>   0.2000 
 14 C       -4.0210    -4.7470     0.4180 C.3   1 <1>  -0.0800 
 15 O       -5.1170    -2.8240     1.2100 O.3   1 <1>  -0.6800 
 16 C       -4.0830    -5.7400    -0.7590 C.3   1 <1>  -0.0170 
 17 C       -3.4130    -7.0630    -0.4280 C.ar  1 <1>   0.1670 
 18 N       -2.2270    -7.2740    -0.9110 N.ar  1 <1>  -0.6200 
 19 C       -4.0990    -7.9850     0.3800 C.ar  1 <1>  -0.1500 
 20 C       -1.6230    -8.4540    -0.6130 C.ar  1 <1>   0.3100 
 21 C       -3.5160    -9.1740     0.6960 C.ar  1 <1>  -0.1500 
 22 C       -2.2320    -9.4390     0.1940 C.ar  1 <1>   0.0000 
 23 C       -0.3410    -8.7080    -1.1250 C.ar  1 <1>  -0.1500 
 24 C       -1.5340   -10.6340     0.4590 C.ar  1 <1>  -0.1500 
 25 C        0.3210    -9.8760    -0.8560 C.ar  1 <1>  -0.1500 
 26 C       -0.2840   -10.8500    -0.0540 C.ar  1 <1>  -0.1500 
 27 H       -1.4760     2.3520     0.8800 H     1 <1>   0.1000 
 28 H       -0.2990    -2.9460     0.5160 H     1 <1>   0.0800 
 29 H       -0.9420    -3.2960    -1.0650 H     1 <1>   0.0800 
 30 H        0.6850     3.1370    -1.1830 H     1 <1>   0.1000 
 31 H       -0.2110     4.2670    -0.1210 H     1 <1>   0.1000 
 32 H        0.6920     3.0520     1.9260 H     1 <1>   0.1000 
 33 H        1.5880     1.9300     0.8540 H     1 <1>   0.1000 
 34 H       -3.7160    -1.5420    -0.4580 H     1 <1>   0.0800 
 35 H       -3.2790    -2.8970    -1.4870 H     1 <1>   0.0800 
 36 H       -1.8640    -4.9870     0.2600 H     1 <1>   0.0800 
 37 H       -2.4100    -4.4800     1.8390 H     1 <1>   0.0800 
 38 H       -5.5020    -3.5010    -0.6410 H     1 <1>   0.0800 
 39 H       -4.5160    -5.1910     1.2640 H     1 <1>   0.0800 
 40 H       -4.3110    -2.5590     1.7040 H     1 <1>   0.4000 
 41 H       -3.6070    -5.3150    -1.6260 H     1 <1>   0.0800 
 42 H       -5.1100    -5.9290    -1.0170 H     1 <1>   0.0800 
 43 H       -5.0810    -7.7380     0.7410 H     1 <1>   0.1500 
 44 H       -4.0100    -9.9040     1.3130 H     1 <1>   0.1500 
 45 H        0.1060    -7.9490    -1.7390 H     1 <1>   0.1500 
 46 H       -2.0050   -11.3800     1.0760 H     1 <1>   0.1500 
 47 H        1.3040   -10.0590    -1.2540 H     1 <1>   0.1500 
 48 H        0.2470   -11.7640     0.1500 H     1 <1>   0.1500 
@<TRIPOS>BOND
  1   1   2  1   
  2   1   3  1   
  3   2   4  2   
  4   2   5  1   
  5   3   6  2   
  6   3   7  1   
  7   4   6  1   
  8   5   8  1   
  9   5   9  1   
 10   5  27  1   
 11   7  10  1   
 12   7  28  1   
 13   7  29  1   
 14   8   9  1   
 15   8  30  1   
 16   8  31  1   
 17   9  32  1   
 18   9  33  1   
 19  10  11  1   
 20  10  12  1   
 21  11  13  1   
 22  11  34  1   
 23  11  35  1   
 24  12  14  1   
 25  12  36  1   
 26  12  37  1   
 27  13  14  1   
 28  13  15  1   
 29  13  38  1   
 30  14  16  1   
 31  14  39  1   
 32  15  40  1   
 33  16  17  1   
 34  16  41  1   
 35  16  42  1   
 36  17  18  ar  
 37  17  19  ar  
 38  18  20  ar  
 39  19  21  ar  
 40  19  43  1   
 41  20  22  ar  
 42  20  23  ar  
 43  21  22  ar  
 44  21  44  1   
 45  22  24  ar  
 46  23  25  ar  
 47  23  45  1   
 48  24  26  ar  
 49  24  46  1   
 50  25  26  ar  
 51  25  47  1   
 52  26  48  1   
@<TRIPOS>SUBSTRUCTURE
  1 ****  12 GROUP 4 **** **** 0

# MOE 2024.06 (io_trps.svl 2023.06)
