@<TRIPOS>MOLECULE
NONAME
46 49 1 0 0 
SMALL
USER_CHARGES


@<TRIPOS>ATOM
  1 S       -1.0030     0.1600    -1.6930 S.3   1 <1>  -0.0800 
  2 C       -1.7950    -0.9880    -0.6390 C.2   1 <1>  -0.1100 
  3 C       -1.0130    -0.9900    -3.0140 C.2   1 <1>  -0.1100 
  4 C       -2.0620    -2.1570    -1.2720 C.2   1 <1>  -0.0860 
  5 C       -1.5940    -2.1420    -2.6340 C.2   1 <1>  -0.1500 
  6 C       -2.7210    -3.3180    -0.7140 C.2   1 <1>   0.7160 
  7 O       -2.1050    -4.3640    -0.6280 O.2   1 <1>  -0.5700 
  8 N       -4.0330    -3.2780    -0.2940 N.am  1 <1>  -0.6600 
  9 C       -4.9670    -2.1500    -0.6060 C.3   1 <1>   0.1400 
 10 C       -4.6720    -4.5080     0.2660 C.3   1 <1>   0.1400 
 11 C       -5.7920    -1.7250     0.6320 C.3   1 <1>   0.1430 
 12 C       -6.1180    -4.2630     0.7270 C.3   1 <1>  -0.1600 
 13 C       -6.9680    -0.9110     0.1200 C.ar  1 <1>   0.1670 
 14 C       -6.2310    -2.9380     1.4950 C.3   1 <1>  -0.1600 
 15 C       -5.0360    -0.6780     1.4920 C.3   1 <1>  -0.1600 
 16 N       -8.0370    -1.4020    -0.4550 N.ar  1 <1>  -0.6200 
 17 C       -6.7740     0.4240     0.3090 C.ar  1 <1>  -0.1430 
 18 C       -5.4520     0.7090     0.9760 C.3   1 <1>  -0.0170 
 19 C       -8.9450    -0.5000    -0.8370 C.ar  1 <1>   0.7200 
 20 C       -7.7580     1.2780    -0.1190 C.ar  1 <1>   0.1600 
 21 N       -8.8480     0.8260    -0.6930 N.ar  1 <1>  -0.6200 
 22 N      -10.0900    -0.9830    -1.4410 N.pl3 1 <1>  -0.8380 
 23 C      -11.0400    -0.0920    -2.1620 C.3   1 <1>   0.1290 
 24 C      -10.4740    -2.4200    -1.3720 C.3   1 <1>   0.1290 
 25 H       -1.9840    -0.6780     0.3710 H     1 <1>   0.1500 
 26 H       -0.5730    -0.6800    -3.9460 H     1 <1>   0.1500 
 27 H       -1.7200    -3.0120    -3.2550 H     1 <1>   0.1500 
 28 H       -5.6450    -2.4880    -1.3720 H     1 <1>   0.0800 
 29 H       -4.4440    -1.3000    -1.0050 H     1 <1>   0.0800 
 30 H       -4.0840    -4.8390     1.1070 H     1 <1>   0.0800 
 31 H       -4.6530    -5.2890    -0.4750 H     1 <1>   0.0800 
 32 H       -6.4330    -5.0780     1.3530 H     1 <1>   0.0800 
 33 H       -6.7720    -4.2440    -0.1290 H     1 <1>   0.0800 
 34 H       -7.2410    -2.7990     1.8410 H     1 <1>   0.0800 
 35 H       -5.6000    -3.0160     2.3630 H     1 <1>   0.0800 
 36 H       -3.9720    -0.8240     1.4710 H     1 <1>   0.0800 
 37 H       -5.3650    -0.7530     2.5140 H     1 <1>   0.0800 
 38 H       -4.7490     1.0750     0.2470 H     1 <1>   0.0800 
 39 H       -5.5530     1.4190     1.7790 H     1 <1>   0.0800 
 40 H       -7.6520     2.3410     0.0090 H     1 <1>   0.1500 
 41 H      -10.5210     0.7520    -2.5820 H     1 <1>   0.0800 
 42 H      -11.7890     0.2640    -1.4760 H     1 <1>   0.0800 
 43 H      -11.5160    -0.6290    -2.9630 H     1 <1>   0.0800 
 44 H      -10.0830    -2.8740    -0.4780 H     1 <1>   0.0800 
 45 H      -10.0810    -2.9380    -2.2290 H     1 <1>   0.0800 
 46 H      -11.5460    -2.5160    -1.3570 H     1 <1>   0.0800 
@<TRIPOS>BOND
  1   1   2  1   
  2   1   3  1   
  3   2   4  2   
  4   2  25  1   
  5   3   5  2   
  6   3  26  1   
  7   4   5  1   
  8   4   6  1   
  9   5  27  1   
 10   6   7  2   
 11   6   8  am  
 12   8   9  1   
 13   8  10  1   
 14   9  11  1   
 15   9  28  1   
 16   9  29  1   
 17  10  12  1   
 18  10  30  1   
 19  10  31  1   
 20  11  13  1   
 21  11  14  1   
 22  11  15  1   
 23  12  14  1   
 24  12  32  1   
 25  12  33  1   
 26  13  16  ar  
 27  13  17  ar  
 28  14  34  1   
 29  14  35  1   
 30  15  18  1   
 31  15  36  1   
 32  15  37  1   
 33  16  19  ar  
 34  17  18  1   
 35  17  20  ar  
 36  18  38  1   
 37  18  39  1   
 38  19  21  ar  
 39  19  22  1   
 40  20  21  ar  
 41  20  40  1   
 42  22  23  1   
 43  22  24  1   
 44  23  41  1   
 45  23  42  1   
 46  23  43  1   
 47  24  44  1   
 48  24  45  1   
 49  24  46  1   
@<TRIPOS>SUBSTRUCTURE
  1 ****   9 GROUP 4 **** **** 0

# MOE 2024.06 (io_trps.svl 2023.06)
