@<TRIPOS>MOLECULE
NONAME
38 40 1 0 0 
SMALL
USER_CHARGES


@<TRIPOS>ATOM
  1 CL      -0.2600     0.1460     0.3360 Cl    1 <1>  -0.1770 
  2 C       -1.7680    -0.7380     0.2480 C.ar  1 <1>   0.1770 
  3 C       -1.8750    -2.0090     0.7570 C.ar  1 <1>   0.1600 
  4 C       -2.8820    -0.1840    -0.3340 C.ar  1 <1>   0.1600 
  5 N       -3.0010    -2.6850     0.6970 N.ar  1 <1>  -0.6200 
  6 N       -4.0210    -0.8360    -0.4070 N.ar  1 <1>  -0.6200 
  7 C       -4.0320    -2.0630     0.1210 C.ar  1 <1>   0.7200 
  8 N       -5.2180    -2.7480     0.0620 N.pl3 1 <1>  -0.8380 
  9 C       -6.4310    -2.2480    -0.6300 C.3   1 <1>   0.2090 
 10 C       -5.4020    -4.1620     0.4520 C.3   1 <1>   0.2090 
 11 C       -7.4270    -3.4200    -0.6310 C.3   1 <1>   0.2000 
 12 C       -6.5410    -4.6570    -0.4410 C.3   1 <1>  -0.0800 
 13 O       -8.3070    -3.3260     0.4570 O.3   1 <1>  -0.5600 
 14 C       -7.2700    -5.8920     0.1190 C.3   1 <1>   0.0200 
 15 C       -9.3990    -2.4820     0.2690 C.3   1 <1>   0.0400 
 16 C       -6.4120    -7.1470     0.1160 C.2   1 <1>  -0.0400 
 17 O       -6.8910    -8.2360     0.6570 O.3   1 <1>  -0.0190 
 18 C       -5.1860    -7.4300    -0.3520 C.2   1 <1>  -0.1500 
 19 N       -6.0530    -9.2290     0.5800 N.2   1 <1>  -0.4100 
 20 C       -5.0150    -8.7720    -0.0230 C.2   1 <1>   0.1080 
 21 C       -3.7800    -9.5890    -0.3290 C.3   1 <1>  -0.0590 
 22 H       -1.0210    -2.4720     1.2180 H     1 <1>   0.1500 
 23 H       -2.8300     0.8100    -0.7430 H     1 <1>   0.1500 
 24 H       -6.8240    -1.3830    -0.1260 H     1 <1>   0.0800 
 25 H       -6.1700    -1.9870    -1.6410 H     1 <1>   0.0800 
 26 H       -4.5020    -4.7330     0.3050 H     1 <1>   0.0800 
 27 H       -5.6880    -4.2000     1.4890 H     1 <1>   0.0800 
 28 H       -7.9980    -3.4730    -1.5420 H     1 <1>   0.0800 
 29 H       -6.1200    -4.9050    -1.3990 H     1 <1>   0.0800 
 30 H       -8.1500    -6.0820    -0.4690 H     1 <1>   0.0800 
 31 H       -7.5900    -5.6980     1.1290 H     1 <1>   0.0800 
 32 H       -9.9910    -2.5010     1.1670 H     1 <1>   0.0800 
 33 H       -9.9860    -2.8380    -0.5590 H     1 <1>   0.0800 
 34 H       -9.0550    -1.4790     0.0880 H     1 <1>   0.0800 
 35 H       -4.4730    -6.8110    -0.8620 H     1 <1>   0.1500 
 36 H       -3.5780    -9.5640    -1.3840 H     1 <1>   0.0800 
 37 H       -3.9320   -10.6100    -0.0280 H     1 <1>   0.0800 
 38 H       -2.9380    -9.1900     0.2050 H     1 <1>   0.0800 
@<TRIPOS>BOND
  1   1   2  1   
  2   2   3  ar  
  3   2   4  ar  
  4   3   5  ar  
  5   3  22  1   
  6   4   6  ar  
  7   4  23  1   
  8   5   7  ar  
  9   6   7  ar  
 10   7   8  1   
 11   8   9  1   
 12   8  10  1   
 13   9  11  1   
 14   9  24  1   
 15   9  25  1   
 16  10  12  1   
 17  10  26  1   
 18  10  27  1   
 19  11  12  1   
 20  11  13  1   
 21  11  28  1   
 22  12  14  1   
 23  12  29  1   
 24  13  15  1   
 25  14  16  1   
 26  14  30  1   
 27  14  31  1   
 28  15  32  1   
 29  15  33  1   
 30  15  34  1   
 31  16  17  1   
 32  16  18  2   
 33  17  19  1   
 34  18  20  1   
 35  18  35  1   
 36  19  20  2   
 37  20  21  1   
 38  21  36  1   
 39  21  37  1   
 40  21  38  1   
@<TRIPOS>SUBSTRUCTURE
  1 ****  10 GROUP 4 **** **** 0

# MOE 2024.06 (io_trps.svl 2023.06)
