@<TRIPOS>MOLECULE
NONAME
38 39 1 0 0 
SMALL
USER_CHARGES


@<TRIPOS>ATOM
  1 O        5.4530     1.1630     2.5480 O.2   1 <1>  -0.5700 
  2 C        4.8940     1.6810     1.5870 C.2   1 <1>   0.5410 
  3 C        3.6970     2.4240     1.7400 C.2   1 <1>  -0.1360 
  4 C        5.4230     1.5780     0.2770 C.2   1 <1>  -0.1360 
  5 C        3.1070     3.0250     0.6740 C.2   1 <1>  -0.0500 
  6 C        4.8130     2.1880    -0.7730 C.2   1 <1>  -0.0500 
  7 N        3.6600     2.9260    -0.5880 N.pl3 1 <1>  -0.5690 
  8 C        3.0440     3.6740    -1.7440 C.3   1 <1>   0.2700 
  9 C        3.5750     5.1030    -1.8720 C.2   1 <1>   0.5690 
 10 O        3.1090     5.8200    -2.7250 O.2   1 <1>  -0.5700 
 11 N        4.5510     5.4830    -0.9930 N.am  1 <1>  -0.4940 
 12 C        5.2710     6.6720    -0.7280 C.2   1 <1>  -0.0880 
 13 N        5.4490     7.7720    -1.5140 N.pl3 1 <1>   0.3140 
 14 C        5.9630     6.9050     0.4130 C.2   1 <1>  -0.1810 
 15 N        6.2370     8.6860    -0.9040 N.2   1 <1>  -0.7070 
 16 C        4.9690     8.0310    -2.8760 C.3   1 <1>   0.0160 
 17 C        6.5370     8.1600     0.2390 C.2   1 <1>   0.1080 
 18 C        6.0830     5.9950     1.6260 C.3   1 <1>   0.0210 
 19 C        7.4190     8.8760     1.2370 C.3   1 <1>  -0.0590 
 20 C        7.1760     4.9470     1.4080 C.3   1 <1>  -0.2400 
 21 H        3.2910     2.4840     2.7310 H     1 <1>   0.1500 
 22 H        6.3200     1.0000     0.1650 H     1 <1>   0.1500 
 23 H        2.1960     3.5940     0.7840 H     1 <1>   0.1500 
 24 H        5.2140     2.1150    -1.7730 H     1 <1>   0.1500 
 25 H        1.9770     3.7150    -1.6150 H     1 <1>   0.0800 
 26 H        3.2460     3.1490    -2.6590 H     1 <1>   0.0800 
 27 H        4.7650     4.7270    -0.3340 H     1 <1>   0.3700 
 28 H        5.1590     7.1710    -3.4890 H     1 <1>   0.0800 
 29 H        5.4870     8.8810    -3.2790 H     1 <1>   0.0800 
 30 H        3.9160     8.2350    -2.8430 H     1 <1>   0.0800 
 31 H        5.1420     5.5030     1.7980 H     1 <1>   0.0800 
 32 H        6.3070     6.5790     2.5010 H     1 <1>   0.0800 
 33 H        8.1600     8.2020     1.6240 H     1 <1>   0.0800 
 34 H        6.8180     9.2530     2.0440 H     1 <1>   0.0800 
 35 H        7.9150     9.7000     0.7580 H     1 <1>   0.0800 
 36 H        6.9580     4.3540     0.5380 H     1 <1>   0.0800 
 37 H        7.2430     4.2970     2.2630 H     1 <1>   0.0800 
 38 H        8.1260     5.4300     1.2640 H     1 <1>   0.0800 
@<TRIPOS>BOND
  1   1   2  2   
  2   2   3  1   
  3   2   4  1   
  4   3   5  2   
  5   3  21  1   
  6   4   6  2   
  7   4  22  1   
  8   5   7  1   
  9   5  23  1   
 10   6   7  1   
 11   6  24  1   
 12   7   8  1   
 13   8   9  1   
 14   8  25  1   
 15   8  26  1   
 16   9  10  2   
 17   9  11  am  
 18  11  12  1   
 19  11  27  1   
 20  12  13  1   
 21  12  14  2   
 22  13  15  1   
 23  13  16  1   
 24  14  17  1   
 25  14  18  1   
 26  15  17  2   
 27  16  28  1   
 28  16  29  1   
 29  16  30  1   
 30  17  19  1   
 31  18  20  1   
 32  18  31  1   
 33  18  32  1   
 34  19  33  1   
 35  19  34  1   
 36  19  35  1   
 37  20  36  1   
 38  20  37  1   
 39  20  38  1   
@<TRIPOS>SUBSTRUCTURE
  1 ****  11 GROUP 4 **** **** 0

# MOE 2024.06 (io_trps.svl 2023.06)
