@<TRIPOS>MOLECULE
NONAME
24 24 1 0 0 
SMALL
USER_CHARGES


@<TRIPOS>ATOM
  1 N       -1.7140     0.6400    -1.9770 N.1   1 <1>  -0.5570 
  2 C       -2.2140    -0.0250    -1.1950 C.1   1 <1>   0.5380 
  3 C       -2.9420    -0.6820    -0.1560 C.2   1 <1>   0.0190 
  4 C       -3.1000    -2.0590     0.0020 C.2   1 <1>   0.3720 
  5 C       -3.6510    -0.1510     0.8760 C.2   1 <1>  -0.3320 
  6 N       -3.8190    -2.3760     1.0190 N.2   1 <1>  -0.7070 
  7 N       -2.6000    -3.0670    -0.7810 N.pl3 1 <1>  -0.8830 
  8 N       -4.1640    -1.1900     1.5700 N.pl3 1 <1>   0.3000 
  9 C       -3.8460     1.3180     1.2170 C.3   1 <1>   0.0200 
 10 C       -4.6840     2.0060     0.1270 C.3   1 <1>  -0.1600 
 11 C       -4.6110     3.5270     0.2320 C.3   1 <1>   0.3430 
 12 N       -5.2060     4.1220    -0.9870 N.4   1 <1>  -0.8530 
 13 H       -3.1700    -3.8870    -0.5600 H     1 <1>   0.4000 
 14 H       -1.6590    -3.3020    -0.4630 H     1 <1>   0.4000 
 15 H       -4.7460    -1.1460     2.4180 H     1 <1>   0.2700 
 16 H       -2.8720     1.7780     1.2780 H     1 <1>   0.0800 
 17 H       -4.3190     1.4230     2.1800 H     1 <1>   0.0800 
 18 H       -5.7050     1.6720     0.2090 H     1 <1>   0.0800 
 19 H       -4.3090     1.7100    -0.8360 H     1 <1>   0.0800 
 20 H       -3.5780     3.8320     0.3140 H     1 <1>   0.0800 
 21 H       -5.1370     3.8640     1.1130 H     1 <1>   0.0800 
 22 H       -4.7040     3.8020    -1.8250 H     1 <1>   0.4500 
 23 H       -5.1540     5.1470    -0.9650 H     1 <1>   0.4500 
 24 H       -6.1920     3.8540    -1.0900 H     1 <1>   0.4500 
@<TRIPOS>BOND
  1   1   2  3   
  2   2   3  1   
  3   3   4  1   
  4   3   5  2   
  5   4   6  2   
  6   4   7  1   
  7   5   8  1   
  8   5   9  1   
  9   6   8  1   
 10   7  13  1   
 11   7  14  1   
 12   8  15  1   
 13   9  10  1   
 14   9  16  1   
 15   9  17  1   
 16  10  11  1   
 17  10  18  1   
 18  10  19  1   
 19  11  12  1   
 20  11  20  1   
 21  11  21  1   
 22  12  22  1   
 23  12  23  1   
 24  12  24  1   
@<TRIPOS>SUBSTRUCTURE
  1 ****   5 GROUP 4 **** **** 0

# MOE 2024.06 (io_trps.svl 2023.06)
