@<TRIPOS>MOLECULE
NONAME
37 39 1 0 0 
SMALL
USER_CHARGES


@<TRIPOS>ATOM
  1 F       -0.8430     1.4460     2.2320 F     1 <1>  -0.1900 
  2 C       -1.4660     1.7600     1.1190 C.ar  1 <1>   0.1900 
  3 C       -0.7880     2.4230     0.0930 C.ar  1 <1>   0.1000 
  4 C       -2.7950     1.4050     0.9990 C.ar  1 <1>   0.1600 
  5 N        0.5520     2.8350     0.1010 N.pl3 1 <1>  -0.8380 
  6 C       -1.5720     2.6660    -1.0250 C.ar  1 <1>  -0.1500 
  7 N       -3.5360     1.6540    -0.0750 N.ar  1 <1>  -0.6200 
  8 C        1.1730     3.3010     1.3880 C.3   1 <1>   0.2090 
  9 C        1.4960     2.0980    -0.7900 C.3   1 <1>   0.2090 
 10 C       -2.9000     2.2750    -1.0590 C.ar  1 <1>   0.1600 
 11 C        2.2950     4.3700     1.2270 C.3   1 <1>   0.4230 
 12 C        2.5720     3.0420    -1.3640 C.3   1 <1>  -0.0800 
 13 N        2.1990     5.2350    -0.0210 N.4   1 <1>  -0.9590 
 14 C        3.7040     3.7590     1.3890 C.3   1 <1>   0.1200 
 15 C        3.9720     2.8120    -0.7730 C.3   1 <1>   0.1200 
 16 C        2.1280     4.5120    -1.3430 C.3   1 <1>   0.3430 
 17 C        1.0000     6.1220     0.0850 C.3   1 <1>   0.2630 
 18 O        3.9090     2.6290     0.6020 O.3   1 <1>  -0.5600 
 19 H       -3.2690     0.8950     1.8190 H     1 <1>   0.1500 
 20 H       -1.1470     3.1650    -1.8730 H     1 <1>   0.1500 
 21 H        0.4010     3.7280     2.0030 H     1 <1>   0.0800 
 22 H        1.5610     2.4510     1.9240 H     1 <1>   0.0800 
 23 H        1.9470     1.2830    -0.2480 H     1 <1>   0.0800 
 24 H        0.9380     1.6640    -1.6040 H     1 <1>   0.0800 
 25 H       -3.4780     2.4830    -1.9440 H     1 <1>   0.1500 
 26 H        2.1900     5.0290     2.0710 H     1 <1>   0.0800 
 27 H        2.6600     2.7830    -2.4040 H     1 <1>   0.0800 
 28 H        3.0390     5.8260    -0.0410 H     1 <1>   0.4500 
 29 H        3.8250     3.4370     2.4090 H     1 <1>   0.0800 
 30 H        4.4750     4.4790     1.1790 H     1 <1>   0.0800 
 31 H        4.6510     3.6170    -1.0000 H     1 <1>   0.0800 
 32 H        4.3830     1.9030    -1.1800 H     1 <1>   0.0800 
 33 H        1.1080     4.5310    -1.6910 H     1 <1>   0.0800 
 34 H        2.7150     5.0570    -2.0640 H     1 <1>   0.0800 
 35 H        0.1020     5.5230     0.0970 H     1 <1>   0.0800 
 36 H        0.9540     6.7940    -0.7560 H     1 <1>   0.0800 
 37 H        1.0390     6.7050     0.9900 H     1 <1>   0.0800 
@<TRIPOS>BOND
  1   1   2  1   
  2   2   3  ar  
  3   2   4  ar  
  4   3   5  1   
  5   3   6  ar  
  6   4   7  ar  
  7   4  19  1   
  8   5   8  1   
  9   5   9  1   
 10   6  10  ar  
 11   6  20  1   
 12   7  10  ar  
 13   8  11  1   
 14   8  21  1   
 15   8  22  1   
 16   9  12  1   
 17   9  23  1   
 18   9  24  1   
 19  10  25  1   
 20  11  13  1   
 21  11  14  1   
 22  11  26  1   
 23  12  15  1   
 24  12  16  1   
 25  12  27  1   
 26  13  16  1   
 27  13  17  1   
 28  13  28  1   
 29  14  18  1   
 30  14  29  1   
 31  14  30  1   
 32  15  18  1   
 33  15  31  1   
 34  15  32  1   
 35  16  33  1   
 36  16  34  1   
 37  17  35  1   
 38  17  36  1   
 39  17  37  1   
@<TRIPOS>SUBSTRUCTURE
  1 ****   5 GROUP 4 **** **** 0

# MOE 2024.06 (io_trps.svl 2023.06)
