@<TRIPOS>MOLECULE
NONAME
63 66 1 0 0 
SMALL
USER_CHARGES


@<TRIPOS>ATOM
  1 O       -0.7280     0.6220    -1.8080 O.2   1 <1>  -0.5700 
  2 C       -1.6750     1.3290    -1.5110 C.2   1 <1>   0.5440 
  3 N       -2.9230     0.7420    -1.4310 N.am  1 <1>  -0.6600 
  4 C       -1.4810     2.7310    -1.2270 C.ar  1 <1>   0.0860 
  5 C       -3.0850    -0.6920    -1.7720 C.3   1 <1>   0.1400 
  6 C       -3.9550     1.2450    -0.4850 C.3   1 <1>   0.1400 
  7 C       -0.9540     3.1560    -0.0040 C.ar  1 <1>   0.0820 
  8 C       -1.8230     3.7020    -2.1680 C.ar  1 <1>  -0.1500 
  9 C       -2.8990    -1.5120    -0.4780 C.3   1 <1>   0.4230 
 10 C       -3.8220     0.4510     0.8220 C.3   1 <1>  -0.1600 
 11 O       -0.6220     2.2240     0.9190 O.3   1 <1>  -0.3630 
 12 C       -0.7910     4.5100     0.2630 C.ar  1 <1>  -0.1500 
 13 C       -1.6520     5.0480    -1.9050 C.ar  1 <1>  -0.1500 
 14 N       -2.8060    -3.0140    -0.7040 N.4   1 <1>  -0.9590 
 15 C       -3.9150    -1.0940     0.6310 C.3   1 <1>   0.0000 
 16 C        0.6670     2.2450     1.5050 C.3   1 <1>   0.1200 
 17 C       -1.1350     5.4530    -0.6860 C.ar  1 <1>  -0.1500 
 18 C       -3.0320    -3.8330     0.5310 C.3   1 <1>   0.3430 
 19 C       -3.6310    -3.5490    -1.8370 C.3   1 <1>   0.2630 
 20 C       -3.5220    -1.7880     1.9690 C.3   1 <1>  -0.1600 
 21 C       -5.3580    -1.4970     0.2130 C.3   1 <1>   0.1200 
 22 C        1.7240     1.8630     0.4640 C.3   1 <1>  -0.0170 
 23 C       -2.6540    -3.0480     1.7860 C.3   1 <1>  -0.1600 
 24 O       -6.3080    -0.9780     1.0760 O.3   1 <1>  -0.6800 
 25 C        3.1030     1.8810     1.1030 C.ar  1 <1>  -0.1430 
 26 C        3.8540     3.0470     1.1050 C.ar  1 <1>  -0.1500 
 27 C        3.6190     0.7390     1.6950 C.ar  1 <1>  -0.1500 
 28 C        5.1060     3.0710     1.6950 C.ar  1 <1>  -0.1500 
 29 C        4.8710     0.7610     2.2850 C.ar  1 <1>  -0.1500 
 30 C        5.6150     1.9280     2.2860 C.ar  1 <1>  -0.1500 
 31 H       -4.0580    -0.8380    -2.2040 H     1 <1>   0.0800 
 32 H       -2.3460    -0.9780    -2.5000 H     1 <1>   0.0800 
 33 H       -3.8190     2.2950    -0.2890 H     1 <1>   0.0800 
 34 H       -4.9360     1.1160    -0.9120 H     1 <1>   0.0800 
 35 H       -2.2240     3.3900    -3.1170 H     1 <1>   0.1500 
 36 H       -1.9350    -1.2070    -0.1030 H     1 <1>   0.0800 
 37 H       -2.8690     0.7080     1.2520 H     1 <1>   0.0800 
 38 H       -4.5690     0.7970     1.5150 H     1 <1>   0.0800 
 39 H       -0.4060     4.8340     1.2120 H     1 <1>   0.1500 
 40 H       -1.9190     5.7820    -2.6450 H     1 <1>   0.1500 
 41 H       -1.8180    -3.1600    -0.9650 H     1 <1>   0.4500 
 42 H        0.8630     3.2180     1.9150 H     1 <1>   0.0800 
 43 H        0.6690     1.5290     2.3070 H     1 <1>   0.0800 
 44 H       -1.0060     6.5020    -0.4790 H     1 <1>   0.1500 
 45 H       -4.0720    -4.1070     0.6010 H     1 <1>   0.0800 
 46 H       -2.4530    -4.7420     0.4790 H     1 <1>   0.0800 
 47 H       -4.6790    -3.3830    -1.6530 H     1 <1>   0.0800 
 48 H       -3.4660    -4.6090    -1.9500 H     1 <1>   0.0800 
 49 H       -3.3610    -3.0660    -2.7620 H     1 <1>   0.0800 
 50 H       -2.9700    -1.1100     2.6000 H     1 <1>   0.0800 
 51 H       -4.4060    -2.0520     2.5230 H     1 <1>   0.0800 
 52 H       -5.4830    -2.5650     0.2060 H     1 <1>   0.0800 
 53 H       -5.6040    -1.1210    -0.7640 H     1 <1>   0.0800 
 54 H        1.5130     0.8820     0.0770 H     1 <1>   0.0800 
 55 H        1.7040     2.5580    -0.3560 H     1 <1>   0.0800 
 56 H       -2.7680    -3.6820     2.6490 H     1 <1>   0.0800 
 57 H       -1.6130    -2.7760     1.7310 H     1 <1>   0.0800 
 58 H       -6.1850    -1.2880     1.9950 H     1 <1>   0.4000 
 59 H        3.4690     3.9410     0.6470 H     1 <1>   0.1500 
 60 H        3.0500    -0.1740     1.6990 H     1 <1>   0.1500 
 61 H        5.6850     3.9780     1.6920 H     1 <1>   0.1500 
 62 H        5.2670    -0.1280     2.7430 H     1 <1>   0.1500 
 63 H        6.5890     1.9450     2.7430 H     1 <1>   0.1500 
@<TRIPOS>BOND
  1   1   2  2   
  2   2   3  am  
  3   2   4  1   
  4   3   5  1   
  5   3   6  1   
  6   4   7  ar  
  7   4   8  ar  
  8   5   9  1   
  9   5  31  1   
 10   5  32  1   
 11   6  10  1   
 12   6  33  1   
 13   6  34  1   
 14   7  11  1   
 15   7  12  ar  
 16   8  13  ar  
 17   8  35  1   
 18   9  14  1   
 19   9  15  1   
 20   9  36  1   
 21  10  15  1   
 22  10  37  1   
 23  10  38  1   
 24  11  16  1   
 25  12  17  ar  
 26  12  39  1   
 27  13  17  ar  
 28  13  40  1   
 29  14  18  1   
 30  14  19  1   
 31  14  41  1   
 32  15  20  1   
 33  15  21  1   
 34  16  22  1   
 35  16  42  1   
 36  16  43  1   
 37  17  44  1   
 38  18  23  1   
 39  18  45  1   
 40  18  46  1   
 41  19  47  1   
 42  19  48  1   
 43  19  49  1   
 44  20  23  1   
 45  20  50  1   
 46  20  51  1   
 47  21  24  1   
 48  21  52  1   
 49  21  53  1   
 50  22  25  1   
 51  22  54  1   
 52  22  55  1   
 53  23  56  1   
 54  23  57  1   
 55  24  58  1   
 56  25  26  ar  
 57  25  27  ar  
 58  26  28  ar  
 59  26  59  1   
 60  27  29  ar  
 61  27  60  1   
 62  28  30  ar  
 63  28  61  1   
 64  29  30  ar  
 65  29  62  1   
 66  30  63  1   
@<TRIPOS>SUBSTRUCTURE
  1 ****  11 GROUP 4 **** **** 0

# MOE 2024.06 (io_trps.svl 2023.06)
