@<TRIPOS>MOLECULE
NONAME
46 49 1 0 0 
SMALL
USER_CHARGES


@<TRIPOS>ATOM
  1 S        0.0190    -0.3480    -1.2960 S.3   1 <1>  -0.0800 
  2 C        0.7630     0.7930    -0.1680 C.ar  1 <1>   0.0400 
  3 C        0.2170    -1.6880    -0.1610 C.2   1 <1>  -0.1400 
  4 C        1.1310     0.1350     0.9960 C.ar  1 <1>   0.0000 
  5 C        0.9650     2.1440    -0.3740 C.ar  1 <1>  -0.1500 
  6 C        0.8130    -1.2670     0.9700 C.2   1 <1>  -0.1500 
  7 C       -0.2820    -3.0490    -0.5940 C.3   1 <1>   0.5230 
  8 C        1.7340     0.8820     2.0030 C.ar  1 <1>  -0.1500 
  9 C        1.5660     2.8690     0.6400 C.ar  1 <1>  -0.1500 
 10 N       -1.7640    -3.0420    -0.4840 N.4   1 <1>  -0.9590 
 11 C        1.9470     2.2380     1.8210 C.ar  1 <1>  -0.1500 
 12 C       -2.2960    -4.3780    -0.0420 C.3   1 <1>   0.3430 
 13 C       -2.4020    -2.5930    -1.7570 C.3   1 <1>   0.3430 
 14 C       -3.7610    -4.3620     0.4520 C.3   1 <1>   0.1400 
 15 C       -3.5640    -1.6440    -1.4740 C.3   1 <1>  -0.1600 
 16 N       -4.6970    -3.5980    -0.4420 N.am  1 <1>  -0.6600 
 17 C       -4.5280    -2.1180    -0.3850 C.3   1 <1>   0.1400 
 18 C       -5.7800    -4.1200    -1.1180 C.2   1 <1>   0.5690 
 19 O       -6.3820    -3.4530    -1.9210 O.2   1 <1>  -0.5700 
 20 C       -6.2900    -5.5290    -0.9010 C.3   1 <1>   0.1570 
 21 N       -6.8300    -5.6300     0.4560 N.pl3 1 <1>   0.3140 
 22 N       -6.2510    -6.3330     1.4050 N.2   1 <1>  -0.4180 
 23 C       -7.8810    -5.0350     0.9870 C.2   1 <1>   0.0360 
 24 N       -6.9510    -6.1540     2.4660 N.2   1 <1>   0.0000 
 25 N       -7.9740    -5.3410     2.2230 N.2   1 <1>  -0.3380 
 26 H        0.6650     2.6120    -1.2950 H     1 <1>   0.1500 
 27 H        1.0620    -1.8720     1.8240 H     1 <1>   0.1500 
 28 H        0.1340    -3.7910     0.0690 H     1 <1>   0.0800 
 29 H        0.0350    -3.2690    -1.6000 H     1 <1>   0.0800 
 30 H        2.0340     0.4040     2.9190 H     1 <1>   0.1500 
 31 H        1.7410     3.9240     0.5170 H     1 <1>   0.1500 
 32 H       -1.9790    -2.3350     0.2310 H     1 <1>   0.4500 
 33 H        2.4140     2.8160     2.6000 H     1 <1>   0.1500 
 34 H       -1.6840    -4.7600     0.7590 H     1 <1>   0.0800 
 35 H       -2.2210    -5.0760    -0.8600 H     1 <1>   0.0800 
 36 H       -2.7690    -3.4480    -2.3020 H     1 <1>   0.0800 
 37 H       -1.6850    -2.0850    -2.3820 H     1 <1>   0.0800 
 38 H       -3.8000    -3.9400     1.4430 H     1 <1>   0.0800 
 39 H       -4.0740    -5.3850     0.5440 H     1 <1>   0.0800 
 40 H       -4.1230    -1.5230    -2.3860 H     1 <1>   0.0800 
 41 H       -3.1880    -0.6700    -1.2150 H     1 <1>   0.0800 
 42 H       -5.4810    -1.6290    -0.5130 H     1 <1>   0.0800 
 43 H       -4.1600    -1.8340     0.5870 H     1 <1>   0.0800 
 44 H       -5.5010    -6.2420    -1.0310 H     1 <1>   0.0800 
 45 H       -7.0750    -5.7450    -1.6020 H     1 <1>   0.0800 
 46 H       -8.5460    -4.3850     0.4470 H     1 <1>   0.1500 
@<TRIPOS>BOND
  1   1   2  1   
  2   1   3  1   
  3   2   4  ar  
  4   2   5  ar  
  5   3   6  2   
  6   3   7  1   
  7   4   6  1   
  8   4   8  ar  
  9   5   9  ar  
 10   5  26  1   
 11   6  27  1   
 12   7  10  1   
 13   7  28  1   
 14   7  29  1   
 15   8  11  ar  
 16   8  30  1   
 17   9  11  ar  
 18   9  31  1   
 19  10  12  1   
 20  10  13  1   
 21  10  32  1   
 22  11  33  1   
 23  12  14  1   
 24  12  34  1   
 25  12  35  1   
 26  13  15  1   
 27  13  36  1   
 28  13  37  1   
 29  14  16  1   
 30  14  38  1   
 31  14  39  1   
 32  15  17  1   
 33  15  40  1   
 34  15  41  1   
 35  16  17  1   
 36  16  18  am  
 37  17  42  1   
 38  17  43  1   
 39  18  19  2   
 40  18  20  1   
 41  20  21  1   
 42  20  44  1   
 43  20  45  1   
 44  21  22  1   
 45  21  23  1   
 46  22  24  2   
 47  23  25  2   
 48  23  46  1   
 49  24  25  1   
@<TRIPOS>SUBSTRUCTURE
  1 ****  10 GROUP 4 **** **** 0

# MOE 2024.06 (io_trps.svl 2023.06)
