@<TRIPOS>MOLECULE
NONAME
53 55 1 0 0 
SMALL
USER_CHARGES


@<TRIPOS>ATOM
  1 O       -2.2970    -0.3060     2.4990 O.2   1 <1>  -0.5700 
  2 C       -2.2730     0.3710     1.4990 C.2   1 <1>   0.5690 
  3 N       -2.4490    -0.1800     0.2550 N.am  1 <1>  -0.6600 
  4 C       -2.0350     1.8670     1.6810 C.3   1 <1>   0.0440 
  5 C       -2.5710    -1.6610     0.0760 C.3   1 <1>   0.3640 
  6 C       -2.4930     0.6180    -1.0080 C.3   1 <1>   0.1400 
  7 C       -0.8070     2.3920     0.9390 C.ar  1 <1>  -0.1440 
  8 C       -1.2120    -2.2170    -0.3910 C.ar  1 <1>  -0.1440 
  9 C       -3.7880    -1.9770    -0.8440 C.3   1 <1>   0.2000 
 10 C       -2.9140    -0.2090    -2.2350 C.3   1 <1>   0.1200 
 11 C        0.3860     1.6820     0.9670 C.ar  1 <1>  -0.1500 
 12 C       -0.8770     3.5790     0.2220 C.ar  1 <1>  -0.1500 
 13 C       -0.1240    -2.0550     0.4580 C.ar  1 <1>  -0.1500 
 14 C       -1.0050    -2.8750    -1.6020 C.ar  1 <1>  -0.1500 
 15 O       -3.9610    -1.0900    -1.9350 O.3   1 <1>  -0.5600 
 16 C       -5.1000    -1.9430    -0.0490 C.3   1 <1>   0.1200 
 17 C        1.4900     2.1420     0.2720 C.ar  1 <1>  -0.1500 
 18 C        0.2270     4.0450    -0.4720 C.ar  1 <1>  -0.1500 
 19 C        1.1380    -2.5030     0.1130 C.ar  1 <1>   0.0830 
 20 C        0.2550    -3.3230    -1.9610 C.ar  1 <1>  -0.1500 
 21 O       -5.1880    -3.0500     0.7900 O.3   1 <1>  -0.6800 
 22 C        1.4070     3.3200    -0.4470 C.ar  1 <1>   0.0830 
 23 O        2.1360    -2.3170     1.0100 O.3   1 <1>  -0.3620 
 24 C        1.3370    -3.1230    -1.1230 C.ar  1 <1>   0.0830 
 25 O        2.4820     3.7550    -1.1200 O.3   1 <1>  -0.5330 
 26 C        2.6310    -3.4820     1.6290 C.3   1 <1>   0.0400 
 27 O        2.5520    -3.5440    -1.5560 O.3   1 <1>  -0.3630 
 28 C        3.5320    -2.5470    -1.7460 C.3   1 <1>   0.0400 
 29 H       -2.9180     2.3870     1.3620 H     1 <1>   0.0800 
 30 H       -1.9070     2.0670     2.7290 H     1 <1>   0.0800 
 31 H       -2.7680    -2.1230     1.0280 H     1 <1>   0.0800 
 32 H       -3.1870     1.4310    -0.8890 H     1 <1>   0.0800 
 33 H       -1.5200     1.0360    -1.2010 H     1 <1>   0.0800 
 34 H       -3.6880    -2.9640    -1.2560 H     1 <1>   0.0800 
 35 H       -2.0820    -0.7710    -2.6160 H     1 <1>   0.0800 
 36 H       -3.2510     0.4460    -3.0190 H     1 <1>   0.0800 
 37 H        0.4650     0.7640     1.5240 H     1 <1>   0.1500 
 38 H       -1.7910     4.1480     0.1990 H     1 <1>   0.1500 
 39 H       -0.2490    -1.5760     1.4130 H     1 <1>   0.1500 
 40 H       -1.8110    -3.0450    -2.2930 H     1 <1>   0.1500 
 41 H       -5.9470    -1.9630    -0.7130 H     1 <1>   0.0800 
 42 H       -5.1420    -1.0590     0.5630 H     1 <1>   0.0800 
 43 H        2.4120     1.5890     0.2860 H     1 <1>   0.1500 
 44 H        0.1640     4.9640    -1.0240 H     1 <1>   0.1500 
 45 H        0.4080    -3.8230    -2.9000 H     1 <1>   0.1500 
 46 H       -5.3980    -3.8590     0.2830 H     1 <1>   0.4000 
 47 H        2.3320     4.6010    -1.5760 H     1 <1>   0.4500 
 48 H        3.3680    -3.1900     2.3550 H     1 <1>   0.0800 
 49 H        3.0780    -4.1170     0.8850 H     1 <1>   0.0800 
 50 H        1.8150    -3.9890     2.1130 H     1 <1>   0.0800 
 51 H        4.3720    -2.9920    -2.2470 H     1 <1>   0.0800 
 52 H        3.8380    -2.1610    -0.7910 H     1 <1>   0.0800 
 53 H        3.1150    -1.7600    -2.3500 H     1 <1>   0.0800 
@<TRIPOS>BOND
  1   1   2  2   
  2   2   3  am  
  3   2   4  1   
  4   3   5  1   
  5   3   6  1   
  6   4   7  1   
  7   4  29  1   
  8   4  30  1   
  9   5   8  1   
 10   5   9  1   
 11   5  31  1   
 12   6  10  1   
 13   6  32  1   
 14   6  33  1   
 15   7  11  ar  
 16   7  12  ar  
 17   8  13  ar  
 18   8  14  ar  
 19   9  15  1   
 20   9  16  1   
 21   9  34  1   
 22  10  15  1   
 23  10  35  1   
 24  10  36  1   
 25  11  17  ar  
 26  11  37  1   
 27  12  18  ar  
 28  12  38  1   
 29  13  19  ar  
 30  13  39  1   
 31  14  20  ar  
 32  14  40  1   
 33  16  21  1   
 34  16  41  1   
 35  16  42  1   
 36  17  22  ar  
 37  17  43  1   
 38  18  22  ar  
 39  18  44  1   
 40  19  23  1   
 41  19  24  ar  
 42  20  24  ar  
 43  20  45  1   
 44  21  46  1   
 45  22  25  1   
 46  23  26  1   
 47  24  27  1   
 48  25  47  1   
 49  26  48  1   
 50  26  49  1   
 51  26  50  1   
 52  27  28  1   
 53  28  51  1   
 54  28  52  1   
 55  28  53  1   
@<TRIPOS>SUBSTRUCTURE
  1 ****  13 GROUP 4 **** **** 0

# MOE 2024.06 (io_trps.svl 2023.06)
