@<TRIPOS>MOLECULE
NONAME
47 48 1 0 0 
SMALL
USER_CHARGES


@<TRIPOS>ATOM
  1 O        0.3610     1.3360    -0.1710 O.3   1 <1>  -0.3630 
  2 C        1.6720     1.6480    -0.0230 C.ar  1 <1>   0.0820 
  3 C       -0.3850     0.7780     0.8880 C.3   1 <1>   0.0400 
  4 C        2.3110     2.1930    -1.1240 C.ar  1 <1>  -0.1500 
  5 C        2.3900     1.4520     1.1520 C.ar  1 <1>  -0.1500 
  6 C        3.6470     2.5420    -1.0600 C.ar  1 <1>  -0.1500 
  7 C        3.7280     1.8020     1.2150 C.ar  1 <1>  -0.1500 
  8 C        4.3710     2.3500     0.1120 C.ar  1 <1>  -0.1430 
  9 C        5.8420     2.7360     0.2000 C.3   1 <1>   0.4330 
 10 N        5.9350     4.1760    -0.0750 N.pl3 1 <1>  -0.8690 
 11 C        6.7160     1.9700    -0.8050 C.3   1 <1>  -0.1600 
 12 C        6.8130     5.1250     0.2460 C.ar  1 <1>   0.7710 
 13 C        6.7220     0.4550    -0.5510 C.3   1 <1>  -0.2400 
 14 N        6.4890     6.3510    -0.1040 N.ar  1 <1>  -0.6200 
 15 N        7.9570     4.8250     0.8850 N.ar  1 <1>  -0.1790 
 16 C        7.3280     7.3300     0.1860 C.ar  1 <1>   0.4100 
 17 C        8.8420     5.7970     1.2120 C.ar  1 <1>   0.2110 
 18 N        6.9830     8.5920    -0.1930 N.pl3 1 <1>  -0.8380 
 19 C        8.5360     7.0690     0.8660 C.ar  1 <1>  -0.1500 
 20 C        7.9420     9.7200    -0.3500 C.3   1 <1>   0.2090 
 21 C        5.5950     8.9280    -0.6490 C.3   1 <1>   0.1290 
 22 C        7.9120    10.5870     0.9060 C.3   1 <1>  -0.2400 
 23 H       -1.3900     0.6210     0.5400 H     1 <1>   0.0800 
 24 H       -0.3880     1.4670     1.7140 H     1 <1>   0.0800 
 25 H        0.0550    -0.1620     1.1690 H     1 <1>   0.0800 
 26 H        1.7500     2.3410    -2.0300 H     1 <1>   0.1500 
 27 H        1.9240     1.0300     2.0220 H     1 <1>   0.1500 
 28 H        4.1140     2.9600    -1.9350 H     1 <1>   0.1500 
 29 H        4.2600     1.6410     2.1360 H     1 <1>   0.1500 
 30 H        6.1950     2.5400     1.1980 H     1 <1>   0.0800 
 31 H        5.0830     4.5250    -0.5290 H     1 <1>   0.4000 
 32 H        7.7290     2.3240    -0.7530 H     1 <1>   0.0800 
 33 H        6.3570     2.1480    -1.8040 H     1 <1>   0.0800 
 34 H        7.0800     0.2290     0.4380 H     1 <1>   0.0800 
 35 H        7.3610    -0.0360    -1.2650 H     1 <1>   0.0800 
 36 H        5.7300     0.0480    -0.6590 H     1 <1>   0.0800 
 37 H        8.1150     3.8470     1.0980 H     1 <1>   0.4570 
 38 H        9.7500     5.5340     1.7320 H     1 <1>   0.1500 
 39 H        9.1920     7.8820     1.1090 H     1 <1>   0.1500 
 40 H        7.6680    10.3110    -1.2080 H     1 <1>   0.0800 
 41 H        8.9360     9.3470    -0.5230 H     1 <1>   0.0800 
 42 H        4.8720     8.2820    -0.1820 H     1 <1>   0.0800 
 43 H        5.5270     8.8120    -1.7170 H     1 <1>   0.0800 
 44 H        5.3490     9.9430    -0.3890 H     1 <1>   0.0800 
 45 H        6.9350    11.0130     1.0440 H     1 <1>   0.0800 
 46 H        8.6190    11.3900     0.8070 H     1 <1>   0.0800 
 47 H        8.1690    10.0080     1.7730 H     1 <1>   0.0800 
@<TRIPOS>BOND
  1   1   2  1   
  2   1   3  1   
  3   2   4  ar  
  4   2   5  ar  
  5   3  23  1   
  6   3  24  1   
  7   3  25  1   
  8   4   6  ar  
  9   4  26  1   
 10   5   7  ar  
 11   5  27  1   
 12   6   8  ar  
 13   6  28  1   
 14   7   8  ar  
 15   7  29  1   
 16   8   9  1   
 17   9  10  1   
 18   9  11  1   
 19   9  30  1   
 20  10  12  1   
 21  10  31  1   
 22  11  13  1   
 23  11  32  1   
 24  11  33  1   
 25  12  14  ar  
 26  12  15  ar  
 27  13  34  1   
 28  13  35  1   
 29  13  36  1   
 30  14  16  ar  
 31  15  17  ar  
 32  15  37  1   
 33  16  18  1   
 34  16  19  ar  
 35  17  19  ar  
 36  17  38  1   
 37  18  20  1   
 38  18  21  1   
 39  19  39  1   
 40  20  22  1   
 41  20  40  1   
 42  20  41  1   
 43  21  42  1   
 44  21  43  1   
 45  21  44  1   
 46  22  45  1   
 47  22  46  1   
 48  22  47  1   
@<TRIPOS>SUBSTRUCTURE
  1 ****  10 GROUP 4 **** **** 0

# MOE 2024.06 (io_trps.svl 2023.06)
