@<TRIPOS>MOLECULE
NONAME
44 46 1 0 0 
SMALL
USER_CHARGES


@<TRIPOS>ATOM
  1 O       -0.3980    -0.0130     1.1850 O.2   1 <1>  -0.5700 
  2 C       -1.3170     0.6240     0.7230 C.2   1 <1>   0.5690 
  3 N       -2.4190    -0.0290     0.2240 N.am  1 <1>  -0.6600 
  4 C       -1.1520     2.1520     0.7260 C.3   1 <1>  -0.0190 
  5 C       -3.6680     0.5420    -0.3430 C.3   1 <1>   0.1400 
  6 C       -2.4680    -1.5140     0.1740 C.3   1 <1>   0.1400 
  7 C       -2.2500     2.9220     1.4890 C.3   1 <1>  -0.1600 
  8 C       -0.9280     2.7400    -0.6830 C.3   1 <1>  -0.1600 
  9 C       -4.4220    -0.6530    -0.9250 C.3   1 <1>   0.2000 
 10 C       -3.9220    -1.8650    -0.1470 C.3   1 <1>  -0.0800 
 11 C       -1.9330     4.4230     1.5490 C.3   1 <1>  -0.1600 
 12 C       -0.6320     4.2450    -0.6200 C.3   1 <1>  -0.1600 
 13 O       -5.7930    -0.5190    -0.7690 O.3   1 <1>  -0.6800 
 14 C       -4.0990    -3.1810    -0.9240 C.3   1 <1>  -0.0170 
 15 C       -1.7300     5.0010     0.1420 C.3   1 <1>  -0.1600 
 16 C       -3.6350    -4.3810    -0.1150 C.ar  1 <1>   0.1670 
 17 N       -2.3390    -4.6490    -0.1440 N.ar  1 <1>  -0.6200 
 18 C       -4.5590    -5.1330     0.6090 C.ar  1 <1>   0.1600 
 19 C       -2.0310    -5.7020     0.5940 C.ar  1 <1>   0.1600 
 20 N       -4.2540    -6.1870     1.3480 N.ar  1 <1>  -0.6200 
 21 C       -2.9570    -6.4450     1.3160 C.ar  1 <1>   0.1600 
 22 H       -0.2400     2.3340     1.2680 H     1 <1>   0.0800 
 23 H       -4.2420     0.9870     0.4490 H     1 <1>   0.0800 
 24 H       -3.4570     1.2610    -1.1110 H     1 <1>   0.0800 
 25 H       -1.8080    -1.8580    -0.6040 H     1 <1>   0.0800 
 26 H       -2.1560    -1.9430     1.1120 H     1 <1>   0.0800 
 27 H       -3.1990     2.8040     1.0040 H     1 <1>   0.0800 
 28 H       -2.3330     2.5310     2.4880 H     1 <1>   0.0800 
 29 H       -0.1000     2.2340    -1.1490 H     1 <1>   0.0800 
 30 H       -1.7940     2.5830    -1.2960 H     1 <1>   0.0800 
 31 H       -4.2040    -0.7440    -1.9760 H     1 <1>   0.0800 
 32 H       -4.4460    -1.9300     0.7910 H     1 <1>   0.0800 
 33 H       -2.7380     4.9430     2.0400 H     1 <1>   0.0800 
 34 H       -1.0390     4.5770     2.1300 H     1 <1>   0.0800 
 35 H        0.3120     4.4010    -0.1260 H     1 <1>   0.0800 
 36 H       -0.5490     4.6390    -1.6180 H     1 <1>   0.0800 
 37 H       -6.0230    -0.4400     0.1770 H     1 <1>   0.4000 
 38 H       -3.5420    -3.1430    -1.8440 H     1 <1>   0.0800 
 39 H       -5.1360    -3.3030    -1.1810 H     1 <1>   0.0800 
 40 H       -1.4640     6.0410     0.2160 H     1 <1>   0.0800 
 41 H       -2.6540     4.9370    -0.4080 H     1 <1>   0.0800 
 42 H       -5.5960    -4.8500     0.5780 H     1 <1>   0.1500 
 43 H       -0.9960    -5.9900     0.6300 H     1 <1>   0.1500 
 44 H       -2.6100    -7.2860     1.8890 H     1 <1>   0.1500 
@<TRIPOS>BOND
  1   1   2  2   
  2   2   3  am  
  3   2   4  1   
  4   3   5  1   
  5   3   6  1   
  6   4   7  1   
  7   4   8  1   
  8   4  22  1   
  9   5   9  1   
 10   5  23  1   
 11   5  24  1   
 12   6  10  1   
 13   6  25  1   
 14   6  26  1   
 15   7  11  1   
 16   7  27  1   
 17   7  28  1   
 18   8  12  1   
 19   8  29  1   
 20   8  30  1   
 21   9  10  1   
 22   9  13  1   
 23   9  31  1   
 24  10  14  1   
 25  10  32  1   
 26  11  15  1   
 27  11  33  1   
 28  11  34  1   
 29  12  15  1   
 30  12  35  1   
 31  12  36  1   
 32  13  37  1   
 33  14  16  1   
 34  14  38  1   
 35  14  39  1   
 36  15  40  1   
 37  15  41  1   
 38  16  17  ar  
 39  16  18  ar  
 40  17  19  ar  
 41  18  20  ar  
 42  18  42  1   
 43  19  21  ar  
 44  19  43  1   
 45  20  21  ar  
 46  21  44  1   
@<TRIPOS>SUBSTRUCTURE
  1 ****   6 GROUP 4 **** **** 0

# MOE 2024.06 (io_trps.svl 2023.06)
