@<TRIPOS>MOLECULE
NONAME
54 57 1 0 0 
SMALL
USER_CHARGES


@<TRIPOS>ATOM
  1 O       -2.0670     1.0950    -3.2260 O.2   1 <1>  -0.5700 
  2 C       -1.7960     1.3280    -2.0730 C.2   1 <1>   0.5690 
  3 N       -1.8900     0.3830    -1.1060 N.am  1 <1>  -0.7300 
  4 C       -1.3300     2.7300    -1.6650 C.3   1 <1>   0.1710 
  5 C       -2.2710    -1.0320    -1.2920 C.3   1 <1>   0.2200 
  6 N       -0.5980     2.7800    -0.3630 N.3   1 <1>  -0.8100 
  7 C       -3.4260    -1.3620    -0.3630 C.3   1 <1>  -0.0800 
  8 C       -1.1620    -1.9400    -0.7630 C.3   1 <1>   0.1200 
  9 C        0.7720     2.2180    -0.5030 C.3   1 <1>   0.1100 
 10 C       -0.5120     4.1740     0.1350 C.3   1 <1>   0.1100 
 11 C       -2.6920    -1.6700     0.9430 C.3   1 <1>   0.1200 
 12 C       -4.2350    -2.5700    -0.8740 C.3   1 <1>  -0.0160 
 13 O       -1.4390    -2.1760     0.5880 O.3   1 <1>  -0.5600 
 14 C        1.5580     2.2700     0.8200 C.3   1 <1>   0.2090 
 15 C        0.2590     4.2800     1.4660 C.3   1 <1>   0.2090 
 16 C       -5.4020    -2.8860     0.0490 C.ar  1 <1>  -0.1440 
 17 N        1.6180     3.6730     1.3320 N.pl3 1 <1>  -0.8380 
 18 C       -6.5490    -2.1190     0.0570 C.ar  1 <1>  -0.1500 
 19 C       -5.3750    -3.9530     0.9240 C.ar  1 <1>  -0.1500 
 20 C        2.7610     4.4410     1.2830 C.ar  1 <1>   0.7200 
 21 C       -7.5820    -2.4430     0.9210 C.ar  1 <1>   0.1600 
 22 C       -6.4640    -4.1910     1.7470 C.ar  1 <1>   0.1600 
 23 N        2.7270     5.6170     1.9100 N.ar  1 <1>  -0.6200 
 24 N        3.8000     3.9480     0.6090 N.ar  1 <1>  -0.6200 
 25 N       -7.5670    -3.4600     1.7670 N.ar  1 <1>  -0.6200 
 26 C        3.8210     6.3360     1.8620 C.ar  1 <1>   0.1600 
 27 C        4.8800     4.6890     0.5770 C.ar  1 <1>   0.1600 
 28 C        4.9450     5.9110     1.1980 C.ar  1 <1>  -0.1500 
 29 H       -1.5740     0.6620    -0.1710 H     1 <1>   0.3700 
 30 H       -2.2110     3.3410    -1.5970 H     1 <1>   0.0800 
 31 H       -0.7120     3.1310    -2.4490 H     1 <1>   0.0800 
 32 H       -2.4910    -1.2240    -2.3290 H     1 <1>   0.0800 
 33 H       -4.0890    -0.5230    -0.2480 H     1 <1>   0.0800 
 34 H       -0.1870    -1.4970    -0.8600 H     1 <1>   0.0800 
 35 H       -1.1810    -2.8900    -1.2660 H     1 <1>   0.0800 
 36 H        0.7160     1.1940    -0.8260 H     1 <1>   0.0800 
 37 H        1.3230     2.7710    -1.2450 H     1 <1>   0.0800 
 38 H       -0.0160     4.7930    -0.5940 H     1 <1>   0.0800 
 39 H       -1.5040     4.5610     0.2830 H     1 <1>   0.0800 
 40 H       -3.2000    -2.3860     1.5630 H     1 <1>   0.0800 
 41 H       -2.5270    -0.7670     1.5060 H     1 <1>   0.0800 
 42 H       -3.6000    -3.4350    -0.9620 H     1 <1>   0.0800 
 43 H       -4.6220    -2.3510    -1.8550 H     1 <1>   0.0800 
 44 H        2.5430     1.8650     0.6730 H     1 <1>   0.0800 
 45 H        1.0630     1.6530     1.5490 H     1 <1>   0.0800 
 46 H       -0.2840     3.7580     2.2340 H     1 <1>   0.0800 
 47 H        0.3190     5.3140     1.7550 H     1 <1>   0.0800 
 48 H       -6.6490    -1.2740    -0.5980 H     1 <1>   0.1500 
 49 H       -4.5180    -4.6000     0.9770 H     1 <1>   0.1500 
 50 H       -8.4690    -1.8330     0.9140 H     1 <1>   0.1500 
 51 H       -6.4250    -5.0270     2.4240 H     1 <1>   0.1500 
 52 H        3.8220     7.2870     2.3660 H     1 <1>   0.1500 
 53 H        5.7350     4.3120     0.0420 H     1 <1>   0.1500 
 54 H        5.8360     6.5090     1.1660 H     1 <1>   0.1500 
@<TRIPOS>BOND
  1   1   2  2   
  2   2   3  am  
  3   2   4  1   
  4   3   5  1   
  5   3  29  1   
  6   4   6  1   
  7   4  30  1   
  8   4  31  1   
  9   5   7  1   
 10   5   8  1   
 11   5  32  1   
 12   6   9  1   
 13   6  10  1   
 14   7  11  1   
 15   7  12  1   
 16   7  33  1   
 17   8  13  1   
 18   8  34  1   
 19   8  35  1   
 20   9  14  1   
 21   9  36  1   
 22   9  37  1   
 23  10  15  1   
 24  10  38  1   
 25  10  39  1   
 26  11  13  1   
 27  11  40  1   
 28  11  41  1   
 29  12  16  1   
 30  12  42  1   
 31  12  43  1   
 32  14  17  1   
 33  14  44  1   
 34  14  45  1   
 35  15  17  1   
 36  15  46  1   
 37  15  47  1   
 38  16  18  ar  
 39  16  19  ar  
 40  17  20  1   
 41  18  21  ar  
 42  18  48  1   
 43  19  22  ar  
 44  19  49  1   
 45  20  23  ar  
 46  20  24  ar  
 47  21  25  ar  
 48  21  50  1   
 49  22  25  ar  
 50  22  51  1   
 51  23  26  ar  
 52  24  27  ar  
 53  26  28  ar  
 54  26  52  1   
 55  27  28  ar  
 56  27  53  1   
 57  28  54  1   
@<TRIPOS>SUBSTRUCTURE
  1 ****   3 GROUP 4 **** **** 0

# MOE 2024.06 (io_trps.svl 2023.06)
