@<TRIPOS>MOLECULE
NONAME
43 45 1 0 0 
SMALL
USER_CHARGES


@<TRIPOS>ATOM
  1 F       -1.7810     0.8990     3.3080 F     1 <1>  -0.1900 
  2 C       -2.1380     0.0910     2.3440 C.ar  1 <1>   0.1900 
  3 C       -2.5500     0.6100     1.1240 C.ar  1 <1>  -0.1440 
  4 C       -2.0920    -1.2640     2.6100 C.ar  1 <1>  -0.1500 
  5 C       -2.9660    -0.2940     0.1470 C.ar  1 <1>   0.0830 
  6 C       -2.5760     2.1220     0.8820 C.3   1 <1>   0.2540 
  7 C       -2.4840    -2.1500     1.6240 C.ar  1 <1>  -0.1500 
  8 O       -3.4190     0.2070    -1.0330 O.3   1 <1>  -0.3630 
  9 C       -2.9210    -1.6670     0.4020 C.ar  1 <1>  -0.1500 
 10 N       -1.3160     2.6670     0.3300 N.3   1 <1>  -0.8100 
 11 C       -3.8370    -0.6250    -2.0920 C.3   1 <1>   0.0400 
 12 C       -0.1720     2.5300     1.2620 C.3   1 <1>   0.1100 
 13 C       -1.0480     2.1780    -1.0360 C.3   1 <1>   0.1100 
 14 C        1.1080     3.3270     0.8960 C.3   1 <1>   0.2200 
 15 C        0.0650     2.9400    -1.7830 C.3   1 <1>  -0.0190 
 16 N        0.8420     4.5030     0.0110 N.am  1 <1>  -0.6600 
 17 C        2.2140     2.4300     0.3010 C.3   1 <1>   0.1200 
 18 C        0.3290     4.3370    -1.2470 C.2   1 <1>   0.5690 
 19 C        1.3750     2.1470    -1.8980 C.3   1 <1>   0.1200 
 20 C        0.9950     5.8450     0.6320 C.3   1 <1>   0.0600 
 21 O        1.7520     1.5590    -0.6900 O.3   1 <1>  -0.5600 
 22 O        0.1190     5.2740    -1.9860 O.2   1 <1>  -0.5700 
 23 H       -1.7580    -1.6140     3.5700 H     1 <1>   0.1500 
 24 H       -2.7930     2.6290     1.8070 H     1 <1>   0.0800 
 25 H       -3.3810     2.3640     0.2100 H     1 <1>   0.0800 
 26 H       -2.4530    -3.2100     1.8080 H     1 <1>   0.1500 
 27 H       -3.2260    -2.3800    -0.3400 H     1 <1>   0.1500 
 28 H       -4.1360     0.0030    -2.9120 H     1 <1>   0.0800 
 29 H       -4.6730    -1.2160    -1.7630 H     1 <1>   0.0800 
 30 H       -3.0140    -1.2500    -2.3920 H     1 <1>   0.0800 
 31 H       -0.4900     2.8800     2.2280 H     1 <1>   0.0800 
 32 H        0.0800     1.4890     1.3710 H     1 <1>   0.0800 
 33 H       -0.8170     1.1270    -1.0070 H     1 <1>   0.0800 
 34 H       -1.9520     2.2950    -1.6080 H     1 <1>   0.0800 
 35 H        1.5110     3.7020     1.8200 H     1 <1>   0.0800 
 36 H       -0.2790     3.0670    -2.7920 H     1 <1>   0.0800 
 37 H        2.6120     1.8090     1.0840 H     1 <1>   0.0800 
 38 H        3.0170     3.0250    -0.0960 H     1 <1>   0.0800 
 39 H        2.1780     2.7720    -2.2510 H     1 <1>   0.0800 
 40 H        1.2400     1.3430    -2.5990 H     1 <1>   0.0800 
 41 H        2.0090     5.9810     0.9640 H     1 <1>   0.0800 
 42 H        0.3260     5.9320     1.4710 H     1 <1>   0.0800 
 43 H        0.7580     6.6210    -0.0750 H     1 <1>   0.0800 
@<TRIPOS>BOND
  1   1   2  1   
  2   2   3  ar  
  3   2   4  ar  
  4   3   5  ar  
  5   3   6  1   
  6   4   7  ar  
  7   4  23  1   
  8   5   8  1   
  9   5   9  ar  
 10   6  10  1   
 11   6  24  1   
 12   6  25  1   
 13   7   9  ar  
 14   7  26  1   
 15   8  11  1   
 16   9  27  1   
 17  10  12  1   
 18  10  13  1   
 19  11  28  1   
 20  11  29  1   
 21  11  30  1   
 22  12  14  1   
 23  12  31  1   
 24  12  32  1   
 25  13  15  1   
 26  13  33  1   
 27  13  34  1   
 28  14  16  1   
 29  14  17  1   
 30  14  35  1   
 31  15  18  1   
 32  15  19  1   
 33  15  36  1   
 34  16  18  am  
 35  16  20  1   
 36  17  21  1   
 37  17  37  1   
 38  17  38  1   
 39  18  22  2   
 40  19  21  1   
 41  19  39  1   
 42  19  40  1   
 43  20  41  1   
 44  20  42  1   
 45  20  43  1   
@<TRIPOS>SUBSTRUCTURE
  1 ****  10 GROUP 4 **** **** 0

# MOE 2024.06 (io_trps.svl 2023.06)
