@<TRIPOS>MOLECULE
NONAME
43 46 1 0 0 
SMALL
USER_CHARGES


@<TRIPOS>ATOM
  1 CL       2.1540     4.7110     1.7340 Cl    1 <1>  -0.1770 
  2 C        1.0690     3.6070     0.9190 C.ar  1 <1>   0.1770 
  3 C        1.5610     2.5270     0.1950 C.ar  1 <1>  -0.1440 
  4 C       -0.2880     3.8520     1.0230 C.ar  1 <1>  -0.1500 
  5 C        0.6450     1.6880    -0.4310 C.ar  1 <1>  -0.1500 
  6 C        3.0610     2.2710     0.0760 C.3   1 <1>   0.3640 
  7 C       -1.1850     3.0070     0.3960 C.ar  1 <1>  -0.1500 
  8 C       -0.7160     1.9260    -0.3300 C.ar  1 <1>  -0.1500 
  9 N        3.3230     0.8300     0.3110 N.am  1 <1>  -0.7300 
 10 C        3.6130     2.7240    -1.2990 C.3   1 <1>   0.2610 
 11 C        4.1960     0.1010    -0.4190 C.2   1 <1>   0.5690 
 12 O        4.9050     2.1770    -1.5230 O.3   1 <1>  -0.5600 
 13 C        3.6520     4.2510    -1.3560 C.2   1 <1>   0.5690 
 14 O        4.3780    -1.0640    -0.1720 O.2   1 <1>  -0.5700 
 15 C        4.9330     0.7660    -1.5860 C.3   1 <1>   0.1810 
 16 O        2.6850     4.8560    -1.7520 O.2   1 <1>  -0.5700 
 17 N        4.7650     4.9070    -0.9470 N.am  1 <1>  -0.7300 
 18 C        4.8930     6.3820    -0.8520 C.3   1 <1>   0.3210 
 19 C        6.1420     6.8000    -0.0770 C.2   1 <1>   0.3350 
 20 N        7.0370     6.0100     0.3750 N.2   1 <1>  -0.4100 
 21 N        6.3900     8.0770     0.1840 N.2   1 <1>  -0.5650 
 22 O        7.9310     6.7420     0.9670 O.3   1 <1>  -0.0190 
 23 C        7.4890     7.9660     0.8180 C.2   1 <1>   0.3930 
 24 C        8.3080     9.1070     1.4030 C.3   1 <1>  -0.0150 
 25 C        8.2850    10.4810     0.8030 C.3   1 <1>  -0.2000 
 26 C        9.5110     9.6260     0.6750 C.3   1 <1>  -0.2000 
 27 H       -0.6350     4.6980     1.5880 H     1 <1>   0.1500 
 28 H        0.9820     0.8400    -1.0040 H     1 <1>   0.1500 
 29 H        3.5880     2.8150     0.8390 H     1 <1>   0.0800 
 30 H       -2.2440     3.1900     0.4710 H     1 <1>   0.1500 
 31 H       -1.4140     1.2680    -0.8200 H     1 <1>   0.1500 
 32 H        2.8470     0.3860     1.0990 H     1 <1>   0.3700 
 33 H        2.9650     2.3790    -2.0840 H     1 <1>   0.0800 
 34 H        4.4860     0.4590    -2.5140 H     1 <1>   0.0800 
 35 H        5.9630     0.4580    -1.5790 H     1 <1>   0.0800 
 36 H        5.6110     4.3800    -0.7030 H     1 <1>   0.3700 
 37 H        4.9410     6.7960    -1.8430 H     1 <1>   0.0800 
 38 H        4.0230     6.7820    -0.3610 H     1 <1>   0.0800 
 39 H        8.3680     9.0410     2.4740 H     1 <1>   0.1000 
 40 H        7.6750    10.6500    -0.0680 H     1 <1>   0.1000 
 41 H        8.3060    11.3300     1.4630 H     1 <1>   0.1000 
 42 H       10.3870     9.8840     1.2440 H     1 <1>   0.1000 
 43 H        9.7500     9.2130    -0.2900 H     1 <1>   0.1000 
@<TRIPOS>BOND
  1   1   2  1   
  2   2   3  ar  
  3   2   4  ar  
  4   3   5  ar  
  5   3   6  1   
  6   4   7  ar  
  7   4  27  1   
  8   5   8  ar  
  9   5  28  1   
 10   6   9  1   
 11   6  10  1   
 12   6  29  1   
 13   7   8  ar  
 14   7  30  1   
 15   8  31  1   
 16   9  11  am  
 17   9  32  1   
 18  10  12  1   
 19  10  13  1   
 20  10  33  1   
 21  11  14  2   
 22  11  15  1   
 23  12  15  1   
 24  13  16  2   
 25  13  17  am  
 26  15  34  1   
 27  15  35  1   
 28  17  18  1   
 29  17  36  1   
 30  18  19  1   
 31  18  37  1   
 32  18  38  1   
 33  19  20  2   
 34  19  21  1   
 35  20  22  1   
 36  21  23  2   
 37  22  23  1   
 38  23  24  1   
 39  24  25  1   
 40  24  26  1   
 41  24  39  1   
 42  25  26  1   
 43  25  40  1   
 44  25  41  1   
 45  26  42  1   
 46  26  43  1   
@<TRIPOS>SUBSTRUCTURE
  1 ****  17 GROUP 4 **** **** 0

# MOE 2024.06 (io_trps.svl 2023.06)
