@<TRIPOS>MOLECULE
NONAME
36 37 1 0 0 
SMALL
USER_CHARGES


@<TRIPOS>ATOM
  1 F       -0.3800    -0.2670    -0.5170 F     1 <1>  -0.1900 
  2 C       -1.4780    -0.9650    -0.3080 C.ar  1 <1>   0.1900 
  3 C       -2.7180    -0.3520    -0.1290 C.ar  1 <1>   0.4100 
  4 C       -1.3960    -2.3290    -0.2790 C.ar  1 <1>   0.1600 
  5 N       -3.7900    -1.1010     0.0570 N.ar  1 <1>  -0.6200 
  6 N       -2.9110     1.0290    -0.1350 N.pl3 1 <1>  -0.8380 
  7 N       -2.4620    -3.0810    -0.0860 N.ar  1 <1>  -0.6200 
  8 C       -3.5980    -2.4080     0.0770 C.ar  1 <1>   0.7200 
  9 C       -2.0120     1.9250     0.6420 C.3   1 <1>   0.1290 
 10 C       -4.2400     1.6090    -0.4720 C.3   1 <1>   0.1290 
 11 N       -4.7300    -3.1220     0.2830 N.pl3 1 <1>  -0.8690 
 12 C       -4.8890    -4.5110    -0.1740 C.3   1 <1>   0.2090 
 13 C       -6.2910    -4.9930     0.1900 C.3   1 <1>  -0.1600 
 14 C       -6.4780    -6.4610    -0.2060 C.3   1 <1>   0.0960 
 15 N       -7.8440    -6.9150     0.1200 N.pl3 1 <1>   0.0480 
 16 C       -8.2810    -7.4770     1.2690 C.2   1 <1>   0.0360 
 17 C       -8.9320    -6.8650    -0.6690 C.2   1 <1>  -0.3020 
 18 N       -9.5380    -7.7800     1.2630 N.2   1 <1>  -0.5650 
 19 C       -9.9510    -7.3950     0.0420 C.2   1 <1>   0.0770 
 20 H       -0.4450    -2.8120    -0.4180 H     1 <1>   0.1500 
 21 H       -1.3320     1.3490     1.2450 H     1 <1>   0.0800 
 22 H       -2.5910     2.5560     1.2940 H     1 <1>   0.0800 
 23 H       -1.4450     2.5410    -0.0350 H     1 <1>   0.0800 
 24 H       -4.7400     0.9910    -1.1970 H     1 <1>   0.0800 
 25 H       -4.1170     2.5940    -0.8890 H     1 <1>   0.0800 
 26 H       -4.8470     1.6670     0.4140 H     1 <1>   0.0800 
 27 H       -5.5520    -2.5230     0.2190 H     1 <1>   0.4000 
 28 H       -4.1460    -5.1260     0.3070 H     1 <1>   0.0800 
 29 H       -4.7370    -4.5550    -1.2400 H     1 <1>   0.0800 
 30 H       -7.0180    -4.3890    -0.3240 H     1 <1>   0.0800 
 31 H       -6.4310    -4.8910     1.2520 H     1 <1>   0.0800 
 32 H       -5.7750    -7.0820     0.3210 H     1 <1>   0.0800 
 33 H       -6.3200    -6.5860    -1.2630 H     1 <1>   0.0800 
 34 H       -7.6250    -7.6490     2.1050 H     1 <1>   0.1500 
 35 H       -8.9280    -6.4680    -1.6670 H     1 <1>   0.1500 
 36 H      -10.9760    -7.5220    -0.2650 H     1 <1>   0.1500 
@<TRIPOS>BOND
  1   1   2  1   
  2   2   3  ar  
  3   2   4  ar  
  4   3   5  ar  
  5   3   6  1   
  6   4   7  ar  
  7   4  20  1   
  8   5   8  ar  
  9   6   9  1   
 10   6  10  1   
 11   7   8  ar  
 12   8  11  1   
 13   9  21  1   
 14   9  22  1   
 15   9  23  1   
 16  10  24  1   
 17  10  25  1   
 18  10  26  1   
 19  11  12  1   
 20  11  27  1   
 21  12  13  1   
 22  12  28  1   
 23  12  29  1   
 24  13  14  1   
 25  13  30  1   
 26  13  31  1   
 27  14  15  1   
 28  14  32  1   
 29  14  33  1   
 30  15  16  1   
 31  15  17  1   
 32  16  18  2   
 33  16  34  1   
 34  17  19  2   
 35  17  35  1   
 36  18  19  1   
 37  19  36  1   
@<TRIPOS>SUBSTRUCTURE
  1 ****  11 GROUP 4 **** **** 0

# MOE 2024.06 (io_trps.svl 2023.06)
