@<TRIPOS>MOLECULE
NONAME
52 54 1 0 0 
SMALL
USER_CHARGES


@<TRIPOS>ATOM
  1 O        3.4800    -2.5160     2.6540 O.2   1 <1>  -0.5700 
  2 C        3.3820    -2.3140     1.4660 C.2   1 <1>   0.5690 
  3 N        3.3910    -1.0580     0.9590 N.am  1 <1>  -0.7300 
  4 C        3.2380    -3.5010     0.5050 C.3   1 <1>   0.1710 
  5 C        3.2860     0.1640     1.7660 C.3   1 <1>   0.2840 
  6 N        1.8530    -3.8130     0.0430 N.3   1 <1>  -0.8100 
  7 C        3.3130     1.3510     0.8180 C.ar  1 <1>  -0.1430 
  8 C        1.2720    -2.7480    -0.7810 C.3   1 <1>   0.1100 
  9 C        0.9870    -4.1630     1.1730 C.3   1 <1>   0.1100 
 10 C        2.1980     1.6660     0.0450 C.ar  1 <1>   0.0820 
 11 C        4.4570     2.1280     0.7190 C.ar  1 <1>  -0.1500 
 12 C       -0.0400    -3.2510    -1.3880 C.3   1 <1>  -0.1600 
 13 C       -0.3230    -4.7250     0.6190 C.3   1 <1>  -0.1600 
 14 O        1.1010     0.8750     0.1580 O.3   1 <1>  -0.3630 
 15 C        2.2410     2.7610    -0.8140 C.ar  1 <1>  -0.1500 
 16 C        4.4940     3.2150    -0.1370 C.ar  1 <1>  -0.1500 
 17 C       -1.0440    -3.7240    -0.3140 C.3   1 <1>   0.3430 
 18 C       -0.1790     1.3510    -0.1990 C.3   1 <1>   0.0400 
 19 C        3.3860     3.5320    -0.9020 C.ar  1 <1>  -0.1500 
 20 C       -1.4980    -2.5460     0.5070 C.1   1 <1>   0.3570 
 21 C       -2.2810    -4.3260    -1.0220 C.ar  1 <1>  -0.1430 
 22 N       -1.8320    -1.6400     1.1130 N.1   1 <1>  -0.5570 
 23 C       -2.6510    -5.6660    -0.9120 C.ar  1 <1>  -0.1500 
 24 C       -3.0760    -3.5000    -1.8140 C.ar  1 <1>  -0.1500 
 25 C       -3.7640    -6.1570    -1.5720 C.ar  1 <1>  -0.1500 
 26 C       -4.1890    -3.9880    -2.4740 C.ar  1 <1>  -0.1500 
 27 C       -4.5350    -5.3200    -2.3550 C.ar  1 <1>  -0.1500 
 28 H        3.1790    -0.8980    -0.0260 H     1 <1>   0.3700 
 29 H        3.6370    -4.3700     0.9970 H     1 <1>   0.0800 
 30 H        3.8580    -3.3180    -0.3540 H     1 <1>   0.0800 
 31 H        4.1030     0.2060     2.4650 H     1 <1>   0.0800 
 32 H        2.3620     0.1500     2.3200 H     1 <1>   0.0800 
 33 H        1.9540    -2.4940    -1.5750 H     1 <1>   0.0800 
 34 H        1.0950    -1.8670    -0.1860 H     1 <1>   0.0800 
 35 H        0.8090    -3.3000     1.7950 H     1 <1>   0.0800 
 36 H        1.4680    -4.9160     1.7760 H     1 <1>   0.0800 
 37 H        5.3260     1.8900     1.3080 H     1 <1>   0.1500 
 38 H        0.1820    -4.0700    -2.0490 H     1 <1>   0.0800 
 39 H       -0.4690    -2.4640    -1.9800 H     1 <1>   0.0800 
 40 H       -0.9680    -4.9970     1.4360 H     1 <1>   0.0800 
 41 H       -0.0730    -5.6170     0.0740 H     1 <1>   0.0800 
 42 H        1.3970     3.0220    -1.4240 H     1 <1>   0.1500 
 43 H        5.3860     3.8140    -0.2070 H     1 <1>   0.1500 
 44 H       -0.9100     0.6500     0.1590 H     1 <1>   0.0800 
 45 H       -0.2390     1.4280    -1.2690 H     1 <1>   0.0800 
 46 H       -0.3380     2.3080     0.2670 H     1 <1>   0.0800 
 47 H        3.4170     4.3770    -1.5670 H     1 <1>   0.1500 
 48 H       -2.0920    -6.3630    -0.3160 H     1 <1>   0.1500 
 49 H       -2.8410    -2.4550    -1.9260 H     1 <1>   0.1500 
 50 H       -4.0320    -7.1950    -1.4760 H     1 <1>   0.1500 
 51 H       -4.7880    -3.3300    -3.0800 H     1 <1>   0.1500 
 52 H       -5.4010    -5.7020    -2.8680 H     1 <1>   0.1500 
@<TRIPOS>BOND
  1   1   2  2   
  2   2   3  am  
  3   2   4  1   
  4   3   5  1   
  5   3  28  1   
  6   4   6  1   
  7   4  29  1   
  8   4  30  1   
  9   5   7  1   
 10   5  31  1   
 11   5  32  1   
 12   6   8  1   
 13   6   9  1   
 14   7  10  ar  
 15   7  11  ar  
 16   8  12  1   
 17   8  33  1   
 18   8  34  1   
 19   9  13  1   
 20   9  35  1   
 21   9  36  1   
 22  10  14  1   
 23  10  15  ar  
 24  11  16  ar  
 25  11  37  1   
 26  12  17  1   
 27  12  38  1   
 28  12  39  1   
 29  13  17  1   
 30  13  40  1   
 31  13  41  1   
 32  14  18  1   
 33  15  19  ar  
 34  15  42  1   
 35  16  19  ar  
 36  16  43  1   
 37  17  20  1   
 38  17  21  1   
 39  18  44  1   
 40  18  45  1   
 41  18  46  1   
 42  19  47  1   
 43  20  22  3   
 44  21  23  ar  
 45  21  24  ar  
 46  23  25  ar  
 47  23  48  1   
 48  24  26  ar  
 49  24  49  1   
 50  25  27  ar  
 51  25  50  1   
 52  26  27  ar  
 53  26  51  1   
 54  27  52  1   
@<TRIPOS>SUBSTRUCTURE
  1 ****   8 GROUP 4 **** **** 0

# MOE 2024.06 (io_trps.svl 2023.06)
