@<TRIPOS>MOLECULE
NONAME
46 47 1 0 0 
SMALL
USER_CHARGES


@<TRIPOS>ATOM
  1 S        0.1650    -0.2090    -0.0480 S.3   1 <1>  -0.0800 
  2 C       -0.2480    -1.9100     0.1060 C.2   1 <1>  -0.1400 
  3 C        1.7680    -0.4880     0.6070 C.2   1 <1>  -0.1100 
  4 C        0.7880    -2.5970     0.6270 C.2   1 <1>  -0.1500 
  5 C       -1.6420    -2.2960    -0.3510 C.3   1 <1>   0.3200 
  6 C        1.9350    -1.7880     0.9100 C.2   1 <1>  -0.1500 
  7 N       -1.7280    -3.7690    -0.4740 N.am  1 <1>  -0.7300 
  8 C       -2.8010    -4.5040    -0.0800 C.2   1 <1>   0.5690 
  9 O       -3.8030    -3.9830     0.3510 O.2   1 <1>  -0.5700 
 10 C       -2.7920    -6.0400    -0.1840 C.3   1 <1>   0.4040 
 11 N       -4.1840    -6.6470    -0.2520 N.4   1 <1>  -0.9590 
 12 C       -4.2330    -8.1280     0.0000 C.3   1 <1>   0.4230 
 13 C       -4.8180    -6.2630    -1.5580 C.3   1 <1>   0.2630 
 14 C       -5.6810    -8.6510     0.0810 C.3   1 <1>  -0.0170 
 15 C       -3.4860    -8.4680     1.2960 C.3   1 <1>  -0.2400 
 16 C       -5.6770   -10.1630    -0.0730 C.ar  1 <1>   0.1670 
 17 N       -5.0930   -10.5680    -1.1910 N.ar  1 <1>  -0.6200 
 18 C       -6.2350   -11.0200     0.8770 C.ar  1 <1>  -0.1430 
 19 C       -5.0590   -11.8760    -1.3870 C.ar  1 <1>   0.1600 
 20 C       -6.1800   -12.3810     0.6490 C.ar  1 <1>  -0.1500 
 21 C       -6.9070   -10.5340     2.1560 C.3   1 <1>  -0.0970 
 22 C       -5.5780   -12.8100    -0.5120 C.ar  1 <1>  -0.1500 
 23 H        2.4210     0.3620     0.6980 H     1 <1>   0.1500 
 24 H        0.8100    -3.6500     0.8390 H     1 <1>   0.1500 
 25 H       -1.8410    -1.8490    -1.3100 H     1 <1>   0.0800 
 26 H       -2.3680    -1.9270     0.3550 H     1 <1>   0.0800 
 27 H        2.8280    -2.2200     1.3280 H     1 <1>   0.1500 
 28 H       -0.8690    -4.1820    -0.8450 H     1 <1>   0.3700 
 29 H       -2.2790    -6.4010     0.6890 H     1 <1>   0.0800 
 30 H       -2.2250    -6.3320    -1.0500 H     1 <1>   0.0800 
 31 H       -4.7150    -6.1630     0.4920 H     1 <1>   0.4500 
 32 H       -3.7440    -8.6330    -0.8190 H     1 <1>   0.0800 
 33 H       -4.3340    -6.7740    -2.3750 H     1 <1>   0.0800 
 34 H       -4.7360    -5.1990    -1.7160 H     1 <1>   0.0800 
 35 H       -5.8650    -6.5160    -1.5660 H     1 <1>   0.0800 
 36 H       -6.2790    -8.2770    -0.7260 H     1 <1>   0.0800 
 37 H       -6.1320    -8.3370     1.0010 H     1 <1>   0.0800 
 38 H       -3.8510    -7.8840     2.1220 H     1 <1>   0.0800 
 39 H       -2.4260    -8.3330     1.1880 H     1 <1>   0.0800 
 40 H       -3.6290    -9.5070     1.5370 H     1 <1>   0.0800 
 41 H       -4.5940   -12.2240    -2.2940 H     1 <1>   0.1500 
 42 H       -6.5920   -13.0930     1.3440 H     1 <1>   0.1500 
 43 H       -7.7360    -9.8900     1.9190 H     1 <1>   0.0800 
 44 H       -6.2030    -9.9990     2.7680 H     1 <1>   0.0800 
 45 H       -7.2850   -11.3600     2.7310 H     1 <1>   0.0800 
 46 H       -5.5120   -13.8590    -0.7390 H     1 <1>   0.1500 
@<TRIPOS>BOND
  1   1   2  1   
  2   1   3  1   
  3   2   4  2   
  4   2   5  1   
  5   3   6  2   
  6   3  23  1   
  7   4   6  1   
  8   4  24  1   
  9   5   7  1   
 10   5  25  1   
 11   5  26  1   
 12   6  27  1   
 13   7   8  am  
 14   7  28  1   
 15   8   9  2   
 16   8  10  1   
 17  10  11  1   
 18  10  29  1   
 19  10  30  1   
 20  11  12  1   
 21  11  13  1   
 22  11  31  1   
 23  12  14  1   
 24  12  15  1   
 25  12  32  1   
 26  13  33  1   
 27  13  34  1   
 28  13  35  1   
 29  14  16  1   
 30  14  36  1   
 31  14  37  1   
 32  15  38  1   
 33  15  39  1   
 34  15  40  1   
 35  16  17  ar  
 36  16  18  ar  
 37  17  19  ar  
 38  18  20  ar  
 39  18  21  1   
 40  19  22  ar  
 41  19  41  1   
 42  20  22  ar  
 43  20  42  1   
 44  21  43  1   
 45  21  44  1   
 46  21  45  1   
 47  22  46  1   
@<TRIPOS>SUBSTRUCTURE
  1 ****  10 GROUP 4 **** **** 0

# MOE 2024.06 (io_trps.svl 2023.06)
