@<TRIPOS>MOLECULE
NONAME
44 46 1 0 0 
SMALL
USER_CHARGES


@<TRIPOS>ATOM
  1 O       -0.7020     0.5490    -0.2340 O.2   1 <1>  -0.5700 
  2 C       -0.2990     1.6270    -0.6070 C.2   1 <1>   0.5690 
  3 N       -0.9870     2.2700    -1.5830 N.am  1 <1>  -0.7300 
  4 C        0.9610     2.2820     0.0360 C.3   1 <1>   0.2510 
  5 C       -0.6560     3.6380    -2.0300 C.3   1 <1>   0.1400 
  6 N        1.2630     3.6850    -0.4470 N.3   1 <1>  -0.8100 
  7 C        2.1800     1.3750    -0.2000 C.3   1 <1>  -0.2660 
  8 C        0.0570     4.4020    -0.9070 C.3   1 <1>   0.1100 
  9 C        2.0090     4.4600     0.5780 C.3   1 <1>   0.2530 
 10 C        3.2770     1.6020     0.7970 C.2   1 <1>   0.9060 
 11 C        2.2330     5.9260     0.1920 C.ar  1 <1>  -0.1440 
 12 O        2.9850     1.6990     1.9930 O.co2 1 <1>  -0.9000 
 13 O        4.4360     1.7160     0.3880 O.co2 1 <1>  -0.9000 
 14 C        3.0270     6.3740    -0.8800 C.ar  1 <1>   0.0830 
 15 C        1.5670     6.8680     0.9710 C.ar  1 <1>  -0.1500 
 16 O        3.7470     5.5950    -1.7300 O.3   1 <1>  -0.3630 
 17 C        3.1110     7.7340    -1.1550 C.ar  1 <1>  -0.1500 
 18 C        1.6740     8.2150     0.6850 C.ar  1 <1>  -0.1430 
 19 C        4.4050     4.4200    -1.3040 C.3   1 <1>   0.0400 
 20 C        2.4350     8.6440    -0.3690 C.ar  1 <1>  -0.1430 
 21 C        1.0330     9.3740     1.4070 C.3   1 <1>  -0.0160 
 22 C        2.4030    10.1460    -0.4980 C.3   1 <1>  -0.0170 
 23 C        1.7530    10.6020     0.8210 C.3   1 <1>  -0.1600 
 24 H       -1.7650     1.7740    -2.0160 H     1 <1>   0.3700 
 25 H        0.7550     2.3120     1.0930 H     1 <1>   0.0800 
 26 H       -1.5580     4.1580    -2.3000 H     1 <1>   0.0800 
 27 H       -0.0130     3.5890    -2.8910 H     1 <1>   0.0800 
 28 H        2.5560     1.5100    -1.1950 H     1 <1>   0.0800 
 29 H        1.8930     0.3480    -0.0870 H     1 <1>   0.0800 
 30 H       -0.6170     4.5540    -0.0820 H     1 <1>   0.0800 
 31 H        0.3320     5.3660    -1.2990 H     1 <1>   0.0800 
 32 H        2.9640     4.0170     0.7730 H     1 <1>   0.0800 
 33 H        1.4680     4.4120     1.5070 H     1 <1>   0.0800 
 34 H        0.9600     6.5560     1.8020 H     1 <1>   0.1500 
 35 H        3.7100     8.0640    -1.9820 H     1 <1>   0.1500 
 36 H        5.2170     4.2220    -1.9780 H     1 <1>   0.0800 
 37 H        3.7140     3.5990    -1.3370 H     1 <1>   0.0800 
 38 H        4.7870     4.5570    -0.3080 H     1 <1>   0.0800 
 39 H        1.1750     9.3020     2.4700 H     1 <1>   0.0800 
 40 H       -0.0170     9.4020     1.1760 H     1 <1>   0.0800 
 41 H        1.7910    10.4190    -1.3390 H     1 <1>   0.0800 
 42 H        3.3910    10.5530    -0.6150 H     1 <1>   0.0800 
 43 H        2.5300    10.9040     1.5010 H     1 <1>   0.0800 
 44 H        1.0790    11.4270     0.6700 H     1 <1>   0.0800 
@<TRIPOS>BOND
  1   1   2  2   
  2   2   3  am  
  3   2   4  1   
  4   3   5  1   
  5   3  24  1   
  6   4   6  1   
  7   4   7  1   
  8   4  25  1   
  9   5   8  1   
 10   5  26  1   
 11   5  27  1   
 12   6   8  1   
 13   6   9  1   
 14   7  10  1   
 15   7  28  1   
 16   7  29  1   
 17   8  30  1   
 18   8  31  1   
 19   9  11  1   
 20   9  32  1   
 21   9  33  1   
 22  10  12  ar  
 23  10  13  ar  
 24  11  14  ar  
 25  11  15  ar  
 26  14  16  1   
 27  14  17  ar  
 28  15  18  ar  
 29  15  34  1   
 30  16  19  1   
 31  17  20  ar  
 32  17  35  1   
 33  18  20  ar  
 34  18  21  1   
 35  19  36  1   
 36  19  37  1   
 37  19  38  1   
 38  20  22  1   
 39  21  23  1   
 40  21  39  1   
 41  21  40  1   
 42  22  23  1   
 43  22  41  1   
 44  22  42  1   
 45  23  43  1   
 46  23  44  1   
@<TRIPOS>SUBSTRUCTURE
  1 ****   9 GROUP 4 **** **** 0

# MOE 2024.06 (io_trps.svl 2023.06)
