@<TRIPOS>MOLECULE
NONAME
39 41 1 0 0 
SMALL
USER_CHARGES


@<TRIPOS>ATOM
  1 CL      -0.0610    -0.3000    -1.1710 Cl    1 <1>  -0.1770 
  2 C       -0.8700    -1.7760    -0.7110 C.ar  1 <1>   0.1770 
  3 C       -0.2400    -2.6580     0.1460 C.ar  1 <1>  -0.1500 
  4 C       -2.1290    -2.0490    -1.2090 C.ar  1 <1>  -0.1500 
  5 C       -0.8860    -3.8270     0.5060 C.ar  1 <1>  -0.1500 
  6 C       -2.7620    -3.2230    -0.8430 C.ar  1 <1>  -0.1500 
  7 C       -2.1600    -4.1390     0.0230 C.ar  1 <1>   0.0530 
  8 C       -2.8010    -5.3770     0.4000 C.2   1 <1>   0.0870 
  9 O       -2.0540    -6.4400     0.5970 O.3   1 <1>  -0.0190 
 10 C       -4.0900    -5.7620     0.6040 C.2   1 <1>  -0.2330 
 11 N       -2.7470    -7.5020     0.9100 N.2   1 <1>  -0.4100 
 12 C       -3.9710    -7.1120     0.9270 C.2   1 <1>   0.3720 
 13 C       -5.3370    -5.0590     0.5330 C.2   1 <1>   1.0330 
 14 N       -5.0430    -7.9400     1.2190 N.pl3 1 <1>  -0.8520 
 15 O       -5.3800    -3.8200     0.5410 O.co2 1 <1>  -0.9000 
 16 O       -6.4120    -5.6860     0.4410 O.co2 1 <1>  -0.9000 
 17 C       -5.1510    -9.1240     0.3500 C.3   1 <1>   0.2090 
 18 C       -6.5360    -9.7720     0.4830 C.3   1 <1>  -0.0800 
 19 C       -6.6040   -11.0110    -0.4250 C.3   1 <1>   0.1200 
 20 C       -7.6780    -8.7960     0.1380 C.3   1 <1>  -0.1600 
 21 O       -7.8700   -11.5970    -0.3590 O.3   1 <1>  -0.5600 
 22 C       -9.0150    -9.5450     0.0810 C.3   1 <1>  -0.1600 
 23 C       -8.9090   -10.7850    -0.8120 C.3   1 <1>   0.1200 
 24 H        0.7380    -2.4280     0.5250 H     1 <1>   0.1500 
 25 H       -2.6110    -1.3520    -1.8690 H     1 <1>   0.1500 
 26 H       -0.4020    -4.5150     1.1770 H     1 <1>   0.1500 
 27 H       -3.7450    -3.4330    -1.2280 H     1 <1>   0.1500 
 28 H       -5.8900    -7.3460     1.0810 H     1 <1>   0.4000 
 29 H       -4.3870    -9.8280     0.6310 H     1 <1>   0.0800 
 30 H       -4.9830    -8.8270    -0.6720 H     1 <1>   0.0800 
 31 H       -6.6490   -10.1030     1.5010 H     1 <1>   0.0800 
 32 H       -5.8890   -11.7490    -0.1050 H     1 <1>   0.0800 
 33 H       -6.4040   -10.7510    -1.4500 H     1 <1>   0.0800 
 34 H       -7.4850    -8.3320    -0.8140 H     1 <1>   0.0800 
 35 H       -7.7400    -8.0120     0.8740 H     1 <1>   0.0800 
 36 H       -9.7800    -8.8900    -0.2940 H     1 <1>   0.0800 
 37 H       -9.3000    -9.8540     1.0720 H     1 <1>   0.0800 
 38 H       -9.8180   -11.3590    -0.7680 H     1 <1>   0.0800 
 39 H       -8.7130   -10.5120    -1.8350 H     1 <1>   0.0800 
@<TRIPOS>BOND
  1   1   2  1   
  2   2   3  ar  
  3   2   4  ar  
  4   3   5  ar  
  5   3  24  1   
  6   4   6  ar  
  7   4  25  1   
  8   5   7  ar  
  9   5  26  1   
 10   6   7  ar  
 11   6  27  1   
 12   7   8  1   
 13   8   9  1   
 14   8  10  2   
 15   9  11  1   
 16  10  12  1   
 17  10  13  1   
 18  11  12  2   
 19  12  14  1   
 20  13  15  ar  
 21  13  16  ar  
 22  14  17  1   
 23  14  28  1   
 24  17  18  1   
 25  17  29  1   
 26  17  30  1   
 27  18  19  1   
 28  18  20  1   
 29  18  31  1   
 30  19  21  1   
 31  19  32  1   
 32  19  33  1   
 33  20  22  1   
 34  20  34  1   
 35  20  35  1   
 36  21  23  1   
 37  22  23  1   
 38  22  36  1   
 39  22  37  1   
 40  23  38  1   
 41  23  39  1   
@<TRIPOS>SUBSTRUCTURE
  1 ****  10 GROUP 4 **** **** 0

# MOE 2024.06 (io_trps.svl 2023.06)
