@<TRIPOS>MOLECULE
NONAME
43 44 1 0 0 
SMALL
USER_CHARGES


@<TRIPOS>ATOM
  1 S       -0.1620    -0.0170     0.6200 S.3   1 <1>  -0.0800 
  2 C       -0.1730    -1.3140    -0.5310 C.2   1 <1>   0.4420 
  3 C        0.3340     1.0250    -0.6700 C.2   1 <1>   0.1980 
  4 N        0.1620    -0.9220    -1.7050 N.2   1 <1>  -0.3380 
  5 N       -0.5310    -2.5570    -0.0520 N.am  1 <1>  -0.4940 
  6 N        0.4490     0.4140    -1.7770 N.2   1 <1>  -0.3380 
  7 C        0.5640     2.4940    -0.3660 C.3   1 <1>   0.0200 
  8 C       -0.6200    -3.7470    -0.7180 C.2   1 <1>   0.5690 
  9 C        1.8480     2.7100     0.4470 C.3   1 <1>  -0.1600 
 10 O       -0.3510    -3.8750    -1.8840 O.2   1 <1>  -0.5700 
 11 C       -1.0550    -4.9740     0.0730 C.3   1 <1>  -0.0190 
 12 C        2.0940     4.1990     0.7250 C.3   1 <1>  -0.1600 
 13 C       -1.4610    -6.1660    -0.8110 C.3   1 <1>   0.1400 
 14 C       -2.2590    -4.7430     1.0100 C.3   1 <1>  -0.0990 
 15 C        3.3790     4.4040     1.5360 C.3   1 <1>  -0.1600 
 16 N       -2.5050    -6.8410    -0.0190 N.am  1 <1>  -0.6600 
 17 C       -2.9710    -6.0640     0.9840 C.2   1 <1>   0.5690 
 18 C        3.6250     5.8890     1.8120 C.3   1 <1>  -0.2400 
 19 C       -3.0490    -8.1580    -0.4110 C.3   1 <1>   0.1400 
 20 O       -3.8420    -6.3500     1.7670 O.2   1 <1>  -0.5700 
 21 C       -2.0490    -9.2520    -0.0470 C.3   1 <1>  -0.2400 
 22 H       -0.7600    -2.5770     0.9360 H     1 <1>   0.3700 
 23 H       -0.2840     2.8790     0.1700 H     1 <1>   0.0800 
 24 H        0.6370     3.0250    -1.2990 H     1 <1>   0.0800 
 25 H        2.6820     2.3050    -0.1010 H     1 <1>   0.0800 
 26 H        1.7750     2.1800     1.3810 H     1 <1>   0.0800 
 27 H       -0.2170    -5.2940     0.6660 H     1 <1>   0.0800 
 28 H        1.2600     4.6070     1.2700 H     1 <1>   0.0800 
 29 H        2.1760     4.7300    -0.2090 H     1 <1>   0.0800 
 30 H       -0.6250    -6.8170    -0.9980 H     1 <1>   0.0800 
 31 H       -1.8870    -5.8410    -1.7460 H     1 <1>   0.0800 
 32 H       -2.9280    -3.9960     0.6230 H     1 <1>   0.0800 
 33 H       -1.9580    -4.4970     2.0110 H     1 <1>   0.0800 
 34 H        4.2180     4.0020     0.9930 H     1 <1>   0.0800 
 35 H        3.3050     3.8780     2.4730 H     1 <1>   0.0800 
 36 H        3.7260     6.4320     0.8890 H     1 <1>   0.0800 
 37 H        4.5290     6.0120     2.3810 H     1 <1>   0.0800 
 38 H        2.8080     6.3090     2.3740 H     1 <1>   0.0800 
 39 H       -3.2480    -8.1660    -1.4690 H     1 <1>   0.0800 
 40 H       -3.9770    -8.3300     0.1110 H     1 <1>   0.0800 
 41 H       -1.1320    -9.1270    -0.5920 H     1 <1>   0.0800 
 42 H       -2.4620   -10.2130    -0.2940 H     1 <1>   0.0800 
 43 H       -1.8480    -9.2300     1.0090 H     1 <1>   0.0800 
@<TRIPOS>BOND
  1   1   2  1   
  2   1   3  1   
  3   2   4  2   
  4   2   5  1   
  5   3   6  2   
  6   3   7  1   
  7   4   6  1   
  8   5   8  am  
  9   5  22  1   
 10   7   9  1   
 11   7  23  1   
 12   7  24  1   
 13   8  10  2   
 14   8  11  1   
 15   9  12  1   
 16   9  25  1   
 17   9  26  1   
 18  11  13  1   
 19  11  14  1   
 20  11  27  1   
 21  12  15  1   
 22  12  28  1   
 23  12  29  1   
 24  13  16  1   
 25  13  30  1   
 26  13  31  1   
 27  14  17  1   
 28  14  32  1   
 29  14  33  1   
 30  15  18  1   
 31  15  34  1   
 32  15  35  1   
 33  16  17  am  
 34  16  19  1   
 35  17  20  2   
 36  18  36  1   
 37  18  37  1   
 38  18  38  1   
 39  19  21  1   
 40  19  39  1   
 41  19  40  1   
 42  21  41  1   
 43  21  42  1   
 44  21  43  1   
@<TRIPOS>SUBSTRUCTURE
  1 ****   5 GROUP 4 **** **** 0

# MOE 2024.06 (io_trps.svl 2023.06)
