@<TRIPOS>MOLECULE
NONAME
54 56 1 0 0 
SMALL
USER_CHARGES


@<TRIPOS>ATOM
  1 S        1.5240    -1.5750    -3.0250 S.3   1 <1>  -0.0800 
  2 C        1.1200    -1.3650    -1.3250 C.2   1 <1>   0.3250 
  3 C        1.4150    -3.2970    -2.8500 C.2   1 <1>  -0.1100 
  4 N        0.9470    -2.4950    -0.7270 N.2   1 <1>  -0.5650 
  5 C        1.0070    -0.0310    -0.7730 C.ar  1 <1>   0.0530 
  6 C        1.1000    -3.5790    -1.5770 C.2   1 <1>   0.0460 
  7 C        0.9610     0.1550     0.6090 C.ar  1 <1>  -0.1500 
  8 C        0.9250     1.1180    -1.5630 C.ar  1 <1>  -0.1500 
  9 C        0.8810    -4.9900    -1.0200 C.3   1 <1>   0.5240 
 10 C        0.8370     1.4110     1.1740 C.ar  1 <1>  -0.1500 
 11 C        0.8020     2.3770    -1.0040 C.ar  1 <1>  -0.1500 
 12 N       -0.4430    -5.1380    -0.3270 N.4   1 <1>  -0.9590 
 13 C        0.7520     2.5450     0.3750 C.ar  1 <1>  -0.1430 
 14 C       -1.5590    -4.4970    -1.0890 C.3   1 <1>   0.3430 
 15 C       -0.4000    -4.6000     1.0610 C.3   1 <1>   0.3430 
 16 C        0.6180     3.9450     1.0010 C.3   1 <1>   1.1630 
 17 C       -2.9100    -4.8810    -0.4580 C.3   1 <1>   0.2000 
 18 C       -1.7160    -4.8920     1.7880 C.3   1 <1>  -0.1600 
 19 F       -0.0210     4.8030     0.2140 F     1 <1>  -0.3400 
 20 F        1.8000     4.4870     1.2620 F     1 <1>  -0.3400 
 21 F       -0.0480     3.9310     2.1500 F     1 <1>  -0.3400 
 22 O       -2.9870    -6.2730    -0.5750 O.3   1 <1>  -0.6800 
 23 C       -3.0120    -4.4620     1.0410 C.3   1 <1>   0.0000 
 24 C       -4.2170    -5.2070     1.6880 C.3   1 <1>   0.1200 
 25 C       -3.3000    -2.9330     1.2080 C.3   1 <1>  -0.1600 
 26 O       -4.3800    -4.8620     3.0230 O.3   1 <1>  -0.6800 
 27 C       -2.4410    -1.8910     0.4690 C.3   1 <1>  -0.1600 
 28 C       -2.8130    -0.4710     0.9050 C.3   1 <1>  -0.2400 
 29 H        1.5980    -3.8980    -3.7240 H     1 <1>   0.1500 
 30 H        1.0270    -0.7020     1.2550 H     1 <1>   0.1500 
 31 H        0.9530     1.0420    -2.6350 H     1 <1>   0.1500 
 32 H        1.6770    -5.2210    -0.3310 H     1 <1>   0.0800 
 33 H        0.9370    -5.6900    -1.8360 H     1 <1>   0.0800 
 34 H        0.8090     1.5000     2.2480 H     1 <1>   0.1500 
 35 H        0.7440     3.2330    -1.6570 H     1 <1>   0.1500 
 36 H       -0.7060    -6.1340    -0.2700 H     1 <1>   0.4500 
 37 H       -1.4270    -3.4310    -1.0960 H     1 <1>   0.0800 
 38 H       -1.5510    -4.8350    -2.1120 H     1 <1>   0.0800 
 39 H        0.4120    -5.0560     1.6050 H     1 <1>   0.0800 
 40 H       -0.2220    -3.5390     1.0410 H     1 <1>   0.0800 
 41 H       -3.7180    -4.4530    -1.0290 H     1 <1>   0.0800 
 42 H       -1.7480    -5.9530     1.9670 H     1 <1>   0.0800 
 43 H       -1.6810    -4.4180     2.7530 H     1 <1>   0.0800 
 44 H       -3.9140    -6.5820    -0.4890 H     1 <1>   0.4000 
 45 H       -4.0980    -6.2770     1.6510 H     1 <1>   0.0800 
 46 H       -5.1320    -4.9490     1.1820 H     1 <1>   0.0800 
 47 H       -4.3210    -2.7530     0.9150 H     1 <1>   0.0800 
 48 H       -3.2550    -2.6960     2.2580 H     1 <1>   0.0800 
 49 H       -3.7080    -5.2870     3.5900 H     1 <1>   0.4000 
 50 H       -1.3990    -2.0310     0.6780 H     1 <1>   0.0800 
 51 H       -2.6030    -1.9540    -0.5920 H     1 <1>   0.0800 
 52 H       -2.6400    -0.3390     1.9590 H     1 <1>   0.0800 
 53 H       -3.8500    -0.2700     0.6980 H     1 <1>   0.0800 
 54 H       -2.2140     0.2480     0.3720 H     1 <1>   0.0800 
@<TRIPOS>BOND
  1   1   2  1   
  2   1   3  1   
  3   2   4  2   
  4   2   5  1   
  5   3   6  2   
  6   3  29  1   
  7   4   6  1   
  8   5   7  ar  
  9   5   8  ar  
 10   6   9  1   
 11   7  10  ar  
 12   7  30  1   
 13   8  11  ar  
 14   8  31  1   
 15   9  12  1   
 16   9  32  1   
 17   9  33  1   
 18  10  13  ar  
 19  10  34  1   
 20  11  13  ar  
 21  11  35  1   
 22  12  14  1   
 23  12  15  1   
 24  12  36  1   
 25  13  16  1   
 26  14  17  1   
 27  14  37  1   
 28  14  38  1   
 29  15  18  1   
 30  15  39  1   
 31  15  40  1   
 32  16  19  1   
 33  16  20  1   
 34  16  21  1   
 35  17  22  1   
 36  17  23  1   
 37  17  41  1   
 38  18  23  1   
 39  18  42  1   
 40  18  43  1   
 41  22  44  1   
 42  23  24  1   
 43  23  25  1   
 44  24  26  1   
 45  24  45  1   
 46  24  46  1   
 47  25  27  1   
 48  25  47  1   
 49  25  48  1   
 50  26  49  1   
 51  27  28  1   
 52  27  50  1   
 53  27  51  1   
 54  28  52  1   
 55  28  53  1   
 56  28  54  1   
@<TRIPOS>SUBSTRUCTURE
  1 ****   4 GROUP 4 **** **** 0

# MOE 2024.06 (io_trps.svl 2023.06)
