@<TRIPOS>MOLECULE
NONAME
52 54 1 0 0 
SMALL
USER_CHARGES


@<TRIPOS>ATOM
  1 O       -0.0650     1.7470    -1.0840 O.2   1 <1>  -0.5700 
  2 C       -0.4560     2.8910    -1.1200 C.2   1 <1>   0.5690 
  3 N       -0.9750     3.5520    -0.0400 N.am  1 <1>  -0.5090 
  4 C       -0.3640     3.6560    -2.4340 C.3   1 <1>   0.1810 
  5 C       -1.4720     4.9580    -0.1860 C.3   1 <1>   0.3640 
  6 C       -0.9130     3.0010     1.3350 C.3   1 <1>   0.0490 
  7 O        0.0370     4.9810    -2.2000 O.3   1 <1>  -0.5600 
  8 C       -3.0000     4.9860    -0.3230 C.ar  1 <1>  -0.1440 
  9 C       -0.8420     5.7430    -1.3770 C.3   1 <1>   0.2610 
 10 C       -1.6130     1.7090     1.6150 C.3   1 <1>  -0.2000 
 11 C       -2.1340     2.9800     2.2040 C.3   1 <1>  -0.2000 
 12 C       -3.7270     3.9450    -0.8930 C.ar  1 <1>  -0.1500 
 13 C       -3.6860     6.1030     0.1340 C.ar  1 <1>  -0.1500 
 14 C       -0.1250     6.9880    -0.8420 C.2   1 <1>   0.5690 
 15 C       -5.1040     4.0180    -1.0020 C.ar  1 <1>  -0.1500 
 16 C       -5.0630     6.1790     0.0240 C.ar  1 <1>  -0.1500 
 17 O       -0.7370     7.7690    -0.1530 O.2   1 <1>  -0.5700 
 18 N        1.1870     7.1850    -1.1410 N.am  1 <1>  -0.7300 
 19 C       -5.7830     5.1420    -0.5420 C.ar  1 <1>   0.0830 
 20 C        1.9930     8.3750    -0.7670 C.3   1 <1>   0.1400 
 21 O       -7.1290     5.2940    -0.6090 O.3   1 <1>  -0.3630 
 22 C        2.4620     8.2710     0.6830 C.3   1 <1>   0.1200 
 23 C       -7.9570     4.2800    -1.1320 C.3   1 <1>   0.0400 
 24 O        3.3360     9.3250     0.9390 O.3   1 <1>  -0.5600 
 25 C        3.7740     9.3860     2.2540 C.3   1 <1>   0.1200 
 26 C        4.7270    10.5690     2.3650 C.3   1 <1>  -0.2400 
 27 H       -1.3150     3.6600    -2.9350 H     1 <1>   0.0800 
 28 H        0.3710     3.1950    -3.0690 H     1 <1>   0.0800 
 29 H       -1.2280     5.4730     0.7270 H     1 <1>   0.0800 
 30 H        0.0480     3.1610     1.7970 H     1 <1>   0.1000 
 31 H       -1.6320     6.0950    -2.0150 H     1 <1>   0.0800 
 32 H       -2.1570     1.2390     0.8140 H     1 <1>   0.1000 
 33 H       -1.1350     0.9970     2.2640 H     1 <1>   0.1000 
 34 H       -2.0190     3.1270     3.2630 H     1 <1>   0.1000 
 35 H       -3.0770     3.3460     1.8400 H     1 <1>   0.1000 
 36 H       -3.2350     3.0580    -1.2510 H     1 <1>   0.1500 
 37 H       -3.1550     6.9290     0.5790 H     1 <1>   0.1500 
 38 H       -5.6300     3.1940    -1.4440 H     1 <1>   0.1500 
 39 H       -5.5890     7.0470     0.3790 H     1 <1>   0.1500 
 40 H        1.6390     6.4860    -1.7410 H     1 <1>   0.3700 
 41 H        2.8470     8.4430    -1.4190 H     1 <1>   0.0800 
 42 H        1.3930     9.2620    -0.8810 H     1 <1>   0.0800 
 43 H        2.9870     7.3460     0.8440 H     1 <1>   0.0800 
 44 H        1.6180     8.3480     1.3480 H     1 <1>   0.0800 
 45 H       -8.9760     4.6160    -1.0690 H     1 <1>   0.0800 
 46 H       -7.8300     3.3870    -0.5450 H     1 <1>   0.0800 
 47 H       -7.6920     4.1080    -2.1600 H     1 <1>   0.0800 
 48 H        2.9220     9.5240     2.8990 H     1 <1>   0.0800 
 49 H        4.2790     8.4670     2.4980 H     1 <1>   0.0800 
 50 H        4.2160    11.4790     2.1060 H     1 <1>   0.0800 
 51 H        5.5660    10.4290     1.7060 H     1 <1>   0.0800 
 52 H        5.0900    10.6530     3.3730 H     1 <1>   0.0800 
@<TRIPOS>BOND
  1   1   2  2   
  2   2   3  am  
  3   2   4  1   
  4   3   5  1   
  5   3   6  1   
  6   4   7  1   
  7   4  27  1   
  8   4  28  1   
  9   5   8  1   
 10   5   9  1   
 11   5  29  1   
 12   6  10  1   
 13   6  11  1   
 14   6  30  1   
 15   7   9  1   
 16   8  12  ar  
 17   8  13  ar  
 18   9  14  1   
 19   9  31  1   
 20  10  11  1   
 21  10  32  1   
 22  10  33  1   
 23  11  34  1   
 24  11  35  1   
 25  12  15  ar  
 26  12  36  1   
 27  13  16  ar  
 28  13  37  1   
 29  14  17  2   
 30  14  18  am  
 31  15  19  ar  
 32  15  38  1   
 33  16  19  ar  
 34  16  39  1   
 35  18  20  1   
 36  18  40  1   
 37  19  21  1   
 38  20  22  1   
 39  20  41  1   
 40  20  42  1   
 41  21  23  1   
 42  22  24  1   
 43  22  43  1   
 44  22  44  1   
 45  23  45  1   
 46  23  46  1   
 47  23  47  1   
 48  24  25  1   
 49  25  26  1   
 50  25  48  1   
 51  25  49  1   
 52  26  50  1   
 53  26  51  1   
 54  26  52  1   
@<TRIPOS>SUBSTRUCTURE
  1 ****   5 GROUP 4 **** **** 0

# MOE 2024.06 (io_trps.svl 2023.06)
