@<TRIPOS>MOLECULE
NONAME
46 47 1 0 0 
SMALL
USER_CHARGES


@<TRIPOS>ATOM
  1 S       -0.3260     0.2500    -0.1670 S.3   1 <1>  -0.4600 
  2 C       -0.4500     2.0450    -0.0020 C.3   1 <1>   0.0700 
  3 C       -2.0530    -0.3040    -0.2320 C.3   1 <1>  -0.0100 
  4 C        0.9860     2.5710     0.0980 C.3   1 <1>   0.3430 
  5 N        1.0460     4.0580     0.2680 N.4   1 <1>  -0.9590 
  6 C        0.5760     4.7870    -0.9510 C.3   1 <1>   0.3430 
  7 C        2.4310     4.4680     0.6500 C.3   1 <1>   0.3430 
  8 C        0.5810     6.2890    -0.6920 C.3   1 <1>  -0.1600 
  9 C        2.4640     5.9610     0.9400 C.3   1 <1>  -0.1600 
 10 C        1.9720     6.7470    -0.2700 C.3   1 <1>   0.2890 
 11 N        1.9050     8.1600     0.0960 N.pl3 1 <1>  -0.8690 
 12 C        2.8820     9.0770    -0.2150 C.ar  1 <1>   0.4100 
 13 N        4.1020     8.5710    -0.3930 N.ar  1 <1>  -0.6200 
 14 C        2.5700    10.4480    -0.3210 C.ar  1 <1>   0.0860 
 15 C        5.0560     9.4300    -0.6890 C.ar  1 <1>   0.1600 
 16 C        1.2260    10.9410    -0.1040 C.2   1 <1>   0.5440 
 17 C        3.6070    11.3160    -0.6430 C.ar  1 <1>  -0.1500 
 18 C        4.8660    10.7930    -0.8260 C.ar  1 <1>  -0.1500 
 19 O        0.2470    10.2900    -0.4310 O.2   1 <1>  -0.5700 
 20 N        1.0230    12.1620     0.4840 N.am  1 <1>  -0.7300 
 21 C       -0.2990    12.7920     0.7430 C.3   1 <1>   0.0600 
 22 H       -1.0150     2.2430     0.8910 H     1 <1>   0.0800 
 23 H       -0.9610     2.4040    -0.8770 H     1 <1>   0.0800 
 24 H       -2.0480    -1.3750    -0.3310 H     1 <1>   0.0800 
 25 H       -2.5240     0.1530    -1.0840 H     1 <1>   0.0800 
 26 H       -2.5370    -0.0120     0.6830 H     1 <1>   0.0800 
 27 H        1.5270     2.2810    -0.7890 H     1 <1>   0.0800 
 28 H        1.4560     2.0930     0.9420 H     1 <1>   0.0800 
 29 H        0.4320     4.3230     1.0520 H     1 <1>   0.4500 
 30 H       -0.4240     4.4770    -1.2100 H     1 <1>   0.0800 
 31 H        1.2250     4.5640    -1.7830 H     1 <1>   0.0800 
 32 H        3.1160     4.2430    -0.1530 H     1 <1>   0.0800 
 33 H        2.7500     3.9280     1.5280 H     1 <1>   0.0800 
 34 H       -0.1390     6.5260     0.0710 H     1 <1>   0.0800 
 35 H        0.2990     6.8040    -1.5940 H     1 <1>   0.0800 
 36 H        3.4760     6.2550     1.1580 H     1 <1>   0.0800 
 37 H        1.8600     6.1820     1.8010 H     1 <1>   0.0800 
 38 H        2.6570     6.6170    -1.0940 H     1 <1>   0.0800 
 39 H        0.9560     8.5690     0.0480 H     1 <1>   0.4000 
 40 H        6.0470     9.0310    -0.8340 H     1 <1>   0.1500 
 41 H        3.4320    12.3710    -0.7570 H     1 <1>   0.1500 
 42 H        5.6970    11.4290    -1.0760 H     1 <1>   0.1500 
 43 H        1.8280    12.6590     0.8720 H     1 <1>   0.3700 
 44 H       -1.0880    12.2150     0.2920 H     1 <1>   0.0800 
 45 H       -0.3160    13.7840     0.3260 H     1 <1>   0.0800 
 46 H       -0.4740    12.8490     1.8030 H     1 <1>   0.0800 
@<TRIPOS>BOND
  1   1   2  1   
  2   1   3  1   
  3   2   4  1   
  4   2  22  1   
  5   2  23  1   
  6   3  24  1   
  7   3  25  1   
  8   3  26  1   
  9   4   5  1   
 10   4  27  1   
 11   4  28  1   
 12   5   6  1   
 13   5   7  1   
 14   5  29  1   
 15   6   8  1   
 16   6  30  1   
 17   6  31  1   
 18   7   9  1   
 19   7  32  1   
 20   7  33  1   
 21   8  10  1   
 22   8  34  1   
 23   8  35  1   
 24   9  10  1   
 25   9  36  1   
 26   9  37  1   
 27  10  11  1   
 28  10  38  1   
 29  11  12  1   
 30  11  39  1   
 31  12  13  ar  
 32  12  14  ar  
 33  13  15  ar  
 34  14  16  1   
 35  14  17  ar  
 36  15  18  ar  
 37  15  40  1   
 38  16  19  2   
 39  16  20  am  
 40  17  18  ar  
 41  17  41  1   
 42  18  42  1   
 43  20  21  1   
 44  20  43  1   
 45  21  44  1   
 46  21  45  1   
 47  21  46  1   
@<TRIPOS>SUBSTRUCTURE
  1 ****  10 GROUP 4 **** **** 0

# MOE 2024.06 (io_trps.svl 2023.06)
