@<TRIPOS>MOLECULE
NONAME
44 46 1 0 0 
SMALL
USER_CHARGES


@<TRIPOS>ATOM
  1 O       -0.3400     0.5820     0.0960 O.2   1 <1>  -0.5700 
  2 C       -0.3950     1.7570    -0.1810 C.2   1 <1>   0.5690 
  3 N       -1.0660     2.6630     0.5960 N.am  1 <1>  -0.6600 
  4 C        0.2990     2.2300    -1.4600 C.3   1 <1>   0.1810 
  5 C       -1.1370     4.1110     0.2110 C.3   1 <1>   0.3640 
  6 C       -1.6840     2.2960     1.9040 C.3   1 <1>   0.0600 
  7 O        0.6300     3.5960    -1.4210 O.3   1 <1>  -0.5600 
  8 C       -2.5770     4.6460     0.2690 C.ar  1 <1>  -0.1430 
  9 C       -0.4740     4.4430    -1.1490 C.3   1 <1>   0.2610 
 10 C       -3.6790     4.0410    -0.3440 C.ar  1 <1>  -0.1430 
 11 C       -2.7710     5.8220     0.9850 C.ar  1 <1>  -0.1500 
 12 C       -0.0860     5.9280    -1.1770 C.2   1 <1>   0.5690 
 13 C       -4.9330     4.6200    -0.2150 C.ar  1 <1>  -0.1500 
 14 C       -3.5940     2.7530    -1.1590 C.3   1 <1>  -0.0960 
 15 C       -4.0250     6.3900     1.1040 C.ar  1 <1>  -0.1500 
 16 O       -0.7550     6.6630    -1.8690 O.2   1 <1>  -0.5700 
 17 N        0.9470     6.4340    -0.4240 N.am  1 <1>  -0.6600 
 18 C       -5.1100     5.7860     0.5040 C.ar  1 <1>  -0.1500 
 19 C        1.2470     7.8820    -0.3880 C.3   1 <1>   0.1400 
 20 C        1.9940     5.6620     0.2890 C.3   1 <1>   0.1400 
 21 C        2.3260     8.0270     0.6770 C.3   1 <1>  -0.1600 
 22 C        3.0590     6.6890     0.6610 C.3   1 <1>  -0.1600 
 23 H       -0.3380     2.0540    -2.3060 H     1 <1>   0.0800 
 24 H        1.2110     1.6770    -1.5920 H     1 <1>   0.0800 
 25 H       -0.5750     4.6360     0.9610 H     1 <1>   0.0800 
 26 H       -1.2780     2.9130     2.6860 H     1 <1>   0.0800 
 27 H       -1.4870     1.2650     2.1420 H     1 <1>   0.0800 
 28 H       -2.7500     2.4400     1.8610 H     1 <1>   0.0800 
 29 H       -1.1870     4.2940    -1.9370 H     1 <1>   0.0800 
 30 H       -1.9410     6.3180     1.4570 H     1 <1>   0.1500 
 31 H       -5.7920     4.1640    -0.6770 H     1 <1>   0.1500 
 32 H       -4.4900     2.6040    -1.7340 H     1 <1>   0.0800 
 33 H       -3.4760     1.9100    -0.5030 H     1 <1>   0.0800 
 34 H       -2.7720     2.7800    -1.8450 H     1 <1>   0.0800 
 35 H       -4.1550     7.3030     1.6600 H     1 <1>   0.1500 
 36 H       -6.0890     6.2240     0.5920 H     1 <1>   0.1500 
 37 H        1.6200     8.1840    -1.3520 H     1 <1>   0.0800 
 38 H        0.3650     8.4510    -0.1490 H     1 <1>   0.0800 
 39 H        1.5770     5.2200     1.1770 H     1 <1>   0.0800 
 40 H        2.4110     4.8950    -0.3410 H     1 <1>   0.0800 
 41 H        2.9790     8.8570     0.4720 H     1 <1>   0.0800 
 42 H        1.8550     8.1780     1.6330 H     1 <1>   0.0800 
 43 H        3.5220     6.4620     1.6040 H     1 <1>   0.0800 
 44 H        3.8140     6.6980    -0.1060 H     1 <1>   0.0800 
@<TRIPOS>BOND
  1   1   2  2   
  2   2   3  am  
  3   2   4  1   
  4   3   5  1   
  5   3   6  1   
  6   4   7  1   
  7   4  23  1   
  8   4  24  1   
  9   5   8  1   
 10   5   9  1   
 11   5  25  1   
 12   6  26  1   
 13   6  27  1   
 14   6  28  1   
 15   7   9  1   
 16   8  10  ar  
 17   8  11  ar  
 18   9  12  1   
 19   9  29  1   
 20  10  13  ar  
 21  10  14  1   
 22  11  15  ar  
 23  11  30  1   
 24  12  16  2   
 25  12  17  am  
 26  13  18  ar  
 27  13  31  1   
 28  14  32  1   
 29  14  33  1   
 30  14  34  1   
 31  15  18  ar  
 32  15  35  1   
 33  17  19  1   
 34  17  20  1   
 35  18  36  1   
 36  19  21  1   
 37  19  37  1   
 38  19  38  1   
 39  20  22  1   
 40  20  39  1   
 41  20  40  1   
 42  21  22  1   
 43  21  41  1   
 44  21  42  1   
 45  22  43  1   
 46  22  44  1   
@<TRIPOS>SUBSTRUCTURE
  1 ****   5 GROUP 4 **** **** 0

# MOE 2024.06 (io_trps.svl 2023.06)
