@<TRIPOS>MOLECULE
NONAME
46 48 1 0 0 
SMALL
USER_CHARGES


@<TRIPOS>ATOM
  1 S        0.5460     0.6060     0.2700 S.o2  1 <1>   1.3330 
  2 O        0.3270     1.7250     1.1600 O.2   1 <1>  -0.6500 
  3 O        0.4140    -0.7430     0.7730 O.2   1 <1>  -0.6500 
  4 N       -0.4920     0.7700    -1.0630 N.am  1 <1>  -0.8490 
  5 C        2.1730     0.7960    -0.4520 C.3   1 <1>  -0.0550 
  6 C       -0.6520    -0.4660    -1.8350 C.3   1 <1>   0.1160 
  7 C       -1.8070     1.2950    -0.6820 C.3   1 <1>   0.1160 
  8 C        3.2950     0.7690     0.5980 C.3   1 <1>  -0.0800 
  9 C        4.6610     1.0740    -0.0010 C.3   1 <1>   0.2200 
 10 C        3.5090    -0.5770     1.2800 C.3   1 <1>   0.1200 
 11 N        5.0060     2.4830     0.2870 N.am  1 <1>  -0.7300 
 12 C        5.6010     0.0830     0.6890 C.3   1 <1>   0.1200 
 13 O        4.8440    -0.5600     1.6660 O.3   1 <1>  -0.5600 
 14 C        4.7720     3.5200    -0.5690 C.2   1 <1>   0.5440 
 15 O        4.4210     3.2670    -1.7040 O.2   1 <1>  -0.5700 
 16 C        4.8990     4.8800    -0.1020 C.ar  1 <1>   0.0860 
 17 C        5.7780     5.8160    -0.7030 C.ar  1 <1>   0.0000 
 18 C        4.1630     5.3220     0.9670 C.ar  1 <1>  -0.1500 
 19 C        5.8430     7.1160    -0.1500 C.ar  1 <1>   0.3100 
 20 C        6.6000     5.5250    -1.8160 C.ar  1 <1>  -0.1500 
 21 C        4.2960     6.6300     1.4330 C.ar  1 <1>   0.1600 
 22 N        5.1000     7.5040     0.9150 N.ar  1 <1>  -0.6200 
 23 C        6.7170     8.0540    -0.7220 C.ar  1 <1>  -0.1500 
 24 C        7.4420     6.4620    -2.3510 C.ar  1 <1>  -0.1500 
 25 C        7.5040     7.7430    -1.7980 C.ar  1 <1>  -0.1500 
 26 H        2.3400     0.0250    -1.1780 H     1 <1>   0.0800 
 27 H        2.2090     1.7390    -0.9640 H     1 <1>   0.0800 
 28 H       -1.2470    -0.2780    -2.7130 H     1 <1>   0.0800 
 29 H       -1.1350    -1.2230    -1.2390 H     1 <1>   0.0800 
 30 H        0.3090    -0.8350    -2.1500 H     1 <1>   0.0800 
 31 H       -2.4320     1.4030    -1.5520 H     1 <1>   0.0800 
 32 H       -1.6990     2.2640    -0.2240 H     1 <1>   0.0800 
 33 H       -2.2860     0.6320     0.0200 H     1 <1>   0.0800 
 34 H        3.0670     1.4830     1.3710 H     1 <1>   0.0800 
 35 H        4.6820     0.8970    -1.0640 H     1 <1>   0.0800 
 36 H        3.3660    -1.4010     0.6010 H     1 <1>   0.0800 
 37 H        2.8880    -0.7060     2.1510 H     1 <1>   0.0800 
 38 H        5.2790     2.6740     1.2530 H     1 <1>   0.3700 
 39 H        6.4430     0.5620     1.1560 H     1 <1>   0.0800 
 40 H        5.9400    -0.6640    -0.0070 H     1 <1>   0.0800 
 41 H        3.4650     4.6690     1.4600 H     1 <1>   0.1500 
 42 H        6.5600     4.5430    -2.2570 H     1 <1>   0.1500 
 43 H        3.6950     6.9320     2.2740 H     1 <1>   0.1500 
 44 H        6.7480     9.0340    -0.2830 H     1 <1>   0.1500 
 45 H        8.0610     6.2260    -3.1990 H     1 <1>   0.1500 
 46 H        8.1690     8.4720    -2.2270 H     1 <1>   0.1500 
@<TRIPOS>BOND
  1   1   2  2   
  2   1   3  2   
  3   1   4  am  
  4   1   5  1   
  5   4   6  1   
  6   4   7  1   
  7   5   8  1   
  8   5  26  1   
  9   5  27  1   
 10   6  28  1   
 11   6  29  1   
 12   6  30  1   
 13   7  31  1   
 14   7  32  1   
 15   7  33  1   
 16   8   9  1   
 17   8  10  1   
 18   8  34  1   
 19   9  11  1   
 20   9  12  1   
 21   9  35  1   
 22  10  13  1   
 23  10  36  1   
 24  10  37  1   
 25  11  14  am  
 26  11  38  1   
 27  12  13  1   
 28  12  39  1   
 29  12  40  1   
 30  14  15  2   
 31  14  16  1   
 32  16  17  ar  
 33  16  18  ar  
 34  17  19  ar  
 35  17  20  ar  
 36  18  21  ar  
 37  18  41  1   
 38  19  22  ar  
 39  19  23  ar  
 40  20  24  ar  
 41  20  42  1   
 42  21  22  ar  
 43  21  43  1   
 44  23  25  ar  
 45  23  44  1   
 46  24  25  ar  
 47  24  45  1   
 48  25  46  1   
@<TRIPOS>SUBSTRUCTURE
  1 ****  14 GROUP 4 **** **** 0

# MOE 2024.06 (io_trps.svl 2023.06)
