@<TRIPOS>MOLECULE
NONAME
55 57 1 0 0 
SMALL
USER_CHARGES


@<TRIPOS>ATOM
  1 O        3.1030    -0.2980     1.3660 O.2   1 <1>  -0.5700 
  2 C        2.7200    -0.7750     0.3100 C.2   1 <1>   0.5440 
  3 N        2.6950     0.0950    -0.7600 N.am  1 <1>  -0.6600 
  4 C        2.3960    -2.1970     0.2010 C.ar  1 <1>   0.3960 
  5 C        3.7570     0.0130    -1.8090 C.3   1 <1>   0.1400 
  6 C        1.9870     1.4030    -0.6750 C.3   1 <1>   0.1400 
  7 N        2.5540    -2.8410    -0.9670 N.ar  1 <1>  -0.6200 
  8 C        1.9340    -2.8670     1.3390 C.ar  1 <1>   0.1600 
  9 C        5.1330     0.4150    -1.2370 C.3   1 <1>   0.3430 
 10 C        2.8180     2.4850     0.0370 C.3   1 <1>  -0.1600 
 11 C        2.2180    -4.1170    -0.9060 C.ar  1 <1>   0.1600 
 12 N        1.6040    -4.1460     1.3980 N.ar  1 <1>  -0.6200 
 13 N        5.0050     1.3590    -0.0750 N.4   1 <1>  -0.9590 
 14 C        4.2760     2.6110    -0.4120 C.3   1 <1>   0.3430 
 15 C        1.7560    -4.7580     0.2400 C.ar  1 <1>   0.1670 
 16 C        6.2760     1.5750     0.6740 C.3   1 <1>   0.3430 
 17 C        1.3950    -6.2290     0.2150 C.3   1 <1>  -0.0970 
 18 C        7.3430     2.2570    -0.1880 C.3   1 <1>  -0.1600 
 19 C        8.6100     2.5730     0.6240 C.3   1 <1>   0.1000 
 20 C        9.5890     3.3950    -0.2010 C.2   1 <1>  -0.0400 
 21 C        9.3070     1.2990     1.1220 C.3   1 <1>  -0.2400 
 22 O       10.5630     4.0090     0.4420 O.3   1 <1>  -0.2800 
 23 C        9.6760     3.6460    -1.5270 C.2   1 <1>  -0.1500 
 24 C       11.2880     4.6590    -0.4440 C.2   1 <1>  -0.0400 
 25 C       10.7920     4.4760    -1.6850 C.2   1 <1>  -0.1500 
 26 C       12.4810     5.4520     0.0390 C.3   1 <1>  -0.0600 
 27 H        3.5050     0.6640    -2.6280 H     1 <1>   0.0800 
 28 H        3.8130    -0.9850    -2.2090 H     1 <1>   0.0800 
 29 H        1.0600     1.2640    -0.1410 H     1 <1>   0.0800 
 30 H        1.7340     1.7300    -1.6700 H     1 <1>   0.0800 
 31 H        1.8330    -2.3030     2.2510 H     1 <1>   0.1500 
 32 H        5.7340     0.8510    -2.0170 H     1 <1>   0.0800 
 33 H        5.6290    -0.4820    -0.9050 H     1 <1>   0.0800 
 34 H        2.7870     2.3150     1.0990 H     1 <1>   0.0800 
 35 H        2.3330     3.4300    -0.1290 H     1 <1>   0.0800 
 36 H        2.3140    -4.6910    -1.8120 H     1 <1>   0.1500 
 37 H        4.3510     0.8600     0.5720 H     1 <1>   0.4500 
 38 H        4.7260     3.4440     0.1060 H     1 <1>   0.0800 
 39 H        4.3280     2.8040    -1.4710 H     1 <1>   0.0800 
 40 H        6.6500     0.6240     1.0200 H     1 <1>   0.0800 
 41 H        6.0770     2.1830     1.5420 H     1 <1>   0.0800 
 42 H        1.5460    -6.6530    -0.7600 H     1 <1>   0.0800 
 43 H        0.3640    -6.3510     0.4920 H     1 <1>   0.0800 
 44 H        2.0050    -6.7600     0.9240 H     1 <1>   0.0800 
 45 H        6.9590     3.1840    -0.5730 H     1 <1>   0.0800 
 46 H        7.6150     1.6240    -1.0140 H     1 <1>   0.0800 
 47 H        8.3360     3.1730     1.4760 H     1 <1>   0.0800 
 48 H        9.5900     0.6750     0.2920 H     1 <1>   0.0800 
 49 H        8.6820     0.7380     1.7920 H     1 <1>   0.0800 
 50 H       10.2030     1.5660     1.6550 H     1 <1>   0.0800 
 51 H        9.0530     3.3060    -2.3330 H     1 <1>   0.1500 
 52 H       11.1540     4.8690    -2.6190 H     1 <1>   0.1500 
 53 H       13.1740     4.7970     0.5330 H     1 <1>   0.0800 
 54 H       12.1570     6.2060     0.7320 H     1 <1>   0.0800 
 55 H       12.9740     5.9250    -0.7900 H     1 <1>   0.0800 
@<TRIPOS>BOND
  1   1   2  2   
  2   2   3  am  
  3   2   4  1   
  4   3   5  1   
  5   3   6  1   
  6   4   7  ar  
  7   4   8  ar  
  8   5   9  1   
  9   5  27  1   
 10   5  28  1   
 11   6  10  1   
 12   6  29  1   
 13   6  30  1   
 14   7  11  ar  
 15   8  12  ar  
 16   8  31  1   
 17   9  13  1   
 18   9  32  1   
 19   9  33  1   
 20  10  14  1   
 21  10  34  1   
 22  10  35  1   
 23  11  15  ar  
 24  11  36  1   
 25  12  15  ar  
 26  13  14  1   
 27  13  16  1   
 28  13  37  1   
 29  14  38  1   
 30  14  39  1   
 31  15  17  1   
 32  16  18  1   
 33  16  40  1   
 34  16  41  1   
 35  17  42  1   
 36  17  43  1   
 37  17  44  1   
 38  18  19  1   
 39  18  45  1   
 40  18  46  1   
 41  19  20  1   
 42  19  21  1   
 43  19  47  1   
 44  20  22  1   
 45  20  23  2   
 46  21  48  1   
 47  21  49  1   
 48  21  50  1   
 49  22  24  1   
 50  23  25  1   
 51  23  51  1   
 52  24  25  2   
 53  24  26  1   
 54  25  52  1   
 55  26  53  1   
 56  26  54  1   
 57  26  55  1   
@<TRIPOS>SUBSTRUCTURE
  1 ****  13 GROUP 4 **** **** 0

# MOE 2024.06 (io_trps.svl 2023.06)
