@<TRIPOS>MOLECULE
NONAME
50 52 1 0 0 
SMALL
USER_CHARGES


@<TRIPOS>ATOM
  1 S       -0.1940    -0.1760    -1.1660 S.o2  1 <1>   1.4470 
  2 O        0.6060    -1.1400    -1.8790 O.2   1 <1>  -0.6500 
  3 O        0.4560     0.8350    -0.3690 O.2   1 <1>  -0.6500 
  4 N       -0.8710     0.6790    -2.4120 N.am  1 <1>  -0.9780 
  5 C       -1.6050    -0.9650    -0.3180 C.ar  1 <1>  -0.0090 
  6 C       -2.5100    -0.2790     0.5020 C.ar  1 <1>  -0.1430 
  7 C       -1.8000    -2.3270    -0.5090 C.ar  1 <1>  -0.1500 
  8 C       -3.5550    -0.9690     1.1170 C.ar  1 <1>  -0.1430 
  9 C       -2.3390     1.2280     0.7190 C.3   1 <1>  -0.0970 
 10 C       -2.8360    -3.0410     0.0820 C.ar  1 <1>   0.0860 
 11 C       -3.7070    -2.3260     0.8970 C.ar  1 <1>  -0.1500 
 12 C       -4.5600    -0.2870     2.0390 C.3   1 <1>  -0.0970 
 13 C       -2.9910    -4.4660    -0.1550 C.2   1 <1>   0.5440 
 14 O       -2.5940    -4.9720    -1.1860 O.2   1 <1>  -0.5700 
 15 N       -3.5840    -5.2730     0.7710 N.am  1 <1>  -0.7300 
 16 C       -3.8110    -6.7260     0.6080 C.3   1 <1>   0.2200 
 17 C       -5.2490    -6.9560     0.1760 C.3   1 <1>  -0.0800 
 18 C       -3.7860    -7.4060     1.9720 C.3   1 <1>   0.1200 
 19 C       -5.9990    -6.9680     1.5140 C.3   1 <1>   0.1200 
 20 C       -5.4010    -8.2820    -0.5940 C.3   1 <1>  -0.0160 
 21 O       -5.0550    -7.2100     2.5180 O.3   1 <1>  -0.5600 
 22 C       -6.8340    -8.4920    -1.0590 C.ar  1 <1>  -0.1430 
 23 C       -7.6770    -9.4030    -0.4560 C.ar  1 <1>  -0.1500 
 24 C       -7.3630    -7.7760    -2.1130 C.ar  1 <1>  -0.1500 
 25 C       -8.9740    -9.5460    -0.9210 C.ar  1 <1>   0.1600 
 26 C       -8.6750    -7.9960    -2.5000 C.ar  1 <1>   0.1600 
 27 N       -9.4940    -8.8630    -1.9270 N.ar  1 <1>  -0.6200 
 28 H       -0.7410     0.0660    -3.2120 H     1 <1>   0.4200 
 29 H       -0.2200     1.4470    -2.5450 H     1 <1>   0.4200 
 30 H       -1.1200    -2.8700    -1.1440 H     1 <1>   0.1500 
 31 H       -3.2100     1.6940     1.1350 H     1 <1>   0.0800 
 32 H       -2.1450     1.7270    -0.2130 H     1 <1>   0.0800 
 33 H       -1.5140     1.4090     1.3850 H     1 <1>   0.0800 
 34 H       -4.5250    -2.8470     1.3600 H     1 <1>   0.1500 
 35 H       -5.2190    -1.0020     2.4990 H     1 <1>   0.0800 
 36 H       -5.1600     0.4080     1.4800 H     1 <1>   0.0800 
 37 H       -4.0470     0.2390     2.8230 H     1 <1>   0.0800 
 38 H       -3.9140    -4.8940     1.6600 H     1 <1>   0.3700 
 39 H       -3.0870    -7.1460    -0.0710 H     1 <1>   0.0800 
 40 H       -5.5960    -6.1550    -0.4530 H     1 <1>   0.0800 
 41 H       -3.0400    -6.9960     2.6280 H     1 <1>   0.0800 
 42 H       -3.6350    -8.4660     1.8660 H     1 <1>   0.0800 
 43 H       -6.7610    -7.7260     1.5630 H     1 <1>   0.0800 
 44 H       -6.4420    -6.0070     1.7100 H     1 <1>   0.0800 
 45 H       -5.0950    -9.1100     0.0220 H     1 <1>   0.0800 
 46 H       -4.7600    -8.2650    -1.4590 H     1 <1>   0.0800 
 47 H       -7.3410   -10.0030     0.3700 H     1 <1>   0.1500 
 48 H       -6.7690    -7.0500    -2.6380 H     1 <1>   0.1500 
 49 H       -9.6190   -10.2610    -0.4380 H     1 <1>   0.1500 
 50 H       -9.0710    -7.4280    -3.3250 H     1 <1>   0.1500 
@<TRIPOS>BOND
  1   1   2  2   
  2   1   3  2   
  3   1   4  am  
  4   1   5  1   
  5   4  28  1   
  6   4  29  1   
  7   5   6  ar  
  8   5   7  ar  
  9   6   8  ar  
 10   6   9  1   
 11   7  10  ar  
 12   7  30  1   
 13   8  11  ar  
 14   8  12  1   
 15   9  31  1   
 16   9  32  1   
 17   9  33  1   
 18  10  11  ar  
 19  10  13  1   
 20  11  34  1   
 21  12  35  1   
 22  12  36  1   
 23  12  37  1   
 24  13  14  2   
 25  13  15  am  
 26  15  16  1   
 27  15  38  1   
 28  16  17  1   
 29  16  18  1   
 30  16  39  1   
 31  17  19  1   
 32  17  20  1   
 33  17  40  1   
 34  18  21  1   
 35  18  41  1   
 36  18  42  1   
 37  19  21  1   
 38  19  43  1   
 39  19  44  1   
 40  20  22  1   
 41  20  45  1   
 42  20  46  1   
 43  22  23  ar  
 44  22  24  ar  
 45  23  25  ar  
 46  23  47  1   
 47  24  26  ar  
 48  24  48  1   
 49  25  27  ar  
 50  25  49  1   
 51  26  27  ar  
 52  26  50  1   
@<TRIPOS>SUBSTRUCTURE
  1 ****  13 GROUP 4 **** **** 0

# MOE 2024.06 (io_trps.svl 2023.06)
