@<TRIPOS>MOLECULE
NONAME
51 54 1 0 0 
SMALL
USER_CHARGES


@<TRIPOS>ATOM
  1 O       -3.6960    -4.0830     2.0270 O.2   1 <1>  -0.5700 
  2 C       -2.5520    -3.9500     1.6420 C.2   1 <1>   0.6900 
  3 N       -2.1450    -2.8280     0.9480 N.am  1 <1>  -0.4770 
  4 N       -1.6670    -4.9530     1.8590 N.am  1 <1>  -0.4900 
  5 C       -3.0190    -1.8440     0.4620 C.ar  1 <1>   0.1170 
  6 C       -0.6930    -2.6110     0.7120 C.3   1 <1>   0.1400 
  7 C       -0.4310    -5.0250     1.3190 C.2   1 <1>   0.5690 
  8 C       -3.8280    -2.0470    -0.6710 C.ar  1 <1>   0.0860 
  9 C       -3.0490    -0.6120     1.1100 C.ar  1 <1>  -0.1500 
 10 C       -0.0030    -3.9320     0.3650 C.3   1 <1>  -0.0990 
 11 O        0.3150    -5.9340     1.5640 O.2   1 <1>  -0.5700 
 12 C       -3.8850    -3.3090    -1.3710 C.2   1 <1>   0.5440 
 13 C       -4.6070    -0.9830    -1.1270 C.ar  1 <1>  -0.1500 
 14 C       -3.8390     0.4210     0.6490 C.ar  1 <1>  -0.1500 
 15 O       -3.5390    -3.4020    -2.5330 O.2   1 <1>  -0.5700 
 16 N       -4.3520    -4.4190    -0.7380 N.am  1 <1>  -0.7300 
 17 C       -4.6180     0.2370    -0.4800 C.ar  1 <1>  -0.1500 
 18 C       -4.4010    -5.7880    -1.2960 C.3   1 <1>   0.2200 
 19 C       -5.4350    -6.6290    -0.5610 C.3   1 <1>  -0.0800 
 20 C       -3.1230    -6.5330    -0.9310 C.3   1 <1>   0.1200 
 21 C       -4.6650    -7.1170     0.6710 C.3   1 <1>   0.1200 
 22 C       -6.7650    -5.9260    -0.2310 C.3   1 <1>  -0.0170 
 23 O       -3.3030    -6.9870     0.3790 O.3   1 <1>  -0.5600 
 24 C       -7.7150    -6.8720     0.4850 C.ar  1 <1>  -0.1430 
 25 C       -7.8830    -6.8360     1.8550 C.ar  1 <1>  -0.1500 
 26 C       -8.4570    -7.8150    -0.1960 C.ar  1 <1>  -0.1500 
 27 C       -8.7560    -7.7250     2.4600 C.ar  1 <1>   0.1600 
 28 C       -9.3030    -8.6580     0.5060 C.ar  1 <1>   0.1600 
 29 N       -9.4690    -8.6360     1.8180 N.ar  1 <1>  -0.6200 
 30 H       -2.0370    -5.7990     2.2830 H     1 <1>   0.3700 
 31 H       -0.5520    -1.9050    -0.0900 H     1 <1>   0.0800 
 32 H       -0.2590    -2.1990     1.6080 H     1 <1>   0.0800 
 33 H       -2.4450    -0.4660     1.9870 H     1 <1>   0.1500 
 34 H        1.0640    -3.8110     0.4090 H     1 <1>   0.0800 
 35 H       -0.2660    -4.2240    -0.6350 H     1 <1>   0.0800 
 36 H       -5.2120    -1.1260    -2.0060 H     1 <1>   0.1500 
 37 H       -3.8500     1.3680     1.1610 H     1 <1>   0.1500 
 38 H       -4.4280    -4.3800     0.2890 H     1 <1>   0.3700 
 39 H       -5.2310     1.0420    -0.8490 H     1 <1>   0.1500 
 40 H       -4.5620    -5.7540    -2.3610 H     1 <1>   0.0800 
 41 H       -5.6490    -7.4920    -1.1670 H     1 <1>   0.0800 
 42 H       -2.2500    -5.9080    -0.9870 H     1 <1>   0.0800 
 43 H       -2.9950    -7.3950    -1.5620 H     1 <1>   0.0800 
 44 H       -4.8810    -8.1470     0.8980 H     1 <1>   0.0800 
 45 H       -4.8700    -6.5040     1.5310 H     1 <1>   0.0800 
 46 H       -7.2230    -5.5800    -1.1410 H     1 <1>   0.0800 
 47 H       -6.5950    -5.0650     0.3920 H     1 <1>   0.0800 
 48 H       -7.3450    -6.1270     2.4580 H     1 <1>   0.1500 
 49 H       -8.3850    -7.9030    -1.2650 H     1 <1>   0.1500 
 50 H       -8.8750    -7.6830     3.5300 H     1 <1>   0.1500 
 51 H       -9.8740    -9.3880    -0.0410 H     1 <1>   0.1500 
@<TRIPOS>BOND
  1   1   2  2   
  2   2   3  am  
  3   2   4  am  
  4   3   5  1   
  5   3   6  1   
  6   4   7  am  
  7   4  30  1   
  8   5   8  ar  
  9   5   9  ar  
 10   6  10  1   
 11   6  31  1   
 12   6  32  1   
 13   7  10  1   
 14   7  11  2   
 15   8  12  1   
 16   8  13  ar  
 17   9  14  ar  
 18   9  33  1   
 19  10  34  1   
 20  10  35  1   
 21  12  15  2   
 22  12  16  am  
 23  13  17  ar  
 24  13  36  1   
 25  14  17  ar  
 26  14  37  1   
 27  16  18  1   
 28  16  38  1   
 29  17  39  1   
 30  18  19  1   
 31  18  20  1   
 32  18  40  1   
 33  19  21  1   
 34  19  22  1   
 35  19  41  1   
 36  20  23  1   
 37  20  42  1   
 38  20  43  1   
 39  21  23  1   
 40  21  44  1   
 41  21  45  1   
 42  22  24  1   
 43  22  46  1   
 44  22  47  1   
 45  24  25  ar  
 46  24  26  ar  
 47  25  27  ar  
 48  25  48  1   
 49  26  28  ar  
 50  26  49  1   
 51  27  29  ar  
 52  27  50  1   
 53  28  29  ar  
 54  28  51  1   
@<TRIPOS>SUBSTRUCTURE
  1 ****  16 GROUP 4 **** **** 0

# MOE 2024.06 (io_trps.svl 2023.06)
