@<TRIPOS>MOLECULE
NONAME
41 43 1 0 0 
SMALL
USER_CHARGES


@<TRIPOS>ATOM
  1 O        1.8330     0.4670     2.1880 O.3   1 <1>  -0.6800 
  2 C        1.6160    -0.1040     0.9370 C.3   1 <1>   0.2000 
  3 C        2.3360    -1.4500     0.8990 C.3   1 <1>  -0.0800 
  4 C        2.3710     0.7200    -0.1090 C.3   1 <1>   0.3430 
  5 C        3.8010    -1.0800     0.6200 C.3   1 <1>   0.3430 
  6 C        1.7670    -2.3730    -0.1970 C.3   1 <1>  -0.0160 
  7 N        3.7930     0.2800     0.0040 N.4   1 <1>  -0.9590 
  8 C        2.6020    -3.6370    -0.3280 C.ar  1 <1>  -0.1430 
  9 C        4.5690     1.2740     0.7930 C.3   1 <1>   0.5230 
 10 C        3.3940    -3.8810    -1.4330 C.ar  1 <1>  -0.1500 
 11 C        2.6130    -4.6070     0.6550 C.ar  1 <1>  -0.1500 
 12 C        4.9100     2.4300    -0.1380 C.2   1 <1>   0.0070 
 13 C        4.1490    -5.0410    -1.4920 C.ar  1 <1>   0.1600 
 14 C        3.4050    -5.7320     0.4980 C.ar  1 <1>   0.1600 
 15 N        5.2980     3.6490     0.3040 N.pl3 1 <1>   0.0330 
 16 N        4.8580     2.3410    -1.4330 N.2   1 <1>  -0.5650 
 17 N        4.1790    -5.9650    -0.5480 N.ar  1 <1>  -0.6200 
 18 C        5.5020     4.3760    -0.8080 C.2   1 <1>  -0.3320 
 19 C        5.2320     3.5650    -1.8540 C.2   1 <1>   0.0770 
 20 C        5.9540     5.8260    -0.7950 C.3   1 <1>  -0.0600 
 21 H        1.2150     0.0990     2.8560 H     1 <1>   0.4000 
 22 H        0.5560    -0.1530     0.7500 H     1 <1>   0.0800 
 23 H        2.2570    -1.9600     1.8440 H     1 <1>   0.0800 
 24 H        2.2540     1.7790     0.0570 H     1 <1>   0.0800 
 25 H        2.0010     0.4770    -1.0900 H     1 <1>   0.0800 
 26 H        4.2680    -1.7990    -0.0330 H     1 <1>   0.0800 
 27 H        4.3430    -1.0570     1.5510 H     1 <1>   0.0800 
 28 H        1.7380    -1.8670    -1.1460 H     1 <1>   0.0800 
 29 H        0.7560    -2.6510     0.0510 H     1 <1>   0.0800 
 30 H        4.2290     0.3300    -0.9340 H     1 <1>   0.4500 
 31 H        3.9920     1.6160     1.6360 H     1 <1>   0.0800 
 32 H        5.4850     0.8310     1.1470 H     1 <1>   0.0800 
 33 H        3.4340    -3.1900    -2.2560 H     1 <1>   0.1500 
 34 H        2.0130    -4.5080     1.5410 H     1 <1>   0.1500 
 35 H        4.7600    -5.2190    -2.3610 H     1 <1>   0.1500 
 36 H        3.4020    -6.4810     1.2730 H     1 <1>   0.1500 
 37 H        5.4200     3.9750     1.2690 H     1 <1>   0.2700 
 38 H        5.2890     3.8050    -2.9040 H     1 <1>   0.1500 
 39 H        6.0480     6.1930    -1.8010 H     1 <1>   0.0800 
 40 H        6.9100     5.9160    -0.3090 H     1 <1>   0.0800 
 41 H        5.2380     6.4370    -0.2750 H     1 <1>   0.0800 
@<TRIPOS>BOND
  1   1   2  1   
  2   1  21  1   
  3   2   3  1   
  4   2   4  1   
  5   2  22  1   
  6   3   5  1   
  7   3   6  1   
  8   3  23  1   
  9   4   7  1   
 10   4  24  1   
 11   4  25  1   
 12   5   7  1   
 13   5  26  1   
 14   5  27  1   
 15   6   8  1   
 16   6  28  1   
 17   6  29  1   
 18   7   9  1   
 19   7  30  1   
 20   8  10  ar  
 21   8  11  ar  
 22   9  12  1   
 23   9  31  1   
 24   9  32  1   
 25  10  13  ar  
 26  10  33  1   
 27  11  14  ar  
 28  11  34  1   
 29  12  15  1   
 30  12  16  2   
 31  13  17  ar  
 32  13  35  1   
 33  14  17  ar  
 34  14  36  1   
 35  15  18  1   
 36  15  37  1   
 37  16  19  1   
 38  18  19  2   
 39  18  20  1   
 40  19  38  1   
 41  20  39  1   
 42  20  40  1   
 43  20  41  1   
@<TRIPOS>SUBSTRUCTURE
  1 ****   7 GROUP 4 **** **** 0

# MOE 2024.06 (io_trps.svl 2023.06)
