@<TRIPOS>MOLECULE
NONAME
56 59 1 0 0 
SMALL
USER_CHARGES


@<TRIPOS>ATOM
  1 O        0.8230    -0.0630    -0.3050 O.2   1 <1>  -0.5700 
  2 C        1.6170    -0.8100    -0.8440 C.2   1 <1>   0.5440 
  3 N        2.8870    -0.3310    -1.0680 N.am  1 <1>  -0.6600 
  4 C        1.2510    -2.1770    -1.1610 C.ar  1 <1>   0.0860 
  5 C        3.0940     1.1450    -1.1520 C.3   1 <1>   0.1400 
  6 C        4.0500    -1.0510    -0.4750 C.3   1 <1>   0.1400 
  7 C        0.3570    -2.8940    -0.3900 C.ar  1 <1>  -0.1500 
  8 C        1.7760    -2.8680    -2.2460 C.ar  1 <1>  -0.1500 
  9 C        3.3670     1.7100     0.2540 C.3   1 <1>   0.3430 
 10 C        4.3610    -0.4810     0.9270 C.3   1 <1>   0.3430 
 11 C        0.0420    -4.2130    -0.6880 C.ar  1 <1>   0.4100 
 12 C        1.4090    -4.1790    -2.4710 C.ar  1 <1>   0.1600 
 13 N        4.5360     1.0200     0.9210 N.4   1 <1>  -0.9590 
 14 N        0.5690    -4.8630    -1.7180 N.ar  1 <1>  -0.6200 
 15 N       -0.8540    -4.8920     0.1180 N.pl3 1 <1>  -0.8380 
 16 C        4.7220     1.5360     2.3100 C.3   1 <1>   0.2630 
 17 C       -2.2040    -4.3030     0.3370 C.3   1 <1>   0.2090 
 18 C       -0.9690    -6.3770     0.0480 C.3   1 <1>   0.2090 
 19 C       -3.1790    -5.4810     0.3090 C.3   1 <1>   0.2000 
 20 C       -2.3370    -6.7080     0.6400 C.3   1 <1>  -0.0800 
 21 O       -4.1990    -5.3400     1.2400 O.3   1 <1>  -0.6800 
 22 C       -2.9410    -8.0140     0.1020 C.3   1 <1>   0.0200 
 23 C       -2.0230    -9.1900     0.3710 C.2   1 <1>  -0.0400 
 24 O       -1.7570    -9.5450     1.5990 O.3   1 <1>  -0.0190 
 25 C       -1.3590   -10.0160    -0.4510 C.2   1 <1>  -0.1500 
 26 N       -0.9470   -10.5630     1.6440 N.2   1 <1>  -0.4100 
 27 C       -0.6900   -10.8690     0.4220 C.2   1 <1>   0.1080 
 28 C        0.2180   -12.0020     0.0020 C.3   1 <1>  -0.0590 
 29 H        3.9160     1.3620    -1.8110 H     1 <1>   0.0800 
 30 H        2.2130     1.6130    -1.5600 H     1 <1>   0.0800 
 31 H        3.8320    -2.1020    -0.3880 H     1 <1>   0.0800 
 32 H        4.9060    -0.9450    -1.1180 H     1 <1>   0.0800 
 33 H       -0.1030    -2.4330     0.4620 H     1 <1>   0.1500 
 34 H        2.4640    -2.3820    -2.9130 H     1 <1>   0.1500 
 35 H        2.4760     1.5710     0.8460 H     1 <1>   0.0800 
 36 H        3.5550     2.7680     0.1810 H     1 <1>   0.0800 
 37 H        5.2510    -0.9520     1.3110 H     1 <1>   0.0800 
 38 H        3.5440    -0.7410     1.5810 H     1 <1>   0.0800 
 39 H        1.8280    -4.6970    -3.3180 H     1 <1>   0.1500 
 40 H        5.3780     1.2360     0.3690 H     1 <1>   0.4500 
 41 H        3.8480     1.3260     2.9070 H     1 <1>   0.0800 
 42 H        4.8800     2.6030     2.2960 H     1 <1>   0.0800 
 43 H        5.5760     1.0700     2.7730 H     1 <1>   0.0800 
 44 H       -2.2210    -3.8160     1.2960 H     1 <1>   0.0800 
 45 H       -2.4430    -3.5970    -0.4400 H     1 <1>   0.0800 
 46 H       -0.9240    -6.7040    -0.9780 H     1 <1>   0.0800 
 47 H       -0.1750    -6.8460     0.6040 H     1 <1>   0.0800 
 48 H       -3.6190    -5.5590    -0.6700 H     1 <1>   0.0800 
 49 H       -2.2090    -6.7820     1.7060 H     1 <1>   0.0800 
 50 H       -3.8290    -5.3230     2.1440 H     1 <1>   0.4000 
 51 H       -3.1070    -7.9310    -0.9580 H     1 <1>   0.0800 
 52 H       -3.8900    -8.1940     0.5750 H     1 <1>   0.0800 
 53 H       -1.3230   -10.0420    -1.5240 H     1 <1>   0.1500 
 54 H       -0.3310   -12.7100    -0.5900 H     1 <1>   0.0800 
 55 H        0.6070   -12.5020     0.8710 H     1 <1>   0.0800 
 56 H        1.0390   -11.6160    -0.5740 H     1 <1>   0.0800 
@<TRIPOS>BOND
  1   1   2  2   
  2   2   3  am  
  3   2   4  1   
  4   3   5  1   
  5   3   6  1   
  6   4   7  ar  
  7   4   8  ar  
  8   5   9  1   
  9   5  29  1   
 10   5  30  1   
 11   6  10  1   
 12   6  31  1   
 13   6  32  1   
 14   7  11  ar  
 15   7  33  1   
 16   8  12  ar  
 17   8  34  1   
 18   9  13  1   
 19   9  35  1   
 20   9  36  1   
 21  10  13  1   
 22  10  37  1   
 23  10  38  1   
 24  11  14  ar  
 25  11  15  1   
 26  12  14  ar  
 27  12  39  1   
 28  13  16  1   
 29  13  40  1   
 30  15  17  1   
 31  15  18  1   
 32  16  41  1   
 33  16  42  1   
 34  16  43  1   
 35  17  19  1   
 36  17  44  1   
 37  17  45  1   
 38  18  20  1   
 39  18  46  1   
 40  18  47  1   
 41  19  20  1   
 42  19  21  1   
 43  19  48  1   
 44  20  22  1   
 45  20  49  1   
 46  21  50  1   
 47  22  23  1   
 48  22  51  1   
 49  22  52  1   
 50  23  24  1   
 51  23  25  2   
 52  24  26  1   
 53  25  27  1   
 54  25  53  1   
 55  26  27  2   
 56  27  28  1   
 57  28  54  1   
 58  28  55  1   
 59  28  56  1   
@<TRIPOS>SUBSTRUCTURE
  1 ****  11 GROUP 4 **** **** 0

# MOE 2024.06 (io_trps.svl 2023.06)
