@<TRIPOS>MOLECULE
NONAME
50 53 1 0 0 
SMALL
USER_CHARGES


@<TRIPOS>ATOM
  1 O        2.0280    -0.1220    -2.6770 O.2   1 <1>  -0.5700 
  2 C        2.0440     0.0960    -1.4790 C.2   1 <1>   0.5440 
  3 N        1.3160     1.1590    -0.9970 N.am  1 <1>  -0.6600 
  4 C        2.8420    -0.7410    -0.6200 C.ar  1 <1>   0.0860 
  5 C        0.4640     2.0120    -1.8490 C.3   1 <1>   0.1400 
  6 C        1.2090     1.5420     0.4270 C.3   1 <1>   0.1400 
  7 C        2.2780    -1.6180     0.3310 C.ar  1 <1>   0.4100 
  8 C        4.2250    -0.6850    -0.7190 C.ar  1 <1>  -0.1500 
  9 C       -0.3700     2.8290    -0.8670 C.3   1 <1>  -0.1600 
 10 C        0.4680     2.8730     0.4090 C.3   1 <1>  -0.1600 
 11 N        3.0160    -2.3480     1.1710 N.ar  1 <1>  -0.6200 
 12 N        0.9090    -1.7930     0.4630 N.pl3 1 <1>  -0.8380 
 13 C        4.9750    -1.4580     0.1360 C.ar  1 <1>  -0.1500 
 14 C        4.3240    -2.2580     1.0560 C.ar  1 <1>   0.1600 
 15 C        0.0620    -2.1240    -0.7360 C.3   1 <1>   0.3900 
 16 C        0.3010    -2.1430     1.7790 C.3   1 <1>   0.1290 
 17 C       -0.6640    -3.4640    -0.6110 C.2   1 <1>   0.1080 
 18 N       -1.9620    -3.5890    -0.5840 N.2   1 <1>  -0.7070 
 19 C       -0.0290    -4.7000    -0.5160 C.2   1 <1>  -0.1810 
 20 N       -2.1780    -4.9160    -0.4740 N.pl3 1 <1>   0.3000 
 21 C       -1.0210    -5.6030    -0.4280 C.2   1 <1>  -0.3320 
 22 C        1.4460    -5.0520    -0.4910 C.3   1 <1>   0.0210 
 23 C       -0.8310    -7.1030    -0.3100 C.3   1 <1>   0.0200 
 24 C        1.6310    -6.5570    -0.7610 C.3   1 <1>  -0.1600 
 25 C        0.6350    -7.4140     0.0490 C.3   1 <1>  -0.1600 
 26 H       -0.1530     1.4120    -2.4970 H     1 <1>   0.0800 
 27 H        1.0940     2.6530    -2.4420 H     1 <1>   0.0800 
 28 H        2.1820     1.6310     0.8810 H     1 <1>   0.0800 
 29 H        0.6290     0.8010     0.9500 H     1 <1>   0.0800 
 30 H        4.6880    -0.0450    -1.4500 H     1 <1>   0.1500 
 31 H       -1.2930     2.3080    -0.6800 H     1 <1>   0.0800 
 32 H       -0.5910     3.8090    -1.2500 H     1 <1>   0.0800 
 33 H        1.1870     3.6720     0.3470 H     1 <1>   0.0800 
 34 H       -0.1330     3.0080     1.2910 H     1 <1>   0.0800 
 35 H        6.0490    -1.4430     0.0940 H     1 <1>   0.1500 
 36 H        4.9150    -2.8560     1.7300 H     1 <1>   0.1500 
 37 H        0.6720    -2.1660    -1.6200 H     1 <1>   0.0800 
 38 H       -0.6660    -1.3450    -0.8740 H     1 <1>   0.0800 
 39 H        0.8370    -1.6570     2.5750 H     1 <1>   0.0800 
 40 H        0.3460    -3.2080     1.9310 H     1 <1>   0.0800 
 41 H       -0.7280    -1.8280     1.8060 H     1 <1>   0.0800 
 42 H       -3.1220    -5.3160    -0.4340 H     1 <1>   0.2700 
 43 H        1.8390    -4.8050     0.4800 H     1 <1>   0.0800 
 44 H        1.9790    -4.4740    -1.2250 H     1 <1>   0.0800 
 45 H       -1.0770    -7.5600    -1.2520 H     1 <1>   0.0800 
 46 H       -1.4810    -7.5050     0.4470 H     1 <1>   0.0800 
 47 H        2.6400    -6.8390    -0.5190 H     1 <1>   0.0800 
 48 H        1.4770    -6.7420    -1.8100 H     1 <1>   0.0800 
 49 H        0.8300    -8.4590    -0.1180 H     1 <1>   0.0800 
 50 H        0.7840    -7.2140     1.0960 H     1 <1>   0.0800 
@<TRIPOS>BOND
  1   1   2  2   
  2   2   3  am  
  3   2   4  1   
  4   3   5  1   
  5   3   6  1   
  6   4   7  ar  
  7   4   8  ar  
  8   5   9  1   
  9   5  26  1   
 10   5  27  1   
 11   6  10  1   
 12   6  28  1   
 13   6  29  1   
 14   7  11  ar  
 15   7  12  1   
 16   8  13  ar  
 17   8  30  1   
 18   9  10  1   
 19   9  31  1   
 20   9  32  1   
 21  10  33  1   
 22  10  34  1   
 23  11  14  ar  
 24  12  15  1   
 25  12  16  1   
 26  13  14  ar  
 27  13  35  1   
 28  14  36  1   
 29  15  17  1   
 30  15  37  1   
 31  15  38  1   
 32  16  39  1   
 33  16  40  1   
 34  16  41  1   
 35  17  18  2   
 36  17  19  1   
 37  18  20  1   
 38  19  21  2   
 39  19  22  1   
 40  20  21  1   
 41  20  42  1   
 42  21  23  1   
 43  22  24  1   
 44  22  43  1   
 45  22  44  1   
 46  23  25  1   
 47  23  45  1   
 48  23  46  1   
 49  24  25  1   
 50  24  47  1   
 51  24  48  1   
 52  25  49  1   
 53  25  50  1   
@<TRIPOS>SUBSTRUCTURE
  1 ****  12 GROUP 4 **** **** 0

# MOE 2024.06 (io_trps.svl 2023.06)
