@<TRIPOS>MOLECULE
NONAME
61 64 1 0 0 
SMALL
USER_CHARGES


@<TRIPOS>ATOM
  1 O       -2.7460     2.0720    -2.3130 O.2   1 <1>  -0.5700 
  2 C       -2.9320     1.7310    -1.1690 C.2   1 <1>   0.5690 
  3 N       -4.0060     0.9490    -0.8180 N.am  1 <1>  -0.6600 
  4 C       -1.9210     2.2310    -0.1290 C.3   1 <1>  -0.0190 
  5 C       -4.4550     0.6080     0.5630 C.3   1 <1>   0.1400 
  6 C       -4.8950     0.3590    -1.8620 C.3   1 <1>   0.1400 
  7 C       -2.3380     3.6190     0.3940 C.3   1 <1>  -0.1600 
  8 C       -0.4870     2.2960    -0.7010 C.3   1 <1>  -0.1600 
  9 C       -4.4230    -0.9120     0.7370 C.3   1 <1>  -0.1600 
 10 C       -4.8840    -1.1660    -1.7260 C.3   1 <1>  -0.1600 
 11 C       -1.3050     4.2150     1.3490 C.3   1 <1>   0.3430 
 12 C        0.5000     2.9050     0.2900 C.3   1 <1>   0.3430 
 13 C       -5.2930    -1.6200    -0.3130 C.3   1 <1>   0.4240 
 14 N        0.0280     4.2630     0.6820 N.4   1 <1>  -0.9590 
 15 O       -6.6030    -1.1640    -0.0680 O.3   1 <1>  -0.5600 
 16 C       -5.1820    -3.1520    -0.1590 C.ar  1 <1>  -0.1440 
 17 C        1.0360     4.9570     1.5380 C.3   1 <1>   0.2630 
 18 C       -7.6550    -1.9470    -0.5410 C.3   1 <1>   0.1200 
 19 C       -6.3000    -3.9350     0.0940 C.ar  1 <1>  -0.1440 
 20 C       -3.9510    -3.7840    -0.2750 C.ar  1 <1>  -0.1500 
 21 C       -7.6590    -3.2740     0.2120 C.3   1 <1>  -0.0170 
 22 C       -6.1820    -5.3080     0.2330 C.ar  1 <1>  -0.1500 
 23 C       -3.8110    -5.1540    -0.1340 C.ar  1 <1>   0.0820 
 24 C       -4.9470    -5.9410     0.1160 C.ar  1 <1>   0.0820 
 25 O       -2.5280    -5.6020    -0.2620 O.3   1 <1>  -0.3630 
 26 O       -4.8350    -7.2990     0.2250 O.3   1 <1>  -0.3620 
 27 C       -2.0930    -6.8130     0.3160 C.3   1 <1>   0.0400 
 28 C       -5.9600    -8.1420     0.3480 C.3   1 <1>   0.0400 
 29 H       -1.8930     1.5370     0.6900 H     1 <1>   0.0800 
 30 H       -5.4630     0.9650     0.6980 H     1 <1>   0.0800 
 31 H       -3.8460     1.0760     1.3120 H     1 <1>   0.0800 
 32 H       -4.5660     0.6320    -2.8500 H     1 <1>   0.0800 
 33 H       -5.8950     0.7350    -1.7290 H     1 <1>   0.0800 
 34 H       -3.2830     3.5390     0.9030 H     1 <1>   0.0800 
 35 H       -2.4820     4.2890    -0.4370 H     1 <1>   0.0800 
 36 H       -0.4690     2.8770    -1.6070 H     1 <1>   0.0800 
 37 H       -0.1650     1.3010    -0.9570 H     1 <1>   0.0800 
 38 H       -4.7770    -1.1770     1.7160 H     1 <1>   0.0800 
 39 H       -3.4040    -1.2420     0.6600 H     1 <1>   0.0800 
 40 H       -3.8910    -1.5120    -1.9430 H     1 <1>   0.0800 
 41 H       -5.5340    -1.6050    -2.4580 H     1 <1>   0.0800 
 42 H       -1.2450     3.6110     2.2400 H     1 <1>   0.0800 
 43 H       -1.6130     5.2090     1.6320 H     1 <1>   0.0800 
 44 H        1.4740     2.9700    -0.1710 H     1 <1>   0.0800 
 45 H        0.5770     2.2750     1.1610 H     1 <1>   0.0800 
 46 H       -0.0900     4.8020    -0.1900 H     1 <1>   0.4500 
 47 H        1.1840     4.4160     2.4590 H     1 <1>   0.0800 
 48 H        0.7030     5.9550     1.7740 H     1 <1>   0.0800 
 49 H        1.9810     5.0260     1.0230 H     1 <1>   0.0800 
 50 H       -7.5360    -2.1010    -1.5990 H     1 <1>   0.0800 
 51 H       -8.5700    -1.4100    -0.3640 H     1 <1>   0.0800 
 52 H       -3.0630    -3.2160    -0.4800 H     1 <1>   0.1500 
 53 H       -8.4210    -3.9100    -0.1990 H     1 <1>   0.0800 
 54 H       -7.8870    -3.0960     1.2480 H     1 <1>   0.0800 
 55 H       -7.0730    -5.8710     0.4320 H     1 <1>   0.1500 
 56 H       -1.0190    -6.8110     0.3310 H     1 <1>   0.0800 
 57 H       -2.4460    -7.6310    -0.2870 H     1 <1>   0.0800 
 58 H       -2.4770    -6.8810     1.3180 H     1 <1>   0.0800 
 59 H       -5.6130    -9.1600     0.3610 H     1 <1>   0.0800 
 60 H       -6.6060    -7.9880    -0.4980 H     1 <1>   0.0800 
 61 H       -6.4660    -7.9180     1.2700 H     1 <1>   0.0800 
@<TRIPOS>BOND
  1   1   2  2   
  2   2   3  am  
  3   2   4  1   
  4   3   5  1   
  5   3   6  1   
  6   4   7  1   
  7   4   8  1   
  8   4  29  1   
  9   5   9  1   
 10   5  30  1   
 11   5  31  1   
 12   6  10  1   
 13   6  32  1   
 14   6  33  1   
 15   7  11  1   
 16   7  34  1   
 17   7  35  1   
 18   8  12  1   
 19   8  36  1   
 20   8  37  1   
 21   9  13  1   
 22   9  38  1   
 23   9  39  1   
 24  10  13  1   
 25  10  40  1   
 26  10  41  1   
 27  11  14  1   
 28  11  42  1   
 29  11  43  1   
 30  12  14  1   
 31  12  44  1   
 32  12  45  1   
 33  13  15  1   
 34  13  16  1   
 35  14  17  1   
 36  14  46  1   
 37  15  18  1   
 38  16  19  ar  
 39  16  20  ar  
 40  17  47  1   
 41  17  48  1   
 42  17  49  1   
 43  18  21  1   
 44  18  50  1   
 45  18  51  1   
 46  19  21  1   
 47  19  22  ar  
 48  20  23  ar  
 49  20  52  1   
 50  21  53  1   
 51  21  54  1   
 52  22  24  ar  
 53  22  55  1   
 54  23  24  ar  
 55  23  25  1   
 56  24  26  1   
 57  25  27  1   
 58  26  28  1   
 59  27  56  1   
 60  27  57  1   
 61  27  58  1   
 62  28  59  1   
 63  28  60  1   
 64  28  61  1   
@<TRIPOS>SUBSTRUCTURE
  1 ****   9 GROUP 4 **** **** 0

# MOE 2024.06 (io_trps.svl 2023.06)
