@<TRIPOS>MOLECULE
NONAME
25 26 1 0 0 
SMALL
USER_CHARGES


@<TRIPOS>ATOM
  1 O        4.7690    -2.5030    -0.8030 O.3   1 <1>  -0.5600 
  2 C        6.1340    -2.7650    -0.6980 C.3   1 <1>   0.1200 
  3 C        4.1880    -1.9100     0.3180 C.3   1 <1>   0.1200 
  4 C        6.8890    -1.4410    -0.5600 C.3   1 <1>  -0.1600 
  5 C        4.8050    -0.5260     0.5290 C.3   1 <1>  -0.1600 
  6 C        6.3330    -0.6400     0.6250 C.3   1 <1>   0.1760 
  7 N        6.9690     0.6990     0.7140 N.pl3 1 <1>   0.3140 
  8 N        7.7000     1.0600     1.7880 N.2   1 <1>  -0.7070 
  9 C        6.9110     1.6990    -0.2000 C.2   1 <1>  -0.3020 
 10 C        8.0780     2.2780     1.5340 C.2   1 <1>   0.1390 
 11 C        7.6180     2.7300     0.2970 C.2   1 <1>   0.0830 
 12 N        7.8300     3.9740    -0.3230 N.pl3 1 <1>  -0.8830 
 13 H        6.4390    -3.2840    -1.5910 H     1 <1>   0.0800 
 14 H        6.2990    -3.4060     0.1520 H     1 <1>   0.0800 
 15 H        4.3500    -2.5500     1.1690 H     1 <1>   0.0800 
 16 H        3.1310    -1.8300     0.1360 H     1 <1>   0.0800 
 17 H        6.7760    -0.8880    -1.4760 H     1 <1>   0.0800 
 18 H        7.9350    -1.6390    -0.4070 H     1 <1>   0.0800 
 19 H        4.4160    -0.0930     1.4330 H     1 <1>   0.0800 
 20 H        4.5250     0.1010    -0.2990 H     1 <1>   0.0800 
 21 H        6.5750    -1.1660     1.5310 H     1 <1>   0.0800 
 22 H        6.3780     1.6200    -1.1270 H     1 <1>   0.1500 
 23 H        8.6770     2.8690     2.2030 H     1 <1>   0.1500 
 24 H        8.7960     4.2830    -0.1820 H     1 <1>   0.4000 
 25 H        7.6700     3.8920    -1.3300 H     1 <1>   0.4000 
@<TRIPOS>BOND
  1   1   2  1   
  2   1   3  1   
  3   2   4  1   
  4   2  13  1   
  5   2  14  1   
  6   3   5  1   
  7   3  15  1   
  8   3  16  1   
  9   4   6  1   
 10   4  17  1   
 11   4  18  1   
 12   5   6  1   
 13   5  19  1   
 14   5  20  1   
 15   6   7  1   
 16   6  21  1   
 17   7   8  1   
 18   7   9  1   
 19   8  10  2   
 20   9  11  2   
 21   9  22  1   
 22  10  11  1   
 23  10  23  1   
 24  11  12  1   
 25  12  24  1   
 26  12  25  1   
@<TRIPOS>SUBSTRUCTURE
  1 ****   7 GROUP 4 **** **** 0

# MOE 2024.06 (io_trps.svl 2023.06)
