@<TRIPOS>MOLECULE
NONAME
62 63 1 0 0 
SMALL
USER_CHARGES


@<TRIPOS>ATOM
  1 O        0.4370     0.0130    -0.4880 O.2   1 <1>  -0.5700 
  2 C        1.2280    -0.6180     0.1690 C.2   1 <1>   0.5690 
  3 N        1.0080    -1.8900     0.5870 N.am  1 <1>  -0.7300 
  4 C        2.5320     0.0490     0.5420 C.3   1 <1>  -0.0990 
  5 C       -0.2030    -2.7100     0.3310 C.3   1 <1>   0.2200 
  6 C        2.6200     1.4000    -0.1750 C.3   1 <1>   0.3430 
  7 C       -0.3290    -2.9970    -1.1800 C.3   1 <1>  -0.1600 
  8 C       -1.4320    -2.0180     0.9420 C.3   1 <1>  -0.1600 
  9 N        3.8500     2.1780     0.2020 N.4   1 <1>  -0.9590 
 10 C       -0.3580    -4.4950    -1.5190 C.3   1 <1>  -0.1600 
 11 C       -2.5440    -2.9760     1.4000 C.3   1 <1>  -0.1600 
 12 C        3.6360     3.6240    -0.1910 C.3   1 <1>   0.3430 
 13 C        5.0620     1.5600    -0.4180 C.3   1 <1>   0.3430 
 14 C       -1.7460    -5.1470    -1.4260 C.3   1 <1>  -0.1600 
 15 C       -3.1680    -3.8300     0.2860 C.3   1 <1>  -0.1600 
 16 C        4.7270     4.6210     0.2970 C.3   1 <1>   0.3430 
 17 C        6.1870     1.5420     0.6080 C.3   1 <1>  -0.2400 
 18 C       -2.3940    -5.1250    -0.0320 C.3   1 <1>  -0.1600 
 19 N        4.4180     6.0680     0.0090 N.4   1 <1>  -0.9590 
 20 C        4.3590     6.4410    -1.4340 C.3   1 <1>   0.3430 
 21 C        5.4300     6.9900     0.6000 C.3   1 <1>   0.3430 
 22 C        4.5140     7.9540    -1.4410 C.3   1 <1>  -0.1600 
 23 C        5.2150     8.3090    -0.1280 C.3   1 <1>  -0.1600 
 24 H        1.7120    -2.3790     1.1410 H     1 <1>   0.3700 
 25 H        3.3370    -0.5980     0.2480 H     1 <1>   0.0800 
 26 H        2.5440     0.1880     1.6070 H     1 <1>   0.0800 
 27 H       -0.0590    -3.6400     0.8550 H     1 <1>   0.0800 
 28 H        1.7390     1.9660     0.0870 H     1 <1>   0.0800 
 29 H        2.5900     1.2380    -1.2420 H     1 <1>   0.0800 
 30 H        0.5150    -2.5710    -1.6930 H     1 <1>   0.0800 
 31 H       -1.2020    -2.5200    -1.5880 H     1 <1>   0.0800 
 32 H       -1.8360    -1.3060     0.2430 H     1 <1>   0.0800 
 33 H       -1.1210    -1.4660     1.8120 H     1 <1>   0.0800 
 34 H        3.9400     2.0940     1.2260 H     1 <1>   0.4500 
 35 H        0.3420    -5.0300    -0.9000 H     1 <1>   0.0800 
 36 H       -0.0220    -4.6090    -2.5350 H     1 <1>   0.0800 
 37 H       -3.3270    -2.3710     1.8250 H     1 <1>   0.0800 
 38 H       -2.1810    -3.6100     2.1900 H     1 <1>   0.0800 
 39 H        2.6910     3.9460     0.2150 H     1 <1>   0.0800 
 40 H        3.5700     3.6840    -1.2650 H     1 <1>   0.0800 
 41 H        5.3610     2.1040    -1.3000 H     1 <1>   0.0800 
 42 H        4.8530     0.5440    -0.7150 H     1 <1>   0.0800 
 43 H       -1.6320    -6.1770    -1.7180 H     1 <1>   0.0800 
 44 H       -2.4090    -4.6960    -2.1450 H     1 <1>   0.0800 
 45 H       -3.3200    -3.2340    -0.5980 H     1 <1>   0.0800 
 46 H       -4.1480    -4.1210     0.6250 H     1 <1>   0.0800 
 47 H        5.6650     4.3670    -0.1690 H     1 <1>   0.0800 
 48 H        4.8420     4.5020     1.3630 H     1 <1>   0.0800 
 49 H        6.4780     2.5300     0.9120 H     1 <1>   0.0800 
 50 H        7.0500     1.0700     0.1700 H     1 <1>   0.0800 
 51 H        5.9070     0.9640     1.4720 H     1 <1>   0.0800 
 52 H       -1.6630    -5.3470     0.7250 H     1 <1>   0.0800 
 53 H       -3.1070    -5.9320    -0.0070 H     1 <1>   0.0800 
 54 H        3.5180     6.3490     0.4300 H     1 <1>   0.4500 
 55 H        3.4310     6.1410    -1.8960 H     1 <1>   0.0800 
 56 H        5.1870     5.9980    -1.9650 H     1 <1>   0.0800 
 57 H        6.4260     6.6290     0.3930 H     1 <1>   0.0800 
 58 H        5.3040     7.1020     1.6650 H     1 <1>   0.0800 
 59 H        3.5460     8.4240    -1.4900 H     1 <1>   0.0800 
 60 H        5.0870     8.2710    -2.2970 H     1 <1>   0.0800 
 61 H        6.1570     8.8020    -0.2980 H     1 <1>   0.0800 
 62 H        4.5950     8.9600     0.4660 H     1 <1>   0.0800 
@<TRIPOS>BOND
  1   1   2  2   
  2   2   3  am  
  3   2   4  1   
  4   3   5  1   
  5   3  24  1   
  6   4   6  1   
  7   4  25  1   
  8   4  26  1   
  9   5   7  1   
 10   5   8  1   
 11   5  27  1   
 12   6   9  1   
 13   6  28  1   
 14   6  29  1   
 15   7  10  1   
 16   7  30  1   
 17   7  31  1   
 18   8  11  1   
 19   8  32  1   
 20   8  33  1   
 21   9  12  1   
 22   9  13  1   
 23   9  34  1   
 24  10  14  1   
 25  10  35  1   
 26  10  36  1   
 27  11  15  1   
 28  11  37  1   
 29  11  38  1   
 30  12  16  1   
 31  12  39  1   
 32  12  40  1   
 33  13  17  1   
 34  13  41  1   
 35  13  42  1   
 36  14  18  1   
 37  14  43  1   
 38  14  44  1   
 39  15  18  1   
 40  15  45  1   
 41  15  46  1   
 42  16  19  1   
 43  16  47  1   
 44  16  48  1   
 45  17  49  1   
 46  17  50  1   
 47  17  51  1   
 48  18  52  1   
 49  18  53  1   
 50  19  20  1   
 51  19  21  1   
 52  19  54  1   
 53  20  22  1   
 54  20  55  1   
 55  20  56  1   
 56  21  23  1   
 57  21  57  1   
 58  21  58  1   
 59  22  23  1   
 60  22  59  1   
 61  22  60  1   
 62  23  61  1   
 63  23  62  1   
@<TRIPOS>SUBSTRUCTURE
  1 ****   6 GROUP 4 **** **** 0

# MOE 2024.06 (io_trps.svl 2023.06)
