@<TRIPOS>MOLECULE
NONAME
56 58 1 0 0 
SMALL
USER_CHARGES


@<TRIPOS>ATOM
  1 O       -0.6320     1.1790     2.1770 O.2   1 <1>  -0.5700 
  2 C       -1.3350     1.9030     1.4960 C.2   1 <1>   0.5440 
  3 N       -2.6640     1.5600     1.3060 N.am  1 <1>  -0.6600 
  4 C       -0.7520     3.0950     0.9260 C.ar  1 <1>   0.0860 
  5 C       -3.5560     2.3480     0.4020 C.3   1 <1>   0.2200 
  6 C       -3.2210     0.3500     1.9860 C.3   1 <1>   0.0600 
  7 C       -0.3930     3.2190    -0.4280 C.ar  1 <1>   0.0820 
  8 C       -0.5550     4.2040     1.7490 C.ar  1 <1>  -0.1500 
  9 C       -4.6060     3.1480     1.1610 C.3   1 <1>  -0.1600 
 10 C       -4.3690     1.5080    -0.5780 C.3   1 <1>  -0.1600 
 11 O       -0.5110     2.2150    -1.3300 O.3   1 <1>  -0.3620 
 12 C        0.0950     4.4170    -0.9230 C.ar  1 <1>  -0.1500 
 13 C       -0.0560     5.3930     1.2550 C.ar  1 <1>  -0.1500 
 14 C       -5.6710     3.4810     0.1050 C.3   1 <1>  -0.0800 
 15 C       -5.5120     2.4370    -1.0140 C.3   1 <1>  -0.0800 
 16 C       -0.0490     0.9150    -1.0190 C.3   1 <1>   0.0400 
 17 C        0.2670     5.5120    -0.0870 C.ar  1 <1>   0.0820 
 18 C       -7.1130     3.3620     0.6160 C.3   1 <1>  -0.1600 
 19 C       -6.8680     1.7310    -1.1510 C.3   1 <1>  -0.1600 
 20 O        0.7390     6.7110    -0.4990 O.3   1 <1>  -0.3630 
 21 C       -7.5580     1.9630     0.1910 C.3   1 <1>   0.4230 
 22 C        1.1130     6.9360    -1.8400 C.3   1 <1>   0.0400 
 23 N       -9.0410     1.7690     0.1270 N.4   1 <1>  -0.9590 
 24 C       -9.7780     2.7240    -0.7660 C.3   1 <1>   0.2630 
 25 C       -9.6350     1.7920     1.5000 C.3   1 <1>   0.2630 
 26 H       -2.9800     3.0430    -0.1840 H     1 <1>   0.0800 
 27 H       -4.2580     0.4880     2.2290 H     1 <1>   0.0800 
 28 H       -2.6880     0.1540     2.9010 H     1 <1>   0.0800 
 29 H       -3.1150    -0.5040     1.3410 H     1 <1>   0.0800 
 30 H       -0.8020     4.1220     2.7940 H     1 <1>   0.1500 
 31 H       -5.0250     2.5510     1.9500 H     1 <1>   0.0800 
 32 H       -4.1770     4.0410     1.5820 H     1 <1>   0.0800 
 33 H       -3.7640     1.2080    -1.4160 H     1 <1>   0.0800 
 34 H       -4.7660     0.6360    -0.0950 H     1 <1>   0.0800 
 35 H        0.3390     4.4670    -1.9670 H     1 <1>   0.1500 
 36 H        0.0880     6.2390     1.9030 H     1 <1>   0.1500 
 37 H       -5.4860     4.4690    -0.2860 H     1 <1>   0.0800 
 38 H       -5.2410     2.9240    -1.9380 H     1 <1>   0.0800 
 39 H        0.2420     0.4350    -1.9350 H     1 <1>   0.0800 
 40 H       -0.8460     0.3600    -0.5570 H     1 <1>   0.0800 
 41 H        0.7960     0.9840    -0.3560 H     1 <1>   0.0800 
 42 H       -7.6960     4.1210     0.1280 H     1 <1>   0.0800 
 43 H       -7.1720     3.5000     1.6810 H     1 <1>   0.0800 
 44 H       -6.7550     0.6840    -1.3710 H     1 <1>   0.0800 
 45 H       -7.4050     2.2050    -1.9510 H     1 <1>   0.0800 
 46 H       -7.1370     1.2600     0.8930 H     1 <1>   0.0800 
 47 H        1.4580     7.9510    -1.9250 H     1 <1>   0.0800 
 48 H        0.2550     6.7880    -2.4720 H     1 <1>   0.0800 
 49 H        1.9060     6.2570    -2.1000 H     1 <1>   0.0800 
 50 H       -9.1840     0.8230    -0.2560 H     1 <1>   0.4500 
 51 H       -9.6830     3.7330    -0.4010 H     1 <1>   0.0800 
 52 H      -10.8250     2.4710    -0.7970 H     1 <1>   0.0800 
 53 H       -9.3910     2.6820    -1.7710 H     1 <1>   0.0800 
 54 H       -9.5140     2.7680     1.9440 H     1 <1>   0.0800 
 55 H       -9.1510     1.0650     2.1310 H     1 <1>   0.0800 
 56 H      -10.6870     1.5620     1.4570 H     1 <1>   0.0800 
@<TRIPOS>BOND
  1   1   2  2   
  2   2   3  am  
  3   2   4  1   
  4   3   5  1   
  5   3   6  1   
  6   4   7  ar  
  7   4   8  ar  
  8   5   9  1   
  9   5  10  1   
 10   5  26  1   
 11   6  27  1   
 12   6  28  1   
 13   6  29  1   
 14   7  11  1   
 15   7  12  ar  
 16   8  13  ar  
 17   8  30  1   
 18   9  14  1   
 19   9  31  1   
 20   9  32  1   
 21  10  15  1   
 22  10  33  1   
 23  10  34  1   
 24  11  16  1   
 25  12  17  ar  
 26  12  35  1   
 27  13  17  ar  
 28  13  36  1   
 29  14  15  1   
 30  14  18  1   
 31  14  37  1   
 32  15  19  1   
 33  15  38  1   
 34  16  39  1   
 35  16  40  1   
 36  16  41  1   
 37  17  20  1   
 38  18  21  1   
 39  18  42  1   
 40  18  43  1   
 41  19  21  1   
 42  19  44  1   
 43  19  45  1   
 44  20  22  1   
 45  21  23  1   
 46  21  46  1   
 47  22  47  1   
 48  22  48  1   
 49  22  49  1   
 50  23  24  1   
 51  23  25  1   
 52  23  50  1   
 53  24  51  1   
 54  24  52  1   
 55  24  53  1   
 56  25  54  1   
 57  25  55  1   
 58  25  56  1   
@<TRIPOS>SUBSTRUCTURE
  1 ****   5 GROUP 4 **** **** 0

# MOE 2024.06 (io_trps.svl 2023.06)
