@<TRIPOS>MOLECULE
NONAME
55 57 1 0 0 
SMALL
USER_CHARGES


@<TRIPOS>ATOM
  1 O       -0.9220     0.5270    -0.0610 O.2   1 <1>  -0.5700 
  2 C       -1.3270     1.5600     0.4520 C.2   1 <1>   0.5440 
  3 N       -2.5930     1.5150     1.0200 N.am  1 <1>  -0.6600 
  4 C       -0.4800     2.7610     0.4150 C.ar  1 <1>   0.3960 
  5 C       -3.2010     0.2010     1.3740 C.3   1 <1>   0.1400 
  6 C       -3.4100     2.7360     1.2770 C.3   1 <1>   0.1400 
  7 N       -0.5250     3.6580     1.4200 N.ar  1 <1>  -0.6200 
  8 C        0.3740     2.9450    -0.6700 C.ar  1 <1>  -0.1500 
  9 C       -3.9710    -0.3730     0.1760 C.3   1 <1>   0.1400 
 10 C       -4.8920     2.5780     0.9040 C.3   1 <1>  -0.1600 
 11 C        0.2720     4.7070     1.3320 C.ar  1 <1>   0.1600 
 12 C        1.1950     4.0460    -0.7550 C.ar  1 <1>   0.0830 
 13 N       -5.2900     0.3130    -0.0310 N.am  1 <1>  -0.6600 
 14 C       -5.1400     1.7650    -0.3720 C.3   1 <1>   0.1400 
 15 C        1.1380     4.9530     0.2860 C.ar  1 <1>  -0.1500 
 16 O        1.9950     4.1660    -1.8360 O.3   1 <1>  -0.3630 
 17 C       -6.5540    -0.2320     0.0840 C.2   1 <1>   0.5690 
 18 C        2.8900     5.2460    -1.9790 C.3   1 <1>   0.0400 
 19 O       -7.5240     0.4220    -0.2230 O.2   1 <1>  -0.5700 
 20 C       -6.8230    -1.6940     0.5200 C.3   1 <1>   0.0610 
 21 C       -6.3170    -2.5920    -0.6050 C.3   1 <1>   0.3430 
 22 C       -8.3230    -2.0510     0.4920 C.3   1 <1>  -0.1600 
 23 C       -6.2810    -2.0380     1.9280 C.3   1 <1>  -0.2400 
 24 N       -7.3780    -2.5560    -1.6590 N.4   1 <1>  -0.9590 
 25 C       -8.6690    -2.2350    -0.9800 C.3   1 <1>   0.3430 
 26 C       -7.4380    -3.7990    -2.4840 C.3   1 <1>   0.2630 
 27 H       -3.8450     0.3020     2.2300 H     1 <1>   0.0800 
 28 H       -2.4110    -0.4810     1.6390 H     1 <1>   0.0800 
 29 H       -3.0120     3.5490     0.6950 H     1 <1>   0.0800 
 30 H       -3.3210     3.0080     2.3160 H     1 <1>   0.0800 
 31 H        0.3990     2.2140    -1.4570 H     1 <1>   0.1500 
 32 H       -4.0980    -1.4240     0.3250 H     1 <1>   0.0800 
 33 H       -3.3670    -0.2580    -0.7090 H     1 <1>   0.0800 
 34 H       -5.2890     3.5660     0.7570 H     1 <1>   0.0800 
 35 H       -5.4380     2.1500     1.7250 H     1 <1>   0.0800 
 36 H        0.2320     5.4150     2.1430 H     1 <1>   0.1500 
 37 H       -4.3320     1.9020    -1.0710 H     1 <1>   0.0800 
 38 H       -6.0350     2.1290    -0.8470 H     1 <1>   0.0800 
 39 H        1.7460     5.8360     0.3030 H     1 <1>   0.1500 
 40 H        3.4220     5.1180    -2.9050 H     1 <1>   0.0800 
 41 H        3.5830     5.2380    -1.1560 H     1 <1>   0.0800 
 42 H        2.3300     6.1640    -2.0040 H     1 <1>   0.0800 
 43 H       -6.2120    -3.5970    -0.2300 H     1 <1>   0.0800 
 44 H       -5.3710    -2.2560    -0.9950 H     1 <1>   0.0800 
 45 H       -8.9410    -1.2980     0.9510 H     1 <1>   0.0800 
 46 H       -8.5080    -2.9820     0.9980 H     1 <1>   0.0800 
 47 H       -5.2220    -1.9040     2.0170 H     1 <1>   0.0800 
 48 H       -6.5020    -3.0580     2.1890 H     1 <1>   0.0800 
 49 H       -6.7500    -1.3990     2.6580 H     1 <1>   0.0800 
 50 H       -7.1760    -1.7490    -2.2710 H     1 <1>   0.4500 
 51 H       -9.0660    -1.3110    -1.3740 H     1 <1>   0.0800 
 52 H       -9.3970    -3.0190    -1.1080 H     1 <1>   0.0800 
 53 H       -7.6610    -4.6500    -1.8620 H     1 <1>   0.0800 
 54 H       -6.4930    -3.9670    -2.9750 H     1 <1>   0.0800 
 55 H       -8.2040    -3.7100    -3.2370 H     1 <1>   0.0800 
@<TRIPOS>BOND
  1   1   2  2   
  2   2   3  am  
  3   2   4  1   
  4   3   5  1   
  5   3   6  1   
  6   4   7  ar  
  7   4   8  ar  
  8   5   9  1   
  9   5  27  1   
 10   5  28  1   
 11   6  10  1   
 12   6  29  1   
 13   6  30  1   
 14   7  11  ar  
 15   8  12  ar  
 16   8  31  1   
 17   9  13  1   
 18   9  32  1   
 19   9  33  1   
 20  10  14  1   
 21  10  34  1   
 22  10  35  1   
 23  11  15  ar  
 24  11  36  1   
 25  12  15  ar  
 26  12  16  1   
 27  13  14  1   
 28  13  17  am  
 29  14  37  1   
 30  14  38  1   
 31  15  39  1   
 32  16  18  1   
 33  17  19  2   
 34  17  20  1   
 35  18  40  1   
 36  18  41  1   
 37  18  42  1   
 38  20  21  1   
 39  20  22  1   
 40  20  23  1   
 41  21  24  1   
 42  21  43  1   
 43  21  44  1   
 44  22  25  1   
 45  22  45  1   
 46  22  46  1   
 47  23  47  1   
 48  23  48  1   
 49  23  49  1   
 50  24  25  1   
 51  24  26  1   
 52  24  50  1   
 53  25  51  1   
 54  25  52  1   
 55  26  53  1   
 56  26  54  1   
 57  26  55  1   
@<TRIPOS>SUBSTRUCTURE
  1 ****   3 GROUP 4 **** **** 0

# MOE 2024.06 (io_trps.svl 2023.06)
