@<TRIPOS>MOLECULE
NONAME
49 51 1 0 0 
SMALL
USER_CHARGES


@<TRIPOS>ATOM
  1 O        0.2720     1.0330    -0.3640 O.2   1 <1>  -0.5700 
  2 C        0.1240     2.2320    -0.3630 C.2   1 <1>   0.5690 
  3 N       -0.8430     2.8510     0.3840 N.am  1 <1>  -0.6600 
  4 C        1.0450     3.0730    -1.2480 C.3   1 <1>   0.1810 
  5 C       -1.0160     4.3400     0.3480 C.3   1 <1>   0.3640 
  6 C       -1.7210     2.1060     1.3340 C.3   1 <1>   0.0600 
  7 O        1.1630     4.4000    -0.7990 O.3   1 <1>  -0.5600 
  8 C       -2.4830     4.7370     0.1170 C.ar  1 <1>  -0.1430 
  9 C       -0.0780     5.0670    -0.6490 C.3   1 <1>   0.2610 
 10 C       -3.2890     4.2470    -0.9160 C.ar  1 <1>  -0.1430 
 11 C       -3.0240     5.6560     1.0100 C.ar  1 <1>  -0.1500 
 12 C        0.1010     6.5300    -0.2130 C.2   1 <1>   0.5690 
 13 C       -4.6030     4.6810    -1.0190 C.ar  1 <1>  -0.1500 
 14 C       -2.8140     3.2360    -1.9550 C.3   1 <1>  -0.0960 
 15 C       -4.3330     6.0830     0.8950 C.ar  1 <1>  -0.1500 
 16 O       -0.4940     7.3640    -0.8570 O.2   1 <1>  -0.5700 
 17 N        0.8740     6.9020     0.8680 N.am  1 <1>  -0.6600 
 18 C       -5.1260     5.5930    -0.1220 C.ar  1 <1>  -0.1500 
 19 C        1.0400     8.3490     1.1950 C.3   1 <1>   0.3200 
 20 C        1.8110     5.9940     1.5960 C.3   1 <1>   0.0600 
 21 C        2.3680     8.8620     0.6740 C.2   1 <1>  -0.0400 
 22 O        3.4620     8.6780     1.3650 O.3   1 <1>  -0.0190 
 23 C        2.6920     9.5270    -0.4440 C.2   1 <1>  -0.1500 
 24 N        4.5020     9.1830     0.7680 N.2   1 <1>  -0.4100 
 25 C        4.0680     9.7010    -0.3260 C.2   1 <1>   0.1080 
 26 C        4.9430    10.4000    -1.3430 C.3   1 <1>  -0.0590 
 27 H        0.6720     3.0830    -2.2560 H     1 <1>   0.0800 
 28 H        2.0290     2.6410    -1.2470 H     1 <1>   0.0800 
 29 H       -0.7470     4.6860     1.3290 H     1 <1>   0.0800 
 30 H       -1.6230     2.5180     2.3220 H     1 <1>   0.0800 
 31 H       -1.4480     1.0650     1.3680 H     1 <1>   0.0800 
 32 H       -2.7480     2.1800     1.0220 H     1 <1>   0.0800 
 33 H       -0.5410     5.0880    -1.6170 H     1 <1>   0.0800 
 34 H       -2.4270     6.0590     1.8090 H     1 <1>   0.1500 
 35 H       -5.2370     4.3110    -1.8050 H     1 <1>   0.1500 
 36 H       -3.5040     3.1780    -2.7780 H     1 <1>   0.0800 
 37 H       -2.7440     2.2580    -1.5140 H     1 <1>   0.0800 
 38 H       -1.8580     3.5080    -2.3560 H     1 <1>   0.0800 
 39 H       -4.7340     6.7960     1.5940 H     1 <1>   0.1500 
 40 H       -6.1460     5.9210    -0.2180 H     1 <1>   0.1500 
 41 H        0.2450     8.9270     0.7560 H     1 <1>   0.0800 
 42 H        0.9900     8.4890     2.2600 H     1 <1>   0.0800 
 43 H        1.9630     6.3450     2.6020 H     1 <1>   0.0800 
 44 H        2.7600     5.9790     1.0870 H     1 <1>   0.0800 
 45 H        1.4310     4.9900     1.6420 H     1 <1>   0.0800 
 46 H        2.0650     9.8510    -1.2540 H     1 <1>   0.1500 
 47 H        4.6150    11.4150    -1.4690 H     1 <1>   0.0800 
 48 H        4.8860     9.8880    -2.2850 H     1 <1>   0.0800 
 49 H        5.9640    10.4020    -1.0080 H     1 <1>   0.0800 
@<TRIPOS>BOND
  1   1   2  2   
  2   2   3  am  
  3   2   4  1   
  4   3   5  1   
  5   3   6  1   
  6   4   7  1   
  7   4  27  1   
  8   4  28  1   
  9   5   8  1   
 10   5   9  1   
 11   5  29  1   
 12   6  30  1   
 13   6  31  1   
 14   6  32  1   
 15   7   9  1   
 16   8  10  ar  
 17   8  11  ar  
 18   9  12  1   
 19   9  33  1   
 20  10  13  ar  
 21  10  14  1   
 22  11  15  ar  
 23  11  34  1   
 24  12  16  2   
 25  12  17  am  
 26  13  18  ar  
 27  13  35  1   
 28  14  36  1   
 29  14  37  1   
 30  14  38  1   
 31  15  18  ar  
 32  15  39  1   
 33  17  19  1   
 34  17  20  1   
 35  18  40  1   
 36  19  21  1   
 37  19  41  1   
 38  19  42  1   
 39  20  43  1   
 40  20  44  1   
 41  20  45  1   
 42  21  22  1   
 43  21  23  2   
 44  22  24  1   
 45  23  25  1   
 46  23  46  1   
 47  24  25  2   
 48  25  26  1   
 49  26  47  1   
 50  26  48  1   
 51  26  49  1   
@<TRIPOS>SUBSTRUCTURE
  1 ****  12 GROUP 4 **** **** 0

# MOE 2024.06 (io_trps.svl 2023.06)
