@<TRIPOS>MOLECULE
NONAME
54 57 1 0 0 
SMALL
USER_CHARGES


@<TRIPOS>ATOM
  1 O       -1.4670    -0.4350    -0.7170 O.3   1 <1>  -0.3630 
  2 C       -2.1670     0.6330    -0.2490 C.ar  1 <1>   0.0820 
  3 C       -0.3560    -0.2660    -1.5700 C.3   1 <1>   0.1200 
  4 C       -3.1060     0.3960     0.7570 C.ar  1 <1>  -0.1440 
  5 C       -1.9880     1.9260    -0.7390 C.ar  1 <1>  -0.1500 
  6 C        0.2570    -1.6410    -1.8200 C.3   1 <1>  -0.2400 
  7 C       -3.8620     1.4420     1.2680 C.ar  1 <1>  -0.1500 
  8 C       -3.3050    -1.0060     1.2930 C.3   1 <1>   0.4860 
  9 C       -2.7500     2.9520    -0.2190 C.ar  1 <1>  -0.1440 
 10 C       -3.6720     2.7160     0.7680 C.ar  1 <1>  -0.1430 
 11 N       -3.7150    -1.8750     0.1640 N.4   1 <1>  -0.9590 
 12 C       -2.7180     4.4120    -0.6010 C.3   1 <1>  -0.0170 
 13 C       -4.3760     3.9870     1.1770 C.3   1 <1>  -0.0170 
 14 C       -5.0130    -1.4900    -0.4590 C.3   1 <1>   0.3430 
 15 C       -3.7430    -3.3320     0.4730 C.3   1 <1>   0.3430 
 16 C       -3.5370     5.0900     0.5110 C.3   1 <1>  -0.1600 
 17 C       -5.5750    -2.7960    -1.0170 C.3   1 <1>   0.2000 
 18 C       -5.0710    -3.8780    -0.0660 C.3   1 <1>  -0.0800 
 19 O       -6.9610    -2.7980    -1.0620 O.3   1 <1>  -0.6800 
 20 C       -4.9410    -5.2520    -0.7510 C.3   1 <1>  -0.0170 
 21 C       -4.4940    -6.3400     0.2150 C.ar  1 <1>   0.1670 
 22 N       -3.2840    -6.2050     0.7390 N.ar  1 <1>  -0.6200 
 23 C       -5.3420    -7.4100     0.5030 C.ar  1 <1>   0.1600 
 24 C       -2.9790    -7.2080     1.5490 C.ar  1 <1>   0.1600 
 25 N       -5.0420    -8.4010     1.3230 N.ar  1 <1>  -0.6200 
 26 C       -3.8300    -8.2700     1.8320 C.ar  1 <1>   0.1600 
 27 H       -0.6920     0.1730    -2.4940 H     1 <1>   0.0800 
 28 H        0.3530     0.3850    -1.0850 H     1 <1>   0.0800 
 29 H       -1.2770     2.1520    -1.5120 H     1 <1>   0.1500 
 30 H       -0.4530    -2.2870    -2.3020 H     1 <1>   0.0800 
 31 H        0.5800    -2.0800    -0.8930 H     1 <1>   0.0800 
 32 H        1.1130    -1.5400    -2.4620 H     1 <1>   0.0800 
 33 H       -4.5880     1.2880     2.0480 H     1 <1>   0.1500 
 34 H       -4.0550    -1.0100     2.0660 H     1 <1>   0.0800 
 35 H       -2.3740    -1.3570     1.7090 H     1 <1>   0.0800 
 36 H       -2.9710    -1.7000    -0.5370 H     1 <1>   0.4500 
 37 H       -1.7120     4.7920    -0.6360 H     1 <1>   0.0800 
 38 H       -3.1930     4.5450    -1.5570 H     1 <1>   0.0800 
 39 H       -5.3790     3.9860     0.7850 H     1 <1>   0.0800 
 40 H       -4.4010     4.1030     2.2460 H     1 <1>   0.0800 
 41 H       -5.6800    -1.1030     0.2930 H     1 <1>   0.0800 
 42 H       -4.8710    -0.7540    -1.2350 H     1 <1>   0.0800 
 43 H       -2.9150    -3.8240    -0.0150 H     1 <1>   0.0800 
 44 H       -3.6710    -3.5150     1.5330 H     1 <1>   0.0800 
 45 H       -2.8580     5.4960     1.2410 H     1 <1>   0.0800 
 46 H       -4.1520     5.8850     0.1270 H     1 <1>   0.0800 
 47 H       -5.2080    -2.9450    -2.0190 H     1 <1>   0.0800 
 48 H       -5.7410    -3.9660     0.7710 H     1 <1>   0.0800 
 49 H       -7.3720    -2.8040    -0.1740 H     1 <1>   0.4000 
 50 H       -4.2290    -5.1980    -1.5570 H     1 <1>   0.0800 
 51 H       -5.8910    -5.5210    -1.1820 H     1 <1>   0.0800 
 52 H       -6.3100    -7.4520     0.0360 H     1 <1>   0.1500 
 53 H       -2.0080    -7.1940     2.0140 H     1 <1>   0.1500 
 54 H       -3.4940    -9.0390     2.5060 H     1 <1>   0.1500 
@<TRIPOS>BOND
  1   1   2  1   
  2   1   3  1   
  3   2   4  ar  
  4   2   5  ar  
  5   3   6  1   
  6   3  27  1   
  7   3  28  1   
  8   4   7  ar  
  9   4   8  1   
 10   5   9  ar  
 11   5  29  1   
 12   6  30  1   
 13   6  31  1   
 14   6  32  1   
 15   7  10  ar  
 16   7  33  1   
 17   8  11  1   
 18   8  34  1   
 19   8  35  1   
 20   9  10  ar  
 21   9  12  1   
 22  10  13  1   
 23  11  14  1   
 24  11  15  1   
 25  11  36  1   
 26  12  16  1   
 27  12  37  1   
 28  12  38  1   
 29  13  16  1   
 30  13  39  1   
 31  13  40  1   
 32  14  17  1   
 33  14  41  1   
 34  14  42  1   
 35  15  18  1   
 36  15  43  1   
 37  15  44  1   
 38  16  45  1   
 39  16  46  1   
 40  17  18  1   
 41  17  19  1   
 42  17  47  1   
 43  18  20  1   
 44  18  48  1   
 45  19  49  1   
 46  20  21  1   
 47  20  50  1   
 48  20  51  1   
 49  21  22  ar  
 50  21  23  ar  
 51  22  24  ar  
 52  23  25  ar  
 53  23  52  1   
 54  24  26  ar  
 55  24  53  1   
 56  25  26  ar  
 57  26  54  1   
@<TRIPOS>SUBSTRUCTURE
  1 ****  11 GROUP 4 **** **** 0

# MOE 2024.06 (io_trps.svl 2023.06)
