@<TRIPOS>MOLECULE
NONAME
47 49 1 0 0 
SMALL
USER_CHARGES


@<TRIPOS>ATOM
  1 CL      -0.2440     0.6030    -1.4150 Cl    1 <1>  -0.1770 
  2 C       -1.8720     0.9010    -0.8660 C.ar  1 <1>   0.1770 
  3 C       -2.5030    -0.0310    -0.0650 C.ar  1 <1>  -0.1500 
  4 C       -2.5130     2.0670    -1.2370 C.ar  1 <1>  -0.1500 
  5 C       -3.7940     0.2120     0.3700 C.ar  1 <1>  -0.1500 
  6 C       -3.8040     2.2980    -0.7980 C.ar  1 <1>  -0.1500 
  7 C       -4.4750     1.3770     0.0110 C.ar  1 <1>   0.0530 
  8 C       -5.8160     1.6490     0.4660 C.2   1 <1>   0.0870 
  9 O       -6.1220     2.8630     0.8520 O.3   1 <1>  -0.0190 
 10 C       -6.9380     0.8910     0.6180 C.2   1 <1>  -0.0860 
 11 N       -7.3560     2.9770     1.2590 N.2   1 <1>  -0.4100 
 12 C       -7.8670     1.8110     1.1210 C.2   1 <1>   0.3720 
 13 C       -7.1770    -0.4970     0.3530 C.2   1 <1>   0.7160 
 14 N       -9.1960     1.5900     1.4540 N.pl3 1 <1>  -0.8520 
 15 O       -6.3960    -1.1640    -0.2970 O.2   1 <1>  -0.5700 
 16 N       -8.2980    -1.1030     0.8360 N.am  1 <1>  -0.7300 
 17 C      -10.1200     1.6740     0.2900 C.3   1 <1>   0.2090 
 18 C       -8.6820    -2.5210     0.6500 C.3   1 <1>   0.1400 
 19 C      -11.5640     1.4630     0.7470 C.3   1 <1>   0.1200 
 20 C       -9.7060    -2.6540    -0.4820 C.3   1 <1>   0.0000 
 21 O      -12.3860     1.4710    -0.3760 O.3   1 <1>  -0.5600 
 22 C      -11.1070    -2.0490    -0.2010 C.3   1 <1>   0.0000 
 23 C      -10.4000    -4.0400    -0.5490 C.3   1 <1>   0.0000 
 24 C      -13.7270     1.2220    -0.0980 C.3   1 <1>   0.0400 
 25 C      -11.7010    -3.2850    -0.9240 C.3   1 <1>   0.0000 
 26 H       -1.9880    -0.9340     0.2120 H     1 <1>   0.1500 
 27 H       -2.0030     2.7800    -1.8600 H     1 <1>   0.1500 
 28 H       -4.2820    -0.5140     0.9960 H     1 <1>   0.1500 
 29 H       -4.3060     3.2060    -1.0850 H     1 <1>   0.1500 
 30 H       -9.4510     2.3410     2.1060 H     1 <1>   0.4000 
 31 H       -8.9670    -0.4840     1.3130 H     1 <1>   0.3700 
 32 H       -9.8620     0.9170    -0.4310 H     1 <1>   0.0800 
 33 H      -10.0290     2.6420    -0.1730 H     1 <1>   0.0800 
 34 H       -9.0920    -2.8970     1.5720 H     1 <1>   0.0800 
 35 H       -7.8100    -3.1060     0.4080 H     1 <1>   0.0800 
 36 H      -11.8720     2.2590     1.4020 H     1 <1>   0.0800 
 37 H      -11.6620     0.5110     1.2390 H     1 <1>   0.0800 
 38 H       -9.3170    -2.3620    -1.4430 H     1 <1>   0.0000 
 39 H      -11.2890    -1.1240    -0.7160 H     1 <1>   0.0000 
 40 H      -11.3580    -2.0220     0.8460 H     1 <1>   0.0000 
 41 H      -10.4710    -4.5290     0.4080 H     1 <1>   0.0000 
 42 H      -10.0260    -4.6770    -1.3310 H     1 <1>   0.0000 
 43 H      -14.2720     1.2580    -1.0250 H     1 <1>   0.0800 
 44 H      -14.0990     1.9790     0.5700 H     1 <1>   0.0800 
 45 H      -13.8240     0.2440     0.3410 H     1 <1>   0.0800 
 46 H      -11.8030    -3.1350    -1.9850 H     1 <1>   0.0000 
 47 H      -12.5850    -3.6800    -0.4560 H     1 <1>   0.0000 
@<TRIPOS>BOND
  1   1   2  1   
  2   2   3  ar  
  3   2   4  ar  
  4   3   5  ar  
  5   3  26  1   
  6   4   6  ar  
  7   4  27  1   
  8   5   7  ar  
  9   5  28  1   
 10   6   7  ar  
 11   6  29  1   
 12   7   8  1   
 13   8   9  1   
 14   8  10  2   
 15   9  11  1   
 16  10  12  1   
 17  10  13  1   
 18  11  12  2   
 19  12  14  1   
 20  13  15  2   
 21  13  16  am  
 22  14  17  1   
 23  14  30  1   
 24  16  18  1   
 25  16  31  1   
 26  17  19  1   
 27  17  32  1   
 28  17  33  1   
 29  18  20  1   
 30  18  34  1   
 31  18  35  1   
 32  19  21  1   
 33  19  36  1   
 34  19  37  1   
 35  20  22  1   
 36  20  23  1   
 37  20  38  1   
 38  21  24  1   
 39  22  25  1   
 40  22  39  1   
 41  22  40  1   
 42  23  25  1   
 43  23  41  1   
 44  23  42  1   
 45  24  43  1   
 46  24  44  1   
 47  24  45  1   
 48  25  46  1   
 49  25  47  1   
@<TRIPOS>SUBSTRUCTURE
  1 ****  13 GROUP 4 **** **** 0

# MOE 2024.06 (io_trps.svl 2023.06)
