@<TRIPOS>MOLECULE
NONAME
36 37 1 0 0 
SMALL
USER_CHARGES


@<TRIPOS>ATOM
  1 O       -1.5860    -0.2100     0.8420 O.2   1 <1>  -0.5700 
  2 C       -2.3850     0.7120     0.9180 C.2   1 <1>   0.5440 
  3 N       -3.7050     0.3760     1.1660 N.am  1 <1>  -0.6600 
  4 C       -1.9240     2.0860     0.6910 C.ar  1 <1>   0.3960 
  5 C       -4.0670    -0.9820     1.6660 C.3   1 <1>   0.3200 
  6 C       -4.8640     1.2080     0.7190 C.3   1 <1>   0.1400 
  7 N       -2.4110     3.0950     1.4360 N.ar  1 <1>  -0.6200 
  8 C       -0.9740     2.3170    -0.3000 C.ar  1 <1>  -0.1500 
  9 C       -4.2870    -1.9260     0.4980 C.2   1 <1>   0.0060 
 10 C       -5.0270     1.1360    -0.8030 C.3   1 <1>   0.1200 
 11 C       -1.9570     4.3090     1.1800 C.ar  1 <1>   0.1600 
 12 C       -0.5100     3.5860    -0.5610 C.ar  1 <1>   0.0830 
 13 N       -5.4160    -2.4700     0.1700 N.2   1 <1>  -0.5650 
 14 N       -3.2670    -2.2590    -0.3190 N.pl3 1 <1>   0.0330 
 15 O       -6.1750     1.8210    -1.1760 O.3   1 <1>  -0.6800 
 16 C       -1.0230     4.6120     0.2100 C.ar  1 <1>  -0.1500 
 17 O        0.4060     3.7420    -1.5400 O.3   1 <1>  -0.3630 
 18 C       -5.1110    -3.2030    -0.9200 C.2   1 <1>   0.0770 
 19 C       -3.8030    -3.0840    -1.2350 C.2   1 <1>  -0.3020 
 20 C        0.9360     5.0090    -1.8620 C.3   1 <1>   0.0400 
 21 H       -4.9610    -0.9290     2.2620 H     1 <1>   0.0800 
 22 H       -3.2780    -1.3630     2.2920 H     1 <1>   0.0800 
 23 H       -4.7240     2.2310     1.0170 H     1 <1>   0.0800 
 24 H       -5.7630     0.8470     1.1880 H     1 <1>   0.0800 
 25 H       -0.5930     1.4930    -0.8740 H     1 <1>   0.1500 
 26 H       -5.1230     0.1170    -1.1380 H     1 <1>   0.0800 
 27 H       -4.1930     1.6050    -1.2940 H     1 <1>   0.0800 
 28 H       -2.3530     5.1110     1.7810 H     1 <1>   0.1500 
 29 H       -2.3050    -1.9000    -0.2280 H     1 <1>   0.2700 
 30 H       -6.9700     1.3000    -0.9450 H     1 <1>   0.4000 
 31 H       -0.7160     5.6310     0.0750 H     1 <1>   0.1500 
 32 H       -5.8620    -3.7850    -1.4290 H     1 <1>   0.1500 
 33 H       -3.2400    -3.5270    -2.0360 H     1 <1>   0.1500 
 34 H        1.6410     4.8810    -2.6640 H     1 <1>   0.0800 
 35 H        1.4350     5.4090    -0.9970 H     1 <1>   0.0800 
 36 H        0.1350     5.6530    -2.1790 H     1 <1>   0.0800 
@<TRIPOS>BOND
  1   1   2  2   
  2   2   3  am  
  3   2   4  1   
  4   3   5  1   
  5   3   6  1   
  6   4   7  ar  
  7   4   8  ar  
  8   5   9  1   
  9   5  21  1   
 10   5  22  1   
 11   6  10  1   
 12   6  23  1   
 13   6  24  1   
 14   7  11  ar  
 15   8  12  ar  
 16   8  25  1   
 17   9  13  2   
 18   9  14  1   
 19  10  15  1   
 20  10  26  1   
 21  10  27  1   
 22  11  16  ar  
 23  11  28  1   
 24  12  16  ar  
 25  12  17  1   
 26  13  18  1   
 27  14  19  1   
 28  14  29  1   
 29  15  30  1   
 30  16  31  1   
 31  17  20  1   
 32  18  19  2   
 33  18  32  1   
 34  19  33  1   
 35  20  34  1   
 36  20  35  1   
 37  20  36  1   
@<TRIPOS>SUBSTRUCTURE
  1 ****   2 GROUP 4 **** **** 0

# MOE 2024.06 (io_trps.svl 2023.06)
