@<TRIPOS>MOLECULE
NONAME
51 54 1 0 0 
SMALL
USER_CHARGES


@<TRIPOS>ATOM
  1 O        3.3490    -1.3740     0.7040 O.2   1 <1>  -0.5700 
  2 C        2.5910    -1.9260    -0.0660 C.2   1 <1>   0.5440 
  3 N        1.7010    -1.1750    -0.7880 N.am  1 <1>  -0.4940 
  4 C        2.6230    -3.3680    -0.2280 C.ar  1 <1>   0.0860 
  5 C        1.3710     0.1810    -0.7050 C.2   1 <1>   0.2500 
  6 C        1.4820    -4.1010    -0.5560 C.ar  1 <1>  -0.1500 
  7 C        3.8120    -4.0790    -0.0580 C.ar  1 <1>  -0.1500 
  8 N        0.1580     0.5690    -0.9460 N.2   1 <1>  -0.3380 
  9 N        2.1830     1.2230    -0.4130 N.pl3 1 <1>   0.3340 
 10 C        1.5230    -5.4730    -0.7290 C.ar  1 <1>   0.0830 
 11 C        3.8660    -5.4510    -0.2260 C.ar  1 <1>  -0.1500 
 12 N        0.1200     1.8910    -0.7950 N.2   1 <1>  -0.3380 
 13 C        1.3200     2.2790    -0.4790 C.2   1 <1>   0.3120 
 14 C        3.5360     1.4690    -0.2030 C.2   1 <1>  -0.1810 
 15 O        0.3530    -6.0730    -1.0520 O.3   1 <1>  -0.3630 
 16 C        2.7250    -6.1540    -0.5660 C.ar  1 <1>  -0.1500 
 17 N        1.7090     3.5820    -0.2540 N.2   1 <1>  -0.5760 
 18 C        3.9260     2.7510     0.0020 C.2   1 <1>  -0.1360 
 19 C        0.2710    -7.4790    -1.2500 C.3   1 <1>   0.1810 
 20 C        2.9580     3.7940    -0.0210 C.2   1 <1>   0.3750 
 21 C       -1.1530    -7.9130    -1.5860 C.2   1 <1>   0.5690 
 22 C        3.4240     5.2100     0.2350 C.3   1 <1>  -0.1790 
 23 O       -1.3210    -8.4260    -2.6700 O.2   1 <1>  -0.5700 
 24 N       -2.1880    -7.7600    -0.6920 N.am  1 <1>  -0.6600 
 25 C       -3.5880    -8.1160    -1.0590 C.3   1 <1>   0.1400 
 26 C       -2.0670    -7.1350     0.6560 C.3   1 <1>   0.1400 
 27 C       -4.4590    -6.8550    -1.0290 C.3   1 <1>  -0.1600 
 28 C       -2.9100    -5.8570     0.6990 C.3   1 <1>  -0.1600 
 29 C       -4.3740    -6.1350     0.3260 C.3   1 <1>  -0.1600 
 30 H        1.0280    -1.7020    -1.3430 H     1 <1>   0.3700 
 31 H        0.5330    -3.6110    -0.6740 H     1 <1>   0.1500 
 32 H        4.7070    -3.5430     0.2100 H     1 <1>   0.1500 
 33 H        4.7990    -5.9720    -0.0920 H     1 <1>   0.1500 
 34 H        4.2070     0.6310    -0.2140 H     1 <1>   0.1500 
 35 H        2.7950    -7.2180    -0.6950 H     1 <1>   0.1500 
 36 H        4.9540     3.0130     0.1800 H     1 <1>   0.1500 
 37 H        0.5940    -7.9730    -0.3530 H     1 <1>   0.0800 
 38 H        0.9220    -7.7400    -2.0640 H     1 <1>   0.0800 
 39 H        3.8750     5.2770     1.2070 H     1 <1>   0.0800 
 40 H        2.5910     5.8880     0.1940 H     1 <1>   0.0800 
 41 H        4.1400     5.5000    -0.5120 H     1 <1>   0.0800 
 42 H       -3.9620    -8.8400    -0.3570 H     1 <1>   0.0800 
 43 H       -3.6260    -8.5560    -2.0420 H     1 <1>   0.0800 
 44 H       -1.0460    -6.9000     0.8920 H     1 <1>   0.0800 
 45 H       -2.4260    -7.8300     1.3950 H     1 <1>   0.0800 
 46 H       -5.4800    -7.1240    -1.2330 H     1 <1>   0.0800 
 47 H       -4.1320    -6.1940    -1.8130 H     1 <1>   0.0800 
 48 H       -2.4890    -5.1420     0.0130 H     1 <1>   0.0800 
 49 H       -2.8630    -5.4320     1.6860 H     1 <1>   0.0800 
 50 H       -4.8240    -6.7510     1.0850 H     1 <1>   0.0800 
 51 H       -4.9200    -5.2090     0.2800 H     1 <1>   0.0800 
@<TRIPOS>BOND
  1   1   2  2   
  2   2   3  am  
  3   2   4  1   
  4   3   5  1   
  5   3  30  1   
  6   4   6  ar  
  7   4   7  ar  
  8   5   8  2   
  9   5   9  1   
 10   6  10  ar  
 11   6  31  1   
 12   7  11  ar  
 13   7  32  1   
 14   8  12  1   
 15   9  13  1   
 16   9  14  1   
 17  10  15  1   
 18  10  16  ar  
 19  11  16  ar  
 20  11  33  1   
 21  12  13  2   
 22  13  17  1   
 23  14  18  2   
 24  14  34  1   
 25  15  19  1   
 26  16  35  1   
 27  17  20  2   
 28  18  20  1   
 29  18  36  1   
 30  19  21  1   
 31  19  37  1   
 32  19  38  1   
 33  20  22  1   
 34  21  23  2   
 35  21  24  am  
 36  22  39  1   
 37  22  40  1   
 38  22  41  1   
 39  24  25  1   
 40  24  26  1   
 41  25  27  1   
 42  25  42  1   
 43  25  43  1   
 44  26  28  1   
 45  26  44  1   
 46  26  45  1   
 47  27  29  1   
 48  27  46  1   
 49  27  47  1   
 50  28  29  1   
 51  28  48  1   
 52  28  49  1   
 53  29  50  1   
 54  29  51  1   
@<TRIPOS>SUBSTRUCTURE
  1 ****   6 GROUP 4 **** **** 0

# MOE 2024.06 (io_trps.svl 2023.06)
