@<TRIPOS>MOLECULE
NONAME
44 46 1 0 0 
SMALL
USER_CHARGES


@<TRIPOS>ATOM
  1 S       -0.1010     0.5560     1.2410 S.o2  1 <1>   1.4470 
  2 O        0.2570    -0.6320     1.9860 O.2   1 <1>  -0.6500 
  3 O       -0.5250     1.7150     2.0020 O.2   1 <1>  -0.6500 
  4 N       -1.3790     0.1190     0.2200 N.am  1 <1>  -0.8490 
  5 C        1.2670     1.0230     0.1460 C.ar  1 <1>  -0.0090 
  6 C       -1.1340    -1.1290    -0.5490 C.3   1 <1>   0.1960 
  7 C       -2.6660     0.1490     0.9310 C.3   1 <1>   0.1960 
  8 C        1.1440     2.0690    -0.7630 C.ar  1 <1>   0.0830 
  9 C        2.4860     0.3560     0.1980 C.ar  1 <1>  -0.1500 
 10 C       -1.8540    -2.3470     0.0540 C.3   1 <1>   0.2000 
 11 C       -3.7430    -0.6350     0.1780 C.3   1 <1>  -0.1600 
 12 O       -0.0110     2.7540    -0.8680 O.3   1 <1>  -0.3630 
 13 C        2.1940     2.4220    -1.5960 C.ar  1 <1>  -0.1500 
 14 C        3.5630     0.7030    -0.6160 C.ar  1 <1>  -0.0230 
 15 O       -1.5120    -3.4780    -0.6620 O.3   1 <1>  -0.6800 
 16 C       -3.3880    -2.1380     0.0500 C.3   1 <1>  -0.1860 
 17 C       -0.0570     4.0200    -0.2510 C.3   1 <1>   0.0400 
 18 C        3.3950     1.7450    -1.5230 C.ar  1 <1>  -0.1500 
 19 N        4.8070     0.0100    -0.5170 N.pl3 1 <1>   0.5930 
 20 C       -4.1180    -2.7210    -1.1520 C.2   1 <1>   0.9060 
 21 N        4.9100    -1.3020    -0.1850 N.2   1 <1>  -0.7070 
 22 C        6.0470     0.5250    -0.7140 C.2   1 <1>  -0.3020 
 23 O       -5.3240    -2.9520    -1.0420 O.co2 1 <1>  -0.9000 
 24 O       -3.4980    -2.9360    -2.2040 O.co2 1 <1>  -0.9000 
 25 C        6.1770    -1.5700    -0.1890 C.2   1 <1>   0.1390 
 26 C        6.9460    -0.4600    -0.5140 C.2   1 <1>  -0.1500 
 27 H       -1.5080    -0.9870    -1.5500 H     1 <1>   0.0800 
 28 H       -0.0800    -1.3340    -0.6150 H     1 <1>   0.0800 
 29 H       -2.5500    -0.2810     1.9130 H     1 <1>   0.0800 
 30 H       -2.9750     1.1740     1.0510 H     1 <1>   0.0800 
 31 H        2.6050    -0.4610     0.8940 H     1 <1>   0.1500 
 32 H       -1.4970    -2.4930     1.0590 H     1 <1>   0.0800 
 33 H       -4.6900    -0.5390     0.6780 H     1 <1>   0.0800 
 34 H       -3.8550    -0.2000    -0.8020 H     1 <1>   0.0800 
 35 H        2.0610     3.2220    -2.3030 H     1 <1>   0.1500 
 36 H       -2.1290    -3.4900    -1.4560 H     1 <1>   0.4000 
 37 H       -3.7720    -2.6480     0.9130 H     1 <1>   0.0800 
 38 H       -1.0550     4.4060    -0.3550 H     1 <1>   0.0800 
 39 H        0.6460     4.6740    -0.7350 H     1 <1>   0.0800 
 40 H        0.1850     3.9110     0.7920 H     1 <1>   0.0800 
 41 H        4.1990     2.0280    -2.1810 H     1 <1>   0.1500 
 42 H        6.2110     1.5530    -0.9760 H     1 <1>   0.1500 
 43 H        6.5780    -2.5440     0.0380 H     1 <1>   0.1500 
 44 H        8.0200    -0.4290    -0.5800 H     1 <1>   0.1500 
@<TRIPOS>BOND
  1   1   2  2   
  2   1   3  2   
  3   1   4  am  
  4   1   5  1   
  5   4   6  1   
  6   4   7  1   
  7   5   8  ar  
  8   5   9  ar  
  9   6  10  1   
 10   6  27  1   
 11   6  28  1   
 12   7  11  1   
 13   7  29  1   
 14   7  30  1   
 15   8  12  1   
 16   8  13  ar  
 17   9  14  ar  
 18   9  31  1   
 19  10  15  1   
 20  10  16  1   
 21  10  32  1   
 22  11  16  1   
 23  11  33  1   
 24  11  34  1   
 25  12  17  1   
 26  13  18  ar  
 27  13  35  1   
 28  14  18  ar  
 29  14  19  1   
 30  15  36  1   
 31  16  20  1   
 32  16  37  1   
 33  17  38  1   
 34  17  39  1   
 35  17  40  1   
 36  18  41  1   
 37  19  21  1   
 38  19  22  1   
 39  20  23  ar  
 40  20  24  ar  
 41  21  25  2   
 42  22  26  2   
 43  22  42  1   
 44  25  26  1   
 45  25  43  1   
 46  26  44  1   
@<TRIPOS>SUBSTRUCTURE
  1 ****   5 GROUP 4 **** **** 0

# MOE 2024.06 (io_trps.svl 2023.06)
