@<TRIPOS>MOLECULE
NONAME
51 53 1 0 0 
SMALL
USER_CHARGES


@<TRIPOS>ATOM
  1 O       -2.8420     0.2860     0.9160 O.2   1 <1>  -0.5700 
  2 C       -2.7540     1.0840     0.0120 C.2   1 <1>   0.5690 
  3 N       -3.2190     0.7560    -1.2260 N.am  1 <1>  -0.6600 
  4 C       -2.2120     2.4720     0.2780 C.3   1 <1>  -0.0990 
  5 C       -4.5840     1.2460    -1.5860 C.3   1 <1>   0.1400 
  6 C       -2.9890    -0.6460    -1.7130 C.3   1 <1>   0.1400 
  7 C       -0.7300     2.4320     0.6670 C.3   1 <1>  -0.0160 
  8 C       -5.6820     0.3520    -0.9370 C.3   1 <1>   0.4230 
  9 C       -4.1720    -1.5850    -1.3690 C.3   1 <1>   0.3430 
 10 C       -0.2180     3.8410     0.9220 C.ar  1 <1>  -0.1440 
 11 N       -5.1100    -0.9390    -0.3840 N.4   1 <1>  -0.9590 
 12 C       -6.8330     0.0660    -1.9280 C.3   1 <1>   0.1200 
 13 C        0.3580     4.5860    -0.0990 C.ar  1 <1>   0.1600 
 14 C       -0.3240     4.4070     2.1760 C.ar  1 <1>  -0.1500 
 15 C       -6.2010    -1.8080     0.1630 C.3   1 <1>   0.4230 
 16 O       -7.7950    -0.7620    -1.3400 O.3   1 <1>  -0.5600 
 17 N        0.8170     5.8200     0.0280 N.ar  1 <1>  -0.6200 
 18 C        0.1530     5.6910     2.3280 C.ar  1 <1>  -0.1500 
 19 C       -7.3260    -2.0020    -0.8820 C.3   1 <1>   0.1200 
 20 C       -5.6290    -3.1350     0.6860 C.3   1 <1>  -0.1600 
 21 C        0.7050     6.3430     1.2380 C.ar  1 <1>   0.1600 
 22 C       -6.6280    -3.8980     1.5700 C.3   1 <1>  -0.1600 
 23 C       -5.9930    -5.1710     2.1370 C.3   1 <1>  -0.2400 
 24 H       -2.3340     3.0830    -0.5980 H     1 <1>   0.0800 
 25 H       -2.7790     2.9150     1.0770 H     1 <1>   0.0800 
 26 H       -4.7130     2.2630    -1.2550 H     1 <1>   0.0800 
 27 H       -4.6840     1.2460    -2.6580 H     1 <1>   0.0800 
 28 H       -2.8250    -0.6390    -2.7770 H     1 <1>   0.0800 
 29 H       -2.0930    -1.0360    -1.2570 H     1 <1>   0.0800 
 30 H       -0.1570     1.9740    -0.1210 H     1 <1>   0.0800 
 31 H       -0.6010     1.8350     1.5540 H     1 <1>   0.0800 
 32 H       -6.1060     0.9110    -0.1190 H     1 <1>   0.0800 
 33 H       -3.7740    -2.4990    -0.9630 H     1 <1>   0.0800 
 34 H       -4.7050    -1.8320    -2.2720 H     1 <1>   0.0800 
 35 H       -4.4880    -0.6480     0.3990 H     1 <1>   0.4500 
 36 H       -6.4730    -0.4100    -2.8230 H     1 <1>   0.0800 
 37 H       -7.3240     0.9840    -2.2020 H     1 <1>   0.0800 
 38 H        0.4460     4.1450    -1.0760 H     1 <1>   0.1500 
 39 H       -0.7580     3.8750     3.0060 H     1 <1>   0.1500 
 40 H       -6.6430    -1.2990     1.0050 H     1 <1>   0.0800 
 41 H        0.1000     6.1860     3.2800 H     1 <1>   0.1500 
 42 H       -8.1630    -2.5130    -0.4390 H     1 <1>   0.0800 
 43 H       -6.9850    -2.5770    -1.7250 H     1 <1>   0.0800 
 44 H       -5.3440    -3.7690    -0.1350 H     1 <1>   0.0800 
 45 H       -4.7550    -2.9260     1.2800 H     1 <1>   0.0800 
 46 H        1.0730     7.3460     1.3680 H     1 <1>   0.1500 
 47 H       -6.9460    -3.2750     2.3900 H     1 <1>   0.0800 
 48 H       -7.5020    -4.1750     1.0040 H     1 <1>   0.0800 
 49 H       -5.1360    -4.9330     2.7420 H     1 <1>   0.0800 
 50 H       -5.6860    -5.8310     1.3440 H     1 <1>   0.0800 
 51 H       -6.7050    -5.6930     2.7530 H     1 <1>   0.0800 
@<TRIPOS>BOND
  1   1   2  2   
  2   2   3  am  
  3   2   4  1   
  4   3   5  1   
  5   3   6  1   
  6   4   7  1   
  7   4  24  1   
  8   4  25  1   
  9   5   8  1   
 10   5  26  1   
 11   5  27  1   
 12   6   9  1   
 13   6  28  1   
 14   6  29  1   
 15   7  10  1   
 16   7  30  1   
 17   7  31  1   
 18   8  11  1   
 19   8  12  1   
 20   8  32  1   
 21   9  11  1   
 22   9  33  1   
 23   9  34  1   
 24  10  13  ar  
 25  10  14  ar  
 26  11  15  1   
 27  11  35  1   
 28  12  16  1   
 29  12  36  1   
 30  12  37  1   
 31  13  17  ar  
 32  13  38  1   
 33  14  18  ar  
 34  14  39  1   
 35  15  19  1   
 36  15  20  1   
 37  15  40  1   
 38  16  19  1   
 39  17  21  ar  
 40  18  21  ar  
 41  18  41  1   
 42  19  42  1   
 43  19  43  1   
 44  20  22  1   
 45  20  44  1   
 46  20  45  1   
 47  21  46  1   
 48  22  23  1   
 49  22  47  1   
 50  22  48  1   
 51  23  49  1   
 52  23  50  1   
 53  23  51  1   
@<TRIPOS>SUBSTRUCTURE
  1 ****   2 GROUP 4 **** **** 0

# MOE 2024.06 (io_trps.svl 2023.06)
