@<TRIPOS>MOLECULE
NONAME
58 62 1 0 0 
SMALL
USER_CHARGES


@<TRIPOS>ATOM
  1 O       -1.1450     5.5080     1.7460 O.2   1 <1>  -0.5700 
  2 C       -0.7600     4.6570     0.9660 C.2   1 <1>   0.5440 
  3 N       -1.6900     3.9630     0.2160 N.am  1 <1>  -0.6600 
  4 C        0.6570     4.4210     0.8250 C.ar  1 <1>   0.0860 
  5 C       -3.1590     4.0580     0.5300 C.3   1 <1>   0.1400 
  6 C       -1.3390     3.4210    -1.1340 C.3   1 <1>   0.1400 
  7 C        1.1860     3.1340     0.8840 C.ar  1 <1>   0.1600 
  8 C        1.5610     5.4590     0.6340 C.ar  1 <1>  -0.1500 
  9 C       -3.9200     4.6920    -0.6490 C.3   1 <1>   0.1440 
 10 C       -2.5630     2.8580    -1.8690 C.3   1 <1>  -0.1600 
 11 N        2.4570     2.8060     0.7350 N.ar  1 <1>  -0.6200 
 12 C        2.8890     5.1400     0.4870 C.ar  1 <1>  -0.1500 
 13 C       -5.3980     4.8480    -0.3330 C.ar  1 <1>   0.1670 
 14 C       -3.7400     3.8510    -1.9420 C.3   1 <1>  -0.1600 
 15 C       -3.4810     6.1670    -0.8650 C.3   1 <1>  -0.1600 
 16 C        3.3060     3.8100     0.5290 C.ar  1 <1>   0.4100 
 17 N       -6.1740     3.9110     0.1580 N.ar  1 <1>  -0.6200 
 18 C       -5.8470     6.0970    -0.6330 C.ar  1 <1>  -0.1430 
 19 C       -4.7520     6.9710    -1.1900 C.3   1 <1>  -0.0170 
 20 N        4.6380     3.4870     0.3570 N.pl3 1 <1>  -0.8380 
 21 C       -7.4530     4.2570     0.3590 C.ar  1 <1>   0.6200 
 22 C       -7.1690     6.3740    -0.4000 C.ar  1 <1>   0.1600 
 23 C        5.4410     4.0850    -0.7410 C.3   1 <1>   0.1290 
 24 C        5.1870     2.2260     0.9280 C.3   1 <1>   0.1290 
 25 N       -7.9770     5.4630     0.0950 N.ar  1 <1>  -0.6200 
 26 C       -8.3450     3.2430     0.9060 C.ar  1 <1>   0.0000 
 27 C       -9.4550     3.5850     1.6850 C.ar  1 <1>  -0.1500 
 28 C       -8.1340     1.8790     0.6780 C.ar  1 <1>  -0.1500 
 29 C      -10.3050     2.6260     2.2040 C.ar  1 <1>  -0.1500 
 30 C       -8.9790     0.9140     1.1940 C.ar  1 <1>  -0.1500 
 31 C      -10.0690     1.2860     1.9600 C.ar  1 <1>  -0.1500 
 32 H       -3.3280     4.6360     1.4220 H     1 <1>   0.0800 
 33 H       -3.5440     3.0700     0.7160 H     1 <1>   0.0800 
 34 H       -0.6060     2.6390    -1.0340 H     1 <1>   0.0800 
 35 H       -0.9060     4.2120    -1.7220 H     1 <1>   0.0800 
 36 H        0.5010     2.3250     1.0670 H     1 <1>   0.1500 
 37 H        1.2160     6.4780     0.6100 H     1 <1>   0.1500 
 38 H       -2.8830     1.9670    -1.3560 H     1 <1>   0.0800 
 39 H       -2.2800     2.5620    -2.8640 H     1 <1>   0.0800 
 40 H        3.6230     5.9090     0.3480 H     1 <1>   0.1500 
 41 H       -3.6090     4.5020    -2.7880 H     1 <1>   0.0800 
 42 H       -4.6360     3.2830    -2.1290 H     1 <1>   0.0800 
 43 H       -2.7260     6.2730    -1.6240 H     1 <1>   0.0800 
 44 H       -3.0770     6.5530     0.0560 H     1 <1>   0.0800 
 45 H       -4.8760     7.0740    -2.2540 H     1 <1>   0.0800 
 46 H       -4.7360     7.9410    -0.7240 H     1 <1>   0.0800 
 47 H       -7.5690     7.3480    -0.6200 H     1 <1>   0.1500 
 48 H        4.8360     4.7460    -1.3370 H     1 <1>   0.0800 
 49 H        5.8230     3.3080    -1.3800 H     1 <1>   0.0800 
 50 H        6.2650     4.6390    -0.3260 H     1 <1>   0.0800 
 51 H        4.6730     1.9790     1.8410 H     1 <1>   0.0800 
 52 H        6.2340     2.3450     1.1450 H     1 <1>   0.0800 
 53 H        5.0540     1.4210     0.2260 H     1 <1>   0.0800 
 54 H       -9.6540     4.6230     1.8860 H     1 <1>   0.1500 
 55 H       -7.2920     1.5710     0.0830 H     1 <1>   0.1500 
 56 H      -11.1520     2.9230     2.7990 H     1 <1>   0.1500 
 57 H       -8.7890    -0.1270     1.0000 H     1 <1>   0.1500 
 58 H      -10.7290     0.5370     2.3630 H     1 <1>   0.1500 
@<TRIPOS>BOND
  1   1   2  2   
  2   2   3  am  
  3   2   4  1   
  4   3   5  1   
  5   3   6  1   
  6   4   7  ar  
  7   4   8  ar  
  8   5   9  1   
  9   5  32  1   
 10   5  33  1   
 11   6  10  1   
 12   6  34  1   
 13   6  35  1   
 14   7  11  ar  
 15   7  36  1   
 16   8  12  ar  
 17   8  37  1   
 18   9  13  1   
 19   9  14  1   
 20   9  15  1   
 21  10  14  1   
 22  10  38  1   
 23  10  39  1   
 24  11  16  ar  
 25  12  16  ar  
 26  12  40  1   
 27  13  17  ar  
 28  13  18  ar  
 29  14  41  1   
 30  14  42  1   
 31  15  19  1   
 32  15  43  1   
 33  15  44  1   
 34  16  20  1   
 35  17  21  ar  
 36  18  19  1   
 37  18  22  ar  
 38  19  45  1   
 39  19  46  1   
 40  20  23  1   
 41  20  24  1   
 42  21  25  ar  
 43  21  26  1   
 44  22  25  ar  
 45  22  47  1   
 46  23  48  1   
 47  23  49  1   
 48  23  50  1   
 49  24  51  1   
 50  24  52  1   
 51  24  53  1   
 52  26  27  ar  
 53  26  28  ar  
 54  27  29  ar  
 55  27  54  1   
 56  28  30  ar  
 57  28  55  1   
 58  29  31  ar  
 59  29  56  1   
 60  30  31  ar  
 61  30  57  1   
 62  31  58  1   
@<TRIPOS>SUBSTRUCTURE
  1 ****   5 GROUP 4 **** **** 0

# MOE 2024.06 (io_trps.svl 2023.06)
