@<TRIPOS>MOLECULE
NONAME
41 43 1 0 0 
SMALL
USER_CHARGES


@<TRIPOS>ATOM
  1 O        0.1810    -0.1450     1.1070 O.2   1 <1>  -0.5700 
  2 C        1.1810    -0.7120     0.7210 C.2   1 <1>   0.5440 
  3 N        2.2800     0.0120     0.3270 N.am  1 <1>  -0.4940 
  4 C        1.2110    -2.1600     0.6390 C.ar  1 <1>   0.0860 
  5 C        2.5640     1.3700     0.5120 C.2   1 <1>   0.2040 
  6 C        0.0830    -2.8860     0.3120 C.ar  1 <1>  -0.1500 
  7 C        2.3950    -2.8830     0.8940 C.ar  1 <1>  -0.1500 
  8 O        1.9020     2.1150     1.3660 O.3   1 <1>  -0.0190 
  9 C        3.5100     2.1440    -0.0560 C.2   1 <1>  -0.1810 
 10 C        0.0850    -4.2820     0.2060 C.ar  1 <1>   0.3100 
 11 C        2.4280    -4.2490     0.8010 C.ar  1 <1>  -0.1500 
 12 N        2.3600     3.3410     1.4000 N.2   1 <1>  -0.4100 
 13 C        3.3240     3.3840     0.5530 C.2   1 <1>   0.1080 
 14 C        4.5410     1.7820    -1.1110 C.3   1 <1>   0.0210 
 15 N       -1.0600    -4.9240    -0.1340 N.ar  1 <1>  -0.6200 
 16 C        1.2870    -4.9850     0.4530 C.ar  1 <1>   0.3100 
 17 C        4.1280     4.6370     0.2790 C.3   1 <1>  -0.0590 
 18 C        5.8690     1.3970    -0.4570 C.3   1 <1>  -0.2400 
 19 C       -0.9560    -6.2140    -0.2090 C.ar  1 <1>   0.1670 
 20 N        1.3670    -6.3340     0.3640 N.ar  1 <1>  -0.6200 
 21 C        0.2560    -6.9180     0.0390 C.ar  1 <1>   0.1670 
 22 C       -2.2220    -6.9650    -0.5860 C.3   1 <1>  -0.0970 
 23 C        0.3040    -8.4330    -0.0680 C.3   1 <1>  -0.0970 
 24 H        2.9810    -0.5020    -0.1970 H     1 <1>   0.3700 
 25 H       -0.8460    -2.3770     0.1260 H     1 <1>   0.1500 
 26 H        3.2850    -2.3480     1.1810 H     1 <1>   0.1500 
 27 H        3.3300    -4.8010     0.9960 H     1 <1>   0.1500 
 28 H        4.6890     2.6170    -1.7750 H     1 <1>   0.0800 
 29 H        4.1790     0.9590    -1.7010 H     1 <1>   0.0800 
 30 H        5.1630     4.4670     0.5070 H     1 <1>   0.0800 
 31 H        3.7670     5.4440     0.8910 H     1 <1>   0.0800 
 32 H        4.0290     4.9170    -0.7530 H     1 <1>   0.0800 
 33 H        6.2550     2.2190     0.1190 H     1 <1>   0.0800 
 34 H        6.5920     1.1370    -1.2100 H     1 <1>   0.0800 
 35 H        5.7330     0.5550     0.1980 H     1 <1>   0.0800 
 36 H       -3.0350    -6.2760    -0.7340 H     1 <1>   0.0800 
 37 H       -2.4960    -7.6460     0.1980 H     1 <1>   0.0800 
 38 H       -2.0720    -7.5090    -1.5000 H     1 <1>   0.0800 
 39 H       -0.3770    -8.8760     0.6350 H     1 <1>   0.0800 
 40 H        1.2940    -8.7920     0.1510 H     1 <1>   0.0800 
 41 H        0.0460    -8.7430    -1.0640 H     1 <1>   0.0800 
@<TRIPOS>BOND
  1   1   2  2   
  2   2   3  am  
  3   2   4  1   
  4   3   5  1   
  5   3  24  1   
  6   4   6  ar  
  7   4   7  ar  
  8   5   8  1   
  9   5   9  2   
 10   6  10  ar  
 11   6  25  1   
 12   7  11  ar  
 13   7  26  1   
 14   8  12  1   
 15   9  13  1   
 16   9  14  1   
 17  10  15  ar  
 18  10  16  ar  
 19  11  16  ar  
 20  11  27  1   
 21  12  13  2   
 22  13  17  1   
 23  14  18  1   
 24  14  28  1   
 25  14  29  1   
 26  15  19  ar  
 27  16  20  ar  
 28  17  30  1   
 29  17  31  1   
 30  17  32  1   
 31  18  33  1   
 32  18  34  1   
 33  18  35  1   
 34  19  21  ar  
 35  19  22  1   
 36  20  21  ar  
 37  21  23  1   
 38  22  36  1   
 39  22  37  1   
 40  22  38  1   
 41  23  39  1   
 42  23  40  1   
 43  23  41  1   
@<TRIPOS>SUBSTRUCTURE
  1 ****   4 GROUP 4 **** **** 0

# MOE 2024.06 (io_trps.svl 2023.06)
