@<TRIPOS>MOLECULE
NONAME
36 37 1 0 0 
SMALL
USER_CHARGES


@<TRIPOS>ATOM
  1 O       -2.8120     0.7450    -2.2430 O.2   1 <1>  -0.5700 
  2 C       -2.4570     0.7360    -1.0880 C.2   1 <1>   0.5690 
  3 N       -2.2150    -0.4230    -0.4280 N.am  1 <1>  -0.7300 
  4 C       -2.2850     2.0630    -0.3500 C.3   1 <1>   0.1810 
  5 C       -2.3080    -1.7870    -0.9940 C.3   1 <1>   0.2200 
  6 O       -2.0230     1.8750     1.0220 O.3   1 <1>  -0.5600 
  7 C       -3.5420    -2.5170    -0.4850 C.3   1 <1>  -0.0800 
  8 C       -1.2030    -2.6530    -0.4050 C.3   1 <1>   0.1200 
  9 C       -1.8360     3.0600     1.7270 C.3   1 <1>   0.0400 
 10 C       -3.0740    -3.0820     0.8590 C.3   1 <1>   0.1200 
 11 C       -4.8330    -1.6820    -0.4050 C.3   1 <1>  -0.0160 
 12 O       -1.6760    -3.0750     0.8400 O.3   1 <1>  -0.5600 
 13 C       -6.0120    -2.5450     0.0180 C.ar  1 <1>  -0.1440 
 14 C       -6.4540    -2.5940     1.3250 C.ar  1 <1>  -0.1500 
 15 C       -6.6980    -3.3280    -0.8870 C.ar  1 <1>  -0.1500 
 16 C       -7.5280    -3.4050     1.6540 C.ar  1 <1>   0.1600 
 17 C       -7.7610    -4.1040    -0.4540 C.ar  1 <1>   0.1600 
 18 N       -8.1910    -4.1630     0.7960 N.ar  1 <1>  -0.6200 
 19 H       -1.9460    -0.3620     0.5600 H     1 <1>   0.3700 
 20 H       -3.1870     2.6390    -0.4520 H     1 <1>   0.0800 
 21 H       -1.4640     2.6010    -0.7880 H     1 <1>   0.0800 
 22 H       -2.2640    -1.7500    -2.0700 H     1 <1>   0.0800 
 23 H       -3.7220    -3.3530    -1.1390 H     1 <1>   0.0800 
 24 H       -0.2770    -2.1200    -0.2800 H     1 <1>   0.0800 
 25 H       -1.0440    -3.5300    -1.0080 H     1 <1>   0.0800 
 26 H       -1.6460     2.8120     2.7560 H     1 <1>   0.0800 
 27 H       -2.7270     3.6610     1.6580 H     1 <1>   0.0800 
 28 H       -0.9900     3.5870     1.3200 H     1 <1>   0.0800 
 29 H       -3.4200    -4.0900     1.0140 H     1 <1>   0.0800 
 30 H       -3.3880    -2.4590     1.6790 H     1 <1>   0.0800 
 31 H       -5.0360    -1.2470    -1.3680 H     1 <1>   0.0800 
 32 H       -4.7150    -0.8730     0.2940 H     1 <1>   0.0800 
 33 H       -5.9760    -2.0100     2.0890 H     1 <1>   0.1500 
 34 H       -6.4180    -3.3420    -1.9240 H     1 <1>   0.1500 
 35 H       -7.8590    -3.4300     2.6780 H     1 <1>   0.1500 
 36 H       -8.2850    -4.7090    -1.1750 H     1 <1>   0.1500 
@<TRIPOS>BOND
  1   1   2  2   
  2   2   3  am  
  3   2   4  1   
  4   3   5  1   
  5   3  19  1   
  6   4   6  1   
  7   4  20  1   
  8   4  21  1   
  9   5   7  1   
 10   5   8  1   
 11   5  22  1   
 12   6   9  1   
 13   7  10  1   
 14   7  11  1   
 15   7  23  1   
 16   8  12  1   
 17   8  24  1   
 18   8  25  1   
 19   9  26  1   
 20   9  27  1   
 21   9  28  1   
 22  10  12  1   
 23  10  29  1   
 24  10  30  1   
 25  11  13  1   
 26  11  31  1   
 27  11  32  1   
 28  13  14  ar  
 29  13  15  ar  
 30  14  16  ar  
 31  14  33  1   
 32  15  17  ar  
 33  15  34  1   
 34  16  18  ar  
 35  16  35  1   
 36  17  18  ar  
 37  17  36  1   
@<TRIPOS>SUBSTRUCTURE
  1 ****  11 GROUP 4 **** **** 0

# MOE 2024.06 (io_trps.svl 2023.06)
