@<TRIPOS>MOLECULE
NONAME
55 57 1 0 0 
SMALL
USER_CHARGES


@<TRIPOS>ATOM
  1 O       -1.8110     1.8350     3.1760 O.2   1 <1>  -0.5700 
  2 C       -1.9320     2.0430     1.9810 C.2   1 <1>   0.5440 
  3 N       -2.6980     1.1510     1.2510 N.am  1 <1>  -0.6600 
  4 C       -1.3030     3.2210     1.4140 C.ar  1 <1>   0.0860 
  5 C       -3.4040     1.4970    -0.0210 C.3   1 <1>   0.2200 
  6 C       -2.5670    -0.3020     1.5750 C.3   1 <1>   0.0600 
  7 C       -0.4910     3.1800     0.2700 C.ar  1 <1>   0.0830 
  8 C       -1.5020     4.4590     2.0270 C.ar  1 <1>  -0.1500 
  9 C       -4.0350     2.8900     0.0100 C.3   1 <1>  -0.1600 
 10 C       -4.6100     0.5910    -0.2730 C.3   1 <1>  -0.1600 
 11 O       -0.2680     1.9750    -0.3090 O.3   1 <1>  -0.3620 
 12 C        0.0670     4.3530    -0.2360 C.ar  1 <1>  -0.1500 
 13 C       -0.9470     5.6190     1.5230 C.ar  1 <1>  -0.1500 
 14 C       -5.1910     2.8580    -0.9990 C.3   1 <1>  -0.0800 
 15 C       -5.5460     1.3780    -1.1990 C.3   1 <1>  -0.0800 
 16 C        0.5770     1.7980    -1.4210 C.3   1 <1>   0.1200 
 17 C       -0.1630     5.5660     0.3850 C.ar  1 <1>  -0.1500 
 18 C       -6.4620     3.5480    -0.4870 C.3   1 <1>  -0.1600 
 19 C       -7.0260     1.2330    -0.8240 C.3   1 <1>  -0.1600 
 20 C        0.5620     0.3170    -1.7830 C.3   1 <1>  -0.2400 
 21 C       -7.2870     2.4090     0.1100 C.3   1 <1>   0.4230 
 22 N       -8.7410     2.7100     0.2870 N.4   1 <1>  -0.9590 
 23 C       -9.4620     3.1430    -0.9560 C.3   1 <1>   0.2630 
 24 C       -8.9340     3.7190     1.3730 C.3   1 <1>   0.2630 
 25 H       -2.7210     1.4230    -0.8510 H     1 <1>   0.0800 
 26 H       -2.3410    -0.8600     0.6840 H     1 <1>   0.0800 
 27 H       -3.4800    -0.6650     2.0110 H     1 <1>   0.0800 
 28 H       -1.7690    -0.4600     2.2800 H     1 <1>   0.0800 
 29 H       -2.1020     4.5000     2.9200 H     1 <1>   0.1500 
 30 H       -4.4030     3.0840     1.0020 H     1 <1>   0.0800 
 31 H       -3.3270     3.6510    -0.2660 H     1 <1>   0.0800 
 32 H       -4.3140    -0.3390    -0.7240 H     1 <1>   0.0800 
 33 H       -5.1010     0.3960     0.6650 H     1 <1>   0.0800 
 34 H        0.6870     4.3440    -1.1120 H     1 <1>   0.1500 
 35 H       -1.1200     6.5600     2.0160 H     1 <1>   0.1500 
 36 H       -4.8670     3.2920    -1.9320 H     1 <1>   0.0800 
 37 H       -5.3730     1.0850    -2.2220 H     1 <1>   0.0800 
 38 H        0.2010     2.3920    -2.2360 H     1 <1>   0.0800 
 39 H        1.5690     2.1160    -1.1500 H     1 <1>   0.0800 
 40 H        0.2720     6.4690    -0.0100 H     1 <1>   0.1500 
 41 H       -6.9600     3.9880    -1.3300 H     1 <1>   0.0800 
 42 H       -6.2390     4.3130     0.2360 H     1 <1>   0.0800 
 43 H       -7.2320     0.2880    -0.3540 H     1 <1>   0.0800 
 44 H       -7.6060     1.3170    -1.7250 H     1 <1>   0.0800 
 45 H       -0.4370     0.0060    -2.0310 H     1 <1>   0.0800 
 46 H        0.9250    -0.2680    -0.9570 H     1 <1>   0.0800 
 47 H        1.1970     0.1420    -2.6320 H     1 <1>   0.0800 
 48 H       -6.8570     2.1610     1.0680 H     1 <1>   0.0800 
 49 H       -9.1730     1.8290     0.6020 H     1 <1>   0.4500 
 50 H       -9.0610     4.0740    -1.3210 H     1 <1>   0.0800 
 51 H      -10.5110     3.2820    -0.7480 H     1 <1>   0.0800 
 52 H       -9.3670     2.3980    -1.7290 H     1 <1>   0.0800 
 53 H       -8.4980     4.6630     1.0890 H     1 <1>   0.0800 
 54 H       -8.4640     3.3840     2.2840 H     1 <1>   0.0800 
 55 H       -9.9850     3.8690     1.5650 H     1 <1>   0.0800 
@<TRIPOS>BOND
  1   1   2  2   
  2   2   3  am  
  3   2   4  1   
  4   3   5  1   
  5   3   6  1   
  6   4   7  ar  
  7   4   8  ar  
  8   5   9  1   
  9   5  10  1   
 10   5  25  1   
 11   6  26  1   
 12   6  27  1   
 13   6  28  1   
 14   7  11  1   
 15   7  12  ar  
 16   8  13  ar  
 17   8  29  1   
 18   9  14  1   
 19   9  30  1   
 20   9  31  1   
 21  10  15  1   
 22  10  32  1   
 23  10  33  1   
 24  11  16  1   
 25  12  17  ar  
 26  12  34  1   
 27  13  17  ar  
 28  13  35  1   
 29  14  15  1   
 30  14  18  1   
 31  14  36  1   
 32  15  19  1   
 33  15  37  1   
 34  16  20  1   
 35  16  38  1   
 36  16  39  1   
 37  17  40  1   
 38  18  21  1   
 39  18  41  1   
 40  18  42  1   
 41  19  21  1   
 42  19  43  1   
 43  19  44  1   
 44  20  45  1   
 45  20  46  1   
 46  20  47  1   
 47  21  22  1   
 48  21  48  1   
 49  22  23  1   
 50  22  24  1   
 51  22  49  1   
 52  23  50  1   
 53  23  51  1   
 54  23  52  1   
 55  24  53  1   
 56  24  54  1   
 57  24  55  1   
@<TRIPOS>SUBSTRUCTURE
  1 ****   9 GROUP 4 **** **** 0

# MOE 2024.06 (io_trps.svl 2023.06)
