@<TRIPOS>MOLECULE
NONAME
54 57 1 0 0 
SMALL
USER_CHARGES


@<TRIPOS>ATOM
  1 O        1.2550    -0.3040    -1.3630 O.2   1 <1>  -0.5700 
  2 C        2.4550    -0.3980    -1.4020 C.2   1 <1>   0.5690 
  3 N        3.1210    -1.5680    -1.2340 N.am  1 <1>  -0.6600 
  4 C        3.3000     0.8450    -1.5620 C.3   1 <1>  -0.0190 
  5 C        4.6030    -1.5500    -1.1110 C.3   1 <1>   0.2200 
  6 C        2.4130    -2.8640    -0.9420 C.3   1 <1>   0.2010 
  7 C        3.7200     1.2550    -0.1420 C.3   1 <1>   0.3430 
  8 C        4.4520     0.5850    -2.5620 C.3   1 <1>  -0.1600 
  9 C        5.0050    -0.9650     0.2700 C.3   1 <1>   0.3430 
 10 C        5.1850    -0.7500    -2.2940 C.3   1 <1>  -0.1600 
 11 C        2.4730    -3.2450     0.5440 C.2   1 <1>   0.5690 
 12 N        4.9110     0.5390     0.4560 N.4   1 <1>  -0.9590 
 13 O        3.5650    -3.5360     0.9840 O.2   1 <1>  -0.5700 
 14 N        1.3570    -3.2280     1.3480 N.am  1 <1>  -0.6600 
 15 C        6.2010     1.2240     0.1700 C.3   1 <1>   0.4860 
 16 C        1.3880    -3.7670     2.7380 C.3   1 <1>   0.0600 
 17 C        0.0220    -2.7140     0.9280 C.3   1 <1>   0.0600 
 18 C        6.2880     2.4290     1.0870 C.ar  1 <1>  -0.1440 
 19 C        6.0340     3.7420     0.6090 C.ar  1 <1>   0.0000 
 20 C        6.6080     2.2190     2.4050 C.ar  1 <1>  -0.1500 
 21 C        6.0680     4.8170     1.5310 C.ar  1 <1>   0.3100 
 22 C        5.7530     4.0680    -0.7360 C.ar  1 <1>  -0.1500 
 23 C        6.6640     3.2860     3.3040 C.ar  1 <1>  -0.1500 
 24 N        5.8000     6.0990     1.1850 N.ar  1 <1>  -0.6200 
 25 C        6.3930     4.5530     2.8690 C.ar  1 <1>  -0.1500 
 26 C        5.5030     5.3680    -1.0580 C.ar  1 <1>  -0.1500 
 27 C        5.5340     6.3470    -0.0580 C.ar  1 <1>   0.1600 
 28 H        2.6650     1.6200    -1.9550 H     1 <1>   0.0800 
 29 H        4.9680    -2.5630    -1.1610 H     1 <1>   0.0800 
 30 H        1.3940    -2.8050    -1.2750 H     1 <1>   0.0800 
 31 H        2.8790    -3.6500    -1.5070 H     1 <1>   0.0800 
 32 H        2.8660     1.1010     0.4990 H     1 <1>   0.0800 
 33 H        3.9150     2.3150    -0.1400 H     1 <1>   0.0800 
 34 H        4.0170     0.5250    -3.5470 H     1 <1>   0.0800 
 35 H        5.1410     1.4070    -2.5870 H     1 <1>   0.0800 
 36 H        6.0150    -1.2770     0.4770 H     1 <1>   0.0800 
 37 H        4.3840    -1.4420     1.0100 H     1 <1>   0.0800 
 38 H        6.2360    -0.5790    -2.1410 H     1 <1>   0.0800 
 39 H        5.1050    -1.3650    -3.1760 H     1 <1>   0.0800 
 40 H        4.8040     0.6760     1.4710 H     1 <1>   0.4500 
 41 H        7.0240     0.5650     0.3950 H     1 <1>   0.0800 
 42 H        6.2730     1.5080    -0.8640 H     1 <1>   0.0800 
 43 H        0.6180    -4.5090     2.8590 H     1 <1>   0.0800 
 44 H        1.2240    -2.9700     3.4420 H     1 <1>   0.0800 
 45 H        2.3380    -4.2280     2.9540 H     1 <1>   0.0800 
 46 H       -0.5260    -2.3620     1.7850 H     1 <1>   0.0800 
 47 H       -0.5400    -3.5010     0.4560 H     1 <1>   0.0800 
 48 H        0.1250    -1.8910     0.2430 H     1 <1>   0.0800 
 49 H        6.8270     1.2360     2.7910 H     1 <1>   0.1500 
 50 H        5.7420     3.3250    -1.5070 H     1 <1>   0.1500 
 51 H        6.9190     3.1030     4.3350 H     1 <1>   0.1500 
 52 H        6.4250     5.3890     3.5450 H     1 <1>   0.1500 
 53 H        5.2840     5.6710    -2.0660 H     1 <1>   0.1500 
 54 H        5.3270     7.3670    -0.3400 H     1 <1>   0.1500 
@<TRIPOS>BOND
  1   1   2  2   
  2   2   3  am  
  3   2   4  1   
  4   3   5  1   
  5   3   6  1   
  6   4   7  1   
  7   4   8  1   
  8   4  28  1   
  9   5   9  1   
 10   5  10  1   
 11   5  29  1   
 12   6  11  1   
 13   6  30  1   
 14   6  31  1   
 15   7  12  1   
 16   7  32  1   
 17   7  33  1   
 18   8  10  1   
 19   8  34  1   
 20   8  35  1   
 21   9  12  1   
 22   9  36  1   
 23   9  37  1   
 24  10  38  1   
 25  10  39  1   
 26  11  13  2   
 27  11  14  am  
 28  12  15  1   
 29  12  40  1   
 30  14  16  1   
 31  14  17  1   
 32  15  18  1   
 33  15  41  1   
 34  15  42  1   
 35  16  43  1   
 36  16  44  1   
 37  16  45  1   
 38  17  46  1   
 39  17  47  1   
 40  17  48  1   
 41  18  19  ar  
 42  18  20  ar  
 43  19  21  ar  
 44  19  22  ar  
 45  20  23  ar  
 46  20  49  1   
 47  21  24  ar  
 48  21  25  ar  
 49  22  26  ar  
 50  22  50  1   
 51  23  25  ar  
 52  23  51  1   
 53  24  27  ar  
 54  25  52  1   
 55  26  27  ar  
 56  26  53  1   
 57  27  54  1   
@<TRIPOS>SUBSTRUCTURE
  1 ****  12 GROUP 4 **** **** 0

# MOE 2024.06 (io_trps.svl 2023.06)
