@<TRIPOS>MOLECULE
NONAME
53 56 1 0 0 
SMALL
USER_CHARGES


@<TRIPOS>ATOM
  1 CL       2.0130    -0.5930     1.0940 Cl    1 <1>  -0.1770 
  2 C        0.9800    -1.9680     0.8030 C.ar  1 <1>   0.1770 
  3 C       -0.3100    -1.9570     1.3140 C.ar  1 <1>  -0.1500 
  4 C        1.4680    -3.0360     0.0700 C.ar  1 <1>  -0.1500 
  5 C       -1.1490    -3.0410     1.0890 C.ar  1 <1>  -0.1440 
  6 C        0.6270    -4.1130    -0.1490 C.ar  1 <1>  -0.1440 
  7 C       -0.6500    -4.1070     0.3520 C.ar  1 <1>   0.0830 
  8 C       -2.5660    -3.0790     1.6240 C.3   1 <1>   0.4870 
  9 C        0.8580    -5.3980    -0.8980 C.3   1 <1>   0.1440 
 10 O       -1.3380    -5.2200     0.0400 O.3   1 <1>  -0.3630 
 11 N       -3.4770    -3.3940     0.5020 N.4   1 <1>  -0.9590 
 12 C       -0.4820    -6.1320    -0.6450 C.3   1 <1>   0.1200 
 13 C        2.0480    -6.1680    -0.3120 C.3   1 <1>  -0.2400 
 14 C        1.0720    -5.1120    -2.3890 C.3   1 <1>  -0.2400 
 15 C       -4.8230    -3.8340     0.9750 C.3   1 <1>   0.3430 
 16 C       -3.5570    -2.2930    -0.4970 C.3   1 <1>   0.3430 
 17 C       -5.6910    -4.3400    -0.1980 C.3   1 <1>   0.0000 
 18 C       -4.3790    -2.7540    -1.7020 C.3   1 <1>  -0.1600 
 19 C       -7.0840    -4.7390     0.3180 C.3   1 <1>   0.2000 
 20 C       -5.7750    -3.2530    -1.2900 C.3   1 <1>  -0.1600 
 21 C       -5.1480    -5.6750    -0.7370 C.3   1 <1>  -0.1600 
 22 O       -7.4830    -3.9190     1.3590 O.3   1 <1>  -0.6800 
 23 C       -6.9750    -6.1870     0.8040 C.3   1 <1>  -0.1600 
 24 C       -5.6550    -6.7340     0.2430 C.3   1 <1>  -0.1600 
 25 H       -0.6320    -1.1000     1.8800 H     1 <1>   0.1500 
 26 H        2.4730    -3.0190    -0.3140 H     1 <1>   0.1500 
 27 H       -2.8300    -2.1330     2.0690 H     1 <1>   0.0800 
 28 H       -2.6330    -3.8470     2.3770 H     1 <1>   0.0800 
 29 H       -3.0270    -4.1990     0.0340 H     1 <1>   0.4500 
 30 H       -0.3470    -6.9920    -0.0140 H     1 <1>   0.0800 
 31 H       -0.9610    -6.4280    -1.5620 H     1 <1>   0.0800 
 32 H        2.9590    -5.6130    -0.4510 H     1 <1>   0.0800 
 33 H        2.1540    -7.1230    -0.7950 H     1 <1>   0.0800 
 34 H        1.9080    -6.3280     0.7430 H     1 <1>   0.0800 
 35 H        1.9700    -4.5380    -2.5340 H     1 <1>   0.0800 
 36 H        0.2450    -4.5520    -2.7870 H     1 <1>   0.0800 
 37 H        1.1640    -6.0320    -2.9400 H     1 <1>   0.0800 
 38 H       -4.7240    -4.6210     1.7030 H     1 <1>   0.0800 
 39 H       -5.3250    -3.0050     1.4480 H     1 <1>   0.0800 
 40 H       -4.0260    -1.4310    -0.0510 H     1 <1>   0.0800 
 41 H       -2.5670    -2.0150    -0.8230 H     1 <1>   0.0800 
 42 H       -4.4860    -1.9300    -2.3860 H     1 <1>   0.0800 
 43 H       -3.8450    -3.5310    -2.2210 H     1 <1>   0.0800 
 44 H       -7.8130    -4.6700    -0.4740 H     1 <1>   0.0800 
 45 H       -6.2960    -3.6290    -2.1550 H     1 <1>   0.0800 
 46 H       -6.3440    -2.4210    -0.9100 H     1 <1>   0.0800 
 47 H       -5.5780    -5.8750    -1.7050 H     1 <1>   0.0800 
 48 H       -4.0770    -5.7040    -0.8340 H     1 <1>   0.0800 
 49 H       -8.3890    -4.1570     1.6460 H     1 <1>   0.4000 
 50 H       -6.9720    -6.2520     1.8790 H     1 <1>   0.0800 
 51 H       -7.8010    -6.7600     0.4190 H     1 <1>   0.0800 
 52 H       -4.9480    -6.8620     1.0450 H     1 <1>   0.0800 
 53 H       -5.7940    -7.6850    -0.2440 H     1 <1>   0.0800 
@<TRIPOS>BOND
  1   1   2  1   
  2   2   3  ar  
  3   2   4  ar  
  4   3   5  ar  
  5   3  25  1   
  6   4   6  ar  
  7   4  26  1   
  8   5   7  ar  
  9   5   8  1   
 10   6   7  ar  
 11   6   9  1   
 12   7  10  1   
 13   8  11  1   
 14   8  27  1   
 15   8  28  1   
 16   9  12  1   
 17   9  13  1   
 18   9  14  1   
 19  10  12  1   
 20  11  15  1   
 21  11  16  1   
 22  11  29  1   
 23  12  30  1   
 24  12  31  1   
 25  13  32  1   
 26  13  33  1   
 27  13  34  1   
 28  14  35  1   
 29  14  36  1   
 30  14  37  1   
 31  15  17  1   
 32  15  38  1   
 33  15  39  1   
 34  16  18  1   
 35  16  40  1   
 36  16  41  1   
 37  17  19  1   
 38  17  20  1   
 39  17  21  1   
 40  18  20  1   
 41  18  42  1   
 42  18  43  1   
 43  19  22  1   
 44  19  23  1   
 45  19  44  1   
 46  20  45  1   
 47  20  46  1   
 48  21  24  1   
 49  21  47  1   
 50  21  48  1   
 51  22  49  1   
 52  23  24  1   
 53  23  50  1   
 54  23  51  1   
 55  24  52  1   
 56  24  53  1   
@<TRIPOS>SUBSTRUCTURE
  1 ****  11 GROUP 4 **** **** 0

# MOE 2024.06 (io_trps.svl 2023.06)
