@<TRIPOS>MOLECULE
NONAME
48 51 1 0 0 
SMALL
USER_CHARGES


@<TRIPOS>ATOM
  1 S       -1.0180     0.0870    -0.5220 S.3   1 <1>  -0.0800 
  2 C       -0.9990    -1.3210     0.5360 C.2   1 <1>  -0.1400 
  3 C       -0.6500     1.1570     0.8190 C.2   1 <1>  -0.1100 
  4 C       -0.7300    -0.9490     1.8010 C.2   1 <1>  -0.1500 
  5 C       -1.2760    -2.6900    -0.0700 C.3   1 <1>   0.3800 
  6 C       -0.5310     0.4590     1.9630 C.2   1 <1>  -0.1500 
  7 O       -0.3260    -2.8810    -1.0560 O.3   1 <1>  -0.6800 
  8 C       -2.6850    -2.8210    -0.6850 C.3   1 <1>  -0.0800 
  9 C       -3.7770    -2.4410     0.3340 C.3   1 <1>  -0.1600 
 10 C       -2.9340    -4.2620    -1.1690 C.3   1 <1>  -0.1600 
 11 C       -5.1740    -2.5670    -0.2650 C.3   1 <1>   0.2090 
 12 C       -4.3580    -4.5150    -1.6800 C.3   1 <1>   0.2090 
 13 N       -5.3970    -3.9350    -0.7840 N.pl3 1 <1>  -0.8380 
 14 C       -6.3000    -4.7540    -0.1220 C.ar  1 <1>   0.1000 
 15 C       -5.9370    -5.7320     0.7990 C.ar  1 <1>  -0.1790 
 16 C       -7.6830    -4.6100    -0.3400 C.ar  1 <1>   0.0000 
 17 C       -4.5910    -6.0570     1.1630 C.2   1 <1>   0.9790 
 18 C       -6.9400    -6.4710     1.4430 C.ar  1 <1>   0.1600 
 19 C       -8.5620    -5.3970     0.3680 C.ar  1 <1>   0.1050 
 20 C       -8.5240    -3.8240    -1.1560 C.2   1 <1>   0.1080 
 21 O       -4.0000    -6.9970     0.5980 O.co2 1 <1>  -0.9000 
 22 O       -4.0200    -5.4780     2.1060 O.co2 1 <1>  -0.9000 
 23 N       -8.2340    -6.3420     1.2720 N.ar  1 <1>  -0.5670 
 24 N       -9.8090    -5.0350    -0.0340 N.pl3 1 <1>   0.3140 
 25 N       -9.7810    -4.0630    -0.9760 N.2   1 <1>  -0.7070 
 26 C       -8.0420    -2.8040    -2.1620 C.3   1 <1>  -0.0590 
 27 C      -11.0640    -5.6130     0.4550 C.3   1 <1>   0.0160 
 28 H       -0.5610     2.2070     0.6060 H     1 <1>   0.1500 
 29 H       -0.6640    -1.6190     2.6420 H     1 <1>   0.1500 
 30 H       -1.1370    -3.4570     0.6750 H     1 <1>   0.0800 
 31 H       -0.3080     0.8750     2.9300 H     1 <1>   0.1500 
 32 H       -0.1710    -2.0190    -1.4840 H     1 <1>   0.4000 
 33 H       -2.7630    -2.1510    -1.5220 H     1 <1>   0.0800 
 34 H       -3.6460    -1.4280     0.6670 H     1 <1>   0.0800 
 35 H       -3.7140    -3.0810     1.1970 H     1 <1>   0.0800 
 36 H       -2.7390    -4.9410    -0.3590 H     1 <1>   0.0800 
 37 H       -2.2420    -4.5140    -1.9510 H     1 <1>   0.0800 
 38 H       -5.2920    -1.8640    -1.0700 H     1 <1>   0.0800 
 39 H       -5.9090    -2.3470     0.4910 H     1 <1>   0.0800 
 40 H       -4.5160    -5.5770    -1.7720 H     1 <1>   0.0800 
 41 H       -4.4690    -4.0760    -2.6550 H     1 <1>   0.0800 
 42 H       -6.6050    -7.2140     2.1470 H     1 <1>   0.1500 
 43 H       -7.2150    -3.2050    -2.7170 H     1 <1>   0.0800 
 44 H       -7.7310    -1.9150    -1.6490 H     1 <1>   0.0800 
 45 H       -8.8350    -2.5590    -2.8430 H     1 <1>   0.0800 
 46 H      -11.1000    -5.5140     1.5230 H     1 <1>   0.0800 
 47 H      -11.0960    -6.6520     0.1860 H     1 <1>   0.0800 
 48 H      -11.8910    -5.0930     0.0100 H     1 <1>   0.0800 
@<TRIPOS>BOND
  1   1   2  1   
  2   1   3  1   
  3   2   4  2   
  4   2   5  1   
  5   3   6  2   
  6   3  28  1   
  7   4   6  1   
  8   4  29  1   
  9   5   7  1   
 10   5   8  1   
 11   5  30  1   
 12   6  31  1   
 13   7  32  1   
 14   8   9  1   
 15   8  10  1   
 16   8  33  1   
 17   9  11  1   
 18   9  34  1   
 19   9  35  1   
 20  10  12  1   
 21  10  36  1   
 22  10  37  1   
 23  11  13  1   
 24  11  38  1   
 25  11  39  1   
 26  12  13  1   
 27  12  40  1   
 28  12  41  1   
 29  13  14  1   
 30  14  15  ar  
 31  14  16  ar  
 32  15  17  1   
 33  15  18  ar  
 34  16  19  ar  
 35  16  20  1   
 36  17  21  ar  
 37  17  22  ar  
 38  18  23  ar  
 39  18  42  1   
 40  19  23  ar  
 41  19  24  1   
 42  20  25  2   
 43  20  26  1   
 44  24  25  1   
 45  24  27  1   
 46  26  43  1   
 47  26  44  1   
 48  26  45  1   
 49  27  46  1   
 50  27  47  1   
 51  27  48  1   
@<TRIPOS>SUBSTRUCTURE
  1 ****  13 GROUP 4 **** **** 0

# MOE 2024.06 (io_trps.svl 2023.06)
