@<TRIPOS>MOLECULE
NONAME
41 42 1 0 0 
SMALL
USER_CHARGES


@<TRIPOS>ATOM
  1 CL      -1.5430    -0.1270    -2.6830 Cl    1 <1>  -0.1770 
  2 C       -2.0220    -1.1550    -1.3570 C.ar  1 <1>   0.1770 
  3 C       -2.7500    -2.2980    -1.6150 C.ar  1 <1>  -0.1500 
  4 C       -1.6620    -0.8050    -0.0710 C.ar  1 <1>  -0.1500 
  5 C       -3.1430    -3.1420    -0.5750 C.ar  1 <1>   0.0860 
  6 C       -2.0460    -1.6230     0.9770 C.ar  1 <1>  -0.1500 
  7 C       -3.9020    -4.3500    -0.8510 C.2   1 <1>   0.5440 
  8 C       -2.7770    -2.7720     0.7240 C.ar  1 <1>  -0.1500 
  9 O       -4.5980    -4.4350    -1.8440 O.2   1 <1>  -0.5700 
 10 N       -3.8610    -5.4180    -0.0030 N.am  1 <1>  -0.7300 
 11 C       -4.6030    -6.6830    -0.2080 C.3   1 <1>   0.2200 
 12 C       -6.0220    -6.5260     0.3430 C.3   1 <1>  -0.0800 
 13 C       -4.0140    -7.7900     0.6630 C.3   1 <1>   0.1200 
 14 C       -6.0600    -7.4820     1.5420 C.3   1 <1>   0.1200 
 15 C       -7.1210    -6.6990    -0.7320 C.3   1 <1>  -0.0550 
 16 O       -4.7270    -7.7220     1.8550 O.3   1 <1>  -0.5600 
 17 S       -7.3340    -8.3300    -1.4630 S.o2  1 <1>   1.3330 
 18 O       -6.0440    -8.9740    -1.5740 O.2   1 <1>  -0.6500 
 19 O       -8.1720    -8.2130    -2.6340 O.2   1 <1>  -0.6500 
 20 N       -8.2390    -9.1720    -0.2960 N.am  1 <1>  -0.8490 
 21 C       -9.6820    -8.9200    -0.3820 C.3   1 <1>   0.1160 
 22 C       -7.9870   -10.6170    -0.3350 C.3   1 <1>   0.1160 
 23 H       -3.0170    -2.5400    -2.6290 H     1 <1>   0.1500 
 24 H       -1.0940     0.0910     0.1030 H     1 <1>   0.1500 
 25 H       -1.7770    -1.3620     1.9870 H     1 <1>   0.1500 
 26 H       -3.0740    -3.3860     1.5550 H     1 <1>   0.1500 
 27 H       -3.3440    -5.3700     0.8760 H     1 <1>   0.3700 
 28 H       -4.5720    -6.9560    -1.2500 H     1 <1>   0.0800 
 29 H       -6.1360    -5.5310     0.7360 H     1 <1>   0.0800 
 30 H       -2.9640    -7.6640     0.8560 H     1 <1>   0.0800 
 31 H       -4.1940    -8.7570     0.2240 H     1 <1>   0.0800 
 32 H       -6.5050    -8.4310     1.3110 H     1 <1>   0.0800 
 33 H       -6.5490    -7.0500     2.3980 H     1 <1>   0.0800 
 34 H       -6.8930    -6.0100    -1.5240 H     1 <1>   0.0800 
 35 H       -8.0570    -6.3850    -0.3150 H     1 <1>   0.0800 
 36 H      -10.1900    -9.4000     0.4370 H     1 <1>   0.0800 
 37 H      -10.0770    -9.3010    -1.3100 H     1 <1>   0.0800 
 38 H       -9.8800    -7.8630    -0.3320 H     1 <1>   0.0800 
 39 H       -8.5690   -11.1190     0.4190 H     1 <1>   0.0800 
 40 H       -6.9460   -10.8160    -0.1430 H     1 <1>   0.0800 
 41 H       -8.2420   -11.0150    -1.3040 H     1 <1>   0.0800 
@<TRIPOS>BOND
  1   1   2  1   
  2   2   3  ar  
  3   2   4  ar  
  4   3   5  ar  
  5   3  23  1   
  6   4   6  ar  
  7   4  24  1   
  8   5   7  1   
  9   5   8  ar  
 10   6   8  ar  
 11   6  25  1   
 12   7   9  2   
 13   7  10  am  
 14   8  26  1   
 15  10  11  1   
 16  10  27  1   
 17  11  12  1   
 18  11  13  1   
 19  11  28  1   
 20  12  14  1   
 21  12  15  1   
 22  12  29  1   
 23  13  16  1   
 24  13  30  1   
 25  13  31  1   
 26  14  16  1   
 27  14  32  1   
 28  14  33  1   
 29  15  17  1   
 30  15  34  1   
 31  15  35  1   
 32  17  18  2   
 33  17  19  2   
 34  17  20  am  
 35  20  21  1   
 36  20  22  1   
 37  21  36  1   
 38  21  37  1   
 39  21  38  1   
 40  22  39  1   
 41  22  40  1   
 42  22  41  1   
@<TRIPOS>SUBSTRUCTURE
  1 ****  11 GROUP 4 **** **** 0

# MOE 2024.06 (io_trps.svl 2023.06)
