@<TRIPOS>MOLECULE
NONAME
53 54 1 0 0 
SMALL
USER_CHARGES


@<TRIPOS>ATOM
  1 O        0.5680     2.7050    -1.7240 O.2   1 <1>  -0.5700 
  2 C       -0.3460     3.4310    -1.4090 C.2   1 <1>   0.5690 
  3 N       -1.0260     3.3090    -0.2310 N.am  1 <1>  -0.6600 
  4 C       -0.7780     4.5390    -2.3720 C.3   1 <1>   0.1810 
  5 C       -2.0640     4.3430     0.0790 C.3   1 <1>   0.3640 
  6 C       -0.6330     2.3230     0.8070 C.3   1 <1>   0.2200 
  7 O       -1.0430     5.7720    -1.7330 O.3   1 <1>  -0.5600 
  8 C       -3.4470     3.9760    -0.4840 C.ar  1 <1>  -0.1440 
  9 C       -1.5980     5.7400    -0.4130 C.3   1 <1>   0.2610 
 10 C       -1.8530     1.5690     1.3380 C.3   1 <1>  -0.2400 
 11 C        0.1270     3.0300     1.9300 C.3   1 <1>  -0.2400 
 12 C       -3.6600     2.9470    -1.3960 C.ar  1 <1>  -0.1500 
 13 C       -4.5440     4.7070    -0.0460 C.ar  1 <1>  -0.1500 
 14 C       -0.6030     6.2990     0.6080 C.2   1 <1>   0.5690 
 15 C       -4.9310     2.6700    -1.8680 C.ar  1 <1>  -0.1500 
 16 C       -5.8160     4.4320    -0.5160 C.ar  1 <1>  -0.1500 
 17 O       -0.9910     6.5270     1.7310 O.2   1 <1>  -0.5700 
 18 N        0.6870     6.5210     0.2360 N.am  1 <1>  -0.7300 
 19 C       -6.0110     3.4140    -1.4300 C.ar  1 <1>  -0.1500 
 20 C        1.7680     7.0370     1.0960 C.3   1 <1>   0.1400 
 21 C        2.3930     8.2600     0.4270 C.3   1 <1>  -0.1600 
 22 C        3.5260     8.8440     1.2810 C.3   1 <1>  -0.1600 
 23 C        4.1510    10.0720     0.6060 C.3   1 <1>  -0.1600 
 24 C        5.2750    10.6560     1.4610 C.3   1 <1>   0.1200 
 25 O        5.7860    11.7620     0.8110 O.3   1 <1>  -0.6800 
 26 H       -1.6710     4.2360    -2.8870 H     1 <1>   0.0800 
 27 H       -0.0050     4.7070    -3.1000 H     1 <1>   0.0800 
 28 H       -2.1840     4.4010     1.1460 H     1 <1>   0.0800 
 29 H        0.0310     1.5980     0.3630 H     1 <1>   0.0800 
 30 H       -2.4380     6.4080    -0.4190 H     1 <1>   0.0800 
 31 H       -2.5270     2.2240     1.8590 H     1 <1>   0.0800 
 32 H       -1.5340     0.8050     2.0230 H     1 <1>   0.0800 
 33 H       -2.3730     1.0930     0.5270 H     1 <1>   0.0800 
 34 H       -0.5040     3.7160     2.4650 H     1 <1>   0.0800 
 35 H        0.9670     3.5630     1.5220 H     1 <1>   0.0800 
 36 H        0.4990     2.3020     2.6280 H     1 <1>   0.0800 
 37 H       -2.8470     2.3390    -1.7500 H     1 <1>   0.1500 
 38 H       -4.4200     5.5010     0.6710 H     1 <1>   0.1500 
 39 H       -5.0800     1.8730    -2.5750 H     1 <1>   0.1500 
 40 H       -6.6560     5.0100    -0.1690 H     1 <1>   0.1500 
 41 H        0.9260     6.3430    -0.7440 H     1 <1>   0.3700 
 42 H       -7.0000     3.1990    -1.7970 H     1 <1>   0.1500 
 43 H        1.3710     7.3050     2.0620 H     1 <1>   0.0800 
 44 H        2.5080     6.2660     1.2330 H     1 <1>   0.0800 
 45 H        2.7810     7.9790    -0.5370 H     1 <1>   0.0800 
 46 H        1.6310     9.0080     0.2880 H     1 <1>   0.0800 
 47 H        4.2830     8.0930     1.4340 H     1 <1>   0.0800 
 48 H        3.1360     9.1270     2.2450 H     1 <1>   0.0800 
 49 H        3.3930    10.8230     0.4640 H     1 <1>   0.0800 
 50 H        4.5430     9.7870    -0.3550 H     1 <1>   0.0800 
 51 H        6.0720     9.9460     1.6030 H     1 <1>   0.0800 
 52 H        4.9040    10.9780     2.4200 H     1 <1>   0.0800 
 53 H        6.1220    11.5170    -0.0720 H     1 <1>   0.4000 
@<TRIPOS>BOND
  1   1   2  2   
  2   2   3  am  
  3   2   4  1   
  4   3   5  1   
  5   3   6  1   
  6   4   7  1   
  7   4  26  1   
  8   4  27  1   
  9   5   8  1   
 10   5   9  1   
 11   5  28  1   
 12   6  10  1   
 13   6  11  1   
 14   6  29  1   
 15   7   9  1   
 16   8  12  ar  
 17   8  13  ar  
 18   9  14  1   
 19   9  30  1   
 20  10  31  1   
 21  10  32  1   
 22  10  33  1   
 23  11  34  1   
 24  11  35  1   
 25  11  36  1   
 26  12  15  ar  
 27  12  37  1   
 28  13  16  ar  
 29  13  38  1   
 30  14  17  2   
 31  14  18  am  
 32  15  19  ar  
 33  15  39  1   
 34  16  19  ar  
 35  16  40  1   
 36  18  20  1   
 37  18  41  1   
 38  19  42  1   
 39  20  21  1   
 40  20  43  1   
 41  20  44  1   
 42  21  22  1   
 43  21  45  1   
 44  21  46  1   
 45  22  23  1   
 46  22  47  1   
 47  22  48  1   
 48  23  24  1   
 49  23  49  1   
 50  23  50  1   
 51  24  25  1   
 52  24  51  1   
 53  24  52  1   
 54  25  53  1   
@<TRIPOS>SUBSTRUCTURE
  1 ****   9 GROUP 4 **** **** 0

# MOE 2024.06 (io_trps.svl 2023.06)
