@<TRIPOS>MOLECULE
NONAME
40 42 1 0 0 
SMALL
USER_CHARGES


@<TRIPOS>ATOM
  1 S        0.5050     0.2040    -1.4570 S.o2  1 <1>   1.5000 
  2 O       -0.2110     0.7630    -2.5800 O.2   1 <1>  -0.6500 
  3 O        1.5920    -0.7170    -1.7130 O.2   1 <1>  -0.6500 
  4 N        1.2460     1.5190    -0.6830 N.am  1 <1>  -0.8490 
  5 C       -0.6730    -0.4350    -0.2400 C.2   1 <1>  -0.0220 
  6 C        1.9380     1.1940     0.6010 C.3   1 <1>   0.2760 
  7 C        1.9160     2.4150    -1.6480 C.3   1 <1>   0.1960 
  8 S       -0.2160    -1.8660     0.6840 S.3   1 <1>  -0.0800 
  9 C       -1.8900    -0.0140     0.1630 C.2   1 <1>  -0.1500 
 10 C        2.0800     2.4440     1.4860 C.3   1 <1>   0.1200 
 11 C        3.2980     0.4510     0.4830 C.3   1 <1>   0.3430 
 12 C        3.2740     3.0000    -1.2310 C.3   1 <1>  -0.0800 
 13 C       -1.7180    -1.8390     1.5880 C.2   1 <1>  -0.1100 
 14 C       -2.4850    -0.8070     1.1960 C.2   1 <1>  -0.1500 
 15 O        3.2220     3.1780     1.1730 O.3   1 <1>  -0.5600 
 16 N        3.9540     0.5680    -0.8600 N.4   1 <1>  -0.9590 
 17 C        3.1790     3.9130    -0.0010 C.3   1 <1>   0.1200 
 18 C        4.4140     1.9680    -1.1220 C.3   1 <1>   0.3430 
 19 C        5.1660    -0.3530    -0.8710 C.3   1 <1>   0.2370 
 20 C        6.2220    -0.0300     0.1910 C.2   1 <1>   0.9060 
 21 O        7.1070     0.7780    -0.1040 O.co2 1 <1>  -0.9000 
 22 O        6.0540    -0.4870     1.3250 O.co2 1 <1>  -0.9000 
 23 H        1.2910     0.5490     1.1660 H     1 <1>   0.0800 
 24 H        2.0660     1.8970    -2.5820 H     1 <1>   0.0800 
 25 H        1.2390     3.2270    -1.8620 H     1 <1>   0.0800 
 26 H       -2.4080     0.8430    -0.2350 H     1 <1>   0.1500 
 27 H        2.1930     2.1360     2.5110 H     1 <1>   0.0800 
 28 H        1.2110     3.0760     1.4170 H     1 <1>   0.0800 
 29 H        3.1290    -0.5920     0.6930 H     1 <1>   0.0800 
 30 H        3.9680     0.8140     1.2480 H     1 <1>   0.0800 
 31 H        3.5610     3.6560    -2.0320 H     1 <1>   0.0800 
 32 H       -1.8720    -2.6090     2.3250 H     1 <1>   0.1500 
 33 H       -3.4580    -0.5660     1.5890 H     1 <1>   0.1500 
 34 H        3.2700     0.2350    -1.5590 H     1 <1>   0.4500 
 35 H        2.2840     4.5130    -0.0120 H     1 <1>   0.0800 
 36 H        4.0280     4.5750     0.0230 H     1 <1>   0.0800 
 37 H        5.0960     2.2740    -0.3420 H     1 <1>   0.0800 
 38 H        4.9710     1.9740    -2.0440 H     1 <1>   0.0800 
 39 H        4.8520    -1.3670    -0.7060 H     1 <1>   0.0800 
 40 H        5.6530    -0.3020    -1.8270 H     1 <1>   0.0800 
@<TRIPOS>BOND
  1   1   2  2   
  2   1   3  2   
  3   1   4  am  
  4   1   5  1   
  5   4   6  1   
  6   4   7  1   
  7   5   8  1   
  8   5   9  2   
  9   6  10  1   
 10   6  11  1   
 11   6  23  1   
 12   7  12  1   
 13   7  24  1   
 14   7  25  1   
 15   8  13  1   
 16   9  14  1   
 17   9  26  1   
 18  10  15  1   
 19  10  27  1   
 20  10  28  1   
 21  11  16  1   
 22  11  29  1   
 23  11  30  1   
 24  12  17  1   
 25  12  18  1   
 26  12  31  1   
 27  13  14  2   
 28  13  32  1   
 29  14  33  1   
 30  15  17  1   
 31  16  18  1   
 32  16  19  1   
 33  16  34  1   
 34  17  35  1   
 35  17  36  1   
 36  18  37  1   
 37  18  38  1   
 38  19  20  1   
 39  19  39  1   
 40  19  40  1   
 41  20  21  ar  
 42  20  22  ar  
@<TRIPOS>SUBSTRUCTURE
  1 ****   6 GROUP 4 **** **** 0

# MOE 2024.06 (io_trps.svl 2023.06)
