@<TRIPOS>MOLECULE
NONAME
52 56 1 0 0 
SMALL
USER_CHARGES


@<TRIPOS>ATOM
  1 O        1.6210     0.4350     2.1600 O.2   1 <1>  -0.5700 
  2 C        1.8620     0.7970     1.0220 C.2   1 <1>   0.5440 
  3 N        1.2430     1.9340     0.5520 N.am  1 <1>  -0.6600 
  4 C        2.7850     0.0680     0.1930 C.ar  1 <1>   0.0860 
  5 C        0.2510     2.6920     1.3440 C.3   1 <1>   0.1400 
  6 C        1.3170     2.4360    -0.8370 C.3   1 <1>   0.1400 
  7 C        2.4770    -1.1920    -0.3630 C.ar  1 <1>   0.4100 
  8 C        4.0330     0.6140    -0.0760 C.ar  1 <1>  -0.1500 
  9 C       -0.2050     3.8200     0.4240 C.3   1 <1>  -0.1600 
 10 C        0.0810     3.3140    -0.9880 C.3   1 <1>  -0.1600 
 11 N        3.3290    -1.8760    -1.1280 N.ar  1 <1>  -0.6200 
 12 N        1.2660    -1.8350    -0.1620 N.pl3 1 <1>  -0.8380 
 13 C        4.9020    -0.0980    -0.8690 C.ar  1 <1>  -0.1500 
 14 C        4.5020    -1.3250    -1.3630 C.ar  1 <1>   0.1600 
 15 C       -0.0480    -1.1470    -0.2590 C.3   1 <1>   0.2090 
 16 C        1.2560    -3.2020     0.4140 C.3   1 <1>   0.2090 
 17 C       -1.0430    -2.0340    -1.0040 C.3   1 <1>  -0.1600 
 18 C        0.2550    -4.0750    -0.3440 C.3   1 <1>  -0.1600 
 19 C       -1.1380    -3.4290    -0.3670 C.3   1 <1>   0.1000 
 20 C       -2.1410    -4.3270    -1.0880 C.2   1 <1>   0.0070 
 21 N       -2.5780    -4.1490    -2.2940 N.2   1 <1>  -0.3380 
 22 N       -2.6820    -5.4130    -0.5210 N.pl3 1 <1>   0.3340 
 23 N       -3.4320    -5.1270    -2.5640 N.2   1 <1>  -0.3380 
 24 C       -3.4920    -5.8830    -1.4990 C.2   1 <1>   0.1410 
 25 C       -2.5890    -6.0580     0.7120 C.2   1 <1>  -0.1810 
 26 C       -4.2540    -7.0570    -1.2640 C.2   1 <1>  -0.1050 
 27 C       -3.3150    -7.1820     0.9490 C.2   1 <1>  -0.1500 
 28 C       -4.1690    -7.6960    -0.0640 C.2   1 <1>  -0.1500 
 29 H        0.6960     3.0690     2.2500 H     1 <1>   0.0800 
 30 H       -0.5710     2.0430     1.5910 H     1 <1>   0.0800 
 31 H        1.3200     1.6290    -1.5510 H     1 <1>   0.0800 
 32 H        2.2110     3.0260    -0.9500 H     1 <1>   0.0800 
 33 H        4.3060     1.5700     0.3360 H     1 <1>   0.1500 
 34 H        0.3880     4.6950     0.6260 H     1 <1>   0.0800 
 35 H       -1.2430     4.0600     0.5720 H     1 <1>   0.0800 
 36 H       -0.7390     2.7070    -1.3330 H     1 <1>   0.0800 
 37 H        0.2420     4.1150    -1.6880 H     1 <1>   0.0800 
 38 H        5.8790     0.2870    -1.1020 H     1 <1>   0.1500 
 39 H        5.1850    -1.8810    -1.9820 H     1 <1>   0.1500 
 40 H        0.0620    -0.2190    -0.7910 H     1 <1>   0.0800 
 41 H       -0.4080    -0.9330     0.7340 H     1 <1>   0.0800 
 42 H        0.9810    -3.1380     1.4530 H     1 <1>   0.0800 
 43 H        2.2380    -3.6400     0.3550 H     1 <1>   0.0800 
 44 H       -0.7250    -2.1210    -2.0280 H     1 <1>   0.0800 
 45 H       -2.0110    -1.5650    -1.0000 H     1 <1>   0.0800 
 46 H        0.2130    -5.0420     0.1210 H     1 <1>   0.0800 
 47 H        0.6100    -4.2090    -1.3520 H     1 <1>   0.0800 
 48 H       -1.4740    -3.3010     0.6470 H     1 <1>   0.0800 
 49 H       -1.9280    -5.6220     1.4380 H     1 <1>   0.1500 
 50 H       -4.8850    -7.4050    -2.0620 H     1 <1>   0.1500 
 51 H       -3.2670    -7.7050     1.8900 H     1 <1>   0.1500 
 52 H       -4.7360    -8.5880     0.1420 H     1 <1>   0.1500 
@<TRIPOS>BOND
  1   1   2  2   
  2   2   3  am  
  3   2   4  1   
  4   3   5  1   
  5   3   6  1   
  6   4   7  ar  
  7   4   8  ar  
  8   5   9  1   
  9   5  29  1   
 10   5  30  1   
 11   6  10  1   
 12   6  31  1   
 13   6  32  1   
 14   7  11  ar  
 15   7  12  1   
 16   8  13  ar  
 17   8  33  1   
 18   9  10  1   
 19   9  34  1   
 20   9  35  1   
 21  10  36  1   
 22  10  37  1   
 23  11  14  ar  
 24  12  15  1   
 25  12  16  1   
 26  13  14  ar  
 27  13  38  1   
 28  14  39  1   
 29  15  17  1   
 30  15  40  1   
 31  15  41  1   
 32  16  18  1   
 33  16  42  1   
 34  16  43  1   
 35  17  19  1   
 36  17  44  1   
 37  17  45  1   
 38  18  19  1   
 39  18  46  1   
 40  18  47  1   
 41  19  20  1   
 42  19  48  1   
 43  20  21  2   
 44  20  22  1   
 45  21  23  1   
 46  22  24  1   
 47  22  25  1   
 48  23  24  2   
 49  24  26  1   
 50  25  27  2   
 51  25  49  1   
 52  26  28  2   
 53  26  50  1   
 54  27  28  1   
 55  27  51  1   
 56  28  52  1   
@<TRIPOS>SUBSTRUCTURE
  1 ****  15 GROUP 4 **** **** 0

# MOE 2024.06 (io_trps.svl 2023.06)
