@<TRIPOS>MOLECULE
NONAME
48 51 1 0 0 
SMALL
USER_CHARGES


@<TRIPOS>ATOM
  1 O       -0.3480     0.3210     0.1390 O.2   1 <1>  -0.5700 
  2 C       -1.3900     0.9340     0.2830 C.2   1 <1>   0.5440 
  3 N       -2.5670     0.2230     0.3510 N.am  1 <1>  -0.6600 
  4 C       -1.3710     2.3820     0.3540 C.ar  1 <1>   0.0860 
  5 C       -3.9070     0.7890     0.0510 C.3   1 <1>   0.1400 
  6 C       -2.5980    -1.2590     0.2610 C.3   1 <1>   0.1400 
  7 C       -2.0690     3.0840     1.3350 C.ar  1 <1>  -0.1500 
  8 C       -0.6470     3.1350    -0.5670 C.ar  1 <1>  -0.1500 
  9 C       -4.6970    -0.3790    -0.5350 C.3   1 <1>   0.2000 
 10 C       -4.0720    -1.6280     0.0780 C.3   1 <1>  -0.0800 
 11 C       -2.0650     4.4650     1.3760 C.ar  1 <1>  -0.1500 
 12 C       -0.6420     4.5160    -0.5260 C.ar  1 <1>  -0.1500 
 13 O       -6.0410    -0.3000    -0.2110 O.3   1 <1>  -0.6800 
 14 C       -4.2880    -2.8920    -0.7660 C.3   1 <1>   0.0210 
 15 C       -1.3560     5.2240     0.4420 C.ar  1 <1>   0.0540 
 16 C       -3.5780    -4.0800    -0.1500 C.2   1 <1>   0.1080 
 17 C       -1.3540     6.6770     0.4710 C.2   1 <1>   0.4620 
 18 N       -3.9010    -4.5680     1.0080 N.2   1 <1>  -0.7070 
 19 C       -2.5150    -4.7640    -0.7300 C.2   1 <1>  -0.1500 
 20 N       -1.9910     7.3850     1.4130 N.2   1 <1>  -0.2270 
 21 N       -0.7540     7.4300    -0.3940 N.2   1 <1>  -0.7070 
 22 N       -3.0440    -5.5890     1.1980 N.pl3 1 <1>   0.3000 
 23 C       -2.1940    -5.7260     0.1590 C.2   1 <1>  -0.3320 
 24 N       -1.7940     8.6110     1.1470 N.2   1 <1>  -0.4180 
 25 N       -1.0480     8.6240     0.0600 N.pl3 1 <1>   0.5800 
 26 C       -1.1080    -6.7830     0.0790 C.3   1 <1>  -0.0600 
 27 C       -0.5950     9.8570    -0.5880 C.3   1 <1>   0.0160 
 28 H       -4.3590     1.1290     0.9660 H     1 <1>   0.0800 
 29 H       -3.8370     1.5960    -0.6560 H     1 <1>   0.0800 
 30 H       -2.0140    -1.5730    -0.5880 H     1 <1>   0.0800 
 31 H       -2.1910    -1.7050     1.1530 H     1 <1>   0.0800 
 32 H       -2.6180     2.5310     2.0770 H     1 <1>   0.1500 
 33 H       -0.0820     2.6180    -1.3240 H     1 <1>   0.1500 
 34 H       -4.6040    -0.3750    -1.6080 H     1 <1>   0.0800 
 35 H       -4.4790    -1.7900     1.0620 H     1 <1>   0.0800 
 36 H       -2.6210     4.9660     2.1510 H     1 <1>   0.1500 
 37 H       -0.0730     5.0620    -1.2590 H     1 <1>   0.1500 
 38 H       -6.1780    -0.5380     0.7270 H     1 <1>   0.4000 
 39 H       -3.9240    -2.7370    -1.7660 H     1 <1>   0.0800 
 40 H       -5.3400    -3.1110    -0.8230 H     1 <1>   0.0800 
 41 H       -2.0650    -4.5480    -1.6830 H     1 <1>   0.1500 
 42 H       -3.0660    -6.1700     2.0440 H     1 <1>   0.2700 
 43 H       -0.5650    -6.6860    -0.8440 H     1 <1>   0.0800 
 44 H       -1.5420    -7.7670     0.1190 H     1 <1>   0.0800 
 45 H       -0.4180    -6.6700     0.8960 H     1 <1>   0.0800 
 46 H        0.4020     9.7100    -0.9590 H     1 <1>   0.0800 
 47 H       -0.6040    10.6570     0.1280 H     1 <1>   0.0800 
 48 H       -1.2570    10.0840    -1.4010 H     1 <1>   0.0800 
@<TRIPOS>BOND
  1   1   2  2   
  2   2   3  am  
  3   2   4  1   
  4   3   5  1   
  5   3   6  1   
  6   4   7  ar  
  7   4   8  ar  
  8   5   9  1   
  9   5  28  1   
 10   5  29  1   
 11   6  10  1   
 12   6  30  1   
 13   6  31  1   
 14   7  11  ar  
 15   7  32  1   
 16   8  12  ar  
 17   8  33  1   
 18   9  10  1   
 19   9  13  1   
 20   9  34  1   
 21  10  14  1   
 22  10  35  1   
 23  11  15  ar  
 24  11  36  1   
 25  12  15  ar  
 26  12  37  1   
 27  13  38  1   
 28  14  16  1   
 29  14  39  1   
 30  14  40  1   
 31  15  17  1   
 32  16  18  2   
 33  16  19  1   
 34  17  20  1   
 35  17  21  2   
 36  18  22  1   
 37  19  23  2   
 38  19  41  1   
 39  20  24  2   
 40  21  25  1   
 41  22  23  1   
 42  22  42  1   
 43  23  26  1   
 44  24  25  1   
 45  25  27  1   
 46  26  43  1   
 47  26  44  1   
 48  26  45  1   
 49  27  46  1   
 50  27  47  1   
 51  27  48  1   
@<TRIPOS>SUBSTRUCTURE
  1 ****   2 GROUP 4 **** **** 0

# MOE 2024.06 (io_trps.svl 2023.06)
