@<TRIPOS>MOLECULE
NONAME
35 36 1 0 0 
SMALL
USER_CHARGES


@<TRIPOS>ATOM
  1 F       -0.6880     3.4460    -2.1910 F     1 <1>  -0.1900 
  2 C       -1.5430     3.9930    -1.3580 C.ar  1 <1>   0.1900 
  3 C       -1.1820     4.1630    -0.0260 C.ar  1 <1>   0.1000 
  4 C       -2.7700     4.4070    -1.8380 C.ar  1 <1>   0.1600 
  5 N        0.0660     3.7820     0.4700 N.pl3 1 <1>  -0.8690 
  6 C       -2.1680     4.7500     0.7540 C.ar  1 <1>  -0.1500 
  7 N       -3.6960     4.9970    -1.0910 N.ar  1 <1>  -0.6200 
  8 C        0.7820     4.4350     1.6010 C.3   1 <1>   0.3890 
  9 C       -3.3690     5.1430     0.1880 C.ar  1 <1>   0.1600 
 10 C        2.0120     5.1940     1.1250 C.2   1 <1>   0.0070 
 11 N        3.1930     4.9720     1.5960 N.2   1 <1>  -0.3380 
 12 N        2.0310     6.1720     0.2060 N.pl3 1 <1>   0.0480 
 13 N        4.0280     5.8130     0.9870 N.2   1 <1>  -0.3380 
 14 C        3.3200     6.5110     0.1700 C.2   1 <1>   0.0370 
 15 C        0.9560     6.7500    -0.6320 C.3   1 <1>   0.0960 
 16 C       -0.0290     7.5790     0.2010 C.3   1 <1>  -0.1600 
 17 C       -1.2430     7.9760    -0.6350 C.3   1 <1>   0.1200 
 18 O       -2.1830     8.5150     0.2300 O.3   1 <1>  -0.5600 
 19 C       -3.3900     8.8360    -0.3860 C.3   1 <1>   0.0400 
 20 H       -2.9970     4.2500    -2.8780 H     1 <1>   0.1500 
 21 H        0.7100     3.3170    -0.1860 H     1 <1>   0.4000 
 22 H       -2.0130     4.9040     1.8040 H     1 <1>   0.1500 
 23 H        1.0930     3.6730     2.2950 H     1 <1>   0.0800 
 24 H        0.1340     5.1080     2.1290 H     1 <1>   0.0800 
 25 H       -4.1060     5.6060     0.8240 H     1 <1>   0.1500 
 26 H        3.7120     7.2790    -0.4720 H     1 <1>   0.1500 
 27 H        0.4470     5.9460    -1.1280 H     1 <1>   0.0800 
 28 H        1.4010     7.3720    -1.3880 H     1 <1>   0.0800 
 29 H        0.4560     8.4660     0.5660 H     1 <1>   0.0800 
 30 H       -0.3760     7.0020     1.0370 H     1 <1>   0.0800 
 31 H       -1.6770     7.1140    -1.1150 H     1 <1>   0.0800 
 32 H       -0.9830     8.7160    -1.3730 H     1 <1>   0.0800 
 33 H       -4.0510     9.2380     0.3620 H     1 <1>   0.0800 
 34 H       -3.8230     7.9460    -0.8120 H     1 <1>   0.0800 
 35 H       -3.2150     9.5750    -1.1490 H     1 <1>   0.0800 
@<TRIPOS>BOND
  1   1   2  1   
  2   2   3  ar  
  3   2   4  ar  
  4   3   5  1   
  5   3   6  ar  
  6   4   7  ar  
  7   4  20  1   
  8   5   8  1   
  9   5  21  1   
 10   6   9  ar  
 11   6  22  1   
 12   7   9  ar  
 13   8  10  1   
 14   8  23  1   
 15   8  24  1   
 16   9  25  1   
 17  10  11  2   
 18  10  12  1   
 19  11  13  1   
 20  12  14  1   
 21  12  15  1   
 22  13  14  2   
 23  14  26  1   
 24  15  16  1   
 25  15  27  1   
 26  15  28  1   
 27  16  17  1   
 28  16  29  1   
 29  16  30  1   
 30  17  18  1   
 31  17  31  1   
 32  17  32  1   
 33  18  19  1   
 34  19  33  1   
 35  19  34  1   
 36  19  35  1   
@<TRIPOS>SUBSTRUCTURE
  1 ****   3 GROUP 4 **** **** 0

# MOE 2024.06 (io_trps.svl 2023.06)
