@<TRIPOS>MOLECULE
NONAME
44 46 1 0 0 
SMALL
USER_CHARGES


@<TRIPOS>ATOM
  1 O       -2.2740     0.8580     2.2500 O.2   1 <1>  -0.5700 
  2 C       -2.0210     1.3960     1.1680 C.2   1 <1>   0.5440 
  3 N       -2.5360     0.7480     0.0410 N.am  1 <1>  -0.6600 
  4 C       -1.3100     2.6650     1.1270 C.ar  1 <1>   0.3960 
  5 C       -2.9950    -0.6630     0.1170 C.3   1 <1>   0.1400 
  6 C       -2.4290     1.3540    -1.3150 C.3   1 <1>   0.1400 
  7 N       -1.7870     3.6880     1.8800 N.ar  1 <1>  -0.6200 
  8 C       -0.1510     2.8450     0.3040 C.ar  1 <1>  -0.1710 
  9 C       -4.5170    -0.7210     0.2890 C.3   1 <1>   0.1400 
 10 C       -3.6580     1.0990    -2.2010 C.3   1 <1>  -0.1600 
 11 C       -1.1420     4.8280     1.8420 C.ar  1 <1>   0.1600 
 12 O        0.3360     1.9520    -0.4340 O.3   1 <1>  -0.8290 
 13 C        0.4980     4.0810     0.2980 C.ar  1 <1>  -0.1500 
 14 N       -5.2420    -0.3570    -0.9740 N.am  1 <1>  -0.6600 
 15 C       -4.9890     1.0390    -1.4410 C.3   1 <1>   0.1400 
 16 C       -0.0060     5.0770     1.0770 C.ar  1 <1>  -0.1500 
 17 C       -6.0700    -1.1910    -1.6890 C.2   1 <1>   0.5690 
 18 O       -6.6210    -0.8220    -2.7020 O.2   1 <1>  -0.5700 
 19 C       -6.3150    -2.6370    -1.2850 C.3   1 <1>   0.0810 
 20 C       -7.4000    -2.7660    -0.2320 C.2   1 <1>  -0.0400 
 21 O       -7.1620    -2.4380     1.0090 O.3   1 <1>  -0.0190 
 22 C       -8.6700    -3.1910    -0.3090 C.2   1 <1>  -0.1500 
 23 N       -8.2020    -2.6230     1.7680 N.2   1 <1>  -0.4100 
 24 C       -9.1280    -3.0740     1.0000 C.2   1 <1>   0.1080 
 25 C      -10.5240    -3.4260     1.4650 C.3   1 <1>  -0.0590 
 26 H       -2.5270    -1.1410     0.9600 H     1 <1>   0.0800 
 27 H       -2.6940    -1.1980    -0.7650 H     1 <1>   0.0800 
 28 H       -1.5410     0.9790    -1.7960 H     1 <1>   0.0800 
 29 H       -2.3050     2.4180    -1.2130 H     1 <1>   0.0800 
 30 H       -4.8050    -0.0450     1.0770 H     1 <1>   0.0800 
 31 H       -4.7790    -1.7080     0.6110 H     1 <1>   0.0800 
 32 H       -3.5200     0.1940    -2.7650 H     1 <1>   0.0800 
 33 H       -3.7060     1.9020    -2.9120 H     1 <1>   0.0800 
 34 H       -1.5240     5.6270     2.4500 H     1 <1>   0.1500 
 35 H        1.3690     4.1940    -0.3200 H     1 <1>   0.1500 
 36 H       -5.7840     1.3490    -2.0970 H     1 <1>   0.0800 
 37 H       -4.9780     1.7150    -0.6020 H     1 <1>   0.0800 
 38 H        0.4590     6.0430     1.1080 H     1 <1>   0.1500 
 39 H       -5.4060    -3.0920    -0.9440 H     1 <1>   0.0800 
 40 H       -6.6270    -3.1760    -2.1610 H     1 <1>   0.0800 
 41 H       -9.2300    -3.5410    -1.1560 H     1 <1>   0.1500 
 42 H      -11.2460    -2.8390     0.9270 H     1 <1>   0.0800 
 43 H      -10.6240    -3.2210     2.5160 H     1 <1>   0.0800 
 44 H      -10.7140    -4.4690     1.2930 H     1 <1>   0.0800 
@<TRIPOS>BOND
  1   1   2  2   
  2   2   3  am  
  3   2   4  1   
  4   3   5  1   
  5   3   6  1   
  6   4   7  ar  
  7   4   8  ar  
  8   5   9  1   
  9   5  26  1   
 10   5  27  1   
 11   6  10  1   
 12   6  28  1   
 13   6  29  1   
 14   7  11  ar  
 15   8  12  1   
 16   8  13  ar  
 17   9  14  1   
 18   9  30  1   
 19   9  31  1   
 20  10  15  1   
 21  10  32  1   
 22  10  33  1   
 23  11  16  ar  
 24  11  34  1   
 25  13  16  ar  
 26  13  35  1   
 27  14  15  1   
 28  14  17  am  
 29  15  36  1   
 30  15  37  1   
 31  16  38  1   
 32  17  18  2   
 33  17  19  1   
 34  19  20  1   
 35  19  39  1   
 36  19  40  1   
 37  20  21  1   
 38  20  22  2   
 39  21  23  1   
 40  22  24  1   
 41  22  41  1   
 42  23  24  2   
 43  24  25  1   
 44  25  42  1   
 45  25  43  1   
 46  25  44  1   
@<TRIPOS>SUBSTRUCTURE
  1 ****   9 GROUP 4 **** **** 0

# MOE 2024.06 (io_trps.svl 2023.06)
