@<TRIPOS>MOLECULE
NONAME
48 50 1 0 0 
SMALL
USER_CHARGES


@<TRIPOS>ATOM
  1 O       -1.5540    -0.7240     0.3300 O.2   1 <1>  -0.5700 
  2 C       -2.3310     0.1550    -0.0370 C.2   1 <1>   0.6160 
  3 N       -2.0660     1.4740     0.3340 N.am  1 <1>  -0.4690 
  4 C       -3.5070    -0.1480    -0.8040 C.2   1 <1>   0.0290 
  5 C       -2.9700     2.4730     0.0360 C.2   1 <1>  -0.0290 
  6 C       -0.8050     1.7840     1.0800 C.3   1 <1>   0.0600 
  7 C       -4.3950     0.8710    -1.0800 C.2   1 <1>  -0.1380 
  8 C       -3.6880    -1.5090    -1.2540 C.2   1 <1>   0.6160 
  9 C       -4.1060     2.1810    -0.6520 C.2   1 <1>  -0.1500 
 10 C       -2.6950     3.9030     0.4850 C.3   1 <1>  -0.1020 
 11 C       -5.7050     0.6720    -1.8360 C.3   1 <1>  -0.1020 
 12 O       -4.1030    -1.7510    -2.3740 O.2   1 <1>  -0.5700 
 13 N       -3.4340    -2.5750    -0.4400 N.am  1 <1>  -0.7300 
 14 C       -3.4610    -3.9980    -0.8520 C.3   1 <1>   0.2200 
 15 C       -4.6550    -4.7240    -0.2520 C.3   1 <1>  -0.0800 
 16 C       -2.3100    -4.7380    -0.1810 C.3   1 <1>   0.1200 
 17 C       -4.1570    -5.0940     1.1470 C.3   1 <1>   0.1200 
 18 C       -5.9860    -3.9500    -0.2660 C.3   1 <1>  -0.0170 
 19 O       -2.7590    -5.0670     1.1000 O.3   1 <1>  -0.5600 
 20 C       -7.1190    -4.8070     0.2760 C.ar  1 <1>  -0.1440 
 21 C       -7.5500    -4.7110     1.5830 C.ar  1 <1>  -0.1500 
 22 C       -7.7740    -5.7280    -0.5160 C.ar  1 <1>  -0.1500 
 23 C       -8.5820    -5.5220     2.0250 C.ar  1 <1>   0.1600 
 24 C       -8.7960    -6.4910     0.0240 C.ar  1 <1>   0.1600 
 25 N       -9.2150    -6.4120     1.2770 N.ar  1 <1>  -0.6200 
 26 H       -0.3430     2.6680     0.6780 H     1 <1>   0.0800 
 27 H       -0.0920     0.9820     0.9970 H     1 <1>   0.0800 
 28 H       -1.0320     1.9380     2.1190 H     1 <1>   0.0800 
 29 H       -4.8130     2.9580    -0.8870 H     1 <1>   0.1500 
 30 H       -2.5570     3.9390     1.5500 H     1 <1>   0.0800 
 31 H       -3.5190     4.5460     0.2340 H     1 <1>   0.0800 
 32 H       -1.8160     4.2830    -0.0030 H     1 <1>   0.0800 
 33 H       -6.4340     1.4070    -1.5440 H     1 <1>   0.0800 
 34 H       -6.1250    -0.2980    -1.6380 H     1 <1>   0.0800 
 35 H       -5.5300     0.7600    -2.8940 H     1 <1>   0.0800 
 36 H       -2.8560    -2.3930     0.3910 H     1 <1>   0.3700 
 37 H       -3.4210    -4.0850    -1.9250 H     1 <1>   0.0800 
 38 H       -4.7920    -5.6410    -0.7980 H     1 <1>   0.0800 
 39 H       -1.4160    -4.1430    -0.1120 H     1 <1>   0.0800 
 40 H       -2.1000    -5.6570    -0.6980 H     1 <1>   0.0800 
 41 H       -4.4820    -6.0760     1.4450 H     1 <1>   0.0800 
 42 H       -4.4670    -4.3680     1.8780 H     1 <1>   0.0800 
 43 H       -6.2130    -3.6510    -1.2750 H     1 <1>   0.0800 
 44 H       -5.9050    -3.0530     0.3230 H     1 <1>   0.0800 
 45 H       -7.0940    -4.0150     2.2630 H     1 <1>   0.1500 
 46 H       -7.5000    -5.8590    -1.5470 H     1 <1>   0.1500 
 47 H       -8.9040    -5.4350     3.0490 H     1 <1>   0.1500 
 48 H       -9.2960    -7.2050    -0.6080 H     1 <1>   0.1500 
@<TRIPOS>BOND
  1   1   2  2   
  2   2   3  am  
  3   2   4  1   
  4   3   5  1   
  5   3   6  1   
  6   4   7  2   
  7   4   8  1   
  8   5   9  2   
  9   5  10  1   
 10   6  26  1   
 11   6  27  1   
 12   6  28  1   
 13   7   9  1   
 14   7  11  1   
 15   8  12  2   
 16   8  13  am  
 17   9  29  1   
 18  10  30  1   
 19  10  31  1   
 20  10  32  1   
 21  11  33  1   
 22  11  34  1   
 23  11  35  1   
 24  13  14  1   
 25  13  36  1   
 26  14  15  1   
 27  14  16  1   
 28  14  37  1   
 29  15  17  1   
 30  15  18  1   
 31  15  38  1   
 32  16  19  1   
 33  16  39  1   
 34  16  40  1   
 35  17  19  1   
 36  17  41  1   
 37  17  42  1   
 38  18  20  1   
 39  18  43  1   
 40  18  44  1   
 41  20  21  ar  
 42  20  22  ar  
 43  21  23  ar  
 44  21  45  1   
 45  22  24  ar  
 46  22  46  1   
 47  23  25  ar  
 48  23  47  1   
 49  24  25  ar  
 50  24  48  1   
@<TRIPOS>SUBSTRUCTURE
  1 ****  13 GROUP 4 **** **** 0

# MOE 2024.06 (io_trps.svl 2023.06)
