@<TRIPOS>MOLECULE
NONAME
47 50 1 0 0 
SMALL
USER_CHARGES


@<TRIPOS>ATOM
  1 S       -0.5960    -1.0790     0.4180 S.3   1 <1>  -0.1120 
  2 C       -1.0260     0.6670     0.5260 C.2   1 <1>   0.2420 
  3 C       -1.6130    -1.7920    -0.8870 C.2   1 <1>   0.1960 
  4 N       -2.0340     1.2200    -0.0530 N.2   1 <1>  -0.3380 
  5 N       -0.3050     1.5200     1.2530 N.pl3 1 <1>   0.0480 
  6 O       -1.7190    -3.1050    -0.8940 O.3   1 <1>  -0.2800 
  7 C       -2.3020    -1.2280    -1.9000 C.2   1 <1>  -0.1500 
  8 N       -1.9930     2.5110     0.2920 N.2   1 <1>  -0.3380 
  9 C       -0.9680     2.6650     1.0610 C.2   1 <1>   0.0360 
 10 C        0.9060     1.2750     2.0590 C.3   1 <1>   0.0160 
 11 C       -2.4990    -3.4170    -1.9160 C.2   1 <1>  -0.0400 
 12 C       -2.8910    -2.3040    -2.5790 C.2   1 <1>  -0.1500 
 13 C       -2.8190    -4.8810    -2.1360 C.3   1 <1>   0.5230 
 14 N       -3.2630    -5.4400    -0.8290 N.4   1 <1>  -0.9590 
 15 C       -3.2190    -6.9350    -0.7980 C.3   1 <1>   0.3430 
 16 C       -4.5890    -4.8870    -0.4210 C.3   1 <1>   0.3430 
 17 C       -3.5630    -7.4790     0.6010 C.3   1 <1>   0.0580 
 18 C       -4.9380    -5.3800     0.9840 C.3   1 <1>  -0.1600 
 19 C       -3.5910    -9.0070     0.6360 C.2   1 <1>  -0.0380 
 20 C       -4.9090    -6.9140     1.0870 C.3   1 <1>  -0.1600 
 21 N       -3.4890    -9.6190     1.8600 N.pl3 1 <1>  -0.5500 
 22 C       -3.7130    -9.8310    -0.4330 C.2   1 <1>  -0.1360 
 23 C       -3.5050   -10.9830     1.9790 C.2   1 <1>   0.4400 
 24 C       -3.7220   -11.2400    -0.2580 C.2   1 <1>   0.7670 
 25 N       -3.6130   -11.7870     0.9890 N.2   1 <1>  -0.6610 
 26 O       -3.8220   -11.9740    -1.2260 O.2   1 <1>  -0.5700 
 27 H       -2.4020    -0.1890    -2.1650 H     1 <1>   0.1500 
 28 H       -0.6710     3.5990     1.5030 H     1 <1>   0.1500 
 29 H        0.6730     0.5880     2.8530 H     1 <1>   0.0800 
 30 H        1.2570     2.2010     2.4780 H     1 <1>   0.0800 
 31 H        1.6720     0.8540     1.4330 H     1 <1>   0.0800 
 32 H       -3.5220    -2.2010    -3.4460 H     1 <1>   0.1500 
 33 H       -1.9250    -5.3840    -2.4670 H     1 <1>   0.0800 
 34 H       -3.5840    -4.9940    -2.8860 H     1 <1>   0.0800 
 35 H       -2.5750    -5.0640    -0.1570 H     1 <1>   0.4500 
 36 H       -2.2360    -7.2810    -1.0760 H     1 <1>   0.0800 
 37 H       -3.9280    -7.3260    -1.5090 H     1 <1>   0.0800 
 38 H       -5.3500    -5.2060    -1.1150 H     1 <1>   0.0800 
 39 H       -4.5580    -3.8070    -0.4240 H     1 <1>   0.0800 
 40 H       -2.7840    -7.1530     1.2700 H     1 <1>   0.0800 
 41 H       -5.9220    -5.0260     1.2420 H     1 <1>   0.0800 
 42 H       -4.2510    -4.9480     1.6920 H     1 <1>   0.0800 
 43 H       -5.0850    -7.2070     2.1080 H     1 <1>   0.0800 
 44 H       -5.7060    -7.3270     0.4910 H     1 <1>   0.0800 
 45 H       -3.4050    -9.0780     2.7260 H     1 <1>   0.4000 
 46 H       -3.8140    -9.5080    -1.4490 H     1 <1>   0.1500 
 47 H       -3.4200   -11.3820     2.9760 H     1 <1>   0.0600 
@<TRIPOS>BOND
  1   1   2  1   
  2   1   3  1   
  3   2   4  2   
  4   2   5  1   
  5   3   6  1   
  6   3   7  2   
  7   4   8  1   
  8   5   9  1   
  9   5  10  1   
 10   6  11  1   
 11   7  12  1   
 12   7  27  1   
 13   8   9  2   
 14   9  28  1   
 15  10  29  1   
 16  10  30  1   
 17  10  31  1   
 18  11  12  2   
 19  11  13  1   
 20  12  32  1   
 21  13  14  1   
 22  13  33  1   
 23  13  34  1   
 24  14  15  1   
 25  14  16  1   
 26  14  35  1   
 27  15  17  1   
 28  15  36  1   
 29  15  37  1   
 30  16  18  1   
 31  16  38  1   
 32  16  39  1   
 33  17  19  1   
 34  17  20  1   
 35  17  40  1   
 36  18  20  1   
 37  18  41  1   
 38  18  42  1   
 39  19  21  1   
 40  19  22  2   
 41  20  43  1   
 42  20  44  1   
 43  21  23  1   
 44  21  45  1   
 45  22  24  1   
 46  22  46  1   
 47  23  25  2   
 48  23  47  1   
 49  24  25  1   
 50  24  26  2   
@<TRIPOS>SUBSTRUCTURE
  1 ****  14 GROUP 4 **** **** 0

# MOE 2024.06 (io_trps.svl 2023.06)
