@<TRIPOS>MOLECULE
NONAME
47 49 1 0 0 
SMALL
USER_CHARGES


@<TRIPOS>ATOM
  1 O       -0.0870    -0.6720     0.8410 O.2   1 <1>  -0.5700 
  2 C       -1.1140    -1.2370     1.1550 C.2   1 <1>   0.5440 
  3 N       -1.8540    -0.6320     2.1110 N.am  1 <1>  -0.8000 
  4 C       -1.5020    -2.4980     0.5670 C.ar  1 <1>   0.0860 
  5 C       -2.8450    -2.8550     0.3110 C.ar  1 <1>   0.4100 
  6 C       -0.5190    -3.4310     0.2660 C.ar  1 <1>  -0.1500 
  7 N       -3.2020    -4.0690    -0.1070 N.ar  1 <1>  -0.6200 
  8 N       -3.9030    -1.9620     0.4560 N.pl3 1 <1>  -0.8380 
  9 C       -0.9010    -4.6640    -0.2060 C.ar  1 <1>  -0.1500 
 10 C       -2.2480    -4.9360    -0.3630 C.ar  1 <1>   0.1670 
 11 C       -5.2210    -2.3990     1.0270 C.3   1 <1>   0.2090 
 12 C       -3.9000    -0.6680    -0.2860 C.3   1 <1>   0.2090 
 13 C       -2.7040    -6.2900    -0.8610 C.3   1 <1>  -0.0970 
 14 C       -6.4130    -2.2880     0.0390 C.3   1 <1>   0.0000 
 15 C       -5.0500    -0.6040    -1.2910 C.3   1 <1>  -0.1600 
 16 C       -7.7130    -2.5890     0.8160 C.3   1 <1>   0.2000 
 17 C       -6.4040    -0.8930    -0.6280 C.3   1 <1>  -0.1600 
 18 C       -6.3900    -3.4180    -1.0050 C.3   1 <1>  -0.1600 
 19 O       -8.8170    -2.1030     0.1060 O.3   1 <1>  -0.5600 
 20 C       -7.8020    -4.1210     0.8690 C.3   1 <1>  -0.1600 
 21 C       -6.9660    -4.6510    -0.3040 C.3   1 <1>  -0.1600 
 22 C       -9.9540    -1.8570     0.8710 C.3   1 <1>   0.0400 
 23 H       -1.5680     0.2760     2.4730 H     1 <1>   0.3700 
 24 H       -2.8250    -0.9240     2.2510 H     1 <1>   0.3700 
 25 H        0.5200    -3.1900     0.4140 H     1 <1>   0.1500 
 26 H       -0.1600    -5.4070    -0.4430 H     1 <1>   0.1500 
 27 H       -5.1380    -3.4080     1.3910 H     1 <1>   0.0800 
 28 H       -5.4240    -1.7740     1.8780 H     1 <1>   0.0800 
 29 H       -3.9960     0.1400     0.4180 H     1 <1>   0.0800 
 30 H       -2.9670    -0.5450    -0.8120 H     1 <1>   0.0800 
 31 H       -1.8680    -6.9350    -1.0580 H     1 <1>   0.0800 
 32 H       -3.2700    -6.1660    -1.7650 H     1 <1>   0.0800 
 33 H       -3.3330    -6.7500    -0.1210 H     1 <1>   0.0800 
 34 H       -5.0710     0.3740    -1.7370 H     1 <1>   0.0800 
 35 H       -4.8630    -1.3140    -2.0780 H     1 <1>   0.0800 
 36 H       -7.7030    -2.1400     1.7950 H     1 <1>   0.0800 
 37 H       -7.1800    -0.8320    -1.3700 H     1 <1>   0.0800 
 38 H       -6.6050    -0.1430     0.1160 H     1 <1>   0.0800 
 39 H       -7.0420    -3.1580    -1.8210 H     1 <1>   0.0800 
 40 H       -5.4090    -3.6000    -1.4030 H     1 <1>   0.0800 
 41 H       -7.3710    -4.4710     1.7900 H     1 <1>   0.0800 
 42 H       -8.8180    -4.4680     0.8120 H     1 <1>   0.0800 
 43 H       -6.1630    -5.2680     0.0630 H     1 <1>   0.0800 
 44 H       -7.5670    -5.2280    -0.9860 H     1 <1>   0.0800 
 45 H      -10.7350    -1.5260     0.2090 H     1 <1>   0.0800 
 46 H       -9.7370    -1.0850     1.5880 H     1 <1>   0.0800 
 47 H      -10.2590    -2.7610     1.3670 H     1 <1>   0.0800 
@<TRIPOS>BOND
  1   1   2  2   
  2   2   3  am  
  3   2   4  1   
  4   3  23  1   
  5   3  24  1   
  6   4   5  ar  
  7   4   6  ar  
  8   5   7  ar  
  9   5   8  1   
 10   6   9  ar  
 11   6  25  1   
 12   7  10  ar  
 13   8  11  1   
 14   8  12  1   
 15   9  10  ar  
 16   9  26  1   
 17  10  13  1   
 18  11  14  1   
 19  11  27  1   
 20  11  28  1   
 21  12  15  1   
 22  12  29  1   
 23  12  30  1   
 24  13  31  1   
 25  13  32  1   
 26  13  33  1   
 27  14  16  1   
 28  14  17  1   
 29  14  18  1   
 30  15  17  1   
 31  15  34  1   
 32  15  35  1   
 33  16  19  1   
 34  16  20  1   
 35  16  36  1   
 36  17  37  1   
 37  17  38  1   
 38  18  21  1   
 39  18  39  1   
 40  18  40  1   
 41  19  22  1   
 42  20  21  1   
 43  20  41  1   
 44  20  42  1   
 45  21  43  1   
 46  21  44  1   
 47  22  45  1   
 48  22  46  1   
 49  22  47  1   
@<TRIPOS>SUBSTRUCTURE
  1 ****   8 GROUP 4 **** **** 0

# MOE 2024.06 (io_trps.svl 2023.06)
