@<TRIPOS>MOLECULE
NONAME
46 47 1 0 0 
SMALL
USER_CHARGES


@<TRIPOS>ATOM
  1 S        1.2630    -0.7650    -1.1460 S.o2  1 <1>   1.3330 
  2 O        1.1740    -1.2220    -2.5140 O.2   1 <1>  -0.6500 
  3 O        2.3960    -1.1560    -0.3370 O.2   1 <1>  -0.6500 
  4 N       -0.1480    -1.2960    -0.3600 N.am  1 <1>  -0.8490 
  5 C        1.1100     1.0300    -1.1190 C.3   1 <1>  -0.0550 
  6 C       -1.3190    -1.3630    -1.2430 C.3   1 <1>   0.1160 
  7 C        0.0410    -2.5870     0.3090 C.3   1 <1>   0.1160 
  8 C        1.4720     1.7700     0.1890 C.3   1 <1>  -0.0800 
  9 C        2.9580     1.6840     0.5480 C.3   1 <1>   0.2200 
 10 C        0.7560     1.3170     1.4690 C.3   1 <1>   0.1200 
 11 N        3.5230     3.0510     0.6060 N.am  1 <1>  -0.7300 
 12 C        2.9400     1.0660     1.9430 C.3   1 <1>   0.1200 
 13 O        1.7080     1.4280     2.4760 O.3   1 <1>  -0.5600 
 14 C        3.9850     3.7430    -0.4770 C.2   1 <1>   0.5440 
 15 O        3.8850     3.2230    -1.5710 O.2   1 <1>  -0.5700 
 16 C        4.5500     5.0730    -0.3300 C.ar  1 <1>   0.0860 
 17 C        5.0130     5.5790     0.8780 C.ar  1 <1>  -0.1500 
 18 C        4.6700     5.9430    -1.4050 C.ar  1 <1>  -0.1500 
 19 C        5.5310     6.8590     0.9530 C.ar  1 <1>   0.1670 
 20 C        5.2030     7.2060    -1.2350 C.ar  1 <1>   0.1670 
 21 N        5.6300     7.6780    -0.0780 N.ar  1 <1>  -0.6200 
 22 C        6.0320     7.4060     2.2720 C.3   1 <1>  -0.0970 
 23 C        5.3280     8.1470    -2.4140 C.3   1 <1>  -0.0970 
 24 H        1.7500     1.4240    -1.8870 H     1 <1>   0.0800 
 25 H        0.1080     1.2920    -1.3930 H     1 <1>   0.0800 
 26 H       -2.1980    -1.6090    -0.6740 H     1 <1>   0.0800 
 27 H       -1.1740    -2.1120    -2.0050 H     1 <1>   0.0800 
 28 H       -1.4800    -0.4130    -1.7230 H     1 <1>   0.0800 
 29 H       -0.8670    -2.8900     0.8010 H     1 <1>   0.0800 
 30 H        0.8150    -2.5070     1.0530 H     1 <1>   0.0800 
 31 H        0.3260    -3.3410    -0.4070 H     1 <1>   0.0800 
 32 H        1.2080     2.8020     0.0350 H     1 <1>   0.0800 
 33 H        3.5340     1.0830    -0.1360 H     1 <1>   0.0800 
 34 H        0.4480     0.2890     1.4390 H     1 <1>   0.0800 
 35 H       -0.0860     1.9410     1.7130 H     1 <1>   0.0800 
 36 H        3.3520     3.5340     1.4890 H     1 <1>   0.3700 
 37 H        3.7330     1.4250     2.5750 H     1 <1>   0.0800 
 38 H        2.9750    -0.0090     1.8860 H     1 <1>   0.0800 
 39 H        4.9760     4.9700     1.7600 H     1 <1>   0.1500 
 40 H        4.3420     5.6190    -2.3760 H     1 <1>   0.1500 
 41 H        5.9180     6.6880     3.0630 H     1 <1>   0.0800 
 42 H        5.4810     8.2930     2.5250 H     1 <1>   0.0800 
 43 H        7.0720     7.6610     2.1810 H     1 <1>   0.0800 
 44 H        4.9640     7.6920    -3.3160 H     1 <1>   0.0800 
 45 H        6.3590     8.4150    -2.5510 H     1 <1>   0.0800 
 46 H        4.7620     9.0400    -2.2210 H     1 <1>   0.0800 
@<TRIPOS>BOND
  1   1   2  2   
  2   1   3  2   
  3   1   4  am  
  4   1   5  1   
  5   4   6  1   
  6   4   7  1   
  7   5   8  1   
  8   5  24  1   
  9   5  25  1   
 10   6  26  1   
 11   6  27  1   
 12   6  28  1   
 13   7  29  1   
 14   7  30  1   
 15   7  31  1   
 16   8   9  1   
 17   8  10  1   
 18   8  32  1   
 19   9  11  1   
 20   9  12  1   
 21   9  33  1   
 22  10  13  1   
 23  10  34  1   
 24  10  35  1   
 25  11  14  am  
 26  11  36  1   
 27  12  13  1   
 28  12  37  1   
 29  12  38  1   
 30  14  15  2   
 31  14  16  1   
 32  16  17  ar  
 33  16  18  ar  
 34  17  19  ar  
 35  17  39  1   
 36  18  20  ar  
 37  18  40  1   
 38  19  21  ar  
 39  19  22  1   
 40  20  21  ar  
 41  20  23  1   
 42  22  41  1   
 43  22  42  1   
 44  22  43  1   
 45  23  44  1   
 46  23  45  1   
 47  23  46  1   
@<TRIPOS>SUBSTRUCTURE
  1 ****  11 GROUP 4 **** **** 0

# MOE 2024.06 (io_trps.svl 2023.06)
