@<TRIPOS>MOLECULE
NONAME
59 61 1 0 0 
SMALL
USER_CHARGES


@<TRIPOS>ATOM
  1 F       -0.1540     0.7860    -0.6420 F     1 <1>  -0.1900 
  2 C       -1.4420     0.9740    -0.5090 C.ar  1 <1>   0.1900 
  3 C       -1.9640     2.0380     0.2340 C.ar  1 <1>   0.0830 
  4 C       -2.2640     0.0640    -1.1460 C.ar  1 <1>  -0.1500 
  5 O       -1.2610     2.9970     0.9030 O.3   1 <1>  -0.3630 
  6 C       -3.3430     2.1520     0.3110 C.ar  1 <1>  -0.1500 
  7 C       -3.6360     0.2080    -1.0490 C.ar  1 <1>  -0.1500 
  8 C        0.1480     3.0120     0.9680 C.3   1 <1>   0.0400 
  9 C       -4.2050     1.2500    -0.3150 C.ar  1 <1>   0.0530 
 10 C       -5.6330     1.4180    -0.2130 C.2   1 <1>   0.0870 
 11 O       -6.1430     2.6110    -0.3830 O.3   1 <1>  -0.0190 
 12 C       -6.6710     0.5720     0.0400 C.2   1 <1>  -0.0860 
 13 N       -7.4430     2.6320    -0.2790 N.2   1 <1>  -0.4100 
 14 C       -7.7880     1.4190    -0.0270 C.2   1 <1>   0.3720 
 15 C       -6.6900    -0.8310     0.3370 C.2   1 <1>   0.7160 
 16 N       -9.1300     1.0360     0.1340 N.pl3 1 <1>  -0.8210 
 17 O       -5.6740    -1.5000     0.3290 O.2   1 <1>  -0.5700 
 18 N       -7.8650    -1.4480     0.6360 N.am  1 <1>  -0.7300 
 19 C       -9.8460     0.9130    -1.1650 C.3   1 <1>   0.1290 
 20 C       -9.8820     1.9010     1.0870 C.3   1 <1>   0.1290 
 21 C       -8.0880    -2.8780     0.9180 C.3   1 <1>   0.1400 
 22 C       -9.2100    -3.3880     0.0080 C.3   1 <1>  -0.1600 
 23 C       -9.6370    -4.8400     0.3070 C.3   1 <1>  -0.0800 
 24 C       -8.5250    -5.8430    -0.0770 C.3   1 <1>  -0.1600 
 25 C      -10.9720    -5.1110    -0.4130 C.3   1 <1>  -0.1600 
 26 C       -8.7490    -7.2430     0.5150 C.3   1 <1>  -0.1600 
 27 C      -11.5520    -6.5240    -0.2420 C.3   1 <1>  -0.1600 
 28 C       -9.5800    -8.1910    -0.3610 C.3   1 <1>  -0.1600 
 29 C      -10.7960    -7.5740    -1.0680 C.3   1 <1>  -0.1600 
 30 H       -1.8350    -0.7450    -1.7090 H     1 <1>   0.1500 
 31 H       -3.7590     2.9650     0.8780 H     1 <1>   0.1500 
 32 H       -4.2770    -0.4990    -1.5470 H     1 <1>   0.1500 
 33 H        0.4460     3.8500     1.5710 H     1 <1>   0.0800 
 34 H        0.5430     3.1210    -0.0260 H     1 <1>   0.0800 
 35 H        0.4880     2.0980     1.4220 H     1 <1>   0.0800 
 36 H       -8.6880    -0.8280     0.6360 H     1 <1>   0.3700 
 37 H       -9.2920     0.2710    -1.8280 H     1 <1>   0.0800 
 38 H       -9.9470     1.8830    -1.6250 H     1 <1>   0.0800 
 39 H      -10.8230     0.4900    -1.0100 H     1 <1>   0.0800 
 40 H       -9.3100     2.0340     1.9890 H     1 <1>   0.0800 
 41 H      -10.8230     1.4420     1.3390 H     1 <1>   0.0800 
 42 H      -10.0640     2.8680     0.6490 H     1 <1>   0.0800 
 43 H       -8.3660    -2.9930     1.9510 H     1 <1>   0.0800 
 44 H       -7.1760    -3.4250     0.7470 H     1 <1>   0.0800 
 45 H       -8.8940    -3.3120    -1.0180 H     1 <1>   0.0800 
 46 H      -10.0600    -2.7430     0.1460 H     1 <1>   0.0800 
 47 H       -9.8160    -4.9170     1.3670 H     1 <1>   0.0800 
 48 H       -7.5870    -5.4940     0.3140 H     1 <1>   0.0800 
 49 H       -8.4160    -5.8970    -1.1470 H     1 <1>   0.0800 
 50 H      -10.8610    -4.9020    -1.4640 H     1 <1>   0.0800 
 51 H      -11.7020    -4.4180    -0.0330 H     1 <1>   0.0800 
 52 H       -9.2090    -7.1540     1.4840 H     1 <1>   0.0800 
 53 H       -7.7900    -7.7060     0.6730 H     1 <1>   0.0800 
 54 H      -12.5680    -6.5000    -0.5970 H     1 <1>   0.0800 
 55 H      -11.5860    -6.8030     0.7970 H     1 <1>   0.0800 
 56 H       -9.9170    -9.0020     0.2600 H     1 <1>   0.0800 
 57 H       -8.9410    -8.6190    -1.1150 H     1 <1>   0.0800 
 58 H      -10.4820    -7.1370    -2.0010 H     1 <1>   0.0800 
 59 H      -11.4730    -8.3740    -1.3150 H     1 <1>   0.0800 
@<TRIPOS>BOND
  1   1   2  1   
  2   2   3  ar  
  3   2   4  ar  
  4   3   5  1   
  5   3   6  ar  
  6   4   7  ar  
  7   4  30  1   
  8   5   8  1   
  9   6   9  ar  
 10   6  31  1   
 11   7   9  ar  
 12   7  32  1   
 13   8  33  1   
 14   8  34  1   
 15   8  35  1   
 16   9  10  1   
 17  10  11  1   
 18  10  12  2   
 19  11  13  1   
 20  12  14  1   
 21  12  15  1   
 22  13  14  2   
 23  14  16  1   
 24  15  17  2   
 25  15  18  am  
 26  16  19  1   
 27  16  20  1   
 28  18  21  1   
 29  18  36  1   
 30  19  37  1   
 31  19  38  1   
 32  19  39  1   
 33  20  40  1   
 34  20  41  1   
 35  20  42  1   
 36  21  22  1   
 37  21  43  1   
 38  21  44  1   
 39  22  23  1   
 40  22  45  1   
 41  22  46  1   
 42  23  24  1   
 43  23  25  1   
 44  23  47  1   
 45  24  26  1   
 46  24  48  1   
 47  24  49  1   
 48  25  27  1   
 49  25  50  1   
 50  25  51  1   
 51  26  28  1   
 52  26  52  1   
 53  26  53  1   
 54  27  29  1   
 55  27  54  1   
 56  27  55  1   
 57  28  29  1   
 58  28  56  1   
 59  28  57  1   
 60  29  58  1   
 61  29  59  1   
@<TRIPOS>SUBSTRUCTURE
  1 ****  15 GROUP 4 **** **** 0

# MOE 2024.06 (io_trps.svl 2023.06)
