@<TRIPOS>MOLECULE
NONAME
54 56 1 0 0 
SMALL
USER_CHARGES


@<TRIPOS>ATOM
  1 O        0.5480    -1.2620    -1.8830 O.3   1 <1>  -0.6800 
  2 C        0.1000    -1.9650    -0.7730 C.3   1 <1>   0.1200 
  3 C        1.2340    -2.1830     0.2710 C.3   1 <1>   0.0000 
  4 C        2.5610    -2.7200    -0.3430 C.3   1 <1>   0.4230 
  5 C        1.5240    -0.8420     1.0000 C.3   1 <1>  -0.1600 
  6 C        0.7320    -3.2080     1.3270 C.3   1 <1>  -0.1600 
  7 N        2.3980    -4.0630    -1.0550 N.4   1 <1>  -0.9590 
  8 C        3.3380    -1.6230    -1.1420 C.3   1 <1>   0.3430 
  9 C        2.2090     0.2090     0.1220 C.3   1 <1>   0.3430 
 10 C        1.1960    -4.6550     1.0610 C.3   1 <1>  -0.1600 
 11 C        1.3670    -4.9610    -0.4280 C.3   1 <1>   0.3430 
 12 C        2.1240    -3.9730    -2.5300 C.3   1 <1>   0.2630 
 13 N        3.5060    -0.3260    -0.3920 N.4   1 <1>  -0.9590 
 14 C        4.1930     0.7070    -1.2250 C.3   1 <1>   0.4860 
 15 C        4.5110     1.8970    -0.3370 C.ar  1 <1>  -0.1430 
 16 C        5.5020     1.8020     0.6410 C.ar  1 <1>  -0.1430 
 17 C        3.7960     3.0860    -0.4910 C.ar  1 <1>  -0.1430 
 18 C        5.7340     2.8790     1.4800 C.ar  1 <1>  -0.1500 
 19 C        6.3770     0.5690     0.8440 C.3   1 <1>  -0.0970 
 20 C        4.0510     4.1500     0.3600 C.ar  1 <1>  -0.1500 
 21 C        2.7420     3.2840    -1.5760 C.3   1 <1>  -0.0970 
 22 C        5.0100     4.0460     1.3450 C.ar  1 <1>  -0.1500 
 23 H       -0.2160    -0.9960    -2.4460 H     1 <1>   0.4000 
 24 H       -0.7120    -1.4080    -0.3320 H     1 <1>   0.0800 
 25 H       -0.2990    -2.9020    -1.1220 H     1 <1>   0.0800 
 26 H        3.1860    -2.9230     0.5110 H     1 <1>   0.0800 
 27 H        2.1490    -1.0050     1.8610 H     1 <1>   0.0800 
 28 H        0.6010    -0.4240     1.3660 H     1 <1>   0.0800 
 29 H        1.0730    -2.9450     2.3160 H     1 <1>   0.0800 
 30 H       -0.3450    -3.1850     1.3740 H     1 <1>   0.0800 
 31 H        3.2920    -4.5690    -0.9480 H     1 <1>   0.4500 
 32 H        2.8050    -1.4210    -2.0550 H     1 <1>   0.0800 
 33 H        4.3100    -2.0070    -1.4010 H     1 <1>   0.0800 
 34 H        2.3830     1.1020     0.7040 H     1 <1>   0.0800 
 35 H        1.5660     0.4730    -0.7020 H     1 <1>   0.0800 
 36 H        0.4750    -5.3380     1.4790 H     1 <1>   0.0800 
 37 H        2.1280    -4.8450     1.5650 H     1 <1>   0.0800 
 38 H        0.4150    -4.8220    -0.9150 H     1 <1>   0.0800 
 39 H        1.6510    -5.9950    -0.5580 H     1 <1>   0.0800 
 40 H        1.1990    -3.4500    -2.7120 H     1 <1>   0.0800 
 41 H        2.0440    -4.9600    -2.9570 H     1 <1>   0.0800 
 42 H        2.9190    -3.4520    -3.0380 H     1 <1>   0.0800 
 43 H        4.1190    -0.4330     0.4280 H     1 <1>   0.4500 
 44 H        5.1120     0.3160    -1.6300 H     1 <1>   0.0800 
 45 H        3.5630     1.0040    -2.0460 H     1 <1>   0.0800 
 46 H        6.4880     2.8250     2.2480 H     1 <1>   0.1500 
 47 H        7.3130     0.8520     1.2940 H     1 <1>   0.0800 
 48 H        6.6110     0.0910    -0.0890 H     1 <1>   0.0800 
 49 H        5.8960    -0.1300     1.5040 H     1 <1>   0.0800 
 50 H        3.5080     5.0750     0.2620 H     1 <1>   0.1500 
 51 H        2.3590     4.2900    -1.5560 H     1 <1>   0.0800 
 52 H        1.9130     2.6170    -1.4380 H     1 <1>   0.0800 
 53 H        3.1730     3.1260    -2.5480 H     1 <1>   0.0800 
 54 H        5.2000     4.8780     2.0020 H     1 <1>   0.1500 
@<TRIPOS>BOND
  1   1   2  1   
  2   1  23  1   
  3   2   3  1   
  4   2  24  1   
  5   2  25  1   
  6   3   4  1   
  7   3   5  1   
  8   3   6  1   
  9   4   7  1   
 10   4   8  1   
 11   4  26  1   
 12   5   9  1   
 13   5  27  1   
 14   5  28  1   
 15   6  10  1   
 16   6  29  1   
 17   6  30  1   
 18   7  11  1   
 19   7  12  1   
 20   7  31  1   
 21   8  13  1   
 22   8  32  1   
 23   8  33  1   
 24   9  13  1   
 25   9  34  1   
 26   9  35  1   
 27  10  11  1   
 28  10  36  1   
 29  10  37  1   
 30  11  38  1   
 31  11  39  1   
 32  12  40  1   
 33  12  41  1   
 34  12  42  1   
 35  13  14  1   
 36  13  43  1   
 37  14  15  1   
 38  14  44  1   
 39  14  45  1   
 40  15  16  ar  
 41  15  17  ar  
 42  16  18  ar  
 43  16  19  1   
 44  17  20  ar  
 45  17  21  1   
 46  18  22  ar  
 47  18  46  1   
 48  19  47  1   
 49  19  48  1   
 50  19  49  1   
 51  20  22  ar  
 52  20  50  1   
 53  21  51  1   
 54  21  52  1   
 55  21  53  1   
 56  22  54  1   
@<TRIPOS>SUBSTRUCTURE
  1 ****  13 GROUP 4 **** **** 0

# MOE 2024.06 (io_trps.svl 2023.06)
