@<TRIPOS>MOLECULE
NONAME
54 57 1 0 0 
SMALL
USER_CHARGES


@<TRIPOS>ATOM
  1 F        1.1420     0.6480     0.1250 F     1 <1>  -0.1900 
  2 C        1.8900    -0.4130    -0.0130 C.ar  1 <1>   0.1900 
  3 C        1.5800    -1.5430     0.7180 C.ar  1 <1>  -0.1500 
  4 C        2.9580    -0.3670    -0.8840 C.ar  1 <1>  -0.1500 
  5 C        2.3670    -2.6780     0.5770 C.ar  1 <1>  -0.1440 
  6 C        3.7430    -1.4980    -1.0220 C.ar  1 <1>  -0.1500 
  7 C        3.4640    -2.6570    -0.2980 C.ar  1 <1>  -0.0230 
  8 C        2.0010    -3.9170     1.3870 C.3   1 <1>   0.4870 
  9 N        4.3040    -3.7940    -0.4740 N.pl3 1 <1>   0.5930 
 10 N        1.4840    -4.9750     0.4880 N.4   1 <1>  -0.9590 
 11 N        3.8550    -4.9450    -1.0420 N.2   1 <1>  -0.7070 
 12 C        5.5780    -3.9600    -0.0330 C.2   1 <1>  -0.3320 
 13 C        0.3540    -4.5510    -0.3950 C.3   1 <1>   0.3430 
 14 C        1.0550    -6.2060     1.2000 C.3   1 <1>   0.3430 
 15 C        4.8460    -5.7750    -0.9710 C.2   1 <1>   0.1080 
 16 C        5.9510    -5.2180    -0.3440 C.2   1 <1>  -0.1500 
 17 C        6.3950    -2.8890     0.6760 C.3   1 <1>  -0.0600 
 18 C       -0.7470    -5.6060    -0.2230 C.3   1 <1>   0.2000 
 19 C       -0.0120    -6.8370     0.3020 C.3   1 <1>  -0.0800 
 20 C        4.7950    -7.1860    -1.5120 C.3   1 <1>  -0.0590 
 21 O       -1.6080    -5.1680     0.7750 O.3   1 <1>  -0.6800 
 22 C        0.5990    -7.6740    -0.8430 C.3   1 <1>  -0.0170 
 23 C        1.2650    -8.9400    -0.3260 C.ar  1 <1>   0.1670 
 24 N        2.4220    -8.7820     0.3000 N.ar  1 <1>  -0.6200 
 25 C        0.6530   -10.1690    -0.5260 C.ar  1 <1>  -0.1500 
 26 C        2.9910    -9.8940     0.7420 C.ar  1 <1>   0.1600 
 27 C        1.2560   -11.3160    -0.0580 C.ar  1 <1>  -0.1500 
 28 C        2.4600   -11.1630     0.5930 C.ar  1 <1>  -0.1500 
 29 H        0.7330    -1.5130     1.3810 H     1 <1>   0.1500 
 30 H        3.1660     0.5320    -1.4380 H     1 <1>   0.1500 
 31 H        4.5790    -1.4800    -1.7030 H     1 <1>   0.1500 
 32 H        1.2480    -3.6630     2.1150 H     1 <1>   0.0800 
 33 H        2.8720    -4.2780     1.9080 H     1 <1>   0.0800 
 34 H        2.2790    -5.2310    -0.1380 H     1 <1>   0.4500 
 35 H       -0.0230    -3.5770    -0.1290 H     1 <1>   0.0800 
 36 H        0.6920    -4.5330    -1.4180 H     1 <1>   0.0800 
 37 H        1.8850    -6.8630     1.3920 H     1 <1>   0.0800 
 38 H        0.5960    -5.9370     2.1370 H     1 <1>   0.0800 
 39 H        6.8910    -5.7120    -0.1630 H     1 <1>   0.1500 
 40 H        7.3600    -3.2780     0.9500 H     1 <1>   0.0800 
 41 H        5.8940    -2.5610     1.5690 H     1 <1>   0.0800 
 42 H        6.5440    -2.0420     0.0290 H     1 <1>   0.0800 
 43 H       -1.3140    -5.7690    -1.1250 H     1 <1>   0.0800 
 44 H       -0.6660    -7.4700     0.8780 H     1 <1>   0.0800 
 45 H        5.5290    -7.3050    -2.2880 H     1 <1>   0.0800 
 46 H        3.8240    -7.3970    -1.9210 H     1 <1>   0.0800 
 47 H        4.9990    -7.8880    -0.7250 H     1 <1>   0.0800 
 48 H       -2.4110    -5.7290     0.8260 H     1 <1>   0.4000 
 49 H        1.3300    -7.1030    -1.3900 H     1 <1>   0.0800 
 50 H       -0.1760    -7.9460    -1.5370 H     1 <1>   0.0800 
 51 H       -0.2870   -10.2390    -1.0420 H     1 <1>   0.1500 
 52 H        3.9340    -9.7920     1.2530 H     1 <1>   0.1500 
 53 H        0.8090   -12.2870    -0.1950 H     1 <1>   0.1500 
 54 H        2.9830   -12.0190     0.9810 H     1 <1>   0.1500 
@<TRIPOS>BOND
  1   1   2  1   
  2   2   3  ar  
  3   2   4  ar  
  4   3   5  ar  
  5   3  29  1   
  6   4   6  ar  
  7   4  30  1   
  8   5   7  ar  
  9   5   8  1   
 10   6   7  ar  
 11   6  31  1   
 12   7   9  1   
 13   8  10  1   
 14   8  32  1   
 15   8  33  1   
 16   9  11  1   
 17   9  12  1   
 18  10  13  1   
 19  10  14  1   
 20  10  34  1   
 21  11  15  2   
 22  12  16  2   
 23  12  17  1   
 24  13  18  1   
 25  13  35  1   
 26  13  36  1   
 27  14  19  1   
 28  14  37  1   
 29  14  38  1   
 30  15  16  1   
 31  15  20  1   
 32  16  39  1   
 33  17  40  1   
 34  17  41  1   
 35  17  42  1   
 36  18  19  1   
 37  18  21  1   
 38  18  43  1   
 39  19  22  1   
 40  19  44  1   
 41  20  45  1   
 42  20  46  1   
 43  20  47  1   
 44  21  48  1   
 45  22  23  1   
 46  22  49  1   
 47  22  50  1   
 48  23  24  ar  
 49  23  25  ar  
 50  24  26  ar  
 51  25  27  ar  
 52  25  51  1   
 53  26  28  ar  
 54  26  52  1   
 55  27  28  ar  
 56  27  53  1   
 57  28  54  1   
@<TRIPOS>SUBSTRUCTURE
  1 ****  10 GROUP 4 **** **** 0

# MOE 2024.06 (io_trps.svl 2023.06)
