@<TRIPOS>MOLECULE
NONAME
47 50 1 0 0 
SMALL
USER_CHARGES


@<TRIPOS>ATOM
  1 O        2.5870    -0.1110     3.9100 O.3   1 <1>  -0.6800 
  2 C        1.8580    -0.6300     2.8470 C.3   1 <1>   0.2000 
  3 C        2.4000    -2.0270     2.5510 C.3   1 <1>  -0.0800 
  4 C        2.2150     0.1790     1.5910 C.3   1 <1>   0.3430 
  5 C        3.6940    -1.7090     1.7940 C.3   1 <1>   0.3430 
  6 C        1.3950    -2.8710     1.7300 C.3   1 <1>  -0.0160 
  7 N        3.3700    -0.5300     0.9550 N.4   1 <1>  -0.9590 
  8 C        2.1040    -4.0090     1.0030 C.ar  1 <1>  -0.1430 
  9 C        4.5040     0.3710     0.6470 C.3   1 <1>   0.5230 
 10 C        2.5620    -3.9050    -0.3350 C.ar  1 <1>   0.0000 
 11 C        2.3570    -5.1720     1.6690 C.ar  1 <1>  -0.1500 
 12 C        4.1680     1.0700    -0.6660 C.2   1 <1>   0.0070 
 13 C        3.3220    -4.9840    -0.8500 C.ar  1 <1>   0.3100 
 14 C        2.3320    -2.7990    -1.1890 C.ar  1 <1>  -0.1500 
 15 C        3.0780    -6.1980     1.0490 C.ar  1 <1>   0.1600 
 16 N        4.8490     2.1440    -1.1290 N.pl3 1 <1>   0.0330 
 17 N        3.2050     0.6910    -1.4540 N.2   1 <1>  -0.5650 
 18 N        3.5620    -6.1190    -0.1490 N.ar  1 <1>  -0.6200 
 19 C        3.8660    -4.8820    -2.1390 C.ar  1 <1>  -0.1500 
 20 C        2.8770    -2.7300    -2.4410 C.ar  1 <1>  -0.1500 
 21 C        4.2600     2.4570    -2.2960 C.2   1 <1>  -0.3320 
 22 C        3.2640     1.5630    -2.4780 C.2   1 <1>   0.0770 
 23 C        3.6610    -3.7790    -2.9230 C.ar  1 <1>  -0.1500 
 24 C        4.7000     3.6130    -3.1770 C.3   1 <1>  -0.0600 
 25 H        2.2660    -0.4610     4.7680 H     1 <1>   0.4000 
 26 H        0.8090    -0.5920     3.0900 H     1 <1>   0.0800 
 27 H        2.6320    -2.5640     3.4540 H     1 <1>   0.0800 
 28 H        2.4600     1.1940     1.8570 H     1 <1>   0.0800 
 29 H        1.3830     0.1860     0.9070 H     1 <1>   0.0800 
 30 H        4.0470    -2.5400     1.2040 H     1 <1>   0.0800 
 31 H        4.4520    -1.4410     2.5120 H     1 <1>   0.0800 
 32 H        0.8420    -2.2670     1.0360 H     1 <1>   0.0800 
 33 H        0.6660    -3.2880     2.4040 H     1 <1>   0.0800 
 34 H        3.0660    -0.8260     0.0100 H     1 <1>   0.4500 
 35 H        4.6450     1.0850     1.4410 H     1 <1>   0.0800 
 36 H        5.4060    -0.2020     0.5170 H     1 <1>   0.0800 
 37 H        2.0240    -5.3340     2.6790 H     1 <1>   0.1500 
 38 H        1.7060    -1.9890    -0.8740 H     1 <1>   0.1500 
 39 H        3.2510    -7.1040     1.6050 H     1 <1>   0.1500 
 40 H        5.6470     2.6320    -0.7070 H     1 <1>   0.2700 
 41 H        4.4540    -5.7090    -2.4950 H     1 <1>   0.1500 
 42 H        2.7050    -1.8740    -3.0750 H     1 <1>   0.1500 
 43 H        2.5770     1.5050    -3.3080 H     1 <1>   0.1500 
 44 H        4.0870    -3.7130    -3.9100 H     1 <1>   0.1500 
 45 H        4.0820     3.6660    -4.0560 H     1 <1>   0.0800 
 46 H        5.7210     3.4800    -3.4880 H     1 <1>   0.0800 
 47 H        4.6140     4.5440    -2.6450 H     1 <1>   0.0800 
@<TRIPOS>BOND
  1   1   2  1   
  2   1  25  1   
  3   2   3  1   
  4   2   4  1   
  5   2  26  1   
  6   3   5  1   
  7   3   6  1   
  8   3  27  1   
  9   4   7  1   
 10   4  28  1   
 11   4  29  1   
 12   5   7  1   
 13   5  30  1   
 14   5  31  1   
 15   6   8  1   
 16   6  32  1   
 17   6  33  1   
 18   7   9  1   
 19   7  34  1   
 20   8  10  ar  
 21   8  11  ar  
 22   9  12  1   
 23   9  35  1   
 24   9  36  1   
 25  10  13  ar  
 26  10  14  ar  
 27  11  15  ar  
 28  11  37  1   
 29  12  16  1   
 30  12  17  2   
 31  13  18  ar  
 32  13  19  ar  
 33  14  20  ar  
 34  14  38  1   
 35  15  18  ar  
 36  15  39  1   
 37  16  21  1   
 38  16  40  1   
 39  17  22  1   
 40  19  23  ar  
 41  19  41  1   
 42  20  23  ar  
 43  20  42  1   
 44  21  22  2   
 45  21  24  1   
 46  22  43  1   
 47  23  44  1   
 48  24  45  1   
 49  24  46  1   
 50  24  47  1   
@<TRIPOS>SUBSTRUCTURE
  1 ****   7 GROUP 4 **** **** 0

# MOE 2024.06 (io_trps.svl 2023.06)
