@<TRIPOS>MOLECULE
NONAME
46 48 1 0 0 
SMALL
USER_CHARGES


@<TRIPOS>ATOM
  1 CL      -0.3360    -4.6980     4.1220 Cl    1 <1>  -0.1770 
  2 C       -0.7640    -4.8490     2.4360 C.ar  1 <1>   0.1770 
  3 C       -2.0150    -4.4400     2.0150 C.ar  1 <1>  -0.1500 
  4 C        0.1550    -5.3720     1.5480 C.ar  1 <1>  -0.1500 
  5 C       -2.3650    -4.5580     0.6790 C.ar  1 <1>  -0.1440 
  6 C       -0.1880    -5.4940     0.2140 C.ar  1 <1>  -0.1500 
  7 C       -1.4520    -5.1000    -0.2260 C.ar  1 <1>   0.0830 
  8 C       -3.7430    -4.0940     0.2260 C.3   1 <1>  -0.0960 
  9 O       -1.8490    -5.2300    -1.5200 O.3   1 <1>  -0.3630 
 10 C       -1.2090    -6.1230    -2.4260 C.3   1 <1>   0.1810 
 11 C       -1.1600    -7.5610    -1.9070 C.2   1 <1>   0.5690 
 12 O       -0.0720    -8.0820    -1.8130 O.2   1 <1>  -0.5700 
 13 N       -2.2940    -8.2450    -1.5510 N.am  1 <1>  -0.6600 
 14 C       -3.6980    -7.7630    -1.6130 C.3   1 <1>   0.1400 
 15 C       -2.2250    -9.4940    -0.7530 C.3   1 <1>   0.1400 
 16 C       -4.3600    -8.3960    -0.3930 C.3   1 <1>   0.2000 
 17 C       -3.6570    -9.7530    -0.2640 C.3   1 <1>  -0.0800 
 18 O       -4.0740    -7.6080     0.7120 O.3   1 <1>  -0.6800 
 19 C       -3.7280   -10.3880     1.1380 C.3   1 <1>   0.0200 
 20 C       -3.1500   -11.7920     1.1890 C.2   1 <1>  -0.0400 
 21 O       -3.0370   -12.3810     2.3500 O.3   1 <1>  -0.0190 
 22 C       -2.6930   -12.6440     0.2550 C.2   1 <1>  -0.1500 
 23 N       -2.5290   -13.5740     2.2450 N.2   1 <1>  -0.4100 
 24 C       -2.3110   -13.7600     0.9940 C.2   1 <1>   0.1080 
 25 C       -1.7180   -15.0240     0.4130 C.3   1 <1>  -0.0590 
 26 H       -2.7020    -4.0340     2.7360 H     1 <1>   0.1500 
 27 H        1.1240    -5.6780     1.9000 H     1 <1>   0.1500 
 28 H        0.5420    -5.8960    -0.4640 H     1 <1>   0.1500 
 29 H       -4.2280    -3.5200     0.9940 H     1 <1>   0.0800 
 30 H       -4.3600    -4.9430    -0.0060 H     1 <1>   0.0800 
 31 H       -3.6550    -3.4780    -0.6510 H     1 <1>   0.0800 
 32 H       -1.7560    -6.0970    -3.3480 H     1 <1>   0.0800 
 33 H       -0.2140    -5.7610    -2.6080 H     1 <1>   0.0800 
 34 H       -3.7840    -6.6920    -1.5950 H     1 <1>   0.0800 
 35 H       -4.1550    -8.1410    -2.5110 H     1 <1>   0.0800 
 36 H       -1.8580   -10.3040    -1.3600 H     1 <1>   0.0800 
 37 H       -1.5550    -9.3440     0.0770 H     1 <1>   0.0800 
 38 H       -5.4300    -8.4780    -0.4850 H     1 <1>   0.0800 
 39 H       -4.1240   -10.4230    -0.9640 H     1 <1>   0.0800 
 40 H       -3.1350    -7.3250     0.6710 H     1 <1>   0.4000 
 41 H       -4.7530   -10.4300     1.4590 H     1 <1>   0.0800 
 42 H       -3.1930    -9.7770     1.8450 H     1 <1>   0.0800 
 43 H       -2.6210   -12.5400    -0.8110 H     1 <1>   0.1500 
 44 H       -2.4190   -15.4790    -0.2620 H     1 <1>   0.0800 
 45 H       -1.4930   -15.7190     1.2010 H     1 <1>   0.0800 
 46 H       -0.8120   -14.7930    -0.1170 H     1 <1>   0.0800 
@<TRIPOS>BOND
  1   1   2  1   
  2   2   3  ar  
  3   2   4  ar  
  4   3   5  ar  
  5   3  26  1   
  6   4   6  ar  
  7   4  27  1   
  8   5   7  ar  
  9   5   8  1   
 10   6   7  ar  
 11   6  28  1   
 12   7   9  1   
 13   8  29  1   
 14   8  30  1   
 15   8  31  1   
 16   9  10  1   
 17  10  11  1   
 18  10  32  1   
 19  10  33  1   
 20  11  12  2   
 21  11  13  am  
 22  13  14  1   
 23  13  15  1   
 24  14  16  1   
 25  14  34  1   
 26  14  35  1   
 27  15  17  1   
 28  15  36  1   
 29  15  37  1   
 30  16  17  1   
 31  16  18  1   
 32  16  38  1   
 33  17  19  1   
 34  17  39  1   
 35  18  40  1   
 36  19  20  1   
 37  19  41  1   
 38  19  42  1   
 39  20  21  1   
 40  20  22  2   
 41  21  23  1   
 42  22  24  1   
 43  22  43  1   
 44  23  24  2   
 45  24  25  1   
 46  25  44  1   
 47  25  45  1   
 48  25  46  1   
@<TRIPOS>SUBSTRUCTURE
  1 ****  15 GROUP 4 **** **** 0

# MOE 2024.06 (io_trps.svl 2023.06)
