@<TRIPOS>MOLECULE
NONAME
46 48 1 0 0 
SMALL
USER_CHARGES


@<TRIPOS>ATOM
  1 O       -2.4220     0.9740     2.0640 O.2   1 <1>  -0.5700 
  2 C       -2.1370     1.4950     1.0020 C.2   1 <1>   0.5440 
  3 N       -2.5020     0.8560    -0.1690 N.am  1 <1>  -0.6600 
  4 C       -1.4370     2.7570     1.0080 C.ar  1 <1>   0.0860 
  5 C       -2.9830    -0.5600    -0.1180 C.3   1 <1>   0.1400 
  6 C       -2.5620     1.5520    -1.4910 C.3   1 <1>   0.1400 
  7 C       -0.2790     2.9450     0.2560 C.ar  1 <1>   0.1600 
  8 C       -1.8770     3.8380     1.7650 C.ar  1 <1>  -0.1500 
  9 C       -4.4870    -0.6380     0.1840 C.3   1 <1>   0.1400 
 10 C       -3.8540     1.2950    -2.2780 C.3   1 <1>  -0.1600 
 11 N        0.4200     4.0630     0.1680 N.ar  1 <1>  -0.6200 
 12 C       -1.1610     5.0080     1.6940 C.ar  1 <1>  -0.1500 
 13 N       -5.3200    -0.2160    -0.9890 N.am  1 <1>  -0.6600 
 14 C       -5.1160     1.1970    -1.4140 C.3   1 <1>   0.1400 
 15 C       -0.0310     5.0760     0.8850 C.ar  1 <1>   0.4100 
 16 C       -6.2390    -1.0080    -1.6420 C.2   1 <1>   0.5690 
 17 N        0.7030     6.2060     0.7850 N.pl3 1 <1>  -0.9000 
 18 O       -6.8240    -0.6110    -2.6240 O.2   1 <1>  -0.5700 
 19 C       -6.5550    -2.4320    -1.2060 C.3   1 <1>   0.0810 
 20 C       -7.5090    -2.4730    -0.0260 C.2   1 <1>  -0.0400 
 21 O       -7.0910    -2.1760     1.1760 O.3   1 <1>  -0.0190 
 22 C       -8.8110    -2.7850     0.0580 C.2   1 <1>  -0.1500 
 23 N       -8.0420    -2.2730     2.0580 N.2   1 <1>  -0.4100 
 24 C       -9.0920    -2.6360     1.4130 C.2   1 <1>   0.1080 
 25 C      -10.4450    -2.8670     2.0490 C.3   1 <1>  -0.0590 
 26 H       -2.4520    -1.0760     0.6640 H     1 <1>   0.0800 
 27 H       -2.7640    -1.0630    -1.0440 H     1 <1>   0.0800 
 28 H       -1.7170     1.2500    -2.0870 H     1 <1>   0.0800 
 29 H       -2.4860     2.6140    -1.3350 H     1 <1>   0.0800 
 30 H        0.0860     2.1060    -0.3110 H     1 <1>   0.1500 
 31 H       -2.7540     3.7440     2.3820 H     1 <1>   0.1500 
 32 H       -4.7170    -0.0150     1.0320 H     1 <1>   0.0800 
 33 H       -4.7140    -1.6470     0.4670 H     1 <1>   0.0800 
 34 H       -3.7560     0.4060    -2.8760 H     1 <1>   0.0800 
 35 H       -3.9800     2.1110    -2.9650 H     1 <1>   0.0800 
 36 H       -1.4600     5.8740     2.2530 H     1 <1>   0.1500 
 37 H       -5.9640     1.5270    -1.9900 H     1 <1>   0.0800 
 38 H       -5.0440     1.8370    -0.5510 H     1 <1>   0.0800 
 39 H        0.7540     6.8480     1.5740 H     1 <1>   0.4000 
 40 H        1.5800     6.0940     0.2730 H     1 <1>   0.4000 
 41 H       -5.6540    -2.9650    -0.9770 H     1 <1>   0.0800 
 42 H       -7.0200    -2.9360    -2.0330 H     1 <1>   0.0800 
 43 H       -9.5010    -3.0780    -0.7120 H     1 <1>   0.1500 
 44 H      -11.1750    -2.2230     1.5950 H     1 <1>   0.0800 
 45 H      -10.3970    -2.6510     3.1010 H     1 <1>   0.0800 
 46 H      -10.7410    -3.8910     1.9160 H     1 <1>   0.0800 
@<TRIPOS>BOND
  1   1   2  2   
  2   2   3  am  
  3   2   4  1   
  4   3   5  1   
  5   3   6  1   
  6   4   7  ar  
  7   4   8  ar  
  8   5   9  1   
  9   5  26  1   
 10   5  27  1   
 11   6  10  1   
 12   6  28  1   
 13   6  29  1   
 14   7  11  ar  
 15   7  30  1   
 16   8  12  ar  
 17   8  31  1   
 18   9  13  1   
 19   9  32  1   
 20   9  33  1   
 21  10  14  1   
 22  10  34  1   
 23  10  35  1   
 24  11  15  ar  
 25  12  15  ar  
 26  12  36  1   
 27  13  14  1   
 28  13  16  am  
 29  14  37  1   
 30  14  38  1   
 31  15  17  1   
 32  16  18  2   
 33  16  19  1   
 34  17  39  1   
 35  17  40  1   
 36  19  20  1   
 37  19  41  1   
 38  19  42  1   
 39  20  21  1   
 40  20  22  2   
 41  21  23  1   
 42  22  24  1   
 43  22  43  1   
 44  23  24  2   
 45  24  25  1   
 46  25  44  1   
 47  25  45  1   
 48  25  46  1   
@<TRIPOS>SUBSTRUCTURE
  1 ****   9 GROUP 4 **** **** 0

# MOE 2024.06 (io_trps.svl 2023.06)
