@<TRIPOS>MOLECULE
NONAME
49 51 1 0 0 
SMALL
USER_CHARGES


@<TRIPOS>ATOM
  1 S        0.0900    -0.4630    -0.7880 S.3   1 <1>  -0.0800 
  2 C       -1.2170    -1.2170     0.1070 C.2   1 <1>  -0.1400 
  3 C       -0.4550     1.1430    -0.3330 C.2   1 <1>  -0.1400 
  4 C       -1.9870    -0.2760     0.6930 C.2   1 <1>  -0.1500 
  5 C       -1.2410    -2.7310     0.0630 C.3   1 <1>   0.5230 
  6 C       -1.5540     1.0630     0.4370 C.2   1 <1>  -0.1500 
  7 C        0.3290     2.3390    -0.8510 C.3   1 <1>   0.0200 
  8 N       -2.5860    -3.2210     0.4500 N.4   1 <1>  -0.9590 
  9 C        1.3900     2.8390     0.1480 C.3   1 <1>  -0.0800 
 10 C       -3.6730    -2.8390    -0.4880 C.3   1 <1>   0.3430 
 11 C       -2.6930    -4.6970     0.6110 C.3   1 <1>   0.3430 
 12 C        2.0510     4.1190    -0.3800 C.3   1 <1>  -0.2400 
 13 C        2.4700     1.7870     0.4350 C.3   1 <1>  -0.2400 
 14 C       -4.8290    -3.7420    -0.0600 C.3   1 <1>   0.2000 
 15 C       -4.1430    -5.0770     0.2490 C.3   1 <1>  -0.0800 
 16 O       -5.3360    -3.2350     1.1310 O.3   1 <1>  -0.6800 
 17 C       -4.2050    -6.0380    -0.9580 C.3   1 <1>  -0.0170 
 18 C       -3.5690    -7.3880    -0.6560 C.ar  1 <1>   0.1670 
 19 N       -2.2480    -7.4080    -0.5700 N.ar  1 <1>  -0.6200 
 20 C       -4.3690    -8.5190    -0.4910 C.ar  1 <1>   0.1600 
 21 C       -1.7850    -8.6250    -0.3220 C.ar  1 <1>   0.1600 
 22 N       -3.9070    -9.7290    -0.2310 N.ar  1 <1>  -0.6200 
 23 C       -2.5880    -9.7470    -0.1570 C.ar  1 <1>   0.1600 
 24 H       -2.8540    -0.4410     1.3090 H     1 <1>   0.1500 
 25 H       -0.4930    -3.1160     0.7370 H     1 <1>   0.0800 
 26 H       -1.0040    -3.0630    -0.9350 H     1 <1>   0.0800 
 27 H       -2.0870     1.9050     0.8460 H     1 <1>   0.1500 
 28 H        0.7910     2.0880    -1.7900 H     1 <1>   0.0800 
 29 H       -0.3690     3.1360    -1.0380 H     1 <1>   0.0800 
 30 H       -2.8440    -2.7950     1.3510 H     1 <1>   0.4500 
 31 H        0.8940     3.0760     1.0760 H     1 <1>   0.0800 
 32 H       -3.9360    -1.7970    -0.4060 H     1 <1>   0.0800 
 33 H       -3.3860    -3.0640    -1.5010 H     1 <1>   0.0800 
 34 H       -2.0040    -5.1850    -0.0590 H     1 <1>   0.0800 
 35 H       -2.4610    -4.9900     1.6220 H     1 <1>   0.0800 
 36 H        2.5650     3.9270    -1.3050 H     1 <1>   0.0800 
 37 H        2.7630     4.4940     0.3350 H     1 <1>   0.0800 
 38 H        1.3130     4.8830    -0.5480 H     1 <1>   0.0800 
 39 H        2.9500     1.4760    -0.4760 H     1 <1>   0.0800 
 40 H        2.0400     0.9250     0.9130 H     1 <1>   0.0800 
 41 H        3.2180     2.1900     1.0960 H     1 <1>   0.0800 
 42 H       -5.6210    -3.7920    -0.7890 H     1 <1>   0.0800 
 43 H       -4.6120    -5.5640     1.0870 H     1 <1>   0.0800 
 44 H       -6.1800    -3.6720     1.3780 H     1 <1>   0.4000 
 45 H       -3.7030    -5.6080    -1.8080 H     1 <1>   0.0800 
 46 H       -5.2330    -6.1900    -1.2380 H     1 <1>   0.0800 
 47 H       -5.4370    -8.4260    -0.5770 H     1 <1>   0.1500 
 48 H       -0.7180    -8.7450    -0.2450 H     1 <1>   0.1500 
 49 H       -2.1200   -10.6950     0.0440 H     1 <1>   0.1500 
@<TRIPOS>BOND
  1   1   2  1   
  2   1   3  1   
  3   2   4  2   
  4   2   5  1   
  5   3   6  2   
  6   3   7  1   
  7   4   6  1   
  8   4  24  1   
  9   5   8  1   
 10   5  25  1   
 11   5  26  1   
 12   6  27  1   
 13   7   9  1   
 14   7  28  1   
 15   7  29  1   
 16   8  10  1   
 17   8  11  1   
 18   8  30  1   
 19   9  12  1   
 20   9  13  1   
 21   9  31  1   
 22  10  14  1   
 23  10  32  1   
 24  10  33  1   
 25  11  15  1   
 26  11  34  1   
 27  11  35  1   
 28  12  36  1   
 29  12  37  1   
 30  12  38  1   
 31  13  39  1   
 32  13  40  1   
 33  13  41  1   
 34  14  15  1   
 35  14  16  1   
 36  14  42  1   
 37  15  17  1   
 38  15  43  1   
 39  16  44  1   
 40  17  18  1   
 41  17  45  1   
 42  17  46  1   
 43  18  19  ar  
 44  18  20  ar  
 45  19  21  ar  
 46  20  22  ar  
 47  20  47  1   
 48  21  23  ar  
 49  21  48  1   
 50  22  23  ar  
 51  23  49  1   
@<TRIPOS>SUBSTRUCTURE
  1 ****   8 GROUP 4 **** **** 0

# MOE 2024.06 (io_trps.svl 2023.06)
