@<TRIPOS>MOLECULE
NONAME
57 60 1 0 0 
SMALL
USER_CHARGES


@<TRIPOS>ATOM
  1 O       -0.6080    -1.4980     1.8150 O.2   1 <1>  -0.5700 
  2 C       -1.3460    -1.3170     0.8650 C.2   1 <1>   0.5440 
  3 N       -1.0440    -1.9420    -0.3340 N.am  1 <1>  -0.6600 
  4 C       -2.5160    -0.4720     1.0290 C.ar  1 <1>   0.0860 
  5 C        0.2840    -2.5570    -0.6800 C.3   1 <1>   0.2200 
  6 C       -2.1070    -2.2940    -1.3230 C.3   1 <1>   0.1400 
  7 C       -2.8470     0.5090     0.0960 C.ar  1 <1>  -0.1500 
  8 C       -3.3480    -0.6100     2.1390 C.ar  1 <1>  -0.1500 
  9 C        0.1810    -4.0990    -0.6420 C.3   1 <1>   0.0000 
 10 C        1.4940    -2.0520     0.1470 C.3   1 <1>   0.3430 
 11 C       -2.2610    -3.8190    -1.4000 C.3   1 <1>  -0.1600 
 12 C       -3.9690     1.3060     0.2440 C.ar  1 <1>   0.0820 
 13 C       -4.4700     0.1820     2.3030 C.ar  1 <1>  -0.1500 
 14 C        1.5440    -4.6650    -1.1130 C.3   1 <1>  -0.1600 
 15 C       -0.9220    -4.5450    -1.6340 C.3   1 <1>  -0.1600 
 16 C       -0.1510    -4.5670     0.8060 C.3   1 <1>   0.1200 
 17 N        2.7920    -2.7230    -0.2260 N.4   1 <1>  -0.9590 
 18 O       -4.1990     2.2170    -0.7330 O.3   1 <1>  -0.3630 
 19 C       -4.7870     1.1390     1.3560 C.ar  1 <1>  -0.1500 
 20 C        2.6890    -4.2130    -0.2050 C.3   1 <1>   0.3430 
 21 O        0.0530    -5.9320     0.9390 O.3   1 <1>  -0.6800 
 22 C        3.8910    -2.2580     0.6620 C.3   1 <1>   0.5240 
 23 C       -5.2920     3.1070    -0.6650 C.3   1 <1>   0.0400 
 24 C        4.1470    -0.7930     0.3860 C.2   1 <1>  -0.1810 
 25 C        5.0060    -0.2430    -0.5000 C.2   1 <1>  -0.0100 
 26 C        3.5220     0.2910     1.0250 C.2   1 <1>  -0.1500 
 27 O        4.9390     1.0710    -0.4560 O.3   1 <1>  -0.2800 
 28 C        4.0510     1.3970     0.4610 C.2   1 <1>  -0.0100 
 29 H        0.4880    -2.2680    -1.6970 H     1 <1>   0.0800 
 30 H       -3.0550    -1.8650    -1.0510 H     1 <1>   0.0800 
 31 H       -1.8340    -1.9040    -2.2900 H     1 <1>   0.0800 
 32 H       -2.2210     0.6610    -0.7640 H     1 <1>   0.1500 
 33 H       -3.1050    -1.3490     2.8840 H     1 <1>   0.1500 
 34 H        1.3070    -2.2430     1.1890 H     1 <1>   0.0800 
 35 H        1.5770    -0.9860     0.0120 H     1 <1>   0.0800 
 36 H       -2.7200    -4.1660    -0.4910 H     1 <1>   0.0800 
 37 H       -2.9390    -4.0600    -2.2000 H     1 <1>   0.0800 
 38 H       -5.0960     0.0540     3.1690 H     1 <1>   0.1500 
 39 H        1.7530    -4.3600    -2.1230 H     1 <1>   0.0800 
 40 H        1.5150    -5.7410    -1.1160 H     1 <1>   0.0800 
 41 H       -0.6030    -4.3320    -2.6400 H     1 <1>   0.0800 
 42 H       -1.0740    -5.6080    -1.5690 H     1 <1>   0.0800 
 43 H       -1.1670    -4.3460     1.0800 H     1 <1>   0.0800 
 44 H        0.4850    -4.0900     1.5300 H     1 <1>   0.0800 
 45 H        3.0370    -2.4160    -1.1750 H     1 <1>   0.4500 
 46 H       -5.6640     1.7410     1.5030 H     1 <1>   0.1500 
 47 H        3.6120    -4.6540    -0.5470 H     1 <1>   0.0800 
 48 H        2.5010    -4.5610     0.7990 H     1 <1>   0.0800 
 49 H       -0.7170    -6.4310     0.5980 H     1 <1>   0.4000 
 50 H        3.6300    -2.4020     1.6980 H     1 <1>   0.0800 
 51 H        4.7900    -2.8160     0.4540 H     1 <1>   0.0800 
 52 H       -5.2620     3.7400    -1.5330 H     1 <1>   0.0800 
 53 H       -5.2010     3.7040     0.2250 H     1 <1>   0.0800 
 54 H       -6.2050     2.5390    -0.6580 H     1 <1>   0.0800 
 55 H        5.6960    -0.6900    -1.1960 H     1 <1>   0.1500 
 56 H        2.7810     0.2430     1.8060 H     1 <1>   0.1500 
 57 H        3.8600     2.4410     0.6490 H     1 <1>   0.1500 
@<TRIPOS>BOND
  1   1   2  2   
  2   2   3  am  
  3   2   4  1   
  4   3   5  1   
  5   3   6  1   
  6   4   7  ar  
  7   4   8  ar  
  8   5   9  1   
  9   5  10  1   
 10   5  29  1   
 11   6  11  1   
 12   6  30  1   
 13   6  31  1   
 14   7  12  ar  
 15   7  32  1   
 16   8  13  ar  
 17   8  33  1   
 18   9  14  1   
 19   9  15  1   
 20   9  16  1   
 21  10  17  1   
 22  10  34  1   
 23  10  35  1   
 24  11  15  1   
 25  11  36  1   
 26  11  37  1   
 27  12  18  1   
 28  12  19  ar  
 29  13  19  ar  
 30  13  38  1   
 31  14  20  1   
 32  14  39  1   
 33  14  40  1   
 34  15  41  1   
 35  15  42  1   
 36  16  21  1   
 37  16  43  1   
 38  16  44  1   
 39  17  20  1   
 40  17  22  1   
 41  17  45  1   
 42  18  23  1   
 43  19  46  1   
 44  20  47  1   
 45  20  48  1   
 46  21  49  1   
 47  22  24  1   
 48  22  50  1   
 49  22  51  1   
 50  23  52  1   
 51  23  53  1   
 52  23  54  1   
 53  24  25  2   
 54  24  26  1   
 55  25  27  1   
 56  25  55  1   
 57  26  28  2   
 58  26  56  1   
 59  27  28  1   
 60  28  57  1   
@<TRIPOS>SUBSTRUCTURE
  1 ****   3 GROUP 4 **** **** 0

# MOE 2024.06 (io_trps.svl 2023.06)
