@<TRIPOS>MOLECULE
NONAME
39 40 1 0 0 
SMALL
USER_CHARGES


@<TRIPOS>ATOM
  1 S       -0.6910     0.6470     1.3940 S.o2  1 <1>   1.4470 
  2 O       -1.1690     1.9300     1.8710 O.2   1 <1>  -0.6500 
  3 O       -0.6410    -0.4420     2.3460 O.2   1 <1>  -0.6500 
  4 N       -1.7030     0.2040     0.1030 N.am  1 <1>  -0.8490 
  5 C        0.9450     0.8580     0.6120 C.ar  1 <1>  -0.0090 
  6 C       -1.3290    -1.0280    -0.6240 C.3   1 <1>   0.1960 
  7 C       -3.1390     0.2920     0.3850 C.3   1 <1>   0.1960 
  8 C        1.2620     1.9130    -0.2500 C.ar  1 <1>  -0.1440 
  9 C        1.9310    -0.0930     0.8580 C.ar  1 <1>  -0.1500 
 10 C       -1.8360    -2.3100     0.0490 C.3   1 <1>  -0.1860 
 11 C       -3.6630    -0.9450     1.1170 C.3   1 <1>  -0.1600 
 12 C        2.5260     1.9970    -0.8150 C.ar  1 <1>  -0.1500 
 13 C        0.2470     2.9930    -0.6030 C.3   1 <1>  -0.0970 
 14 C        3.1910    -0.0150     0.2930 C.ar  1 <1>  -0.1440 
 15 C       -1.5490    -3.5110    -0.8240 C.2   1 <1>   0.9060 
 16 C       -3.3340    -2.1980     0.3140 C.3   1 <1>   0.2000 
 17 C        3.4860     1.0410    -0.5470 C.ar  1 <1>  -0.1500 
 18 C        4.2210    -1.0890     0.5900 C.3   1 <1>  -0.0970 
 19 O       -0.8990    -3.3700    -1.8640 O.co2 1 <1>  -0.9000 
 20 O       -1.9970    -4.6100    -0.4710 O.co2 1 <1>  -0.9000 
 21 O       -3.7460    -3.3000     1.0280 O.3   1 <1>  -0.6800 
 22 H       -1.7530    -0.9750    -1.6140 H     1 <1>   0.0800 
 23 H       -0.2610    -1.0850    -0.7490 H     1 <1>   0.0800 
 24 H       -3.3500     1.1770     0.9630 H     1 <1>   0.0800 
 25 H       -3.6620     0.3870    -0.5510 H     1 <1>   0.0800 
 26 H        1.7030    -0.9230     1.5070 H     1 <1>   0.1500 
 27 H       -1.3120    -2.4580     0.9720 H     1 <1>   0.0800 
 28 H       -4.7280    -0.8660     1.2320 H     1 <1>   0.0800 
 29 H       -3.2180    -1.0070     2.0940 H     1 <1>   0.0800 
 30 H        2.7730     2.8100    -1.4750 H     1 <1>   0.1500 
 31 H        0.6110     3.6230    -1.3940 H     1 <1>   0.0800 
 32 H        0.0510     3.6100     0.2560 H     1 <1>   0.0800 
 33 H       -0.6750     2.5500    -0.9330 H     1 <1>   0.0800 
 34 H       -3.8700    -2.1990    -0.6220 H     1 <1>   0.0800 
 35 H        4.4590     1.1210    -1.0000 H     1 <1>   0.1500 
 36 H        5.2040    -0.7700     0.2930 H     1 <1>   0.0800 
 37 H        3.9710    -1.9870     0.0530 H     1 <1>   0.0800 
 38 H        4.2350    -1.3070     1.6420 H     1 <1>   0.0800 
 39 H       -3.2540    -4.0760     0.6280 H     1 <1>   0.4000 
@<TRIPOS>BOND
  1   1   2  2   
  2   1   3  2   
  3   1   4  am  
  4   1   5  1   
  5   4   6  1   
  6   4   7  1   
  7   5   8  ar  
  8   5   9  ar  
  9   6  10  1   
 10   6  22  1   
 11   6  23  1   
 12   7  11  1   
 13   7  24  1   
 14   7  25  1   
 15   8  12  ar  
 16   8  13  1   
 17   9  14  ar  
 18   9  26  1   
 19  10  15  1   
 20  10  16  1   
 21  10  27  1   
 22  11  16  1   
 23  11  28  1   
 24  11  29  1   
 25  12  17  ar  
 26  12  30  1   
 27  13  31  1   
 28  13  32  1   
 29  13  33  1   
 30  14  17  ar  
 31  14  18  1   
 32  15  19  ar  
 33  15  20  ar  
 34  16  21  1   
 35  16  34  1   
 36  17  35  1   
 37  18  36  1   
 38  18  37  1   
 39  18  38  1   
 40  21  39  1   
@<TRIPOS>SUBSTRUCTURE
  1 ****   6 GROUP 4 **** **** 0

# MOE 2024.06 (io_trps.svl 2023.06)
