@<TRIPOS>MOLECULE
NONAME
50 51 1 0 0 
SMALL
USER_CHARGES


@<TRIPOS>ATOM
  1 N       -0.4750     0.0780    -0.0820 N.4   1 <1>  -0.9590 
  2 C       -0.3720     1.3620    -0.8280 C.3   1 <1>   0.5660 
  3 C        0.7000    -0.8130    -0.3160 C.3   1 <1>   0.3430 
  4 C       -1.7420    -0.6360    -0.3810 C.3   1 <1>   0.4810 
  5 C       -1.6070     2.2240    -0.5700 C.ar  1 <1>  -0.1440 
  6 C        0.9110     2.1030    -0.4260 C.3   1 <1>  -0.1600 
  7 C        1.9900    -0.1050     0.1010 C.3   1 <1>  -0.1600 
  8 C       -1.8690    -1.7820     0.5950 C.2   1 <1>  -0.2880 
  9 C       -1.9610     2.6430     0.7080 C.ar  1 <1>  -0.1500 
 10 C       -2.4110     2.5930    -1.6390 C.ar  1 <1>  -0.1500 
 11 C        2.1610     1.2360    -0.6210 C.3   1 <1>  -0.1600 
 12 C       -1.8000    -3.0770     0.2740 C.2   1 <1>  -0.2880 
 13 C       -3.0940     3.4110     0.9090 C.ar  1 <1>  -0.1500 
 14 C       -3.5450     3.3610    -1.4380 C.ar  1 <1>  -0.1500 
 15 C       -1.9380    -4.2160     1.2680 C.3   1 <1>  -0.1020 
 16 C       -3.8940     3.7800    -0.1630 C.ar  1 <1>  -0.1430 
 17 C       -5.1370     4.6280     0.0580 C.3   1 <1>   0.4860 
 18 N       -4.8660     6.0250    -0.3880 N.4   1 <1>  -0.9590 
 19 C       -3.8240     6.6880     0.4590 C.3   1 <1>   0.2630 
 20 C       -6.1200     6.8380    -0.4250 C.3   1 <1>   0.2630 
 21 H       -0.4940     0.3120     0.9120 H     1 <1>   0.4500 
 22 H       -0.3180     1.1460    -1.8830 H     1 <1>   0.0800 
 23 H        0.5950    -1.7230     0.2540 H     1 <1>   0.0800 
 24 H        0.7570    -1.0770    -1.3600 H     1 <1>   0.0800 
 25 H       -2.5900     0.0210    -0.2720 H     1 <1>   0.0800 
 26 H       -1.7260    -1.0120    -1.3910 H     1 <1>   0.0800 
 27 H        1.0020     2.9930    -1.0250 H     1 <1>   0.0800 
 28 H        0.8500     2.4140     0.6010 H     1 <1>   0.0800 
 29 H        1.9870     0.0460     1.1670 H     1 <1>   0.0800 
 30 H        2.8280    -0.7410    -0.1280 H     1 <1>   0.0800 
 31 H       -2.0330    -1.4490     1.6060 H     1 <1>   0.1500 
 32 H       -1.3600     2.3800     1.5630 H     1 <1>   0.1500 
 33 H       -2.1640     2.2870    -2.6430 H     1 <1>   0.1500 
 34 H        2.3230     1.0620    -1.6730 H     1 <1>   0.0800 
 35 H        3.0280     1.7500    -0.2390 H     1 <1>   0.0800 
 36 H       -1.6450    -3.4360    -0.7330 H     1 <1>   0.1500 
 37 H       -3.3450     3.7160     1.9120 H     1 <1>   0.1500 
 38 H       -4.1520     3.6230    -2.2900 H     1 <1>   0.1500 
 39 H       -1.0480    -4.8220     1.2660 H     1 <1>   0.0800 
 40 H       -2.7760    -4.8370     1.0030 H     1 <1>   0.0800 
 41 H       -2.0940    -3.8420     2.2650 H     1 <1>   0.0800 
 42 H       -5.4110     4.6160     1.1010 H     1 <1>   0.0800 
 43 H       -5.9520     4.2110    -0.5110 H     1 <1>   0.0800 
 44 H       -4.4870     5.9550    -1.3450 H     1 <1>   0.4500 
 45 H       -4.1590     6.7610     1.4800 H     1 <1>   0.0800 
 46 H       -3.6200     7.6810     0.0920 H     1 <1>   0.0800 
 47 H       -2.9060     6.1220     0.4350 H     1 <1>   0.0800 
 48 H       -6.5430     6.9240     0.5630 H     1 <1>   0.0800 
 49 H       -6.8490     6.3780    -1.0740 H     1 <1>   0.0800 
 50 H       -5.9120     7.8290    -0.7960 H     1 <1>   0.0800 
@<TRIPOS>BOND
  1   1   2  1   
  2   1   3  1   
  3   1   4  1   
  4   1  21  1   
  5   2   5  1   
  6   2   6  1   
  7   2  22  1   
  8   3   7  1   
  9   3  23  1   
 10   3  24  1   
 11   4   8  1   
 12   4  25  1   
 13   4  26  1   
 14   5   9  ar  
 15   5  10  ar  
 16   6  11  1   
 17   6  27  1   
 18   6  28  1   
 19   7  11  1   
 20   7  29  1   
 21   7  30  1   
 22   8  12  2   
 23   8  31  1   
 24   9  13  ar  
 25   9  32  1   
 26  10  14  ar  
 27  10  33  1   
 28  11  34  1   
 29  11  35  1   
 30  12  15  1   
 31  12  36  1   
 32  13  16  ar  
 33  13  37  1   
 34  14  16  ar  
 35  14  38  1   
 36  15  39  1   
 37  15  40  1   
 38  15  41  1   
 39  16  17  1   
 40  17  18  1   
 41  17  42  1   
 42  17  43  1   
 43  18  19  1   
 44  18  20  1   
 45  18  44  1   
 46  19  45  1   
 47  19  46  1   
 48  19  47  1   
 49  20  48  1   
 50  20  49  1   
 51  20  50  1   
@<TRIPOS>SUBSTRUCTURE
  1 ****   5 GROUP 4 **** **** 0

# MOE 2024.06 (io_trps.svl 2023.06)
