@<TRIPOS>MOLECULE
NONAME
50 53 1 0 0 
SMALL
USER_CHARGES


@<TRIPOS>ATOM
  1 O       -0.9650     1.4350     3.0260 O.2   1 <1>  -0.5700 
  2 C       -1.8430     1.8810     2.3240 C.2   1 <1>   0.5690 
  3 N       -3.0940     1.3210     2.3070 N.am  1 <1>  -0.6600 
  4 C       -1.4890     3.0600     1.4370 C.3   1 <1>   0.1570 
  5 C       -4.3000     1.8240     1.5990 C.3   1 <1>   0.1400 
  6 C       -3.2960    -0.0950     2.6680 C.3   1 <1>   0.1400 
  7 N       -1.4400     2.6440     0.0170 N.pl3 1 <1>   0.0480 
  8 C       -5.0730     0.5690     1.1580 C.3   1 <1>  -0.0800 
  9 C       -4.1970    -0.6360     1.5600 C.3   1 <1>  -0.0800 
 10 C       -0.7510     1.6290    -0.5690 C.2   1 <1>   0.0060 
 11 C       -2.1420     3.1990    -0.9890 C.2   1 <1>  -0.3020 
 12 C       -5.5730     0.5670    -0.3150 C.3   1 <1>   0.4240 
 13 C       -3.3910    -1.1780     0.3660 C.3   1 <1>  -0.1600 
 14 N       -0.9900     1.5020    -1.8330 N.2   1 <1>  -0.5650 
 15 C        0.2150     0.7160     0.1620 C.3   1 <1>  -0.0600 
 16 C       -1.8600     2.4910    -2.1020 C.2   1 <1>   0.0770 
 17 O       -4.6480     1.1990    -1.1270 O.3   1 <1>  -0.6800 
 18 C       -6.9250     1.3050    -0.4240 C.ar  1 <1>  -0.1440 
 19 C       -5.6510    -0.8750    -0.8450 C.3   1 <1>  -0.1600 
 20 C       -4.3010    -1.6260    -0.7940 C.3   1 <1>  -0.1600 
 21 C       -7.0500     2.5410    -1.0560 C.ar  1 <1>  -0.1500 
 22 C       -8.0710     0.7440     0.1340 C.ar  1 <1>  -0.1500 
 23 C       -8.2720     3.1870    -1.1310 C.ar  1 <1>  -0.1500 
 24 C       -9.2950     1.3870     0.0610 C.ar  1 <1>  -0.1500 
 25 C       -9.3970     2.6110    -0.5720 C.ar  1 <1>  -0.1500 
 26 H       -0.5250     3.4410     1.7170 H     1 <1>   0.0800 
 27 H       -2.2180     3.8360     1.5600 H     1 <1>   0.0800 
 28 H       -4.9020     2.4000     2.2820 H     1 <1>   0.0800 
 29 H       -4.0300     2.4570     0.7760 H     1 <1>   0.0800 
 30 H       -2.3630    -0.6310     2.7260 H     1 <1>   0.0800 
 31 H       -3.7950    -0.1450     3.6210 H     1 <1>   0.0800 
 32 H       -5.9420     0.5180     1.7890 H     1 <1>   0.0800 
 33 H       -4.8060    -1.4350     1.9490 H     1 <1>   0.0800 
 34 H       -2.7980     4.0420    -0.8710 H     1 <1>   0.1500 
 35 H       -2.7250    -0.4090     0.0140 H     1 <1>   0.0800 
 36 H       -2.7770    -2.0060     0.6790 H     1 <1>   0.0800 
 37 H        0.8040     0.1670    -0.5500 H     1 <1>   0.0800 
 38 H       -0.3240     0.0140     0.7710 H     1 <1>   0.0800 
 39 H        0.8770     1.2900     0.7830 H     1 <1>   0.0800 
 40 H       -2.2460     2.6410    -3.0960 H     1 <1>   0.1500 
 41 H       -3.8050     0.7040    -1.1010 H     1 <1>   0.4000 
 42 H       -6.3550    -1.4230    -0.2470 H     1 <1>   0.0800 
 43 H       -6.0340    -0.8680    -1.8510 H     1 <1>   0.0800 
 44 H       -4.5000    -2.6810    -0.7070 H     1 <1>   0.0800 
 45 H       -3.7720    -1.4790    -1.7210 H     1 <1>   0.0800 
 46 H       -6.1950     3.0170    -1.5020 H     1 <1>   0.1500 
 47 H       -8.0270    -0.2040     0.6370 H     1 <1>   0.1500 
 48 H       -8.3450     4.1390    -1.6260 H     1 <1>   0.1500 
 49 H      -10.1690     0.9350     0.4960 H     1 <1>   0.1500 
 50 H      -10.3470     3.1130    -0.6310 H     1 <1>   0.1500 
@<TRIPOS>BOND
  1   1   2  2   
  2   2   3  am  
  3   2   4  1   
  4   3   5  1   
  5   3   6  1   
  6   4   7  1   
  7   4  26  1   
  8   4  27  1   
  9   5   8  1   
 10   5  28  1   
 11   5  29  1   
 12   6   9  1   
 13   6  30  1   
 14   6  31  1   
 15   7  10  1   
 16   7  11  1   
 17   8   9  1   
 18   8  12  1   
 19   8  32  1   
 20   9  13  1   
 21   9  33  1   
 22  10  14  2   
 23  10  15  1   
 24  11  16  2   
 25  11  34  1   
 26  12  17  1   
 27  12  18  1   
 28  12  19  1   
 29  13  20  1   
 30  13  35  1   
 31  13  36  1   
 32  14  16  1   
 33  15  37  1   
 34  15  38  1   
 35  15  39  1   
 36  16  40  1   
 37  17  41  1   
 38  18  21  ar  
 39  18  22  ar  
 40  19  20  1   
 41  19  42  1   
 42  19  43  1   
 43  20  44  1   
 44  20  45  1   
 45  21  23  ar  
 46  21  46  1   
 47  22  24  ar  
 48  22  47  1   
 49  23  25  ar  
 50  23  48  1   
 51  24  25  ar  
 52  24  49  1   
 53  25  50  1   
@<TRIPOS>SUBSTRUCTURE
  1 ****  17 GROUP 4 **** **** 0

# MOE 2024.06 (io_trps.svl 2023.06)
