@<TRIPOS>MOLECULE
NONAME
40 42 1 0 0 
SMALL
USER_CHARGES


@<TRIPOS>ATOM
  1 CL      -0.9740    -1.1420    -1.1550 Cl    1 <1>  -0.1770 
  2 C       -1.9490     0.2470    -0.7210 C.ar  1 <1>   0.1770 
  3 C       -1.7470     1.4630    -1.3540 C.ar  1 <1>   0.1770 
  4 C       -2.9280     0.1090     0.2520 C.ar  1 <1>  -0.1440 
  5 CL      -0.5190     1.6340    -2.5850 Cl    1 <1>  -0.1770 
  6 C       -2.5200     2.5610    -1.0230 C.ar  1 <1>  -0.1500 
  7 C       -3.7020     1.2150     0.5830 C.ar  1 <1>  -0.1500 
  8 C       -3.1470    -1.2200     0.9500 C.3   1 <1>   0.4870 
  9 C       -3.4990     2.4320    -0.0520 C.ar  1 <1>  -0.1500 
 10 N       -3.7250    -2.2080    -0.0030 N.4   1 <1>  -0.9590 
 11 C       -5.0770    -1.7790    -0.4840 C.3   1 <1>   0.3430 
 12 C       -3.9040    -3.5340     0.6690 C.3   1 <1>   0.3430 
 13 C       -6.0810    -2.5630     0.3650 C.3   1 <1>   0.2000 
 14 C       -5.3910    -3.9120     0.5540 C.3   1 <1>  -0.0800 
 15 O       -6.1790    -1.9470     1.6090 O.3   1 <1>  -0.6800 
 16 C       -5.6750    -4.8610    -0.6320 C.3   1 <1>  -0.0160 
 17 C       -5.0420    -6.2320    -0.4400 C.ar  1 <1>   0.1670 
 18 N       -3.7350    -6.3030    -0.6380 N.ar  1 <1>  -0.6200 
 19 C       -5.8270    -7.3270    -0.0840 C.ar  1 <1>   0.1600 
 20 C       -3.2730    -7.5330    -0.4680 C.ar  1 <1>   0.1600 
 21 N       -5.3640    -8.5510     0.0990 N.ar  1 <1>  -0.6200 
 22 C       -4.0610    -8.6200    -0.1100 C.ar  1 <1>   0.1600 
 23 H       -2.3550     3.5020    -1.5200 H     1 <1>   0.1500 
 24 H       -4.4680     1.1450     1.3390 H     1 <1>   0.1500 
 25 H       -3.8160    -1.0850     1.7860 H     1 <1>   0.0800 
 26 H       -2.2040    -1.5830     1.3260 H     1 <1>   0.0800 
 27 H       -4.1030     3.2860     0.2130 H     1 <1>   0.1500 
 28 H       -3.0720    -2.2980    -0.7960 H     1 <1>   0.4500 
 29 H       -5.2340    -0.7170    -0.3900 H     1 <1>   0.0800 
 30 H       -5.1940    -2.0610    -1.5170 H     1 <1>   0.0800 
 31 H       -3.2620    -4.2750     0.2250 H     1 <1>   0.0800 
 32 H       -3.6500    -3.4500     1.7130 H     1 <1>   0.0800 
 33 H       -7.0600    -2.6140    -0.0800 H     1 <1>   0.0800 
 34 H       -5.7240    -4.3950     1.4570 H     1 <1>   0.0800 
 35 H       -6.9330    -2.3050     2.1260 H     1 <1>   0.4000 
 36 H       -5.3050    -4.4450    -1.5530 H     1 <1>   0.0800 
 37 H       -6.7390    -4.9840    -0.7420 H     1 <1>   0.0800 
 38 H       -6.8850    -7.1920     0.0570 H     1 <1>   0.1500 
 39 H       -2.2190    -7.6920    -0.6180 H     1 <1>   0.1500 
 40 H       -3.5940    -9.5830     0.0080 H     1 <1>   0.1500 
@<TRIPOS>BOND
  1   1   2  1   
  2   2   3  ar  
  3   2   4  ar  
  4   3   5  1   
  5   3   6  ar  
  6   4   7  ar  
  7   4   8  1   
  8   6   9  ar  
  9   6  23  1   
 10   7   9  ar  
 11   7  24  1   
 12   8  10  1   
 13   8  25  1   
 14   8  26  1   
 15   9  27  1   
 16  10  11  1   
 17  10  12  1   
 18  10  28  1   
 19  11  13  1   
 20  11  29  1   
 21  11  30  1   
 22  12  14  1   
 23  12  31  1   
 24  12  32  1   
 25  13  14  1   
 26  13  15  1   
 27  13  33  1   
 28  14  16  1   
 29  14  34  1   
 30  15  35  1   
 31  16  17  1   
 32  16  36  1   
 33  16  37  1   
 34  17  18  ar  
 35  17  19  ar  
 36  18  20  ar  
 37  19  21  ar  
 38  19  38  1   
 39  20  22  ar  
 40  20  39  1   
 41  21  22  ar  
 42  22  40  1   
@<TRIPOS>SUBSTRUCTURE
  1 ****  10 GROUP 4 **** **** 0

# MOE 2024.06 (io_trps.svl 2023.06)
