@<TRIPOS>MOLECULE
NONAME
50 54 1 0 0 
SMALL
USER_CHARGES


@<TRIPOS>ATOM
  1 S       -0.9000     2.0260     2.3010 S.3   1 <1>  -0.0800 
  2 C       -0.3410     2.7810     0.8230 C.2   1 <1>  -0.1400 
  3 C        0.5830     2.4920     3.1210 C.2   1 <1>  -0.1100 
  4 C        0.8760     3.3210     0.9650 C.2   1 <1>  -0.1810 
  5 C       -1.1620     2.8030    -0.4380 C.3   1 <1>   0.0200 
  6 C        1.4060     3.1610     2.2900 C.2   1 <1>  -0.1500 
  7 C        1.5720     4.0200    -0.2060 C.3   1 <1>   0.4610 
  8 C       -0.5730     3.8960    -1.3440 C.3   1 <1>   0.1200 
  9 O        0.8320     3.8100    -1.3970 O.3   1 <1>  -0.5600 
 10 C        1.6970     5.5290     0.0520 C.3   1 <1>  -0.1600 
 11 C        2.9500     3.3970    -0.4520 C.3   1 <1>  -0.1600 
 12 C        2.4630     6.2210    -1.0720 C.3   1 <1>   0.2090 
 13 C        3.7100     4.1240    -1.5610 C.3   1 <1>   0.2090 
 14 N        3.7910     5.5680    -1.2090 N.pl3 1 <1>  -0.8380 
 15 C        4.9750     6.1850    -0.8530 C.ar  1 <1>   0.7200 
 16 N        4.8780     7.2610    -0.0750 N.ar  1 <1>  -0.6200 
 17 N        6.0980     5.6400    -1.3220 N.ar  1 <1>  -0.6200 
 18 C        6.0020     7.8600     0.2680 C.ar  1 <1>   0.4100 
 19 C        7.2180     6.2410    -0.9770 C.ar  1 <1>   0.1600 
 20 N        5.8980     8.9920     1.0690 N.pl3 1 <1>  -0.8380 
 21 C        7.2150     7.3530    -0.1860 C.ar  1 <1>   0.1900 
 22 C        6.3840    10.2990     0.5360 C.3   1 <1>   0.2090 
 23 C        4.7360     9.1570     1.9970 C.3   1 <1>   0.2090 
 24 F        8.3620     7.9200     0.1330 F     1 <1>  -0.1900 
 25 C        5.2140    11.1420    -0.0040 C.3   1 <1>   0.1200 
 26 C        3.6570    10.0590     1.3700 C.3   1 <1>   0.1200 
 27 O        4.2040    11.2830     0.9580 O.3   1 <1>  -0.5600 
 28 H        0.6820     2.2110     4.1540 H     1 <1>   0.1500 
 29 H       -2.1890     3.0290    -0.2150 H     1 <1>   0.0800 
 30 H       -1.1120     1.8470    -0.9250 H     1 <1>   0.0800 
 31 H        2.3720     3.5530     2.5560 H     1 <1>   0.1500 
 32 H       -0.8420     4.8710    -0.9800 H     1 <1>   0.0800 
 33 H       -0.9470     3.7880    -2.3470 H     1 <1>   0.0800 
 34 H        2.2320     5.6880     0.9700 H     1 <1>   0.0800 
 35 H        0.7270     5.9700     0.1680 H     1 <1>   0.0800 
 36 H        2.8310     2.3610    -0.7080 H     1 <1>   0.0800 
 37 H        3.5390     3.4470     0.4440 H     1 <1>   0.0800 
 38 H        2.5620     7.2720    -0.8630 H     1 <1>   0.0800 
 39 H        1.9260     6.1210    -2.0000 H     1 <1>   0.0800 
 40 H        3.1910     4.0170    -2.4980 H     1 <1>   0.0800 
 41 H        4.6870     3.6870    -1.6710 H     1 <1>   0.0800 
 42 H        8.1490     5.8360    -1.3330 H     1 <1>   0.1500 
 43 H        7.0960    10.1380    -0.2540 H     1 <1>   0.0800 
 44 H        6.8800    10.8400     1.3230 H     1 <1>   0.0800 
 45 H        5.0780     9.6010     2.9150 H     1 <1>   0.0800 
 46 H        4.3120     8.1980     2.2360 H     1 <1>   0.0800 
 47 H        4.7920    10.6760    -0.8780 H     1 <1>   0.0800 
 48 H        5.5560    12.1270    -0.2670 H     1 <1>   0.0800 
 49 H        2.8860    10.2680     2.0890 H     1 <1>   0.0800 
 50 H        3.2170     9.5720     0.5180 H     1 <1>   0.0800 
@<TRIPOS>BOND
  1   1   2  1   
  2   1   3  1   
  3   2   4  2   
  4   2   5  1   
  5   3   6  2   
  6   3  28  1   
  7   4   6  1   
  8   4   7  1   
  9   5   8  1   
 10   5  29  1   
 11   5  30  1   
 12   6  31  1   
 13   7   9  1   
 14   7  10  1   
 15   7  11  1   
 16   8   9  1   
 17   8  32  1   
 18   8  33  1   
 19  10  12  1   
 20  10  34  1   
 21  10  35  1   
 22  11  13  1   
 23  11  36  1   
 24  11  37  1   
 25  12  14  1   
 26  12  38  1   
 27  12  39  1   
 28  13  14  1   
 29  13  40  1   
 30  13  41  1   
 31  14  15  1   
 32  15  16  ar  
 33  15  17  ar  
 34  16  18  ar  
 35  17  19  ar  
 36  18  20  1   
 37  18  21  ar  
 38  19  21  ar  
 39  19  42  1   
 40  20  22  1   
 41  20  23  1   
 42  21  24  1   
 43  22  25  1   
 44  22  43  1   
 45  22  44  1   
 46  23  26  1   
 47  23  45  1   
 48  23  46  1   
 49  25  27  1   
 50  25  47  1   
 51  25  48  1   
 52  26  27  1   
 53  26  49  1   
 54  26  50  1   
@<TRIPOS>SUBSTRUCTURE
  1 ****  14 GROUP 4 **** **** 0

# MOE 2024.06 (io_trps.svl 2023.06)
