@<TRIPOS>MOLECULE
Untitled Document
59 61 1 0 0 
SMALL
USER_CHARGES


@<TRIPOS>ATOM
  1 O        1.2360    -0.3550     0.6130 O.3   1 <1>  -0.6800 
  2 C        1.9910    -1.2040     1.3960 C.3   1 <1>   0.2000 
  3 C        3.4070    -0.6220     1.5220 C.3   1 <1>  -0.1600 
  4 C        1.9850    -2.5900     0.7410 C.3   1 <1>  -0.1600 
  5 C        4.3130    -0.9590     0.3120 C.3   1 <1>  -0.0800 
  6 C        3.3610    -3.2670     0.8740 C.3   1 <1>  -0.1600 
  7 C        4.5200    -2.5240     0.1270 C.3   1 <1>   0.0000 
  8 C        3.8070    -0.1470    -0.9050 C.3   1 <1>   0.1200 
  9 C        5.9410    -2.9710     0.6970 C.3   1 <1>  -0.0800 
 10 C        4.3980    -2.9820    -1.3510 C.3   1 <1>  -0.2400 
 11 O        4.8720     0.2170    -1.7220 O.3   1 <1>  -0.6800 
 12 C        7.1690    -2.8010    -0.2810 C.3   1 <1>  -0.0800 
 13 C        5.9550    -4.4320     1.2600 C.3   1 <1>  -0.1600 
 14 C        8.4700    -3.2530     0.4150 C.3   1 <1>  -0.0800 
 15 C        7.3660    -1.4240    -0.9280 C.3   1 <1>   0.3430 
 16 C        7.3110    -4.9090     1.8250 C.3   1 <1>  -0.1600 
 17 C        8.4450    -4.7290     0.8120 C.3   1 <1>   0.1380 
 18 C        9.8260    -3.0750    -0.2830 C.3   1 <1>  -0.1600 
 19 N        7.7190    -0.3770     0.0600 N.4   1 <1>  -0.8530 
 20 C        9.8530    -4.8810     1.3510 C.2   1 <1>  -0.2760 
 21 C        8.2920    -5.7330    -0.3540 C.3   1 <1>  -0.2400 
 22 C       10.7650    -4.0180     0.4900 C.3   1 <1>  -0.0220 
 23 C       10.2490    -5.5990     2.4070 C.2   1 <1>  -0.3000 
 24 H        0.3100    -0.6640     0.5800 H     1 <1>   0.4000 
 25 H        1.5330    -1.2420     2.3710 H     1 <1>   0.0800 
 26 H        3.3440     0.4410     1.6790 H     1 <1>   0.0800 
 27 H        3.8570    -1.0310     2.4090 H     1 <1>   0.0800 
 28 H        1.2460    -3.2010     1.2290 H     1 <1>   0.0800 
 29 H        1.7180    -2.5190    -0.2980 H     1 <1>   0.0800 
 30 H        5.2410    -0.5120     0.5790 H     1 <1>   0.0800 
 31 H        3.2800    -4.2840     0.5300 H     1 <1>   0.0800 
 32 H        3.5640    -3.3070     1.9290 H     1 <1>   0.0800 
 33 H        3.3440     0.7690    -0.5760 H     1 <1>   0.0800 
 34 H        3.0790    -0.6900    -1.4820 H     1 <1>   0.0800 
 35 H        6.1300    -2.3560     1.5600 H     1 <1>   0.0800 
 36 H        4.6340    -4.0270    -1.4410 H     1 <1>   0.0800 
 37 H        5.0440    -2.4390    -2.0120 H     1 <1>   0.0800 
 38 H        3.3970    -2.8570    -1.7210 H     1 <1>   0.0800 
 39 H        4.5220     0.7210    -2.4880 H     1 <1>   0.4000 
 40 H        7.0120    -3.4660    -1.1100 H     1 <1>   0.0800 
 41 H        5.2660    -4.5350     2.0760 H     1 <1>   0.0800 
 42 H        5.6330    -5.1140     0.4940 H     1 <1>   0.0800 
 43 H        8.5460    -2.6970     1.3360 H     1 <1>   0.0800 
 44 H        6.4680    -1.1580    -1.4470 H     1 <1>   0.0800 
 45 H        8.1480    -1.4950    -1.6660 H     1 <1>   0.0800 
 46 H        7.2400    -5.9450     2.1070 H     1 <1>   0.0800 
 47 H        7.5400    -4.3510     2.7160 H     1 <1>   0.0800 
 48 H        9.7670    -3.3910    -1.3100 H     1 <1>   0.0800 
 49 H       10.1870    -2.0630    -0.2440 H     1 <1>   0.0800 
 50 H        7.0110    -0.3550     0.7990 H     1 <1>   0.4500 
 51 H        7.7200     0.5430    -0.3940 H     1 <1>   0.4500 
 52 H        8.6330    -0.5600     0.4830 H     1 <1>   0.4500 
 53 H        7.3470    -5.6500    -0.8520 H     1 <1>   0.0800 
 54 H        8.3710    -6.7340     0.0320 H     1 <1>   0.0800 
 55 H        9.0680    -5.6130    -1.0870 H     1 <1>   0.0800 
 56 H       11.4490    -3.4690     1.1140 H     1 <1>   0.0800 
 57 H       11.3280    -4.6320    -0.1930 H     1 <1>   0.0800 
 58 H        9.5930    -6.1960     3.0160 H     1 <1>   0.1500 
 59 H       11.2680    -5.6540     2.7490 H     1 <1>   0.1500 
@<TRIPOS>BOND
  1   1   2  1   
  2   1  24  1   
  3   2   3  1   
  4   2   4  1   
  5   2  25  1   
  6   3   5  1   
  7   3  26  1   
  8   3  27  1   
  9   4   6  1   
 10   4  28  1   
 11   4  29  1   
 12   5   7  1   
 13   5   8  1   
 14   5  30  1   
 15   6   7  1   
 16   6  31  1   
 17   6  32  1   
 18   7   9  1   
 19   7  10  1   
 20   8  11  1   
 21   8  33  1   
 22   8  34  1   
 23   9  12  1   
 24   9  13  1   
 25   9  35  1   
 26  10  36  1   
 27  10  37  1   
 28  10  38  1   
 29  11  39  1   
 30  12  14  1   
 31  12  15  1   
 32  12  40  1   
 33  13  16  1   
 34  13  41  1   
 35  13  42  1   
 36  14  17  1   
 37  14  18  1   
 38  14  43  1   
 39  15  19  1   
 40  15  44  1   
 41  15  45  1   
 42  16  17  1   
 43  16  46  1   
 44  16  47  1   
 45  17  20  1   
 46  17  21  1   
 47  18  22  1   
 48  18  48  1   
 49  18  49  1   
 50  19  50  1   
 51  19  51  1   
 52  19  52  1   
 53  20  22  1   
 54  20  23  2   
 55  21  53  1   
 56  21  54  1   
 57  21  55  1   
 58  22  56  1   
 59  22  57  1   
 60  23  58  1   
 61  23  59  1   
@<TRIPOS>SUBSTRUCTURE
  1 ****   9 GROUP 4 **** **** 0

# MOE 2024.06 (io_trps.svl 2023.06)
