@<TRIPOS>MOLECULE
NONAME
40 41 1 0 0 
SMALL
USER_CHARGES


@<TRIPOS>ATOM
  1 O       -0.0920     1.1210     0.4160 O.2   1 <1>  -0.5700 
  2 C       -0.2040     2.3070     0.2400 C.2   1 <1>   0.5690 
  3 N       -1.2910     2.9730     0.6860 N.am  1 <1>  -0.7300 
  4 C        0.8700     3.0810    -0.5220 C.3   1 <1>   0.1810 
  5 C       -1.5280     4.4220     0.4620 C.3   1 <1>   0.3640 
  6 O        0.8630     4.4520    -0.1960 O.3   1 <1>  -0.5600 
  7 C       -2.8840     4.5750    -0.2200 C.ar  1 <1>  -0.1440 
  8 C       -0.3950     5.1040    -0.3600 C.3   1 <1>   0.2610 
  9 C       -3.2470     3.7650    -1.2910 C.ar  1 <1>   0.1600 
 10 C       -3.7820     5.5330     0.2100 C.ar  1 <1>  -0.1500 
 11 C       -0.2770     6.5810     0.0430 C.2   1 <1>   0.5690 
 12 N       -4.3940     3.8360    -1.9450 N.ar  1 <1>  -0.6200 
 13 C       -4.9830     5.6200    -0.4590 C.ar  1 <1>  -0.1500 
 14 O       -1.2570     7.2870     0.0280 O.2   1 <1>  -0.5700 
 15 N        0.9360     7.0650     0.4210 N.am  1 <1>  -0.7300 
 16 C       -5.2350     4.7610    -1.5140 C.ar  1 <1>   0.1600 
 17 C        1.2460     8.4600     0.7860 C.3   1 <1>   0.1400 
 18 C        2.4370     8.9350    -0.0400 C.3   1 <1>  -0.1600 
 19 C        2.7650    10.3930     0.2710 C.3   1 <1>   0.1200 
 20 O        3.8770    10.7410    -0.4800 O.3   1 <1>  -0.5600 
 21 C        4.2820    12.0610    -0.3150 C.3   1 <1>   0.0400 
 22 H       -2.0140     2.4470     1.1800 H     1 <1>   0.3700 
 23 H        0.7140     2.9780    -1.5800 H     1 <1>   0.0800 
 24 H        1.8390     2.6880    -0.2710 H     1 <1>   0.0800 
 25 H       -1.5730     4.8960     1.4290 H     1 <1>   0.0800 
 26 H       -0.6410     5.0700    -1.4050 H     1 <1>   0.0800 
 27 H       -2.5580     3.0120    -1.6330 H     1 <1>   0.1500 
 28 H       -3.5580     6.1990     1.0270 H     1 <1>   0.1500 
 29 H       -5.7170     6.3500    -0.1690 H     1 <1>   0.1500 
 30 H        1.7220     6.4050     0.4120 H     1 <1>   0.3700 
 31 H       -6.1770     4.8400    -2.0300 H     1 <1>   0.1500 
 32 H        0.3900     9.0860     0.5940 H     1 <1>   0.0800 
 33 H        1.4770     8.5080     1.8370 H     1 <1>   0.0800 
 34 H        2.2020     8.8500    -1.0860 H     1 <1>   0.0800 
 35 H        3.2970     8.3290     0.1850 H     1 <1>   0.0800 
 36 H        3.0000    10.5190     1.3140 H     1 <1>   0.0800 
 37 H        1.9440    11.0350    -0.0040 H     1 <1>   0.0800 
 38 H        5.1460    12.2250    -0.9350 H     1 <1>   0.0800 
 39 H        4.5390    12.2270     0.7170 H     1 <1>   0.0800 
 40 H        3.4860    12.7180    -0.6200 H     1 <1>   0.0800 
@<TRIPOS>BOND
  1   1   2  2   
  2   2   3  am  
  3   2   4  1   
  4   3   5  1   
  5   3  22  1   
  6   4   6  1   
  7   4  23  1   
  8   4  24  1   
  9   5   7  1   
 10   5   8  1   
 11   5  25  1   
 12   6   8  1   
 13   7   9  ar  
 14   7  10  ar  
 15   8  11  1   
 16   8  26  1   
 17   9  12  ar  
 18   9  27  1   
 19  10  13  ar  
 20  10  28  1   
 21  11  14  2   
 22  11  15  am  
 23  12  16  ar  
 24  13  16  ar  
 25  13  29  1   
 26  15  17  1   
 27  15  30  1   
 28  16  31  1   
 29  17  18  1   
 30  17  32  1   
 31  17  33  1   
 32  18  19  1   
 33  18  34  1   
 34  18  35  1   
 35  19  20  1   
 36  19  36  1   
 37  19  37  1   
 38  20  21  1   
 39  21  38  1   
 40  21  39  1   
 41  21  40  1   
@<TRIPOS>SUBSTRUCTURE
  1 ****   8 GROUP 4 **** **** 0

# MOE 2024.06 (io_trps.svl 2023.06)
