@<TRIPOS>MOLECULE
NONAME
43 44 1 0 0 
SMALL
USER_CHARGES


@<TRIPOS>ATOM
  1 S        0.7650     0.5920    -0.5370 S.o2  1 <1>   1.3330 
  2 O       -0.2830     1.5020    -0.9380 O.2   1 <1>  -0.6500 
  3 O        0.6930    -0.7930    -0.9510 O.2   1 <1>  -0.6500 
  4 N        0.8280     0.6130     1.1600 N.am  1 <1>  -0.8490 
  5 C        2.3610     1.2360    -1.0480 C.3   1 <1>  -0.0550 
  6 C        0.6870     1.9610     1.7280 C.3   1 <1>   0.1160 
  7 C       -0.1740    -0.2760     1.7520 C.3   1 <1>   0.1160 
  8 C        3.5430     0.2750    -0.7890 C.3   1 <1>  -0.0800 
  9 C        4.8940     0.7610    -1.2920 C.3   1 <1>   0.2200 
 10 C        3.8320    -0.0300     0.6870 C.3   1 <1>   0.1200 
 11 N        5.1070     2.1720    -0.9060 N.am  1 <1>  -0.7300 
 12 C        5.8210    -0.1070    -0.4550 C.3   1 <1>   0.1200 
 13 O        5.2220    -0.1620     0.8050 O.3   1 <1>  -0.5600 
 14 C        5.0180     3.2570    -1.7190 C.2   1 <1>   0.5690 
 15 O        4.8270     3.1370    -2.9040 O.2   1 <1>  -0.5700 
 16 C        5.1630     4.6620    -1.1310 C.3   1 <1>   0.2010 
 17 N        5.1950     4.6790     0.3700 N.am  1 <1>  -0.4690 
 18 C        4.0090     4.5100     1.0680 C.2   1 <1>   0.8410 
 19 C        6.3850     4.8000     1.0430 C.2   1 <1>  -0.0410 
 20 O        2.9550     4.3980     0.4700 O.2   1 <1>  -0.5700 
 21 N        4.0010     4.4280     2.4350 N.2   1 <1>  -0.6610 
 22 C        6.3610     4.7350     2.3940 C.2   1 <1>  -0.1360 
 23 C        5.1240     4.5420     3.0470 C.2   1 <1>   0.3760 
 24 H        2.3230     1.4350    -2.1010 H     1 <1>   0.0800 
 25 H        2.5330     2.1710    -0.5590 H     1 <1>   0.0800 
 26 H        0.7910     1.9260     2.7980 H     1 <1>   0.0800 
 27 H       -0.2770     2.3770     1.4820 H     1 <1>   0.0800 
 28 H        1.4490     2.6130     1.3420 H     1 <1>   0.0800 
 29 H       -0.0990    -0.2590     2.8260 H     1 <1>   0.0800 
 30 H       -0.0110    -1.2880     1.4190 H     1 <1>   0.0800 
 31 H       -1.1640     0.0300     1.4590 H     1 <1>   0.0800 
 32 H        3.3270    -0.6610    -1.2750 H     1 <1>   0.0800 
 33 H        5.0300     0.6230    -2.3520 H     1 <1>   0.0800 
 34 H        3.3600    -0.9420     1.0090 H     1 <1>   0.0800 
 35 H        3.5290     0.7810     1.3270 H     1 <1>   0.0800 
 36 H        5.2410     2.3040     0.1010 H     1 <1>   0.3700 
 37 H        6.8130     0.3000    -0.3700 H     1 <1>   0.0800 
 38 H        5.8660    -1.1090    -0.8450 H     1 <1>   0.0800 
 39 H        4.3380     5.2590    -1.4760 H     1 <1>   0.0800 
 40 H        6.0650     5.0990    -1.5170 H     1 <1>   0.0800 
 41 H        7.2940     4.9390     0.4780 H     1 <1>   0.1500 
 42 H        7.2500     4.8210     2.9930 H     1 <1>   0.1500 
 43 H        5.1370     4.4860     4.1220 H     1 <1>   0.0600 
@<TRIPOS>BOND
  1   1   2  2   
  2   1   3  2   
  3   1   4  am  
  4   1   5  1   
  5   4   6  1   
  6   4   7  1   
  7   5   8  1   
  8   5  24  1   
  9   5  25  1   
 10   6  26  1   
 11   6  27  1   
 12   6  28  1   
 13   7  29  1   
 14   7  30  1   
 15   7  31  1   
 16   8   9  1   
 17   8  10  1   
 18   8  32  1   
 19   9  11  1   
 20   9  12  1   
 21   9  33  1   
 22  10  13  1   
 23  10  34  1   
 24  10  35  1   
 25  11  14  am  
 26  11  36  1   
 27  12  13  1   
 28  12  37  1   
 29  12  38  1   
 30  14  15  2   
 31  14  16  1   
 32  16  17  1   
 33  16  39  1   
 34  16  40  1   
 35  17  18  am  
 36  17  19  1   
 37  18  20  2   
 38  18  21  1   
 39  19  22  2   
 40  19  41  1   
 41  21  23  2   
 42  22  23  1   
 43  22  42  1   
 44  23  43  1   
@<TRIPOS>SUBSTRUCTURE
  1 ****  11 GROUP 4 **** **** 0

# MOE 2024.06 (io_trps.svl 2023.06)
