@<TRIPOS>MOLECULE
NONAME
36 37 1 0 0 
SMALL
USER_CHARGES


@<TRIPOS>ATOM
  1 F        0.0390     0.6240    -0.4900 F     1 <1>  -0.3400 
  2 C        1.0510    -0.2380    -0.4810 C.3   1 <1>   1.0200 
  3 F        1.9020     0.1880    -1.4080 F     1 <1>  -0.3400 
  4 F        1.6660    -0.0810     0.6860 F     1 <1>  -0.3400 
  5 C        0.6070    -1.7040    -0.7510 C.3   1 <1>   0.1100 
  6 N       -0.1950    -2.4320     0.2870 N.3   1 <1>  -0.8100 
  7 C       -0.3140    -3.8700    -0.0640 C.3   1 <1>   0.1100 
  8 C       -1.5470    -1.8420     0.4810 C.3   1 <1>   0.1100 
  9 C       -1.1290    -4.6630     0.9730 C.3   1 <1>   0.2090 
 10 C       -2.3970    -2.6160     1.5080 C.3   1 <1>   0.2090 
 11 N       -2.4830    -4.0580     1.1310 N.pl3 1 <1>  -0.8380 
 12 C       -3.6160    -4.6010     0.5630 C.ar  1 <1>   0.7200 
 13 N       -4.7770    -4.0130     0.8470 N.ar  1 <1>  -0.6200 
 14 N       -3.4550    -5.6620    -0.2270 N.ar  1 <1>  -0.6200 
 15 C       -5.8470    -4.5420     0.3070 C.ar  1 <1>   0.1600 
 16 C       -4.5440    -6.1680    -0.7530 C.ar  1 <1>   0.1600 
 17 C       -5.7920    -5.6400    -0.5190 C.ar  1 <1>  -0.1430 
 18 C       -7.0450    -6.2400    -1.1380 C.3   1 <1>  -0.0170 
 19 C       -7.6370    -7.3120    -0.2210 C.3   1 <1>  -0.2400 
 20 H        1.5140    -2.2580    -0.9090 H     1 <1>   0.0800 
 21 H        0.0640    -1.7110    -1.6790 H     1 <1>   0.0800 
 22 H        0.6690    -4.3040    -0.1290 H     1 <1>   0.0800 
 23 H       -0.7930    -3.9760    -1.0230 H     1 <1>   0.0800 
 24 H       -2.0770    -1.8270    -0.4560 H     1 <1>   0.0800 
 25 H       -1.4530    -0.8290     0.8300 H     1 <1>   0.0800 
 26 H       -0.6180    -4.6340     1.9200 H     1 <1>   0.0800 
 27 H       -1.1930    -5.6940     0.6750 H     1 <1>   0.0800 
 28 H       -3.3720    -2.1660     1.5690 H     1 <1>   0.0800 
 29 H       -1.9410    -2.5330     2.4780 H     1 <1>   0.0800 
 30 H       -6.7960    -4.0860     0.5310 H     1 <1>   0.1500 
 31 H       -4.4380    -7.0300    -1.3880 H     1 <1>   0.1500 
 32 H       -6.8050    -6.6740    -2.0930 H     1 <1>   0.0800 
 33 H       -7.7740    -5.4650    -1.3050 H     1 <1>   0.0800 
 34 H       -6.9250    -8.1020    -0.0600 H     1 <1>   0.0800 
 35 H       -8.5230    -7.7320    -0.6650 H     1 <1>   0.0800 
 36 H       -7.8990    -6.8860     0.7320 H     1 <1>   0.0800 
@<TRIPOS>BOND
  1   1   2  1   
  2   2   3  1   
  3   2   4  1   
  4   2   5  1   
  5   5   6  1   
  6   5  20  1   
  7   5  21  1   
  8   6   7  1   
  9   6   8  1   
 10   7   9  1   
 11   7  22  1   
 12   7  23  1   
 13   8  10  1   
 14   8  24  1   
 15   8  25  1   
 16   9  11  1   
 17   9  26  1   
 18   9  27  1   
 19  10  11  1   
 20  10  28  1   
 21  10  29  1   
 22  11  12  1   
 23  12  13  ar  
 24  12  14  ar  
 25  13  15  ar  
 26  14  16  ar  
 27  15  17  ar  
 28  15  30  1   
 29  16  17  ar  
 30  16  31  1   
 31  17  18  1   
 32  18  19  1   
 33  18  32  1   
 34  18  33  1   
 35  19  34  1   
 36  19  35  1   
 37  19  36  1   
@<TRIPOS>SUBSTRUCTURE
  1 ****  11 GROUP 4 **** **** 0

# MOE 2024.06 (io_trps.svl 2023.06)
