@<TRIPOS>MOLECULE
NONAME
48 51 1 0 0 
SMALL
USER_CHARGES


@<TRIPOS>ATOM
  1 S       -1.0860     0.7790    -1.0810 S.o2  1 <1>   1.5010 
  2 O       -1.6280     2.1190    -1.1280 O.2   1 <1>  -0.6500 
  3 O       -1.3510    -0.1280    -2.1770 O.2   1 <1>  -0.6500 
  4 N       -1.6970     0.0520     0.3270 N.am  1 <1>  -0.8490 
  5 C        0.6850     0.8460    -0.7700 C.2   1 <1>  -0.0630 
  6 C       -1.3420    -1.3790     0.4810 C.3   1 <1>   0.1960 
  7 C       -3.1570     0.2170     0.4800 C.3   1 <1>   0.1960 
  8 C        1.4320     1.3680     0.2390 C.2   1 <1>  -0.3320 
  9 C        1.6260     0.2980    -1.6300 C.2   1 <1>   0.1390 
 10 C       -2.2440    -2.3610    -0.3150 C.3   1 <1>   0.3440 
 11 C       -3.9710    -0.7730    -0.3840 C.3   1 <1>   0.2950 
 12 N        2.7250     1.1130    -0.0510 N.pl3 1 <1>   0.3140 
 13 C        0.9570     2.1100     1.4800 C.3   1 <1>  -0.0600 
 14 N        2.8430     0.4460    -1.2080 N.2   1 <1>  -0.7070 
 15 O       -3.5970    -2.0820    -0.0760 O.3   1 <1>  -0.5600 
 16 C       -1.9410    -3.7990     0.0960 C.ar  1 <1>  -0.1430 
 17 C       -5.4730    -0.6500    -0.1120 C.3   1 <1>  -0.1950 
 18 C        3.9090     1.4860     0.7360 C.3   1 <1>   0.0160 
 19 C       -1.0030    -4.5320    -0.6190 C.ar  1 <1>  -0.1500 
 20 C       -2.5720    -4.3910     1.1820 C.ar  1 <1>  -0.1500 
 21 C       -6.4810    -1.1090    -1.1190 C.3   1 <1>  -0.2000 
 22 C       -6.3060     0.3580    -0.8420 C.3   1 <1>  -0.2000 
 23 C       -0.6990    -5.8320    -0.2530 C.ar  1 <1>  -0.1500 
 24 C       -2.2700    -5.6910     1.5490 C.ar  1 <1>  -0.1500 
 25 C       -1.3320    -6.4120     0.8320 C.ar  1 <1>  -0.1500 
 26 H       -0.3150    -1.5390     0.2020 H     1 <1>   0.0800 
 27 H       -1.4240    -1.6370     1.5220 H     1 <1>   0.0800 
 28 H       -3.4160     0.0530     1.5110 H     1 <1>   0.0800 
 29 H       -3.4480     1.2260     0.2410 H     1 <1>   0.0800 
 30 H        1.3790    -0.2010    -2.5540 H     1 <1>   0.1500 
 31 H       -2.0740    -2.2670    -1.3720 H     1 <1>   0.0800 
 32 H       -3.7850    -0.6020    -1.4310 H     1 <1>   0.0800 
 33 H       -0.1140     2.2070     1.4760 H     1 <1>   0.0800 
 34 H        1.3840     3.0970     1.5100 H     1 <1>   0.0800 
 35 H        1.2460     1.5760     2.3680 H     1 <1>   0.0800 
 36 H       -5.7100    -0.8190     0.9240 H     1 <1>   0.1000 
 37 H        3.8400     1.0410     1.7100 H     1 <1>   0.0800 
 38 H        3.9550     2.5550     0.8190 H     1 <1>   0.0800 
 39 H        4.7900     1.1260     0.2380 H     1 <1>   0.0800 
 40 H       -0.5030    -4.0960    -1.4660 H     1 <1>   0.1500 
 41 H       -3.3080    -3.8410     1.7430 H     1 <1>   0.1500 
 42 H       -6.1290    -1.5120    -2.0530 H     1 <1>   0.1000 
 43 H       -7.3660    -1.6080    -0.7640 H     1 <1>   0.1000 
 44 H       -7.0840     0.8760    -0.3060 H     1 <1>   0.1000 
 45 H       -5.8550     0.9690    -1.6050 H     1 <1>   0.1000 
 46 H        0.0290    -6.3920    -0.8130 H     1 <1>   0.1500 
 47 H       -2.7670    -6.1410     2.3900 H     1 <1>   0.1500 
 48 H       -1.0970    -7.4230     1.1170 H     1 <1>   0.1500 
@<TRIPOS>BOND
  1   1   2  2   
  2   1   3  2   
  3   1   4  am  
  4   1   5  1   
  5   4   6  1   
  6   4   7  1   
  7   5   8  2   
  8   5   9  1   
  9   6  10  1   
 10   6  26  1   
 11   6  27  1   
 12   7  11  1   
 13   7  28  1   
 14   7  29  1   
 15   8  12  1   
 16   8  13  1   
 17   9  14  2   
 18   9  30  1   
 19  10  15  1   
 20  10  16  1   
 21  10  31  1   
 22  11  15  1   
 23  11  17  1   
 24  11  32  1   
 25  12  14  1   
 26  12  18  1   
 27  13  33  1   
 28  13  34  1   
 29  13  35  1   
 30  16  19  ar  
 31  16  20  ar  
 32  17  21  1   
 33  17  22  1   
 34  17  36  1   
 35  18  37  1   
 36  18  38  1   
 37  18  39  1   
 38  19  23  ar  
 39  19  40  1   
 40  20  24  ar  
 41  20  41  1   
 42  21  22  1   
 43  21  42  1   
 44  21  43  1   
 45  22  44  1   
 46  22  45  1   
 47  23  25  ar  
 48  23  46  1   
 49  24  25  ar  
 50  24  47  1   
 51  25  48  1   
@<TRIPOS>SUBSTRUCTURE
  1 ****   6 GROUP 4 **** **** 0

# MOE 2024.06 (io_trps.svl 2023.06)
