@<TRIPOS>MOLECULE
NONAME
44 47 1 0 0 
SMALL
USER_CHARGES


@<TRIPOS>ATOM
  1 S        0.5300     0.4230     0.9390 S.3   1 <1>  -0.0800 
  2 C        1.0800     1.8700     0.1250 C.ar  1 <1>   0.0400 
  3 C       -1.0030     1.2200     1.2720 C.2   1 <1>   0.2280 
  4 C        0.0640     2.8060     0.1770 C.ar  1 <1>   0.2270 
  5 C        2.2960     2.1120    -0.4840 C.ar  1 <1>  -0.1500 
  6 N       -1.0970     2.4100     0.8360 N.2   1 <1>  -0.5650 
  7 C        0.2730     4.0430    -0.4080 C.ar  1 <1>  -0.1500 
  8 C        2.4840     3.3550    -1.0600 C.ar  1 <1>  -0.1500 
  9 C        1.4870     4.3410    -1.0240 C.ar  1 <1>   0.0860 
 10 C        1.7200     5.6510    -1.5930 C.2   1 <1>   0.5440 
 11 O        1.3970     5.8660    -2.7440 O.2   1 <1>  -0.5700 
 12 N        2.2850     6.6800    -0.8610 N.am  1 <1>  -0.6600 
 13 C        2.6520     6.5200     0.5980 C.3   1 <1>   0.2200 
 14 C        2.5240     7.9890    -1.5500 C.3   1 <1>   0.1400 
 15 C        2.0210     7.6100     1.4800 C.3   1 <1>   0.1200 
 16 C        4.1800     6.4490     0.8160 C.3   1 <1>   0.3430 
 17 C        3.4210     8.9900    -0.8020 C.3   1 <1>  -0.0800 
 18 O        2.8220     8.7530     1.5270 O.3   1 <1>  -0.5600 
 19 N        4.9640     7.0220    -0.3270 N.4   1 <1>  -0.9590 
 20 C        2.7300     9.5950     0.4290 C.3   1 <1>   0.1200 
 21 C        4.8490     8.4950    -0.5010 C.3   1 <1>   0.3430 
 22 C        6.4040     6.5300    -0.2750 C.3   1 <1>   0.2370 
 23 C        6.5570     5.0040    -0.3430 C.2   1 <1>   0.9060 
 24 O        7.5770     4.4860     0.1060 O.co2 1 <1>  -0.9000 
 25 O        5.6010     4.3580    -0.7930 O.co2 1 <1>  -0.9000 
 26 H       -1.7350     0.6460     1.8130 H     1 <1>   0.1500 
 27 H        3.0690     1.3630    -0.5080 H     1 <1>   0.1500 
 28 H       -0.5160     4.7720    -0.3820 H     1 <1>   0.1500 
 29 H        3.4210     3.5730    -1.5470 H     1 <1>   0.1500 
 30 H        2.2470     5.5940     0.9620 H     1 <1>   0.0800 
 31 H        2.9690     7.7880    -2.5110 H     1 <1>   0.0800 
 32 H        1.5670     8.4450    -1.7410 H     1 <1>   0.0800 
 33 H        1.9550     7.2450     2.4910 H     1 <1>   0.0800 
 34 H        1.0290     7.8630     1.1490 H     1 <1>   0.0800 
 35 H        4.4370     5.4080     0.9300 H     1 <1>   0.0800 
 36 H        4.4410     6.9470     1.7350 H     1 <1>   0.0800 
 37 H        3.5400     9.8200    -1.4750 H     1 <1>   0.0800 
 38 H        4.5490     6.5360    -1.1450 H     1 <1>   0.4500 
 39 H        1.6920     9.8160     0.2370 H     1 <1>   0.0800 
 40 H        3.2200    10.5140     0.7040 H     1 <1>   0.0800 
 41 H        5.2170     8.9900     0.3830 H     1 <1>   0.0800 
 42 H        5.4820     8.7840    -1.3240 H     1 <1>   0.0800 
 43 H        6.9570     6.9330    -1.1030 H     1 <1>   0.0800 
 44 H        6.8740     6.8580     0.6340 H     1 <1>   0.0800 
@<TRIPOS>BOND
  1   1   2  1   
  2   1   3  1   
  3   2   4  ar  
  4   2   5  ar  
  5   3   6  2   
  6   3  26  1   
  7   4   6  1   
  8   4   7  ar  
  9   5   8  ar  
 10   5  27  1   
 11   7   9  ar  
 12   7  28  1   
 13   8   9  ar  
 14   8  29  1   
 15   9  10  1   
 16  10  11  2   
 17  10  12  am  
 18  12  13  1   
 19  12  14  1   
 20  13  15  1   
 21  13  16  1   
 22  13  30  1   
 23  14  17  1   
 24  14  31  1   
 25  14  32  1   
 26  15  18  1   
 27  15  33  1   
 28  15  34  1   
 29  16  19  1   
 30  16  35  1   
 31  16  36  1   
 32  17  20  1   
 33  17  21  1   
 34  17  37  1   
 35  18  20  1   
 36  19  21  1   
 37  19  22  1   
 38  19  38  1   
 39  20  39  1   
 40  20  40  1   
 41  21  41  1   
 42  21  42  1   
 43  22  23  1   
 44  22  43  1   
 45  22  44  1   
 46  23  24  ar  
 47  23  25  ar  
@<TRIPOS>SUBSTRUCTURE
  1 ****  13 GROUP 4 **** **** 0

# MOE 2024.06 (io_trps.svl 2023.06)
