@<TRIPOS>MOLECULE
NONAME
48 49 1 0 0 
SMALL
USER_CHARGES


@<TRIPOS>ATOM
  1 O       -0.0390     1.2680    -1.0090 O.3   1 <1>  -0.6800 
  2 C       -0.5210     2.5710    -1.1920 C.3   1 <1>   0.2000 
  3 C       -1.4120     3.0460     0.0040 C.3   1 <1>   0.0000 
  4 C        0.7130     3.4810    -1.3230 C.3   1 <1>   0.3430 
  5 C       -0.5530     3.8410     1.0380 C.3   1 <1>  -0.1600 
  6 C       -2.0730     1.8210     0.7050 C.3   1 <1>   0.1200 
  7 C       -2.5550     3.9650    -0.5260 C.3   1 <1>  -0.1600 
  8 N        1.6150     3.3110    -0.1280 N.4   1 <1>  -0.9590 
  9 C        0.8690     3.2900     1.1780 C.3   1 <1>   0.3430 
 10 O       -2.8930     2.2210     1.7510 O.3   1 <1>  -0.6800 
 11 C       -2.1530     5.1450    -1.4370 C.3   1 <1>  -0.1600 
 12 C        2.7520     4.2830    -0.1310 C.3   1 <1>   0.4860 
 13 C       -3.3860     5.9680    -1.8200 C.3   1 <1>  -0.2400 
 14 C        2.2390     5.7140    -0.1900 C.ar  1 <1>  -0.1440 
 15 C        2.0880     6.3500    -1.4150 C.ar  1 <1>  -0.1500 
 16 C        1.9150     6.4010     0.9710 C.ar  1 <1>  -0.1500 
 17 C        1.5880     7.6380    -1.4770 C.ar  1 <1>  -0.1500 
 18 C        1.4150     7.6890     0.9050 C.ar  1 <1>  -0.1500 
 19 C        1.2420     8.3110    -0.3190 C.ar  1 <1>  -0.1440 
 20 C        0.6910     9.7240    -0.3900 C.3   1 <1>  -0.0970 
 21 H       -0.7290     0.6070    -1.2290 H     1 <1>   0.4000 
 22 H       -1.0830     2.5760    -2.1100 H     1 <1>   0.0800 
 23 H        0.3800     4.5030    -1.3900 H     1 <1>   0.0800 
 24 H        1.2420     3.2400    -2.2290 H     1 <1>   0.0800 
 25 H       -1.0210     3.8330     2.0060 H     1 <1>   0.0800 
 26 H       -0.4750     4.8770     0.7680 H     1 <1>   0.0800 
 27 H       -1.3290     1.1620     1.1190 H     1 <1>   0.0800 
 28 H       -2.6800     1.2710     0.0060 H     1 <1>   0.0800 
 29 H       -3.2590     3.3580    -1.0680 H     1 <1>   0.0800 
 30 H       -3.0890     4.3660     0.3200 H     1 <1>   0.0800 
 31 H        1.9900     2.3580    -0.2350 H     1 <1>   0.4500 
 32 H        0.7990     2.2710     1.5250 H     1 <1>   0.0800 
 33 H        1.4030     3.8550     1.9230 H     1 <1>   0.0800 
 34 H       -3.3820     1.4630     2.1300 H     1 <1>   0.4000 
 35 H       -1.4600     5.8010    -0.9400 H     1 <1>   0.0800 
 36 H       -1.6970     4.7930    -2.3440 H     1 <1>   0.0800 
 37 H        3.3510     4.1520     0.7550 H     1 <1>   0.0800 
 38 H        3.3810     4.1020    -0.9870 H     1 <1>   0.0800 
 39 H       -3.8600     6.3700    -0.9420 H     1 <1>   0.0800 
 40 H       -4.1000     5.3600    -2.3490 H     1 <1>   0.0800 
 41 H       -3.1010     6.7880    -2.4560 H     1 <1>   0.0800 
 42 H        2.3570     5.8570    -2.3330 H     1 <1>   0.1500 
 43 H        2.0440     5.9500     1.9400 H     1 <1>   0.1500 
 44 H        1.4710     8.1210    -2.4330 H     1 <1>   0.1500 
 45 H        1.1630     8.2120     1.8130 H     1 <1>   0.1500 
 46 H        0.1320     9.8660    -1.2980 H     1 <1>   0.0800 
 47 H        1.4990    10.4330    -0.3650 H     1 <1>   0.0800 
 48 H        0.0360     9.9160     0.4420 H     1 <1>   0.0800 
@<TRIPOS>BOND
  1   1   2  1   
  2   1  21  1   
  3   2   3  1   
  4   2   4  1   
  5   2  22  1   
  6   3   5  1   
  7   3   6  1   
  8   3   7  1   
  9   4   8  1   
 10   4  23  1   
 11   4  24  1   
 12   5   9  1   
 13   5  25  1   
 14   5  26  1   
 15   6  10  1   
 16   6  27  1   
 17   6  28  1   
 18   7  11  1   
 19   7  29  1   
 20   7  30  1   
 21   8   9  1   
 22   8  12  1   
 23   8  31  1   
 24   9  32  1   
 25   9  33  1   
 26  10  34  1   
 27  11  13  1   
 28  11  35  1   
 29  11  36  1   
 30  12  14  1   
 31  12  37  1   
 32  12  38  1   
 33  13  39  1   
 34  13  40  1   
 35  13  41  1   
 36  14  15  ar  
 37  14  16  ar  
 38  15  17  ar  
 39  15  42  1   
 40  16  18  ar  
 41  16  43  1   
 42  17  19  ar  
 43  17  44  1   
 44  18  19  ar  
 45  18  45  1   
 46  19  20  1   
 47  20  46  1   
 48  20  47  1   
 49  20  48  1   
@<TRIPOS>SUBSTRUCTURE
  1 ****   5 GROUP 4 **** **** 0

# MOE 2024.06 (io_trps.svl 2023.06)
