@<TRIPOS>MOLECULE
NONAME
44 45 1 0 0 
SMALL
USER_CHARGES


@<TRIPOS>ATOM
  1 CL      -0.1090     2.2050    -0.3570 Cl    1 <1>  -0.1230 
  2 C        1.3400     3.1700    -0.1130 C.2   1 <1>   0.1230 
  3 C        2.4740     3.1580    -0.9140 C.2   1 <1>   0.1080 
  4 C        1.5690     4.0610     0.8720 C.2   1 <1>  -0.3320 
  5 N        3.3680     3.9880    -0.4680 N.2   1 <1>  -0.7070 
  6 C        2.6950     2.3160    -2.1510 C.3   1 <1>  -0.0590 
  7 N        2.8150     4.5420     0.6380 N.pl3 1 <1>   0.3140 
  8 C        0.6610     4.4840     2.0170 C.3   1 <1>  -0.0600 
  9 C        3.5420     5.5700     1.3980 C.3   1 <1>   0.1570 
 10 C        3.3620     6.9180     0.7350 C.2   1 <1>   0.5690 
 11 O        3.1830     7.8870     1.4330 O.2   1 <1>  -0.5700 
 12 N        3.4300     7.0210    -0.6160 N.am  1 <1>  -0.7300 
 13 C        3.1450     8.2320    -1.4150 C.3   1 <1>   0.3200 
 14 C        4.3890     8.6800    -2.1610 C.2   1 <1>   0.0070 
 15 N        4.5640     8.5290    -3.4300 N.2   1 <1>  -0.3380 
 16 N        5.4360     9.2890    -1.5910 N.pl3 1 <1>   0.0480 
 17 N        5.7560     9.0470    -3.7270 N.2   1 <1>  -0.3380 
 18 C        6.2530     9.4910    -2.6260 C.2   1 <1>   0.0370 
 19 C        5.6640     9.6570    -0.1780 C.3   1 <1>   0.0960 
 20 C        4.9880    10.9910     0.1530 C.3   1 <1>  -0.1600 
 21 C        5.0090    11.2500     1.6570 C.3   1 <1>   0.1200 
 22 O        4.4720    12.5110     1.8680 O.3   1 <1>  -0.5600 
 23 C        4.3630    12.8630     3.2090 C.3   1 <1>   0.0400 
 24 H        1.8020     1.7810    -2.4130 H     1 <1>   0.0800 
 25 H        3.4860     1.6130    -1.9690 H     1 <1>   0.0800 
 26 H        2.9760     2.9510    -2.9710 H     1 <1>   0.0800 
 27 H       -0.2850     3.9740     1.9500 H     1 <1>   0.0800 
 28 H        0.4780     5.5430     1.9770 H     1 <1>   0.0800 
 29 H        1.1110     4.2390     2.9620 H     1 <1>   0.0800 
 30 H        4.5830     5.3150     1.4130 H     1 <1>   0.0800 
 31 H        3.1720     5.6030     2.4030 H     1 <1>   0.0800 
 32 H        3.5810     6.1610    -1.1660 H     1 <1>   0.3700 
 33 H        2.7900     9.0250    -0.7800 H     1 <1>   0.0800 
 34 H        2.3700     8.0050    -2.1270 H     1 <1>   0.0800 
 35 H        7.2110     9.9700    -2.5360 H     1 <1>   0.1500 
 36 H        6.7220     9.7270    -0.0020 H     1 <1>   0.0800 
 37 H        5.2740     8.8760     0.4460 H     1 <1>   0.0800 
 38 H        3.9630    10.9760    -0.1690 H     1 <1>   0.0800 
 39 H        5.5040    11.7890    -0.3510 H     1 <1>   0.0800 
 40 H        6.0160    11.2380     2.0390 H     1 <1>   0.0800 
 41 H        4.4060    10.5220     2.1760 H     1 <1>   0.0800 
 42 H        3.9410    13.8510     3.2600 H     1 <1>   0.0800 
 43 H        5.3400    12.8620     3.6590 H     1 <1>   0.0800 
 44 H        3.7120    12.1650     3.7080 H     1 <1>   0.0800 
@<TRIPOS>BOND
  1   1   2  1   
  2   2   3  1   
  3   2   4  2   
  4   3   5  2   
  5   3   6  1   
  6   4   7  1   
  7   4   8  1   
  8   5   7  1   
  9   6  24  1   
 10   6  25  1   
 11   6  26  1   
 12   7   9  1   
 13   8  27  1   
 14   8  28  1   
 15   8  29  1   
 16   9  10  1   
 17   9  30  1   
 18   9  31  1   
 19  10  11  2   
 20  10  12  am  
 21  12  13  1   
 22  12  32  1   
 23  13  14  1   
 24  13  33  1   
 25  13  34  1   
 26  14  15  2   
 27  14  16  1   
 28  15  17  1   
 29  16  18  1   
 30  16  19  1   
 31  17  18  2   
 32  18  35  1   
 33  19  20  1   
 34  19  36  1   
 35  19  37  1   
 36  20  21  1   
 37  20  38  1   
 38  20  39  1   
 39  21  22  1   
 40  21  40  1   
 41  21  41  1   
 42  22  23  1   
 43  23  42  1   
 44  23  43  1   
 45  23  44  1   
@<TRIPOS>SUBSTRUCTURE
  1 ****  12 GROUP 4 **** **** 0

# MOE 2024.06 (io_trps.svl 2023.06)
