@<TRIPOS>MOLECULE
NONAME
52 54 1 0 0 
SMALL
USER_CHARGES


@<TRIPOS>ATOM
  1 O       -2.0580     0.1100     2.5930 O.2   1 <1>  -0.5700 
  2 C       -2.0300     0.7770     1.5850 C.2   1 <1>   0.5690 
  3 N       -2.2100     0.2210     0.3460 N.am  1 <1>  -0.6600 
  4 C       -1.7680     2.2680     1.7430 C.3   1 <1>   0.0440 
  5 C       -2.2270    -1.2720     0.1840 C.3   1 <1>   0.3640 
  6 C       -2.3330     1.0290    -0.9100 C.3   1 <1>   0.1400 
  7 C       -0.3960     2.6630     1.1900 C.ar  1 <1>  -0.1440 
  8 C       -0.8240    -1.8280    -0.1230 C.ar  1 <1>  -0.1440 
  9 C       -3.2610    -1.7370    -0.8920 C.3   1 <1>   0.2000 
 10 C       -2.6010     0.1580    -2.1450 C.3   1 <1>   0.1200 
 11 C       -0.2420     3.6260     0.1940 C.ar  1 <1>   0.0820 
 12 C        0.7260     2.0260     1.7010 C.ar  1 <1>  -0.1500 
 13 C        0.2690    -1.0360    -0.4640 C.ar  1 <1>  -0.1500 
 14 C       -0.6380    -3.2020    -0.0390 C.ar  1 <1>  -0.1500 
 15 O       -3.6050    -0.7600    -1.8510 O.3   1 <1>  -0.5600 
 16 C       -4.5720    -2.1940    -0.2430 C.3   1 <1>   0.1200 
 17 O       -1.3600     4.2270    -0.2940 O.3   1 <1>  -0.3630 
 18 C        1.0330     3.9310    -0.2750 C.ar  1 <1>  -0.1500 
 19 C        1.9900     2.3310     1.2310 C.ar  1 <1>  -0.1500 
 20 C        1.5010    -1.6050    -0.7360 C.ar  1 <1>  -0.1500 
 21 C        0.5930    -3.7740    -0.3100 C.ar  1 <1>  -0.1500 
 22 O       -4.3920    -3.4210     0.3920 O.3   1 <1>  -0.6800 
 23 C       -1.2800     5.3420    -1.1560 C.3   1 <1>   0.0400 
 24 C        2.1470     3.2890     0.2350 C.ar  1 <1>   0.0830 
 25 C        1.6640    -2.9750    -0.6630 C.ar  1 <1>  -0.1500 
 26 O        3.3480     3.6460    -0.2840 O.3   1 <1>  -0.3630 
 27 C        4.5490     3.0780     0.1920 C.3   1 <1>   0.0400 
 28 H       -2.5660     2.8110     1.2770 H     1 <1>   0.0800 
 29 H       -1.7940     2.5110     2.7890 H     1 <1>   0.0800 
 30 H       -2.5170    -1.7160     1.1200 H     1 <1>   0.0800 
 31 H       -3.1410     1.7300    -0.8010 H     1 <1>   0.0800 
 32 H       -1.4300     1.5870    -1.0760 H     1 <1>   0.0800 
 33 H       -2.8540    -2.5650    -1.4430 H     1 <1>   0.0800 
 34 H       -1.7160    -0.3740    -2.4500 H     1 <1>   0.0800 
 35 H       -2.9360     0.7680    -2.9650 H     1 <1>   0.0800 
 36 H        0.6160     1.2790     2.4700 H     1 <1>   0.1500 
 37 H        0.1870     0.0340    -0.5160 H     1 <1>   0.1500 
 38 H       -1.4580    -3.8400     0.2460 H     1 <1>   0.1500 
 39 H       -5.3430    -2.3130    -0.9850 H     1 <1>   0.0800 
 40 H       -4.8900    -1.4780     0.4960 H     1 <1>   0.0800 
 41 H        1.1940     4.6620    -1.0430 H     1 <1>   0.1500 
 42 H        2.8310     1.8130     1.6500 H     1 <1>   0.1500 
 43 H        2.3330    -0.9760    -1.0010 H     1 <1>   0.1500 
 44 H        0.7170    -4.8410    -0.2430 H     1 <1>   0.1500 
 45 H       -4.4100    -4.1510    -0.2580 H     1 <1>   0.4000 
 46 H       -2.2780     5.6970    -1.3390 H     1 <1>   0.0800 
 47 H       -0.8250     5.0370    -2.0810 H     1 <1>   0.0800 
 48 H       -0.7000     6.1120    -0.6770 H     1 <1>   0.0800 
 49 H        2.6220    -3.4180    -0.8750 H     1 <1>   0.1500 
 50 H        5.3650     3.5170    -0.3520 H     1 <1>   0.0800 
 51 H        4.5250     2.0170     0.0220 H     1 <1>   0.0800 
 52 H        4.6470     3.3000     1.2400 H     1 <1>   0.0800 
@<TRIPOS>BOND
  1   1   2  2   
  2   2   3  am  
  3   2   4  1   
  4   3   5  1   
  5   3   6  1   
  6   4   7  1   
  7   4  28  1   
  8   4  29  1   
  9   5   8  1   
 10   5   9  1   
 11   5  30  1   
 12   6  10  1   
 13   6  31  1   
 14   6  32  1   
 15   7  11  ar  
 16   7  12  ar  
 17   8  13  ar  
 18   8  14  ar  
 19   9  15  1   
 20   9  16  1   
 21   9  33  1   
 22  10  15  1   
 23  10  34  1   
 24  10  35  1   
 25  11  17  1   
 26  11  18  ar  
 27  12  19  ar  
 28  12  36  1   
 29  13  20  ar  
 30  13  37  1   
 31  14  21  ar  
 32  14  38  1   
 33  16  22  1   
 34  16  39  1   
 35  16  40  1   
 36  17  23  1   
 37  18  24  ar  
 38  18  41  1   
 39  19  24  ar  
 40  19  42  1   
 41  20  25  ar  
 42  20  43  1   
 43  21  25  ar  
 44  21  44  1   
 45  22  45  1   
 46  23  46  1   
 47  23  47  1   
 48  23  48  1   
 49  24  26  1   
 50  25  49  1   
 51  26  27  1   
 52  27  50  1   
 53  27  51  1   
 54  27  52  1   
@<TRIPOS>SUBSTRUCTURE
  1 ****   3 GROUP 4 **** **** 0

# MOE 2024.06 (io_trps.svl 2023.06)
