@<TRIPOS>MOLECULE
NONAME
41 43 1 0 0 
SMALL
USER_CHARGES


@<TRIPOS>ATOM
  1 F       -0.1120    -1.4130    -1.0610 F     1 <1>  -0.3480 
  2 C       -0.1390    -1.8220     0.2010 C.3   1 <1>   1.0180 
  3 F       -0.9940    -1.0260     0.8350 F     1 <1>  -0.3480 
  4 F        1.0580    -1.5550     0.7070 F     1 <1>  -0.3480 
  5 C       -0.5010    -3.3320     0.3500 C.3   1 <1>   0.1000 
  6 N       -1.7070    -3.8800    -0.3650 N.3   1 <1>  -0.8140 
  7 C       -2.9740    -3.2720     0.0890 C.3   1 <1>   0.1000 
  8 C       -1.7520    -5.3490    -0.2730 C.3   1 <1>   0.1000 
  9 C       -4.1750    -3.8160    -0.7060 C.3   1 <1>   0.1580 
 10 C       -2.9230    -5.9110    -1.0970 C.3   1 <1>   0.1580 
 11 N       -4.2210    -5.3120    -0.6540 N.pl3 1 <1>  -0.5980 
 12 C       -5.3400    -6.0030    -0.3550 C.cat 1 <1>   1.0680 
 13 N       -6.5570    -5.4900    -0.5010 N.pl3 1 <1>  -0.7050 
 14 N       -5.4380    -7.2650     0.1110 N.pl3 1 <1>  -0.7680 
 15 C       -7.4940    -6.4400    -0.1620 C.ar  1 <1>   0.3010 
 16 C       -6.7940    -7.5660     0.2190 C.ar  1 <1>   0.3010 
 17 C       -4.3950    -8.1560     0.6790 C.3   1 <1>   0.2660 
 18 C       -8.8770    -6.4100    -0.1590 C.ar  1 <1>  -0.1190 
 19 C       -7.4810    -8.7080     0.6150 C.ar  1 <1>  -0.1190 
 20 C       -9.5900    -7.5380     0.2360 C.ar  1 <1>  -0.1880 
 21 C       -8.8610    -8.6810     0.6200 C.ar  1 <1>  -0.1590 
 22 C      -11.0450    -7.5220     0.2470 C.2   1 <1>   0.9760 
 23 O      -11.6480    -6.4950    -0.1030 O.co2 1 <1>  -0.9030 
 24 O      -11.6860    -8.5230     0.6030 O.co2 1 <1>  -0.9030 
 25 H       -0.5950    -3.5380     1.4010 H     1 <1>   0.0700 
 26 H        0.3590    -3.8720    -0.0030 H     1 <1>   0.0700 
 27 H       -2.9370    -2.2070    -0.0590 H     1 <1>   0.0700 
 28 H       -3.1160    -3.4600     1.1400 H     1 <1>   0.0700 
 29 H       -1.8470    -5.6520     0.7550 H     1 <1>   0.0700 
 30 H       -0.8320    -5.7560    -0.6610 H     1 <1>   0.0700 
 31 H       -4.0850    -3.4960    -1.7300 H     1 <1>   0.0700 
 32 H       -5.0740    -3.3880    -0.2980 H     1 <1>   0.0700 
 33 H       -2.9370    -6.9810    -1.0390 H     1 <1>   0.0700 
 34 H       -2.7580    -5.6540    -2.1300 H     1 <1>   0.0700 
 35 H       -6.7780    -4.5750    -0.8790 H     1 <1>   0.4430 
 36 H       -3.5620    -7.5790     1.0390 H     1 <1>   0.0700 
 37 H       -4.0560    -8.8490    -0.0730 H     1 <1>   0.0700 
 38 H       -4.7960    -8.7130     1.5080 H     1 <1>   0.0700 
 39 H       -9.4060    -5.5220    -0.4590 H     1 <1>   0.1410 
 40 H       -6.9530    -9.5950     0.9100 H     1 <1>   0.1410 
 41 H       -9.4200    -9.5540     0.9230 H     1 <1>   0.1410 
@<TRIPOS>BOND
  1   1   2  1   
  2   2   3  1   
  3   2   4  1   
  4   2   5  1   
  5   5   6  1   
  6   5  25  1   
  7   5  26  1   
  8   6   7  1   
  9   6   8  1   
 10   7   9  1   
 11   7  27  1   
 12   7  28  1   
 13   8  10  1   
 14   8  29  1   
 15   8  30  1   
 16   9  11  1   
 17   9  31  1   
 18   9  32  1   
 19  10  11  1   
 20  10  33  1   
 21  10  34  1   
 22  11  12  ar  
 23  12  13  ar  
 24  12  14  ar  
 25  13  15  1   
 26  13  35  1   
 27  14  16  1   
 28  14  17  1   
 29  15  16  ar  
 30  15  18  ar  
 31  16  19  ar  
 32  17  36  1   
 33  17  37  1   
 34  17  38  1   
 35  18  20  ar  
 36  18  39  1   
 37  19  21  ar  
 38  19  40  1   
 39  20  21  ar  
 40  20  22  1   
 41  21  41  1   
 42  22  23  ar  
 43  22  24  ar  
@<TRIPOS>SUBSTRUCTURE
  1 ****  12 GROUP 4 **** **** 0

# MOE 2024.06 (io_trps.svl 2023.06)
