@<TRIPOS>MOLECULE
NONAME
46 48 1 0 0 
SMALL
USER_CHARGES


@<TRIPOS>ATOM
  1 S        0.5400     0.3370    -1.4470 S.o2  1 <1>   1.3330 
  2 O       -0.3120     1.2810    -2.1330 O.2   1 <1>  -0.6500 
  3 O        0.8270    -0.9450    -2.0520 O.2   1 <1>  -0.6500 
  4 N       -0.1570     0.0480     0.0770 N.am  1 <1>  -0.8490 
  5 C        2.1020     1.1290    -1.0570 C.3   1 <1>  -0.0550 
  6 C       -1.0520    -1.1130     0.0640 C.3   1 <1>   0.1160 
  7 C       -0.8650     1.2120     0.6210 C.3   1 <1>   0.1160 
  8 C        3.1250     0.2060    -0.3580 C.3   1 <1>  -0.0800 
  9 C        4.5160     0.7990    -0.1970 C.3   1 <1>   0.2200 
 10 C        2.7640    -0.2070     1.0750 C.3   1 <1>   0.1200 
 11 N        4.4450     2.2120     0.2520 N.am  1 <1>  -0.7300 
 12 C        5.0450    -0.0500     0.9490 C.3   1 <1>   0.1200 
 13 O        3.9570    -0.2100     1.8060 O.3   1 <1>  -0.5600 
 14 C        4.6380     3.3040    -0.5430 C.2   1 <1>   0.5440 
 15 O        4.7520     3.1260    -1.7390 O.2   1 <1>  -0.5700 
 16 C        4.6670     4.6300     0.0370 C.ar  1 <1>   0.0860 
 17 C        5.7360     5.5370    -0.2190 C.ar  1 <1>   0.0000 
 18 C        3.6390     5.0270     0.8700 C.ar  1 <1>  -0.1500 
 19 C        5.7140     6.8190     0.3810 C.ar  1 <1>   0.3100 
 20 C        6.8450     5.2400    -1.0380 C.ar  1 <1>  -0.1500 
 21 C        3.6200     6.2880     1.4620 C.ar  1 <1>  -0.1500 
 22 N        6.6900     7.7450     0.1970 N.ar  1 <1>  -0.6200 
 23 C        4.6420     7.1620     1.2160 C.ar  1 <1>  -0.1500 
 24 C        7.8110     6.1840    -1.2080 C.ar  1 <1>  -0.1500 
 25 C        7.6850     7.4220    -0.5680 C.ar  1 <1>   0.1600 
 26 H        2.5410     1.4720    -1.9750 H     1 <1>   0.0800 
 27 H        1.9200     1.9940    -0.4520 H     1 <1>   0.0800 
 28 H       -1.4690    -1.2750     1.0430 H     1 <1>   0.0800 
 29 H       -0.5060    -1.9980    -0.2170 H     1 <1>   0.0800 
 30 H       -1.8510    -0.9620    -0.6420 H     1 <1>   0.0800 
 31 H       -1.2030     1.0040     1.6220 H     1 <1>   0.0800 
 32 H       -1.7170     1.4560     0.0070 H     1 <1>   0.0800 
 33 H       -0.2090     2.0640     0.6540 H     1 <1>   0.0800 
 34 H        3.2190    -0.6940    -0.9410 H     1 <1>   0.0800 
 35 H        5.1160     0.7080    -1.0870 H     1 <1>   0.0800 
 36 H        2.3280    -1.1910     1.1090 H     1 <1>   0.0800 
 37 H        2.1010     0.5010     1.5410 H     1 <1>   0.0800 
 38 H        4.3470     2.3170     1.2650 H     1 <1>   0.3700 
 39 H        5.8610     0.4140     1.4750 H     1 <1>   0.0800 
 40 H        5.3390    -1.0260     0.6000 H     1 <1>   0.0800 
 41 H        2.8210     4.3580     1.0710 H     1 <1>   0.1500 
 42 H        6.9270     4.2840    -1.5250 H     1 <1>   0.1500 
 43 H        2.8010     6.5660     2.1040 H     1 <1>   0.1500 
 44 H        4.6520     8.1420     1.6580 H     1 <1>   0.1500 
 45 H        8.6710     6.0000    -1.8260 H     1 <1>   0.1500 
 46 H        8.4640     8.1500    -0.7220 H     1 <1>   0.1500 
@<TRIPOS>BOND
  1   1   2  2   
  2   1   3  2   
  3   1   4  am  
  4   1   5  1   
  5   4   6  1   
  6   4   7  1   
  7   5   8  1   
  8   5  26  1   
  9   5  27  1   
 10   6  28  1   
 11   6  29  1   
 12   6  30  1   
 13   7  31  1   
 14   7  32  1   
 15   7  33  1   
 16   8   9  1   
 17   8  10  1   
 18   8  34  1   
 19   9  11  1   
 20   9  12  1   
 21   9  35  1   
 22  10  13  1   
 23  10  36  1   
 24  10  37  1   
 25  11  14  am  
 26  11  38  1   
 27  12  13  1   
 28  12  39  1   
 29  12  40  1   
 30  14  15  2   
 31  14  16  1   
 32  16  17  ar  
 33  16  18  ar  
 34  17  19  ar  
 35  17  20  ar  
 36  18  21  ar  
 37  18  41  1   
 38  19  22  ar  
 39  19  23  ar  
 40  20  24  ar  
 41  20  42  1   
 42  21  23  ar  
 43  21  43  1   
 44  22  25  ar  
 45  23  44  1   
 46  24  25  ar  
 47  24  45  1   
 48  25  46  1   
@<TRIPOS>SUBSTRUCTURE
  1 ****  14 GROUP 4 **** **** 0

# MOE 2024.06 (io_trps.svl 2023.06)
