@<TRIPOS>MOLECULE
NONAME
42 44 1 0 0 
SMALL
USER_CHARGES


@<TRIPOS>ATOM
  1 S        0.2490     0.0550     1.8670 S.o2  1 <1>   1.5000 
  2 O        0.9000    -0.9970     2.6170 O.2   1 <1>  -0.6500 
  3 O       -0.4160     1.1240     2.5800 O.2   1 <1>  -0.6500 
  4 N        1.4720     0.7680     0.9320 N.am  1 <1>  -0.8490 
  5 C       -0.8480    -0.6150     0.5950 C.2   1 <1>  -0.0220 
  6 C        2.1210     1.8960     1.6300 C.3   1 <1>   0.1960 
  7 C        2.3990    -0.2200     0.3640 C.3   1 <1>   0.1960 
  8 S       -1.8570    -1.9990     1.0090 S.3   1 <1>  -0.0800 
  9 C       -1.0910    -0.2520    -0.6820 C.2   1 <1>  -0.1500 
 10 C        3.2320     2.6240     0.8360 C.3   1 <1>   0.2200 
 11 C        3.2070     0.2820    -0.8520 C.3   1 <1>  -0.0190 
 12 C       -2.5750    -2.0380    -0.5930 C.2   1 <1>  -0.1400 
 13 C       -2.0630    -1.0570    -1.3570 C.2   1 <1>  -0.1500 
 14 N        2.8540     2.7450    -0.6100 N.am  1 <1>  -0.6600 
 15 C        4.6210     1.9730     1.0770 C.3   1 <1>   0.1200 
 16 C        2.7540     1.6270    -1.3990 C.2   1 <1>   0.5690 
 17 C        4.7250     0.2670    -0.5980 C.3   1 <1>   0.1200 
 18 C       -3.6090    -3.1110    -0.8810 C.3   1 <1>   0.0200 
 19 C        2.4900     4.1000    -1.0990 C.3   1 <1>   0.0600 
 20 O        5.2200     1.4640    -0.0780 O.3   1 <1>  -0.5600 
 21 O        2.3140     1.6620    -2.5260 O.2   1 <1>  -0.5700 
 22 C       -4.9020    -2.8530    -0.1050 C.3   1 <1>  -0.2400 
 23 H        1.3660     2.6330     1.8450 H     1 <1>   0.0800 
 24 H        2.5070     1.5620     2.5790 H     1 <1>   0.0800 
 25 H        3.0560    -0.5800     1.1380 H     1 <1>   0.0800 
 26 H        1.8260    -1.0680     0.0280 H     1 <1>   0.0800 
 27 H       -0.6110     0.5700    -1.1880 H     1 <1>   0.1500 
 28 H        3.2950     3.6140     1.2520 H     1 <1>   0.0800 
 29 H        3.0400    -0.4420    -1.6280 H     1 <1>   0.0800 
 30 H       -2.3270    -0.8560    -2.3810 H     1 <1>   0.1500 
 31 H        4.5760     1.1900     1.8130 H     1 <1>   0.0800 
 32 H        5.2870     2.7280     1.4560 H     1 <1>   0.0800 
 33 H        5.2320     0.1210    -1.5370 H     1 <1>   0.0800 
 34 H        5.0100    -0.5360     0.0600 H     1 <1>   0.0800 
 35 H       -3.8240    -3.1180    -1.9350 H     1 <1>   0.0800 
 36 H       -3.2080    -4.0730    -0.6160 H     1 <1>   0.0800 
 37 H        3.3170     4.7730    -0.9550 H     1 <1>   0.0800 
 38 H        1.6320     4.4630    -0.5610 H     1 <1>   0.0800 
 39 H        2.2520     4.0720    -2.1490 H     1 <1>   0.0800 
 40 H       -5.2980    -1.8850    -0.3580 H     1 <1>   0.0800 
 41 H       -4.7170    -2.8840     0.9540 H     1 <1>   0.0800 
 42 H       -5.6350    -3.6010    -0.3480 H     1 <1>   0.0800 
@<TRIPOS>BOND
  1   1   2  2   
  2   1   3  2   
  3   1   4  am  
  4   1   5  1   
  5   4   6  1   
  6   4   7  1   
  7   5   8  1   
  8   5   9  2   
  9   6  10  1   
 10   6  23  1   
 11   6  24  1   
 12   7  11  1   
 13   7  25  1   
 14   7  26  1   
 15   8  12  1   
 16   9  13  1   
 17   9  27  1   
 18  10  14  1   
 19  10  15  1   
 20  10  28  1   
 21  11  16  1   
 22  11  17  1   
 23  11  29  1   
 24  12  13  2   
 25  12  18  1   
 26  13  30  1   
 27  14  16  am  
 28  14  19  1   
 29  15  20  1   
 30  15  31  1   
 31  15  32  1   
 32  16  21  2   
 33  17  20  1   
 34  17  33  1   
 35  17  34  1   
 36  18  22  1   
 37  18  35  1   
 38  18  36  1   
 39  19  37  1   
 40  19  38  1   
 41  19  39  1   
 42  22  40  1   
 43  22  41  1   
 44  22  42  1   
@<TRIPOS>SUBSTRUCTURE
  1 ****   4 GROUP 4 **** **** 0

# MOE 2024.06 (io_trps.svl 2023.06)
