@<TRIPOS>MOLECULE
NONAME
48 50 1 0 0 
SMALL
USER_CHARGES


@<TRIPOS>ATOM
  1 F        0.1430    -2.3480     1.8800 F     1 <1>  -0.1900 
  2 C       -0.5720    -3.1340     1.1170 C.ar  1 <1>   0.1900 
  3 C       -0.7510    -2.8820    -0.2480 C.ar  1 <1>   0.0830 
  4 C       -1.1420    -4.2330     1.7300 C.ar  1 <1>  -0.1500 
  5 O       -0.2410    -1.8380    -0.9640 O.3   1 <1>  -0.3630 
  6 C       -1.5250    -3.7760    -0.9700 C.ar  1 <1>  -0.1500 
  7 C       -1.9080    -5.1050     0.9790 C.ar  1 <1>  -0.1500 
  8 C        0.5200    -0.8040    -0.3790 C.3   1 <1>   0.0400 
  9 C       -2.1210    -4.8950    -0.3850 C.ar  1 <1>   0.0530 
 10 C       -2.9260    -5.7960    -1.1740 C.2   1 <1>   0.0870 
 11 O       -2.6700    -5.9700    -2.4490 O.3   1 <1>  -0.0190 
 12 C       -3.9970    -6.5750    -0.8840 C.2   1 <1>  -0.2330 
 13 N       -3.4910    -6.8130    -3.0200 N.2   1 <1>  -0.4100 
 14 C       -4.2970    -7.2000    -2.0960 C.2   1 <1>   0.3720 
 15 C       -4.7120    -6.7580     0.3280 C.2   1 <1>   1.0330 
 16 N       -5.3320    -8.1080    -2.3640 N.pl3 1 <1>  -0.8210 
 17 O       -4.2700    -7.4790     1.2360 O.co2 1 <1>  -0.9000 
 18 O       -5.8790    -6.3570     0.4780 O.co2 1 <1>  -0.9000 
 19 C       -5.5470    -9.2350    -1.4240 C.3   1 <1>   0.2090 
 20 C       -6.6200    -7.4640    -2.6990 C.3   1 <1>   0.2090 
 21 C       -7.0560    -9.3100    -1.1800 C.3   1 <1>  -0.0800 
 22 C       -7.6360    -7.9870    -1.6920 C.3   1 <1>  -0.1600 
 23 C       -7.4380    -9.7010     0.2600 C.3   1 <1>   0.3430 
 24 N       -7.1070    -8.6640     1.2770 N.4   1 <1>  -0.9590 
 25 C       -6.2420    -9.1700     2.3780 C.3   1 <1>   0.2630 
 26 C       -8.2790    -7.9190     1.8010 C.3   1 <1>   0.2630 
 27 H       -0.9880    -4.4050     2.7790 H     1 <1>   0.1500 
 28 H       -1.6720    -3.5940    -2.0200 H     1 <1>   0.1500 
 29 H       -2.3410    -5.9650     1.4590 H     1 <1>   0.1500 
 30 H        0.7710    -0.0970    -1.1490 H     1 <1>   0.0800 
 31 H        1.4190    -1.2240     0.0360 H     1 <1>   0.0800 
 32 H       -0.0690    -0.3230     0.3810 H     1 <1>   0.0800 
 33 H       -4.9960    -9.0960    -0.5140 H     1 <1>   0.0800 
 34 H       -5.1960   -10.1430    -1.8830 H     1 <1>   0.0800 
 35 H       -6.8960    -7.7500    -3.7000 H     1 <1>   0.0800 
 36 H       -6.5450    -6.3890    -2.6490 H     1 <1>   0.0800 
 37 H       -7.4200   -10.0890    -1.8250 H     1 <1>   0.0800 
 38 H       -8.6000    -8.1150    -2.1490 H     1 <1>   0.0800 
 39 H       -7.7270    -7.2570    -0.9120 H     1 <1>   0.0800 
 40 H       -6.9250   -10.6150     0.5080 H     1 <1>   0.0800 
 41 H       -8.4950    -9.9020     0.2960 H     1 <1>   0.0800 
 42 H       -6.5170    -7.9090     0.8280 H     1 <1>   0.4500 
 43 H       -6.7570    -9.9110     2.9650 H     1 <1>   0.0800 
 44 H       -5.9490    -8.3480     3.0120 H     1 <1>   0.0800 
 45 H       -5.3390    -9.5950     1.9690 H     1 <1>   0.0800 
 46 H       -8.9210    -8.5710     2.3670 H     1 <1>   0.0800 
 47 H       -8.8350    -7.4880     0.9850 H     1 <1>   0.0800 
 48 H       -7.9390    -7.1160     2.4350 H     1 <1>   0.0800 
@<TRIPOS>BOND
  1   1   2  1   
  2   2   3  ar  
  3   2   4  ar  
  4   3   5  1   
  5   3   6  ar  
  6   4   7  ar  
  7   4  27  1   
  8   5   8  1   
  9   6   9  ar  
 10   6  28  1   
 11   7   9  ar  
 12   7  29  1   
 13   8  30  1   
 14   8  31  1   
 15   8  32  1   
 16   9  10  1   
 17  10  11  1   
 18  10  12  2   
 19  11  13  1   
 20  12  14  1   
 21  12  15  1   
 22  13  14  2   
 23  14  16  1   
 24  15  17  ar  
 25  15  18  ar  
 26  16  19  1   
 27  16  20  1   
 28  19  21  1   
 29  19  33  1   
 30  19  34  1   
 31  20  22  1   
 32  20  35  1   
 33  20  36  1   
 34  21  22  1   
 35  21  23  1   
 36  21  37  1   
 37  22  38  1   
 38  22  39  1   
 39  23  24  1   
 40  23  40  1   
 41  23  41  1   
 42  24  25  1   
 43  24  26  1   
 44  24  42  1   
 45  25  43  1   
 46  25  44  1   
 47  25  45  1   
 48  26  46  1   
 49  26  47  1   
 50  26  48  1   
@<TRIPOS>SUBSTRUCTURE
  1 ****  12 GROUP 4 **** **** 0

# MOE 2024.06 (io_trps.svl 2023.06)
