@<TRIPOS>MOLECULE
NONAME
53 56 1 0 0 
SMALL
USER_CHARGES


@<TRIPOS>ATOM
  1 O       -1.5720    -3.8960    -1.9620 O.3   1 <1>  -0.5600 
  2 C       -2.1040    -4.9280    -1.1850 C.3   1 <1>   0.1200 
  3 C       -2.4530    -2.8310    -2.1680 C.3   1 <1>   0.1200 
  4 C       -2.5280    -4.3870     0.1930 C.3   1 <1>   0.1100 
  5 C       -2.8980    -2.2360    -0.8190 C.3   1 <1>   0.1100 
  6 N       -3.4980    -3.2710     0.0540 N.3   1 <1>  -0.8100 
  7 C       -3.8920    -2.6950     1.3670 C.3   1 <1>   0.1100 
  8 C       -4.8960    -3.6060     2.1060 C.3   1 <1>   0.3430 
  9 N       -5.7010    -4.3200     1.0820 N.4   1 <1>  -0.9590 
 10 C       -6.8370    -3.5730     0.4680 C.3   1 <1>   0.3430 
 11 C       -6.1820    -5.6780     1.4080 C.3   1 <1>   0.3430 
 12 C       -7.8650    -4.6450     0.0650 C.3   1 <1>   0.2000 
 13 C       -7.1560    -5.9870     0.2700 C.3   1 <1>  -0.0800 
 14 O       -8.9600    -4.5810     0.9170 O.3   1 <1>  -0.6800 
 15 C       -6.4190    -6.4180    -1.0200 C.3   1 <1>  -0.0170 
 16 C       -5.5290    -7.6290    -0.7950 C.ar  1 <1>   0.1670 
 17 N       -4.3480    -7.4210    -0.2930 N.ar  1 <1>  -0.6200 
 18 C       -6.0230    -8.8990    -1.1330 C.ar  1 <1>  -0.1500 
 19 C       -3.5510    -8.5080    -0.0920 C.ar  1 <1>   0.3100 
 20 C       -5.2470   -10.0000    -0.9400 C.ar  1 <1>  -0.1500 
 21 C       -3.9630    -9.8220    -0.4030 C.ar  1 <1>   0.0000 
 22 C       -2.2690    -8.3250     0.4520 C.ar  1 <1>  -0.1500 
 23 C       -3.0810   -10.8940    -0.1620 C.ar  1 <1>  -0.1500 
 24 C       -1.4260    -9.3810     0.6790 C.ar  1 <1>  -0.1500 
 25 C       -1.8380   -10.6790     0.3680 C.ar  1 <1>  -0.1500 
 26 H       -2.9420    -5.3600    -1.7050 H     1 <1>   0.0800 
 27 H       -1.3430    -5.6800    -1.0770 H     1 <1>   0.0800 
 28 H       -1.9380    -2.0900    -2.7530 H     1 <1>   0.0800 
 29 H       -3.3000    -3.1880    -2.7270 H     1 <1>   0.0800 
 30 H       -1.6470    -4.0510     0.7140 H     1 <1>   0.0800 
 31 H       -2.9670    -5.1890     0.7590 H     1 <1>   0.0800 
 32 H       -3.6150    -1.4550    -1.0040 H     1 <1>   0.0800 
 33 H       -2.0400    -1.7950    -0.3380 H     1 <1>   0.0800 
 34 H       -3.0250    -2.5170     1.9820 H     1 <1>   0.0800 
 35 H       -4.3720    -1.7450     1.2040 H     1 <1>   0.0800 
 36 H       -5.5210    -3.0360     2.7740 H     1 <1>   0.0800 
 37 H       -4.3390    -4.3220     2.6870 H     1 <1>   0.0800 
 38 H       -4.9950    -4.4160     0.3180 H     1 <1>   0.4500 
 39 H       -7.2810    -2.8840     1.1680 H     1 <1>   0.0800 
 40 H       -6.4900    -3.0350    -0.3990 H     1 <1>   0.0800 
 41 H       -5.3730    -6.3870     1.4720 H     1 <1>   0.0800 
 42 H       -6.7110    -5.6630     2.3460 H     1 <1>   0.0800 
 43 H       -8.2260    -4.5000    -0.9400 H     1 <1>   0.0800 
 44 H       -7.8430    -6.7670     0.5520 H     1 <1>   0.0800 
 45 H       -8.7540    -4.8560     1.8310 H     1 <1>   0.4000 
 46 H       -5.8050    -5.6180    -1.3960 H     1 <1>   0.0800 
 47 H       -7.1420    -6.6440    -1.7840 H     1 <1>   0.0800 
 48 H       -7.0120    -8.9950    -1.5450 H     1 <1>   0.1500 
 49 H       -5.5890   -10.9890    -1.1890 H     1 <1>   0.1500 
 50 H       -1.9580    -7.3280     0.6900 H     1 <1>   0.1500 
 51 H       -3.4030   -11.8920    -0.4040 H     1 <1>   0.1500 
 52 H       -0.4440    -9.2290     1.0950 H     1 <1>   0.1500 
 53 H       -1.1660   -11.5000     0.5510 H     1 <1>   0.1500 
@<TRIPOS>BOND
  1   1   2  1   
  2   1   3  1   
  3   2   4  1   
  4   2  26  1   
  5   2  27  1   
  6   3   5  1   
  7   3  28  1   
  8   3  29  1   
  9   4   6  1   
 10   4  30  1   
 11   4  31  1   
 12   5   6  1   
 13   5  32  1   
 14   5  33  1   
 15   6   7  1   
 16   7   8  1   
 17   7  34  1   
 18   7  35  1   
 19   8   9  1   
 20   8  36  1   
 21   8  37  1   
 22   9  10  1   
 23   9  11  1   
 24   9  38  1   
 25  10  12  1   
 26  10  39  1   
 27  10  40  1   
 28  11  13  1   
 29  11  41  1   
 30  11  42  1   
 31  12  13  1   
 32  12  14  1   
 33  12  43  1   
 34  13  15  1   
 35  13  44  1   
 36  14  45  1   
 37  15  16  1   
 38  15  46  1   
 39  15  47  1   
 40  16  17  ar  
 41  16  18  ar  
 42  17  19  ar  
 43  18  20  ar  
 44  18  48  1   
 45  19  21  ar  
 46  19  22  ar  
 47  20  21  ar  
 48  20  49  1   
 49  21  23  ar  
 50  22  24  ar  
 51  22  50  1   
 52  23  25  ar  
 53  23  51  1   
 54  24  25  ar  
 55  24  52  1   
 56  25  53  1   
@<TRIPOS>SUBSTRUCTURE
  1 ****  17 GROUP 4 **** **** 0

# MOE 2024.06 (io_trps.svl 2023.06)
