@<TRIPOS>MOLECULE
NONAME
49 51 1 0 0 
SMALL
USER_CHARGES


@<TRIPOS>ATOM
  1 N       -0.5570    -1.0040     0.8930 N.2   1 <1>  -0.3380 
  2 N        0.3590    -1.9360     0.6310 N.2   1 <1>  -0.3380 
  3 C       -1.6860    -1.4450     0.4620 C.2   1 <1>   0.0070 
  4 C       -0.2510    -2.9060     0.0510 C.2   1 <1>   0.0360 
  5 N       -1.5570    -2.6610    -0.0790 N.pl3 1 <1>   0.0480 
  6 C       -2.9800    -0.6590     0.5690 C.3   1 <1>  -0.0600 
  7 C       -2.5860    -3.5680    -0.6070 C.3   1 <1>   0.0960 
  8 C       -3.0810    -4.4480     0.5490 C.3   1 <1>   0.3430 
  9 N       -4.1890    -5.3770     0.1500 N.4   1 <1>  -0.9590 
 10 C       -4.7920    -6.0200     1.3580 C.3   1 <1>   0.4860 
 11 C       -3.7590    -6.4170    -0.8490 C.3   1 <1>   0.2630 
 12 C       -6.0980    -6.6630     0.9410 C.ar  1 <1>  -0.1440 
 13 C       -6.1200    -8.0020     0.5890 C.ar  1 <1>  -0.1500 
 14 C       -7.2710    -5.9240     0.8800 C.ar  1 <1>  -0.1500 
 15 C       -7.2840    -8.6090     0.1320 C.ar  1 <1>  -0.0230 
 16 C       -8.4410    -6.5200     0.4420 C.ar  1 <1>  -0.1500 
 17 N       -7.2410    -9.9700    -0.2830 N.pl3 1 <1>   0.5930 
 18 C       -8.4460    -7.8490     0.0610 C.ar  1 <1>  -0.1500 
 19 N       -6.2740   -10.4080    -1.1300 N.2   1 <1>  -0.7070 
 20 C       -8.0230   -11.0140     0.1100 C.2   1 <1>  -0.3320 
 21 C       -6.4800   -11.6770    -1.2650 C.2   1 <1>   0.1080 
 22 C       -7.5600   -12.1170    -0.5110 C.2   1 <1>  -0.1500 
 23 C       -9.1830   -10.9210     1.0900 C.3   1 <1>  -0.0600 
 24 C       -5.6210   -12.5530    -2.1470 C.3   1 <1>  -0.0590 
 25 H        0.2300    -3.8060    -0.2860 H     1 <1>   0.1500 
 26 H       -2.7840     0.2940     1.0280 H     1 <1>   0.0800 
 27 H       -3.6950    -1.1850     1.1730 H     1 <1>   0.0800 
 28 H       -3.3890    -0.4810    -0.4090 H     1 <1>   0.0800 
 29 H       -2.1470    -4.1640    -1.3860 H     1 <1>   0.0800 
 30 H       -3.3900    -2.9820    -1.0130 H     1 <1>   0.0800 
 31 H       -3.4300    -3.8000     1.3380 H     1 <1>   0.0800 
 32 H       -2.2530    -5.0220     0.9330 H     1 <1>   0.0800 
 33 H       -4.9650    -4.8470    -0.2760 H     1 <1>   0.4500 
 34 H       -4.9900    -5.2820     2.1190 H     1 <1>   0.0800 
 35 H       -4.1260    -6.7640     1.7640 H     1 <1>   0.0800 
 36 H       -3.0060    -7.0620    -0.4250 H     1 <1>   0.0800 
 37 H       -3.3580    -5.9530    -1.7350 H     1 <1>   0.0800 
 38 H       -4.6000    -7.0260    -1.1460 H     1 <1>   0.0800 
 39 H       -5.2280    -8.6050     0.6450 H     1 <1>   0.1500 
 40 H       -7.2950    -4.8860     1.1670 H     1 <1>   0.1500 
 41 H       -9.3530    -5.9470     0.3910 H     1 <1>   0.1500 
 42 H       -9.3570    -8.2950    -0.3010 H     1 <1>   0.1500 
 43 H       -7.9200   -13.1290    -0.4530 H     1 <1>   0.1500 
 44 H       -8.8680   -10.4390     1.9990 H     1 <1>   0.0800 
 45 H       -9.5400   -11.9060     1.3340 H     1 <1>   0.0800 
 46 H       -9.9960   -10.3650     0.6600 H     1 <1>   0.0800 
 47 H       -5.6320   -12.1720    -3.1510 H     1 <1>   0.0800 
 48 H       -5.9910   -13.5610    -2.1500 H     1 <1>   0.0800 
 49 H       -4.6100   -12.5500    -1.7830 H     1 <1>   0.0800 
@<TRIPOS>BOND
  1   1   2  1   
  2   1   3  2   
  3   2   4  2   
  4   3   5  1   
  5   3   6  1   
  6   4   5  1   
  7   4  25  1   
  8   5   7  1   
  9   6  26  1   
 10   6  27  1   
 11   6  28  1   
 12   7   8  1   
 13   7  29  1   
 14   7  30  1   
 15   8   9  1   
 16   8  31  1   
 17   8  32  1   
 18   9  10  1   
 19   9  11  1   
 20   9  33  1   
 21  10  12  1   
 22  10  34  1   
 23  10  35  1   
 24  11  36  1   
 25  11  37  1   
 26  11  38  1   
 27  12  13  ar  
 28  12  14  ar  
 29  13  15  ar  
 30  13  39  1   
 31  14  16  ar  
 32  14  40  1   
 33  15  17  1   
 34  15  18  ar  
 35  16  18  ar  
 36  16  41  1   
 37  17  19  1   
 38  17  20  1   
 39  18  42  1   
 40  19  21  2   
 41  20  22  2   
 42  20  23  1   
 43  21  22  1   
 44  21  24  1   
 45  22  43  1   
 46  23  44  1   
 47  23  45  1   
 48  23  46  1   
 49  24  47  1   
 50  24  48  1   
 51  24  49  1   
@<TRIPOS>SUBSTRUCTURE
  1 ****  10 GROUP 4 **** **** 0

# MOE 2024.06 (io_trps.svl 2023.06)
