@<TRIPOS>MOLECULE
NONAME
43 44 1 0 0 
SMALL
USER_CHARGES


@<TRIPOS>ATOM
  1 O       -1.6510    -0.1350    -1.4880 O.2   1 <1>  -0.5700 
  2 C       -1.9630     0.6270    -0.5890 C.2   1 <1>   0.5440 
  3 N       -2.4370     0.0860     0.5860 N.am  1 <1>  -0.6600 
  4 C       -1.8630     2.0540    -0.8040 C.ar  1 <1>   0.0860 
  5 C       -2.3380    -1.3790     0.8520 C.3   1 <1>   0.3200 
  6 C       -3.2250     0.8680     1.5840 C.3   1 <1>   0.1400 
  7 C       -1.0330     2.8760    -0.0300 C.ar  1 <1>   0.0830 
  8 C       -2.6120     2.6630    -1.8120 C.ar  1 <1>  -0.1500 
  9 C       -3.5230    -2.1050     0.2410 C.2   1 <1>   0.0060 
 10 C       -4.6990     0.9390     1.1700 C.3   1 <1>   0.1200 
 11 O       -0.2650     2.3690     0.9540 O.3   1 <1>  -0.3630 
 12 C       -0.9920     4.2460    -0.2350 C.ar  1 <1>  -0.1500 
 13 C       -2.5620     4.0280    -2.0260 C.ar  1 <1>  -0.1500 
 14 N       -4.4280    -2.7560     0.9000 N.2   1 <1>  -0.5650 
 15 N       -3.7180    -2.1060    -1.0930 N.pl3 1 <1>   0.0330 
 16 O       -5.4170     1.6210     2.1420 O.3   1 <1>  -0.6800 
 17 C        0.8640     1.6060     0.5870 C.3   1 <1>   0.1200 
 18 C       -1.7530     4.8240    -1.2330 C.ar  1 <1>  -0.1500 
 19 C       -5.2580    -3.2090    -0.0610 C.2   1 <1>   0.0770 
 20 C       -4.8400    -2.8200    -1.2860 C.2   1 <1>  -0.3020 
 21 C        1.2160     0.6880     1.7570 C.3   1 <1>  -0.1600 
 22 C        2.4120    -0.2090     1.4210 C.3   1 <1>  -0.2400 
 23 H       -2.3110    -1.5620     1.9110 H     1 <1>   0.0800 
 24 H       -1.4270    -1.7640     0.4270 H     1 <1>   0.0800 
 25 H       -2.8330     1.8670     1.6630 H     1 <1>   0.0800 
 26 H       -3.1430     0.4010     2.5500 H     1 <1>   0.0800 
 27 H       -3.2410     2.0490    -2.4330 H     1 <1>   0.1500 
 28 H       -5.1260    -0.0440     1.0660 H     1 <1>   0.0800 
 29 H       -4.8020     1.4800     0.2460 H     1 <1>   0.0800 
 30 H       -0.3600     4.8520     0.3890 H     1 <1>   0.1500 
 31 H       -3.1520     4.4750    -2.8080 H     1 <1>   0.1500 
 32 H       -3.1120    -1.6200    -1.7710 H     1 <1>   0.2700 
 33 H       -5.5610     1.0510     2.9230 H     1 <1>   0.4000 
 34 H        1.6690     2.2870     0.3700 H     1 <1>   0.0800 
 35 H        0.6380     1.0280    -0.2920 H     1 <1>   0.0800 
 36 H       -1.7180     5.8880    -1.3930 H     1 <1>   0.1500 
 37 H       -6.1250    -3.8000     0.1830 H     1 <1>   0.1500 
 38 H       -5.2660    -3.0060    -2.2550 H     1 <1>   0.1500 
 39 H        0.3650     0.0710     1.9880 H     1 <1>   0.0800 
 40 H        1.4500     1.2880     2.6200 H     1 <1>   0.0800 
 41 H        2.1910    -0.8270     0.5690 H     1 <1>   0.0800 
 42 H        2.6390    -0.8470     2.2570 H     1 <1>   0.0800 
 43 H        3.2800     0.3880     1.2020 H     1 <1>   0.0800 
@<TRIPOS>BOND
  1   1   2  2   
  2   2   3  am  
  3   2   4  1   
  4   3   5  1   
  5   3   6  1   
  6   4   7  ar  
  7   4   8  ar  
  8   5   9  1   
  9   5  23  1   
 10   5  24  1   
 11   6  10  1   
 12   6  25  1   
 13   6  26  1   
 14   7  11  1   
 15   7  12  ar  
 16   8  13  ar  
 17   8  27  1   
 18   9  14  2   
 19   9  15  1   
 20  10  16  1   
 21  10  28  1   
 22  10  29  1   
 23  11  17  1   
 24  12  18  ar  
 25  12  30  1   
 26  13  18  ar  
 27  13  31  1   
 28  14  19  1   
 29  15  20  1   
 30  15  32  1   
 31  16  33  1   
 32  17  21  1   
 33  17  34  1   
 34  17  35  1   
 35  18  36  1   
 36  19  20  2   
 37  19  37  1   
 38  20  38  1   
 39  21  22  1   
 40  21  39  1   
 41  21  40  1   
 42  22  41  1   
 43  22  42  1   
 44  22  43  1   
@<TRIPOS>SUBSTRUCTURE
  1 ****   2 GROUP 4 **** **** 0

# MOE 2024.06 (io_trps.svl 2023.06)
