@<TRIPOS>MOLECULE
NONAME
27 28 1 0 0 
SMALL
USER_CHARGES


@<TRIPOS>ATOM
  1 F       -0.7200     1.1070    -0.5180 F     1 <1>  -0.3400 
  2 C       -1.7770     1.0120     0.2810 C.3   1 <1>   1.1640 
  3 F       -1.6710    -0.1650     0.8880 F     1 <1>  -0.3400 
  4 F       -1.6110     1.9330     1.2220 F     1 <1>  -0.3400 
  5 C       -3.1020     1.1900    -0.4740 C.ar  1 <1>  -0.1440 
  6 C       -4.2380     0.4780    -0.1010 C.ar  1 <1>  -0.1500 
  7 C       -3.1940     2.0760    -1.5430 C.ar  1 <1>  -0.1500 
  8 C       -5.4350     0.6360    -0.7800 C.ar  1 <1>  -0.0320 
  9 C       -4.3890     2.2430    -2.2210 C.ar  1 <1>  -0.1500 
 10 C       -5.5060     1.5240    -1.8380 C.ar  1 <1>  -0.1500 
 11 C       -6.6660    -0.1530    -0.3560 C.3   1 <1>  -0.0630 
 12 C       -7.3440    -0.9930    -1.3930 C.3   1 <1>  -0.2000 
 13 C       -6.5510    -1.6450    -0.2970 C.3   1 <1>  -0.2000 
 14 C       -7.4920     0.6130     0.6970 C.3   1 <1>  -0.1710 
 15 C       -8.7470    -0.0730     1.1940 C.2   1 <1>   0.9060 
 16 O       -9.8150     0.1400     0.6080 O.co2 1 <1>  -0.9000 
 17 O       -8.6750    -0.7980     2.1940 O.co2 1 <1>  -0.9000 
 18 H       -4.2120    -0.2100     0.7270 H     1 <1>   0.1500 
 19 H       -2.3350     2.6460    -1.8540 H     1 <1>   0.1500 
 20 H       -4.4530     2.9310    -3.0450 H     1 <1>   0.1500 
 21 H       -6.4400     1.6500    -2.3570 H     1 <1>   0.1500 
 22 H       -6.9500    -1.0100    -2.3930 H     1 <1>   0.1000 
 23 H       -8.4180    -1.0770    -1.3710 H     1 <1>   0.1000 
 24 H       -7.0820    -2.1750     0.4760 H     1 <1>   0.1000 
 25 H       -5.6150    -2.1100    -0.5470 H     1 <1>   0.1000 
 26 H       -7.7900     1.5580     0.2880 H     1 <1>   0.0800 
 27 H       -6.8770     0.8040     1.5540 H     1 <1>   0.0800 
@<TRIPOS>BOND
  1   1   2  1   
  2   2   3  1   
  3   2   4  1   
  4   2   5  1   
  5   5   6  ar  
  6   5   7  ar  
  7   6   8  ar  
  8   6  18  1   
  9   7   9  ar  
 10   7  19  1   
 11   8  10  ar  
 12   8  11  1   
 13   9  10  ar  
 14   9  20  1   
 15  10  21  1   
 16  11  12  1   
 17  11  13  1   
 18  11  14  1   
 19  12  13  1   
 20  12  22  1   
 21  12  23  1   
 22  13  24  1   
 23  13  25  1   
 24  14  15  1   
 25  14  26  1   
 26  14  27  1   
 27  15  16  ar  
 28  15  17  ar  
@<TRIPOS>SUBSTRUCTURE
  1 ****   8 GROUP 4 **** **** 0

# MOE 2024.06 (io_trps.svl 2023.06)
