@<TRIPOS>MOLECULE
NONAME
50 52 1 0 0 
SMALL
USER_CHARGES


@<TRIPOS>ATOM
  1 O       -0.4930    -1.0740    -2.2740 O.2   1 <1>  -0.5700 
  2 C       -1.2030    -0.1230    -2.0390 C.2   1 <1>   0.5690 
  3 N       -2.4600    -0.2880    -1.5180 N.am  1 <1>  -0.6600 
  4 C       -0.6520     1.2640    -2.3530 C.3   1 <1>   0.0440 
  5 C       -3.3660     0.7760    -1.0320 C.3   1 <1>   0.1400 
  6 C       -2.9670    -1.6100    -1.0860 C.3   1 <1>   0.1400 
  7 C       -0.4010     2.1190    -1.1110 C.ar  1 <1>  -0.1440 
  8 C       -4.0090     0.1730     0.2180 C.3   1 <1>  -0.0800 
  9 C       -4.1220    -1.3270    -0.1150 C.3   1 <1>  -0.0800 
 10 C       -0.7960     3.4480    -1.0860 C.ar  1 <1>  -0.1500 
 11 C        0.2070     1.5720     0.0090 C.ar  1 <1>  -0.1500 
 12 C       -5.3220     0.8540     0.7060 C.3   1 <1>   0.2800 
 13 C       -5.4960    -1.6520    -0.7210 C.3   1 <1>  -0.1600 
 14 C       -0.6040     4.2190     0.0470 C.ar  1 <1>  -0.1500 
 15 C        0.4010     2.3410     1.1430 C.ar  1 <1>  -0.1500 
 16 O       -5.9690     1.4610    -0.3550 O.3   1 <1>  -0.6800 
 17 C       -6.2900    -0.2060     1.2630 C.3   1 <1>  -0.1600 
 18 C       -5.0660     1.9480     1.7660 C.3   1 <1>  -0.1600 
 19 C       -6.6440    -1.3180     0.2510 C.3   1 <1>  -0.1600 
 20 C       -0.0060     3.6640     1.1740 C.ar  1 <1>   0.0830 
 21 C       -4.1430     3.1000     1.3300 C.3   1 <1>  -0.2400 
 22 O        0.2090     4.3440     2.3280 O.3   1 <1>  -0.3630 
 23 C       -0.1750     5.6940     2.4650 C.3   1 <1>   0.0400 
 24 H        0.2740     1.1520    -2.8850 H     1 <1>   0.0800 
 25 H       -1.3450     1.7540    -3.0090 H     1 <1>   0.0800 
 26 H       -2.8540     1.6870    -0.7990 H     1 <1>   0.0800 
 27 H       -4.0990     0.9660    -1.7970 H     1 <1>   0.0800 
 28 H       -3.2920    -2.1760    -1.9420 H     1 <1>   0.0800 
 29 H       -2.1780    -2.1470    -0.5870 H     1 <1>   0.0800 
 30 H       -3.2840     0.2480     1.0090 H     1 <1>   0.0800 
 31 H       -3.9910    -1.9200     0.7740 H     1 <1>   0.0800 
 32 H       -1.2620     3.8910    -1.9490 H     1 <1>   0.1500 
 33 H        0.5290     0.5440     0.0060 H     1 <1>   0.1500 
 34 H       -5.6230    -1.0710    -1.6190 H     1 <1>   0.0800 
 35 H       -5.5480    -2.6910    -0.9960 H     1 <1>   0.0800 
 36 H       -0.9250     5.2430     0.0330 H     1 <1>   0.1500 
 37 H        0.8680     1.9160     2.0130 H     1 <1>   0.1500 
 38 H       -6.8190     1.8210    -0.0480 H     1 <1>   0.4000 
 39 H       -5.8180    -0.6660     2.1130 H     1 <1>   0.0800 
 40 H       -7.1920     0.2570     1.6230 H     1 <1>   0.0800 
 41 H       -6.0100     2.3630     2.0730 H     1 <1>   0.0800 
 42 H       -4.6330     1.4880     2.6370 H     1 <1>   0.0800 
 43 H       -6.9220    -2.2030     0.7970 H     1 <1>   0.0800 
 44 H       -7.4990    -1.0150    -0.3280 H     1 <1>   0.0800 
 45 H       -4.4940     3.5480     0.4170 H     1 <1>   0.0800 
 46 H       -3.1360     2.7510     1.1820 H     1 <1>   0.0800 
 47 H       -4.1190     3.8580     2.0930 H     1 <1>   0.0800 
 48 H        0.0890     6.0170     3.4560 H     1 <1>   0.0800 
 49 H       -1.2380     5.7700     2.3260 H     1 <1>   0.0800 
 50 H        0.3540     6.2820     1.7360 H     1 <1>   0.0800 
@<TRIPOS>BOND
  1   1   2  2   
  2   2   3  am  
  3   2   4  1   
  4   3   5  1   
  5   3   6  1   
  6   4   7  1   
  7   4  24  1   
  8   4  25  1   
  9   5   8  1   
 10   5  26  1   
 11   5  27  1   
 12   6   9  1   
 13   6  28  1   
 14   6  29  1   
 15   7  10  ar  
 16   7  11  ar  
 17   8   9  1   
 18   8  12  1   
 19   8  30  1   
 20   9  13  1   
 21   9  31  1   
 22  10  14  ar  
 23  10  32  1   
 24  11  15  ar  
 25  11  33  1   
 26  12  16  1   
 27  12  17  1   
 28  12  18  1   
 29  13  19  1   
 30  13  34  1   
 31  13  35  1   
 32  14  20  ar  
 33  14  36  1   
 34  15  20  ar  
 35  15  37  1   
 36  16  38  1   
 37  17  19  1   
 38  17  39  1   
 39  17  40  1   
 40  18  21  1   
 41  18  41  1   
 42  18  42  1   
 43  19  43  1   
 44  19  44  1   
 45  20  22  1   
 46  21  45  1   
 47  21  46  1   
 48  21  47  1   
 49  22  23  1   
 50  23  48  1   
 51  23  49  1   
 52  23  50  1   
@<TRIPOS>SUBSTRUCTURE
  1 ****   5 GROUP 4 **** **** 0

# MOE 2024.06 (io_trps.svl 2023.06)
