@<TRIPOS>MOLECULE
NONAME
44 46 1 0 0 
SMALL
USER_CHARGES


@<TRIPOS>ATOM
  1 O        0.1030     0.3110    -0.2520 O.3   1 <1>  -0.5600 
  2 C        1.3160    -0.2920    -0.6140 C.3   1 <1>   0.3440 
  3 C        0.0250     1.6740    -0.5700 C.3   1 <1>   0.2000 
  4 C        1.2910    -1.7630    -0.2090 C.ar  1 <1>  -0.1440 
  5 C        2.4930     0.4380     0.0660 C.3   1 <1>   0.1100 
  6 C       -1.3840     2.2010    -0.2100 C.3   1 <1>  -0.0800 
  7 C        1.1650     2.4420     0.1350 C.3   1 <1>   0.1100 
  8 C        1.8910    -2.7140    -1.0230 C.ar  1 <1>  -0.1500 
  9 C        0.6890    -2.1720     0.9730 C.ar  1 <1>  -0.1500 
 10 N        2.4920     1.8900    -0.2250 N.3   1 <1>  -0.8100 
 11 C       -1.7450     2.0250     1.2760 C.3   1 <1>  -0.2400 
 12 C       -2.4570     1.5240    -1.0770 C.3   1 <1>  -0.2400 
 13 C        1.8910    -4.0500    -0.6600 C.ar  1 <1>  -0.1500 
 14 C        0.6880    -3.5070     1.3380 C.ar  1 <1>  -0.1500 
 15 C        3.5620     2.5720     0.5350 C.3   1 <1>   0.2900 
 16 C        1.2910    -4.4470     0.5210 C.ar  1 <1>  -0.1500 
 17 C        3.7300     4.0090     0.0690 C.2   1 <1>   0.0070 
 18 N        3.9560     5.0230     0.8430 N.2   1 <1>  -0.5650 
 19 N        3.6490     4.3340    -1.2370 N.pl3 1 <1>   0.0330 
 20 C        4.0280     6.0650    -0.0080 C.2   1 <1>   0.0770 
 21 C        3.8420     5.6640    -1.2840 C.2   1 <1>  -0.3020 
 22 H        1.4130    -0.2170    -1.6830 H     1 <1>   0.0800 
 23 H        0.1600     1.7700    -1.6340 H     1 <1>   0.0800 
 24 H        3.4140     0.0030    -0.2800 H     1 <1>   0.0800 
 25 H        2.4260     0.2740     1.1280 H     1 <1>   0.0800 
 26 H       -1.4060     3.2540    -0.4340 H     1 <1>   0.0800 
 27 H        1.0270     2.3850     1.2010 H     1 <1>   0.0800 
 28 H        1.1140     3.4790    -0.1480 H     1 <1>   0.0800 
 29 H        2.3600    -2.4210    -1.9450 H     1 <1>   0.1500 
 30 H        0.2140    -1.4460     1.6100 H     1 <1>   0.1500 
 31 H       -1.7000     0.9860     1.5520 H     1 <1>   0.0800 
 32 H       -2.7430     2.3820     1.4620 H     1 <1>   0.0800 
 33 H       -1.0740     2.5790     1.9060 H     1 <1>   0.0800 
 34 H       -2.4880     0.4670    -0.8770 H     1 <1>   0.0800 
 35 H       -2.2420     1.6670    -2.1210 H     1 <1>   0.0800 
 36 H       -3.4270     1.9400    -0.8710 H     1 <1>   0.0800 
 37 H        2.3570    -4.7820    -1.2970 H     1 <1>   0.1500 
 38 H        0.2170    -3.8120     2.2550 H     1 <1>   0.1500 
 39 H        3.3420     2.5590     1.5890 H     1 <1>   0.0800 
 40 H        4.4950     2.0600     0.3800 H     1 <1>   0.0800 
 41 H        1.2900    -5.4860     0.8040 H     1 <1>   0.1500 
 42 H        3.4500     3.6730    -1.9930 H     1 <1>   0.2700 
 43 H        4.2120     7.0650     0.3500 H     1 <1>   0.1500 
 44 H        3.8350     6.2350    -2.1940 H     1 <1>   0.1500 
@<TRIPOS>BOND
  1   1   2  1   
  2   1   3  1   
  3   2   4  1   
  4   2   5  1   
  5   2  22  1   
  6   3   6  1   
  7   3   7  1   
  8   3  23  1   
  9   4   8  ar  
 10   4   9  ar  
 11   5  10  1   
 12   5  24  1   
 13   5  25  1   
 14   6  11  1   
 15   6  12  1   
 16   6  26  1   
 17   7  10  1   
 18   7  27  1   
 19   7  28  1   
 20   8  13  ar  
 21   8  29  1   
 22   9  14  ar  
 23   9  30  1   
 24  10  15  1   
 25  11  31  1   
 26  11  32  1   
 27  11  33  1   
 28  12  34  1   
 29  12  35  1   
 30  12  36  1   
 31  13  16  ar  
 32  13  37  1   
 33  14  16  ar  
 34  14  38  1   
 35  15  17  1   
 36  15  39  1   
 37  15  40  1   
 38  16  41  1   
 39  17  18  2   
 40  17  19  1   
 41  18  20  1   
 42  19  21  1   
 43  19  42  1   
 44  20  21  2   
 45  20  43  1   
 46  21  44  1   
@<TRIPOS>SUBSTRUCTURE
  1 ****   5 GROUP 4 **** **** 0

# MOE 2024.06 (io_trps.svl 2023.06)
