@<TRIPOS>MOLECULE
NONAME
59 62 1 0 0 
SMALL
USER_CHARGES


@<TRIPOS>ATOM
  1 N        1.1770     0.5750    -1.2030 N.ar  1 <1>  -0.1790 
  2 C        0.2840     1.5760    -1.3890 C.ar  1 <1>   0.2180 
  3 C        2.2890     0.7690    -0.4530 C.ar  1 <1>   0.2110 
  4 C        0.5040     2.8030    -0.8150 C.ar  1 <1>  -0.1500 
  5 C       -0.9470     1.2920    -2.2350 C.3   1 <1>  -0.0970 
  6 C        2.5310     1.9880     0.1300 C.ar  1 <1>  -0.1500 
  7 C        1.6420     3.0620    -0.0310 C.ar  1 <1>   0.1000 
  8 N        1.8650     4.2820     0.5500 N.pl3 1 <1>  -0.8380 
  9 C        2.4590     4.4010     1.9250 C.3   1 <1>   0.2090 
 10 C        1.2180     5.5260     0.0210 C.3   1 <1>   0.2090 
 11 C        3.9380     4.8470     1.8900 C.3   1 <1>   0.3430 
 12 C        2.0570     6.7860     0.2410 C.3   1 <1>  -0.1600 
 13 N        4.1760     6.2520     1.4050 N.4   1 <1>  -0.9590 
 14 C        3.5560     6.5490     0.0760 C.3   1 <1>   0.3430 
 15 C        5.6240     6.5650     1.3830 C.3   1 <1>   0.5230 
 16 C        5.7890     8.0580     1.2120 C.2   1 <1>  -0.3320 
 17 N        6.8410     8.6390     0.5860 N.pl3 1 <1>   0.0480 
 18 C        4.9830     9.0680     1.6190 C.2   1 <1>   0.0770 
 19 C        6.5760     9.9650     0.6470 C.2   1 <1>   0.0360 
 20 C        8.0400     8.0160    -0.0420 C.3   1 <1>   0.1760 
 21 N        5.4740    10.2570     1.2530 N.2   1 <1>  -0.5650 
 22 C        9.3310     8.5330     0.6140 C.3   1 <1>  -0.1600 
 23 C        8.0460     8.2690    -1.5590 C.3   1 <1>  -0.1600 
 24 C       10.5700     7.9070    -0.0430 C.3   1 <1>  -0.1600 
 25 C        9.2860     7.6450    -2.2170 C.3   1 <1>  -0.1600 
 26 C       10.5770     8.1490    -1.5580 C.3   1 <1>  -0.1600 
 27 H        1.0030    -0.3390    -1.6340 H     1 <1>   0.4570 
 28 H        2.9760    -0.0530    -0.3270 H     1 <1>   0.1500 
 29 H       -0.2220     3.5820    -0.9550 H     1 <1>   0.1500 
 30 H       -1.5280     0.4980    -1.8000 H     1 <1>   0.0800 
 31 H       -0.6610     1.0120    -3.2340 H     1 <1>   0.0800 
 32 H       -1.5730     2.1650    -2.3000 H     1 <1>   0.0800 
 33 H        3.4210     2.1230     0.7130 H     1 <1>   0.1500 
 34 H        2.4020     3.4440     2.4140 H     1 <1>   0.0800 
 35 H        1.8800     5.0860     2.5210 H     1 <1>   0.0800 
 36 H        0.2500     5.6520     0.4790 H     1 <1>   0.0800 
 37 H        1.0670     5.4120    -1.0400 H     1 <1>   0.0800 
 38 H        4.4740     4.1570     1.2600 H     1 <1>   0.0800 
 39 H        4.3370     4.7530     2.8870 H     1 <1>   0.0800 
 40 H        1.8360     7.2240     1.1970 H     1 <1>   0.0800 
 41 H        1.7490     7.5030    -0.4990 H     1 <1>   0.0800 
 42 H        3.7660     6.9090     2.0770 H     1 <1>   0.4500 
 43 H        3.9930     7.4490    -0.3300 H     1 <1>   0.0800 
 44 H        3.7340     5.7440    -0.6190 H     1 <1>   0.0800 
 45 H        6.0950     6.0430     0.5660 H     1 <1>   0.0800 
 46 H        6.0930     6.2590     2.3050 H     1 <1>   0.0800 
 47 H        4.0550     9.0260     2.1650 H     1 <1>   0.1500 
 48 H        7.2370    10.7010     0.2220 H     1 <1>   0.1500 
 49 H        7.9950     6.9550     0.1170 H     1 <1>   0.0800 
 50 H        9.3290     8.2960     1.6630 H     1 <1>   0.0800 
 51 H        9.3930     9.6030     0.5090 H     1 <1>   0.0800 
 52 H        8.0530     9.3280    -1.7520 H     1 <1>   0.0800 
 53 H        7.1610     7.8500    -2.0060 H     1 <1>   0.0800 
 54 H       10.5870     6.8480     0.1490 H     1 <1>   0.0800 
 55 H       11.4610     8.3310     0.3910 H     1 <1>   0.0800 
 56 H        9.3010     7.8910    -3.2650 H     1 <1>   0.0800 
 57 H        9.2400     6.5720    -2.1340 H     1 <1>   0.0800 
 58 H       11.4240     7.6510    -1.9980 H     1 <1>   0.0800 
 59 H       10.6860     9.2040    -1.7500 H     1 <1>   0.0800 
@<TRIPOS>BOND
  1   1   2  ar  
  2   1   3  ar  
  3   1  27  1   
  4   2   4  ar  
  5   2   5  1   
  6   3   6  ar  
  7   3  28  1   
  8   4   7  ar  
  9   4  29  1   
 10   5  30  1   
 11   5  31  1   
 12   5  32  1   
 13   6   7  ar  
 14   6  33  1   
 15   7   8  1   
 16   8   9  1   
 17   8  10  1   
 18   9  11  1   
 19   9  34  1   
 20   9  35  1   
 21  10  12  1   
 22  10  36  1   
 23  10  37  1   
 24  11  13  1   
 25  11  38  1   
 26  11  39  1   
 27  12  14  1   
 28  12  40  1   
 29  12  41  1   
 30  13  14  1   
 31  13  15  1   
 32  13  42  1   
 33  14  43  1   
 34  14  44  1   
 35  15  16  1   
 36  15  45  1   
 37  15  46  1   
 38  16  17  1   
 39  16  18  2   
 40  17  19  1   
 41  17  20  1   
 42  18  21  1   
 43  18  47  1   
 44  19  21  2   
 45  19  48  1   
 46  20  22  1   
 47  20  23  1   
 48  20  49  1   
 49  22  24  1   
 50  22  50  1   
 51  22  51  1   
 52  23  25  1   
 53  23  52  1   
 54  23  53  1   
 55  24  26  1   
 56  24  54  1   
 57  24  55  1   
 58  25  26  1   
 59  25  56  1   
 60  25  57  1   
 61  26  58  1   
 62  26  59  1   
@<TRIPOS>SUBSTRUCTURE
  1 ****  14 GROUP 4 **** **** 0

# MOE 2024.06 (io_trps.svl 2023.06)
