@<TRIPOS>MOLECULE
NONAME
51 53 1 0 0 
SMALL
USER_CHARGES


@<TRIPOS>ATOM
  1 O       -1.6200    -0.0050    -1.4260 O.2   1 <1>  -0.5700 
  2 C       -2.1060     0.9500    -0.8260 C.2   1 <1>   0.5440 
  3 N       -3.3030     0.7130    -0.1460 N.am  1 <1>  -0.6600 
  4 C       -1.4350     2.2330    -0.8830 C.ar  1 <1>   0.3960 
  5 C       -3.8150    -0.6710     0.0930 C.3   1 <1>   0.1400 
  6 C       -4.2060     1.8080     0.3030 C.3   1 <1>   0.1400 
  7 N       -1.4470     3.0840     0.1800 N.ar  1 <1>  -0.6200 
  8 C       -0.7670     2.5830    -2.0670 C.ar  1 <1>   0.1600 
  9 C       -4.0290    -0.9580     1.5880 C.3   1 <1>   0.1400 
 10 C       -4.0570     2.0040     1.8140 C.3   1 <1>  -0.1600 
 11 C       -0.8210     4.2060    -0.0480 C.ar  1 <1>   0.1600 
 12 N       -0.1420     3.7090    -2.3070 N.ar  1 <1>  -0.6200 
 13 N       -5.2280    -0.2400     2.1300 N.am  1 <1>  -0.6600 
 14 C       -4.9990     1.1400     2.6620 C.3   1 <1>   0.1400 
 15 C       -0.1790     4.5510    -1.2600 C.ar  1 <1>   0.1390 
 16 C       -6.4890    -0.7970     2.1740 C.2   1 <1>   0.5690 
 17 O        0.3690     5.6590    -1.3830 O.3   1 <1>  -0.8290 
 18 O       -7.4410    -0.1670     2.5770 O.2   1 <1>  -0.5700 
 19 C       -6.7570    -2.2450     1.7650 C.3   1 <1>   0.1810 
 20 O       -6.4170    -2.4840     0.4100 O.3   1 <1>  -0.3630 
 21 C       -6.8250    -3.6680    -0.0870 C.ar  1 <1>   0.0820 
 22 C       -8.0790    -3.8020    -0.6830 C.ar  1 <1>  -0.1430 
 23 C       -5.9630    -4.7470     0.0120 C.ar  1 <1>  -0.1500 
 24 C       -8.4690    -5.0540    -1.1520 C.ar  1 <1>  -0.1430 
 25 C       -9.0060    -2.5940    -0.8170 C.3   1 <1>  -0.0970 
 26 C       -6.3530    -5.9830    -0.4650 C.ar  1 <1>  -0.1500 
 27 C       -7.6020    -6.1330    -1.0390 C.ar  1 <1>  -0.1500 
 28 C       -9.8310    -5.2820    -1.7930 C.3   1 <1>  -0.0970 
 29 H       -3.1140    -1.3940    -0.2830 H     1 <1>   0.0800 
 30 H       -4.7350    -0.8080    -0.4460 H     1 <1>   0.0800 
 31 H       -5.2260     1.5720     0.0500 H     1 <1>   0.0800 
 32 H       -3.9520     2.7210    -0.2070 H     1 <1>   0.0800 
 33 H       -0.7680     1.8630    -2.8630 H     1 <1>   0.1500 
 34 H       -3.1490    -0.6730     2.1370 H     1 <1>   0.0800 
 35 H       -4.1530    -2.0170     1.7170 H     1 <1>   0.0800 
 36 H       -4.2680     3.0320     2.0420 H     1 <1>   0.0800 
 37 H       -3.0360     1.8320     2.1050 H     1 <1>   0.0800 
 38 H       -0.7710     4.9510     0.7230 H     1 <1>   0.1500 
 39 H       -5.9420     1.6550     2.7270 H     1 <1>   0.0800 
 40 H       -4.6080     1.0660     3.6620 H     1 <1>   0.0800 
 41 H       -7.8030    -2.4590     1.8910 H     1 <1>   0.0800 
 42 H       -6.1870    -2.9130     2.3820 H     1 <1>   0.0800 
 43 H       -4.9940    -4.6180     0.4570 H     1 <1>   0.1500 
 44 H       -8.4730    -1.6690    -0.6940 H     1 <1>   0.0800 
 45 H       -9.7790    -2.6440    -0.0730 H     1 <1>   0.0800 
 46 H       -9.4580    -2.5720    -1.7910 H     1 <1>   0.0800 
 47 H       -5.6890    -6.8270    -0.3910 H     1 <1>   0.1500 
 48 H       -7.8950    -7.1020    -1.4030 H     1 <1>   0.1500 
 49 H      -10.6100    -4.8960    -1.1610 H     1 <1>   0.0800 
 50 H      -10.0160    -6.3300    -1.9460 H     1 <1>   0.0800 
 51 H       -9.8730    -4.7880    -2.7470 H     1 <1>   0.0800 
@<TRIPOS>BOND
  1   1   2  2   
  2   2   3  am  
  3   2   4  1   
  4   3   5  1   
  5   3   6  1   
  6   4   7  ar  
  7   4   8  ar  
  8   5   9  1   
  9   5  29  1   
 10   5  30  1   
 11   6  10  1   
 12   6  31  1   
 13   6  32  1   
 14   7  11  ar  
 15   8  12  ar  
 16   8  33  1   
 17   9  13  1   
 18   9  34  1   
 19   9  35  1   
 20  10  14  1   
 21  10  36  1   
 22  10  37  1   
 23  11  15  ar  
 24  11  38  1   
 25  12  15  ar  
 26  13  14  1   
 27  13  16  am  
 28  14  39  1   
 29  14  40  1   
 30  15  17  1   
 31  16  18  2   
 32  16  19  1   
 33  19  20  1   
 34  19  41  1   
 35  19  42  1   
 36  20  21  1   
 37  21  22  ar  
 38  21  23  ar  
 39  22  24  ar  
 40  22  25  1   
 41  23  26  ar  
 42  23  43  1   
 43  24  27  ar  
 44  24  28  1   
 45  25  44  1   
 46  25  45  1   
 47  25  46  1   
 48  26  27  ar  
 49  26  47  1   
 50  27  48  1   
 51  28  49  1   
 52  28  50  1   
 53  28  51  1   
@<TRIPOS>SUBSTRUCTURE
  1 ****   5 GROUP 4 **** **** 0

# MOE 2024.06 (io_trps.svl 2023.06)
