@<TRIPOS>MOLECULE
NONAME
62 65 1 0 0 
SMALL
USER_CHARGES


@<TRIPOS>ATOM
  1 O       -0.7750     0.5320     0.7520 O.2   1 <1>  -0.5700 
  2 C       -1.5270     1.4520     0.4850 C.2   1 <1>   0.5440 
  3 N       -2.7050     1.1790    -0.1870 N.am  1 <1>  -0.6600 
  4 C       -1.1570     2.8000     0.8720 C.ar  1 <1>   0.0860 
  5 C       -3.1810    -0.2190    -0.3810 C.3   1 <1>   0.0600 
  6 C       -3.4900     2.2080    -0.9210 C.3   1 <1>   0.0600 
  7 C        0.1050     3.3060     0.5650 C.ar  1 <1>  -0.1500 
  8 C       -2.0360     3.6290     1.5700 C.ar  1 <1>  -0.1500 
  9 C        0.5060     4.5860     0.9230 C.ar  1 <1>   0.1000 
 10 C       -1.6760     4.9180     1.9180 C.ar  1 <1>  -0.1500 
 11 N        1.8140     5.0280     0.6400 N.pl3 1 <1>  -0.8380 
 12 C       -0.4250     5.4010     1.5850 C.ar  1 <1>   0.0830 
 13 C        2.1290     6.4540     0.9860 C.3   1 <1>   0.2890 
 14 C        2.8930     4.0700     1.0370 C.3   1 <1>   0.1290 
 15 O       -0.1290     6.6800     1.9130 O.3   1 <1>  -0.3630 
 16 C        0.8520     7.3150     1.1200 C.3   1 <1>   0.1200 
 17 C        3.0490     7.0030    -0.1100 C.3   1 <1>  -0.0990 
 18 C        3.3780     8.4570     0.1300 C.2   1 <1>   0.5690 
 19 O        3.8250     8.7670     1.2050 O.2   1 <1>  -0.5700 
 20 N        3.1280     9.3500    -0.8720 N.am  1 <1>  -0.4940 
 21 C        3.1950    10.7640    -0.8650 C.2   1 <1>  -0.0880 
 22 N        4.2090    11.5590    -0.3990 N.pl3 1 <1>   0.3140 
 23 C        2.2440    11.5950    -1.3540 C.2   1 <1>  -0.1810 
 24 N        3.9030    12.8720    -0.5820 N.2   1 <1>  -0.7070 
 25 C        5.5210    11.1270     0.1860 C.3   1 <1>   0.1760 
 26 C        2.7390    12.8750    -1.1470 C.2   1 <1>   0.1390 
 27 C        0.9050    11.2700    -1.9890 C.3   1 <1>  -0.0590 
 28 C        6.5000    12.2740     0.4740 C.3   1 <1>  -0.1600 
 29 C        6.3110    10.1790    -0.7320 C.3   1 <1>  -0.1600 
 30 C        7.8640    11.5940     0.5310 C.3   1 <1>  -0.1600 
 31 C        7.7980    10.5170    -0.5510 C.3   1 <1>  -0.1600 
 32 H       -2.7060    -0.8820     0.3220 H     1 <1>   0.0800 
 33 H       -2.9460    -0.5460    -1.3780 H     1 <1>   0.0800 
 34 H       -4.2450    -0.2680    -0.2290 H     1 <1>   0.0800 
 35 H       -2.9310     3.1230    -1.0170 H     1 <1>   0.0800 
 36 H       -4.4070     2.4080    -0.3950 H     1 <1>   0.0800 
 37 H       -3.7220     1.8520    -1.9100 H     1 <1>   0.0800 
 38 H        0.7880     2.6700     0.0350 H     1 <1>   0.1500 
 39 H       -3.0070     3.2530     1.8390 H     1 <1>   0.1500 
 40 H       -2.3610     5.5560     2.4470 H     1 <1>   0.1500 
 41 H        2.6440     6.4860     1.9310 H     1 <1>   0.0800 
 42 H        3.0980     3.4020     0.2190 H     1 <1>   0.0800 
 43 H        2.5780     3.4910     1.8890 H     1 <1>   0.0800 
 44 H        3.8000     4.5880     1.2950 H     1 <1>   0.0800 
 45 H        0.4190     7.4900     0.1520 H     1 <1>   0.0800 
 46 H        1.0780     8.2610     1.5790 H     1 <1>   0.0800 
 47 H        2.5710     6.8830    -1.0640 H     1 <1>   0.0800 
 48 H        3.9700     6.4540    -0.1180 H     1 <1>   0.0800 
 49 H        2.7050     8.9620    -1.7150 H     1 <1>   0.3700 
 50 H        5.3250    10.6340     1.1190 H     1 <1>   0.0800 
 51 H        2.2230    13.7800    -1.4200 H     1 <1>   0.1500 
 52 H        0.6970    10.2180    -1.9280 H     1 <1>   0.0800 
 53 H        0.9100    11.5650    -3.0230 H     1 <1>   0.0800 
 54 H        0.1230    11.8020    -1.4790 H     1 <1>   0.0800 
 55 H        6.2600    12.7800     1.3920 H     1 <1>   0.0800 
 56 H        6.4980    12.9790    -0.3400 H     1 <1>   0.0800 
 57 H        6.0320    10.3340    -1.7600 H     1 <1>   0.0800 
 58 H        6.1230     9.1570    -0.4580 H     1 <1>   0.0800 
 59 H        7.9920    11.1300     1.4940 H     1 <1>   0.0800 
 60 H        8.6680    12.2900     0.3630 H     1 <1>   0.0800 
 61 H        8.1890    10.9120    -1.4740 H     1 <1>   0.0800 
 62 H        8.3740     9.6510    -0.2720 H     1 <1>   0.0800 
@<TRIPOS>BOND
  1   1   2  2   
  2   2   3  am  
  3   2   4  1   
  4   3   5  1   
  5   3   6  1   
  6   4   7  ar  
  7   4   8  ar  
  8   5  32  1   
  9   5  33  1   
 10   5  34  1   
 11   6  35  1   
 12   6  36  1   
 13   6  37  1   
 14   7   9  ar  
 15   7  38  1   
 16   8  10  ar  
 17   8  39  1   
 18   9  11  1   
 19   9  12  ar  
 20  10  12  ar  
 21  10  40  1   
 22  11  13  1   
 23  11  14  1   
 24  12  15  1   
 25  13  16  1   
 26  13  17  1   
 27  13  41  1   
 28  14  42  1   
 29  14  43  1   
 30  14  44  1   
 31  15  16  1   
 32  16  45  1   
 33  16  46  1   
 34  17  18  1   
 35  17  47  1   
 36  17  48  1   
 37  18  19  2   
 38  18  20  am  
 39  20  21  1   
 40  20  49  1   
 41  21  22  1   
 42  21  23  2   
 43  22  24  1   
 44  22  25  1   
 45  23  26  1   
 46  23  27  1   
 47  24  26  2   
 48  25  28  1   
 49  25  29  1   
 50  25  50  1   
 51  26  51  1   
 52  27  52  1   
 53  27  53  1   
 54  27  54  1   
 55  28  30  1   
 56  28  55  1   
 57  28  56  1   
 58  29  31  1   
 59  29  57  1   
 60  29  58  1   
 61  30  31  1   
 62  30  59  1   
 63  30  60  1   
 64  31  61  1   
 65  31  62  1   
@<TRIPOS>SUBSTRUCTURE
  1 ****  13 GROUP 4 **** **** 0

# MOE 2024.06 (io_trps.svl 2023.06)
