@<TRIPOS>MOLECULE
NONAME
41 43 1 0 0 
SMALL
USER_CHARGES


@<TRIPOS>ATOM
  1 O       -0.5450    -0.8090    -0.0620 O.2   1 <1>  -0.5700 
  2 C       -0.1400    -1.8210     0.4700 C.2   1 <1>   0.5440 
  3 N       -0.9720    -2.3810     1.3810 N.am  1 <1>  -0.8000 
  4 C        1.1660    -2.3600     0.1680 C.ar  1 <1>   0.0860 
  5 C        1.4090    -3.7410     0.0590 C.ar  1 <1>   0.4100 
  6 C        2.2410    -1.5060    -0.0260 C.ar  1 <1>  -0.1500 
  7 N        2.6130    -4.2610    -0.1700 N.ar  1 <1>  -0.6200 
  8 N        0.3910    -4.6610     0.1810 N.pl3 1 <1>  -0.8690 
  9 C        3.4860    -2.0380    -0.2810 C.ar  1 <1>  -0.1430 
 10 C        3.6150    -3.4220    -0.3400 C.ar  1 <1>   0.1670 
 11 C        0.4830    -6.0500    -0.3270 C.3   1 <1>   0.4330 
 12 C        4.6660    -1.0950    -0.4810 C.3   1 <1>  -0.0970 
 13 C        4.9590    -4.0760    -0.6090 C.3   1 <1>  -0.0970 
 14 C       -0.8840    -6.6840    -0.4390 C.ar  1 <1>  -0.1430 
 15 C        1.2090    -6.9820     0.6700 C.3   1 <1>   0.2000 
 16 C       -0.8730    -7.9620     0.0720 C.ar  1 <1>  -0.1430 
 17 C       -2.0440    -6.1490    -0.9740 C.ar  1 <1>  -0.1500 
 18 O        2.5640    -7.0850     0.3770 O.3   1 <1>  -0.6800 
 19 C        0.4980    -8.3390     0.5940 C.3   1 <1>  -0.0170 
 20 C       -2.0190    -8.7340     0.0700 C.ar  1 <1>  -0.1500 
 21 C       -3.1980    -6.9170    -0.9780 C.ar  1 <1>  -0.1500 
 22 C       -3.1860    -8.2030    -0.4580 C.ar  1 <1>  -0.1500 
 23 H       -1.8380    -1.8960     1.6220 H     1 <1>   0.3700 
 24 H       -0.6840    -3.1490     1.9900 H     1 <1>   0.3700 
 25 H        2.0870    -0.4410     0.0280 H     1 <1>   0.1500 
 26 H       -0.5670    -4.3040     0.1350 H     1 <1>   0.4000 
 27 H        0.9640    -6.0780    -1.2910 H     1 <1>   0.0800 
 28 H        4.3900    -0.0800    -0.2600 H     1 <1>   0.0800 
 29 H        5.0020    -1.1380    -1.5020 H     1 <1>   0.0800 
 30 H        5.4780    -1.3690     0.1690 H     1 <1>   0.0800 
 31 H        5.4880    -3.5570    -1.3860 H     1 <1>   0.0800 
 32 H        4.8230    -5.0950    -0.9260 H     1 <1>   0.0800 
 33 H        5.5480    -4.0730     0.2890 H     1 <1>   0.0800 
 34 H        1.1070    -6.5800     1.6630 H     1 <1>   0.0800 
 35 H       -2.0530    -5.1540    -1.3860 H     1 <1>   0.1500 
 36 H        2.8970    -6.1610     0.2470 H     1 <1>   0.4000 
 37 H        0.9870    -8.9910    -0.1080 H     1 <1>   0.0800 
 38 H        0.4380    -8.7990     1.5630 H     1 <1>   0.0800 
 39 H       -2.0060    -9.7330     0.4710 H     1 <1>   0.1500 
 40 H       -4.1080    -6.5150    -1.3890 H     1 <1>   0.1500 
 41 H       -4.0860    -8.7930    -0.4660 H     1 <1>   0.1500 
@<TRIPOS>BOND
  1   1   2  2   
  2   2   3  am  
  3   2   4  1   
  4   3  23  1   
  5   3  24  1   
  6   4   5  ar  
  7   4   6  ar  
  8   5   7  ar  
  9   5   8  1   
 10   6   9  ar  
 11   6  25  1   
 12   7  10  ar  
 13   8  11  1   
 14   8  26  1   
 15   9  10  ar  
 16   9  12  1   
 17  10  13  1   
 18  11  14  1   
 19  11  15  1   
 20  11  27  1   
 21  12  28  1   
 22  12  29  1   
 23  12  30  1   
 24  13  31  1   
 25  13  32  1   
 26  13  33  1   
 27  14  16  ar  
 28  14  17  ar  
 29  15  18  1   
 30  15  19  1   
 31  15  34  1   
 32  16  19  1   
 33  16  20  ar  
 34  17  21  ar  
 35  17  35  1   
 36  18  36  1   
 37  19  37  1   
 38  19  38  1   
 39  20  22  ar  
 40  20  39  1   
 41  21  22  ar  
 42  21  40  1   
 43  22  41  1   
@<TRIPOS>SUBSTRUCTURE
  1 ****   8 GROUP 4 **** **** 0

# MOE 2024.06 (io_trps.svl 2023.06)
