@<TRIPOS>MOLECULE
NONAME
52 55 1 0 0 
SMALL
USER_CHARGES


@<TRIPOS>ATOM
  1 O       -0.5550     0.4140    -1.9880 O.2   1 <1>  -0.5700 
  2 C       -1.3360     0.9210    -1.2020 C.2   1 <1>   0.5440 
  3 N       -2.1250     0.0860    -0.4440 N.am  1 <1>  -0.6600 
  4 C       -1.4650     2.3550    -1.1040 C.ar  1 <1>   0.0860 
  5 C       -3.1320     0.5310     0.5480 C.3   1 <1>   0.1400 
  6 C       -2.1850    -1.3810    -0.6350 C.3   1 <1>   0.1400 
  7 C       -0.7320     3.1290    -0.1820 C.ar  1 <1>   0.1000 
  8 C       -2.3840     3.0000    -1.9330 C.ar  1 <1>  -0.1500 
  9 C       -3.5390    -0.7520     1.2730 C.3   1 <1>   0.2000 
 10 C       -3.3820    -1.8410     0.2040 C.3   1 <1>  -0.0800 
 11 N        0.2360     2.6030     0.6700 N.pl3 1 <1>  -0.8380 
 12 C       -0.9740     4.4980    -0.1110 C.ar  1 <1>  -0.1500 
 13 C       -2.6050     4.3600    -1.8510 C.ar  1 <1>  -0.1500 
 14 O       -2.6320    -0.9790     2.2970 O.3   1 <1>  -0.6800 
 15 C       -3.2530    -3.2810     0.7360 C.3   1 <1>  -0.0170 
 16 C        1.3750     1.7670     0.1860 C.3   1 <1>   0.2090 
 17 C        0.1010     2.6380     2.1520 C.3   1 <1>   0.2090 
 18 C       -1.8980     5.1130    -0.9300 C.ar  1 <1>  -0.1500 
 19 C       -3.1370    -4.2730    -0.4100 C.ar  1 <1>  -0.1430 
 20 C        1.3640     0.3910     0.8740 C.3   1 <1>   0.1200 
 21 C        0.1790     1.2160     2.7360 C.3   1 <1>   0.1200 
 22 C       -1.9170    -4.7550    -0.8390 C.ar  1 <1>  -0.1500 
 23 C       -4.2480    -4.7380    -1.0850 C.ar  1 <1>  -0.1500 
 24 O        1.3070     0.5210     2.2720 O.3   1 <1>  -0.5600 
 25 C       -1.8670    -5.6490    -1.8960 C.ar  1 <1>   0.1600 
 26 C       -4.0890    -5.6330    -2.1300 C.ar  1 <1>   0.1600 
 27 N       -2.9240    -6.0980    -2.5530 N.ar  1 <1>  -0.6200 
 28 H       -2.7300     1.2670     1.2230 H     1 <1>   0.0800 
 29 H       -3.9770     0.9430     0.0250 H     1 <1>   0.0800 
 30 H       -2.3120    -1.6280    -1.6770 H     1 <1>   0.0800 
 31 H       -1.2680    -1.8170    -0.2770 H     1 <1>   0.0800 
 32 H       -2.9310     2.4130    -2.6500 H     1 <1>   0.1500 
 33 H       -4.5280    -0.7030     1.6960 H     1 <1>   0.0800 
 34 H       -4.2480    -1.7960    -0.4330 H     1 <1>   0.0800 
 35 H       -0.4130     5.0820     0.5940 H     1 <1>   0.1500 
 36 H       -3.3210     4.8360    -2.5000 H     1 <1>   0.1500 
 37 H       -1.7290    -0.9520     1.9220 H     1 <1>   0.4000 
 38 H       -4.1160    -3.5210     1.3320 H     1 <1>   0.0800 
 39 H       -2.3890    -3.3720     1.3720 H     1 <1>   0.0800 
 40 H        1.3260     1.6490    -0.8820 H     1 <1>   0.0800 
 41 H        2.2990     2.2670     0.4160 H     1 <1>   0.0800 
 42 H        0.8940     3.2360     2.5660 H     1 <1>   0.0800 
 43 H       -0.8370     3.0890     2.4240 H     1 <1>   0.0800 
 44 H       -2.0650     6.1740    -0.8590 H     1 <1>   0.1500 
 45 H        2.2610    -0.1490     0.6290 H     1 <1>   0.0800 
 46 H        0.5180    -0.1840     0.5460 H     1 <1>   0.0800 
 47 H       -0.6970     0.6630     2.4610 H     1 <1>   0.0800 
 48 H        0.2370     1.2580     3.8090 H     1 <1>   0.0800 
 49 H       -1.0040    -4.4460    -0.3650 H     1 <1>   0.1500 
 50 H       -5.2340    -4.4130    -0.8100 H     1 <1>   0.1500 
 51 H       -0.9070    -6.0130    -2.2190 H     1 <1>   0.1500 
 52 H       -4.9660    -5.9860    -2.6450 H     1 <1>   0.1500 
@<TRIPOS>BOND
  1   1   2  2   
  2   2   3  am  
  3   2   4  1   
  4   3   5  1   
  5   3   6  1   
  6   4   7  ar  
  7   4   8  ar  
  8   5   9  1   
  9   5  28  1   
 10   5  29  1   
 11   6  10  1   
 12   6  30  1   
 13   6  31  1   
 14   7  11  1   
 15   7  12  ar  
 16   8  13  ar  
 17   8  32  1   
 18   9  10  1   
 19   9  14  1   
 20   9  33  1   
 21  10  15  1   
 22  10  34  1   
 23  11  16  1   
 24  11  17  1   
 25  12  18  ar  
 26  12  35  1   
 27  13  18  ar  
 28  13  36  1   
 29  14  37  1   
 30  15  19  1   
 31  15  38  1   
 32  15  39  1   
 33  16  20  1   
 34  16  40  1   
 35  16  41  1   
 36  17  21  1   
 37  17  42  1   
 38  17  43  1   
 39  18  44  1   
 40  19  22  ar  
 41  19  23  ar  
 42  20  24  1   
 43  20  45  1   
 44  20  46  1   
 45  21  24  1   
 46  21  47  1   
 47  21  48  1   
 48  22  25  ar  
 49  22  49  1   
 50  23  26  ar  
 51  23  50  1   
 52  25  27  ar  
 53  25  51  1   
 54  26  27  ar  
 55  26  52  1   
@<TRIPOS>SUBSTRUCTURE
  1 ****   3 GROUP 4 **** **** 0

# MOE 2024.06 (io_trps.svl 2023.06)
