@<TRIPOS>MOLECULE
NONAME
51 54 1 0 0 
SMALL
USER_CHARGES


@<TRIPOS>ATOM
  1 O       -2.4060     0.5670    -1.9790 O.2   1 <1>  -0.5700 
  2 C       -2.1140     0.5450    -0.8090 C.2   1 <1>   0.5690 
  3 N       -1.8970    -0.6160    -0.1490 N.am  1 <1>  -0.7300 
  4 C       -2.0030     1.8470    -0.0520 C.3   1 <1>  -0.0990 
  5 C       -1.9400    -1.9660    -0.7610 C.3   1 <1>   0.2200 
  6 C       -1.2640     2.8990    -0.8840 C.3   1 <1>   0.0960 
  7 C       -3.2220    -2.7060    -0.3940 C.3   1 <1>  -0.0800 
  8 C       -0.9100    -2.8430    -0.0640 C.3   1 <1>   0.1200 
  9 N       -1.1000     4.1390    -0.1010 N.pl3 1 <1>   0.0480 
 10 C       -2.8950    -3.2750     0.9940 C.3   1 <1>   0.1200 
 11 C       -4.5110    -1.8580    -0.4550 C.3   1 <1>  -0.0170 
 12 O       -1.5070    -3.1960     1.1460 O.3   1 <1>  -0.5600 
 13 C       -0.0620     4.5240     0.6840 C.2   1 <1>   0.0060 
 14 C       -1.9980     5.1350     0.0080 C.2   1 <1>  -0.3020 
 15 C       -5.8320    -2.5950    -0.2030 C.ar  1 <1>  -0.1440 
 16 N       -0.2450     5.6640     1.2640 N.2   1 <1>  -0.5650 
 17 C        1.1990     3.7060     0.8740 C.3   1 <1>  -0.0600 
 18 C       -1.4610     6.0530     0.8390 C.2   1 <1>   0.0770 
 19 C       -7.0310    -1.8500    -0.0660 C.ar  1 <1>   0.0000 
 20 C       -5.9360    -3.9550    -0.1070 C.ar  1 <1>  -0.1500 
 21 C       -8.2290    -2.5590     0.1950 C.ar  1 <1>   0.3100 
 22 C       -7.1120    -0.4410    -0.1790 C.ar  1 <1>  -0.1500 
 23 C       -7.1750    -4.5580     0.1430 C.ar  1 <1>   0.1600 
 24 N       -8.2840    -3.9100     0.2970 N.ar  1 <1>  -0.6200 
 25 C       -9.4260    -1.8420     0.3520 C.ar  1 <1>  -0.1500 
 26 C       -8.2960     0.2270    -0.0240 C.ar  1 <1>  -0.1500 
 27 C       -9.4690    -0.4790     0.2480 C.ar  1 <1>  -0.1500 
 28 H       -1.7030    -0.6320     0.8560 H     1 <1>   0.3700 
 29 H       -2.9950     2.1940     0.1710 H     1 <1>   0.0800 
 30 H       -1.4770     1.6810     0.8700 H     1 <1>   0.0800 
 31 H       -1.7810    -1.9090    -1.8250 H     1 <1>   0.0800 
 32 H       -1.8200     3.1250    -1.7770 H     1 <1>   0.0800 
 33 H       -0.2950     2.5340    -1.1750 H     1 <1>   0.0800 
 34 H       -3.3190    -3.5280    -1.0810 H     1 <1>   0.0800 
 35 H        0.0190    -2.3330     0.1210 H     1 <1>   0.0800 
 36 H       -0.7310    -3.7450    -0.6230 H     1 <1>   0.0800 
 37 H       -3.1940    -4.3040     1.0910 H     1 <1>   0.0800 
 38 H       -3.3440    -2.6910     1.7800 H     1 <1>   0.0800 
 39 H       -4.5650    -1.3940    -1.4250 H     1 <1>   0.0800 
 40 H       -4.4300    -1.0740     0.2760 H     1 <1>   0.0800 
 41 H       -2.9450     5.1400    -0.4990 H     1 <1>   0.1500 
 42 H        1.8570     4.2100     1.5590 H     1 <1>   0.0800 
 43 H        1.7080     3.5900    -0.0650 H     1 <1>   0.0800 
 44 H        0.9600     2.7400     1.2770 H     1 <1>   0.0800 
 45 H       -1.8900     6.9870     1.1600 H     1 <1>   0.1500 
 46 H       -5.0970    -4.6130    -0.2170 H     1 <1>   0.1500 
 47 H       -6.2270     0.1260    -0.3970 H     1 <1>   0.1500 
 48 H       -7.2050    -5.6320     0.2130 H     1 <1>   0.1500 
 49 H      -10.3160    -2.4080     0.5560 H     1 <1>   0.1500 
 50 H       -8.3410     1.2990    -0.1120 H     1 <1>   0.1500 
 51 H      -10.3950     0.0570     0.3690 H     1 <1>   0.1500 
@<TRIPOS>BOND
  1   1   2  2   
  2   2   3  am  
  3   2   4  1   
  4   3   5  1   
  5   3  28  1   
  6   4   6  1   
  7   4  29  1   
  8   4  30  1   
  9   5   7  1   
 10   5   8  1   
 11   5  31  1   
 12   6   9  1   
 13   6  32  1   
 14   6  33  1   
 15   7  10  1   
 16   7  11  1   
 17   7  34  1   
 18   8  12  1   
 19   8  35  1   
 20   8  36  1   
 21   9  13  1   
 22   9  14  1   
 23  10  12  1   
 24  10  37  1   
 25  10  38  1   
 26  11  15  1   
 27  11  39  1   
 28  11  40  1   
 29  13  16  2   
 30  13  17  1   
 31  14  18  2   
 32  14  41  1   
 33  15  19  ar  
 34  15  20  ar  
 35  16  18  1   
 36  17  42  1   
 37  17  43  1   
 38  17  44  1   
 39  18  45  1   
 40  19  21  ar  
 41  19  22  ar  
 42  20  23  ar  
 43  20  46  1   
 44  21  24  ar  
 45  21  25  ar  
 46  22  26  ar  
 47  22  47  1   
 48  23  24  ar  
 49  23  48  1   
 50  25  27  ar  
 51  25  49  1   
 52  26  27  ar  
 53  26  50  1   
 54  27  51  1   
@<TRIPOS>SUBSTRUCTURE
  1 ****  11 GROUP 4 **** **** 0

# MOE 2024.06 (io_trps.svl 2023.06)
