@<TRIPOS>MOLECULE
NONAME
42 43 1 0 0 
SMALL
USER_CHARGES


@<TRIPOS>ATOM
  1 F        1.8010     0.5400    -2.9100 F     1 <1>  -0.1900 
  2 C        2.2420     0.6440    -1.6820 C.ar  1 <1>   0.1900 
  3 C        2.7650     1.8450    -1.2320 C.ar  1 <1>   0.1900 
  4 C        2.1660    -0.4590    -0.8510 C.ar  1 <1>  -0.1440 
  5 F        2.8260     2.8800    -2.0320 F     1 <1>  -0.1900 
  6 C        3.2260     1.9730     0.0640 C.ar  1 <1>  -0.1500 
  7 C        2.6260    -0.3370     0.4570 C.ar  1 <1>   0.0830 
  8 C        1.6000    -1.7690    -1.3620 C.3   1 <1>   0.4860 
  9 C        3.1550     0.8760     0.9090 C.ar  1 <1>  -0.1500 
 10 O        2.5220    -1.4390     1.2420 O.3   1 <1>  -0.3630 
 11 N        0.3780    -2.1140    -0.5990 N.4   1 <1>  -0.9590 
 12 C        2.9410    -1.4350     2.5920 C.3   1 <1>   0.0400 
 13 C       -0.0650    -3.5100    -0.8350 C.3   1 <1>   0.5240 
 14 C       -0.7220    -1.1090    -0.7020 C.3   1 <1>   0.3430 
 15 C        0.3870    -4.3180     0.3710 C.2   1 <1>   0.0460 
 16 C       -1.7090    -1.2260     0.4690 C.3   1 <1>   0.1200 
 17 N        0.2180    -3.8090     1.6110 N.2   1 <1>  -0.5650 
 18 C        0.9830    -5.5320     0.4230 C.2   1 <1>  -0.3320 
 19 O       -2.7440    -0.3350     0.2440 O.3   1 <1>  -0.6800 
 20 C        0.6990    -4.7240     2.3890 C.2   1 <1>   0.0360 
 21 N        1.1820    -5.7970     1.7290 N.pl3 1 <1>   0.0330 
 22 C        1.3930    -6.5050    -0.6720 C.3   1 <1>  -0.0600 
 23 H        3.6320     2.9120     0.4000 H     1 <1>   0.1500 
 24 H        2.3420    -2.5400    -1.2250 H     1 <1>   0.0800 
 25 H        1.3740    -1.6950    -2.4130 H     1 <1>   0.0800 
 26 H        3.5170     0.9860     1.9160 H     1 <1>   0.1500 
 27 H        0.6860    -2.1450     0.3960 H     1 <1>   0.4500 
 28 H        2.7490    -2.4100     3.0040 H     1 <1>   0.0800 
 29 H        2.3780    -0.6960     3.1340 H     1 <1>   0.0800 
 30 H        3.9950    -1.2240     2.6330 H     1 <1>   0.0800 
 31 H        0.3590    -3.9100    -1.7400 H     1 <1>   0.0800 
 32 H       -1.1390    -3.5570    -0.8990 H     1 <1>   0.0800 
 33 H       -1.2530    -1.2400    -1.6300 H     1 <1>   0.0800 
 34 H       -0.3080    -0.1140    -0.6840 H     1 <1>   0.0800 
 35 H       -1.2320    -0.9640     1.3980 H     1 <1>   0.0800 
 36 H       -2.1320    -2.2130     0.5370 H     1 <1>   0.0800 
 37 H       -3.3860    -0.3390     0.9850 H     1 <1>   0.4000 
 38 H        0.7220    -4.6610     3.4640 H     1 <1>   0.1500 
 39 H        1.6030    -6.6360     2.1440 H     1 <1>   0.2700 
 40 H        1.1420    -6.1220    -1.6440 H     1 <1>   0.0800 
 41 H        0.8880    -7.4460    -0.5390 H     1 <1>   0.0800 
 42 H        2.4550    -6.6770    -0.6380 H     1 <1>   0.0800 
@<TRIPOS>BOND
  1   1   2  1   
  2   2   3  ar  
  3   2   4  ar  
  4   3   5  1   
  5   3   6  ar  
  6   4   7  ar  
  7   4   8  1   
  8   6   9  ar  
  9   6  23  1   
 10   7   9  ar  
 11   7  10  1   
 12   8  11  1   
 13   8  24  1   
 14   8  25  1   
 15   9  26  1   
 16  10  12  1   
 17  11  13  1   
 18  11  14  1   
 19  11  27  1   
 20  12  28  1   
 21  12  29  1   
 22  12  30  1   
 23  13  15  1   
 24  13  31  1   
 25  13  32  1   
 26  14  16  1   
 27  14  33  1   
 28  14  34  1   
 29  15  17  1   
 30  15  18  2   
 31  16  19  1   
 32  16  35  1   
 33  16  36  1   
 34  17  20  2   
 35  18  21  1   
 36  18  22  1   
 37  19  37  1   
 38  20  21  1   
 39  20  38  1   
 40  21  39  1   
 41  22  40  1   
 42  22  41  1   
 43  22  42  1   
@<TRIPOS>SUBSTRUCTURE
  1 ****  11 GROUP 4 **** **** 0

# MOE 2024.06 (io_trps.svl 2023.06)
