@<TRIPOS>MOLECULE
NONAME
52 55 1 0 0 
SMALL
USER_CHARGES


@<TRIPOS>ATOM
  1 O       -2.1390     0.1420    -1.8670 O.2   1 <1>  -0.5700 
  2 C       -1.9860     0.0990    -0.6700 C.2   1 <1>   0.5770 
  3 N       -1.9080    -1.0980    -0.0320 N.am  1 <1>  -0.7300 
  4 C       -1.8950     1.4160     0.1080 C.3   1 <1>   0.0530 
  5 C       -2.0050    -2.4270    -0.6800 C.3   1 <1>   0.2200 
  6 C       -3.3050     2.0410     0.3350 C.3   1 <1>   0.0000 
  7 C       -1.7870     1.2950     1.6640 C.3   1 <1>   0.0000 
  8 C       -0.8700     2.3550    -0.5550 C.3   1 <1>   0.1200 
  9 C       -3.3940    -3.0320    -0.5070 C.3   1 <1>  -0.0800 
 10 C       -1.1730    -3.4170     0.1230 C.3   1 <1>   0.1200 
 11 C       -3.3380     1.3190     1.7090 C.3   1 <1>   0.0000 
 12 O       -0.7610     3.5620     0.1380 O.3   1 <1>  -0.5600 
 13 C       -3.3200    -3.6310     0.9040 C.3   1 <1>   0.1200 
 14 C       -4.5690    -2.0570    -0.7280 C.3   1 <1>  -0.0160 
 15 O       -1.9630    -3.7410     1.2270 O.3   1 <1>  -0.5600 
 16 C        0.1230     4.4660    -0.4390 C.3   1 <1>   0.0400 
 17 C       -5.9810    -2.6490    -0.6450 C.ar  1 <1>  -0.1440 
 18 C       -7.1010    -1.7810    -0.6060 C.ar  1 <1>   0.0000 
 19 C       -6.2380    -3.9910    -0.6120 C.ar  1 <1>  -0.1500 
 20 C       -8.3890    -2.3600    -0.4960 C.ar  1 <1>   0.3100 
 21 C       -7.0190    -0.3690    -0.6750 C.ar  1 <1>  -0.1500 
 22 C       -7.5530    -4.4610    -0.5150 C.ar  1 <1>   0.1600 
 23 N       -8.5980    -3.6990    -0.4510 N.ar  1 <1>  -0.6200 
 24 C       -9.5120    -1.5200    -0.4350 C.ar  1 <1>  -0.1500 
 25 C       -8.1350     0.4220    -0.6170 C.ar  1 <1>  -0.1500 
 26 C       -9.3990    -0.1580    -0.4920 C.ar  1 <1>  -0.1500 
 27 H       -1.8250    -1.1410     0.9880 H     1 <1>   0.3700 
 28 H       -1.6980    -2.3710    -1.7110 H     1 <1>   0.0800 
 29 H       -3.2950     3.1120     0.4440 H     1 <1>   0.0000 
 30 H       -4.0600     1.6960    -0.3490 H     1 <1>   0.0000 
 31 H       -1.3550     0.3830     2.0330 H     1 <1>   0.0000 
 32 H       -1.3700     2.1630     2.1440 H     1 <1>   0.0000 
 33 H       -1.1770     2.5700    -1.5660 H     1 <1>   0.0800 
 34 H        0.0980     1.8850    -0.5710 H     1 <1>   0.0800 
 35 H       -3.4770    -3.8380    -1.2130 H     1 <1>   0.0800 
 36 H       -0.2350    -3.0060     0.4520 H     1 <1>   0.0800 
 37 H       -1.0030    -4.3190    -0.4390 H     1 <1>   0.0800 
 38 H       -3.7740     0.3370     1.6560 H     1 <1>   0.0000 
 39 H       -3.7390     1.9220     2.5040 H     1 <1>   0.0000 
 40 H       -3.7670    -4.6080     0.9550 H     1 <1>   0.0800 
 41 H       -3.7770    -2.9840     1.6330 H     1 <1>   0.0800 
 42 H       -4.4540    -1.5940    -1.6930 H     1 <1>   0.0800 
 43 H       -4.5000    -1.2820     0.0130 H     1 <1>   0.0800 
 44 H        0.1360     5.3540     0.1670 H     1 <1>   0.0800 
 45 H       -0.2150     4.7100    -1.4320 H     1 <1>   0.0800 
 46 H        1.1070     4.0320    -0.4680 H     1 <1>   0.0800 
 47 H       -5.4660    -4.7340    -0.6590 H     1 <1>   0.1500 
 48 H       -6.0610     0.1040    -0.7820 H     1 <1>   0.1500 
 49 H       -7.7060    -5.5260    -0.4890 H     1 <1>   0.1500 
 50 H      -10.4740    -1.9900    -0.3440 H     1 <1>   0.1500 
 51 H       -8.0540     1.4940    -0.6690 H     1 <1>   0.1500 
 52 H      -10.2690     0.4730    -0.4450 H     1 <1>   0.1500 
@<TRIPOS>BOND
  1   1   2  2   
  2   2   3  am  
  3   2   4  1   
  4   3   5  1   
  5   3  27  1   
  6   4   6  1   
  7   4   7  1   
  8   4   8  1   
  9   5   9  1   
 10   5  10  1   
 11   5  28  1   
 12   6  11  1   
 13   6  29  1   
 14   6  30  1   
 15   7  11  1   
 16   7  31  1   
 17   7  32  1   
 18   8  12  1   
 19   8  33  1   
 20   8  34  1   
 21   9  13  1   
 22   9  14  1   
 23   9  35  1   
 24  10  15  1   
 25  10  36  1   
 26  10  37  1   
 27  11  38  1   
 28  11  39  1   
 29  12  16  1   
 30  13  15  1   
 31  13  40  1   
 32  13  41  1   
 33  14  17  1   
 34  14  42  1   
 35  14  43  1   
 36  16  44  1   
 37  16  45  1   
 38  16  46  1   
 39  17  18  ar  
 40  17  19  ar  
 41  18  20  ar  
 42  18  21  ar  
 43  19  22  ar  
 44  19  47  1   
 45  20  23  ar  
 46  20  24  ar  
 47  21  25  ar  
 48  21  48  1   
 49  22  23  ar  
 50  22  49  1   
 51  24  26  ar  
 52  24  50  1   
 53  25  26  ar  
 54  25  51  1   
 55  26  52  1   
@<TRIPOS>SUBSTRUCTURE
  1 ****  14 GROUP 4 **** **** 0

# MOE 2024.06 (io_trps.svl 2023.06)
