@<TRIPOS>MOLECULE
NONAME
50 51 1 0 0 
SMALL
USER_CHARGES


@<TRIPOS>ATOM
  1 S        0.0400     0.0460    -1.1870 S.o2  1 <1>   1.3330 
  2 O        0.6070     0.5060    -2.4350 O.2   1 <1>  -0.6500 
  3 O       -0.7270    -1.1750    -1.1310 O.2   1 <1>  -0.6500 
  4 N        1.3390    -0.1220    -0.1010 N.am  1 <1>  -0.8490 
  5 C       -0.9220     1.4010    -0.5050 C.3   1 <1>  -0.0550 
  6 C        2.4130    -0.9240    -0.7050 C.3   1 <1>   0.1160 
  7 C        0.9420    -0.7700     1.1600 C.3   1 <1>   0.1160 
  8 C       -0.3380     2.7970    -0.8210 C.3   1 <1>  -0.0800 
  9 C       -1.0500     3.9630    -0.1400 C.3   1 <1>   0.2000 
 10 C        1.1330     2.9870    -0.4400 C.3   1 <1>   0.2090 
 11 O       -1.2230     3.6680     1.2050 O.3   1 <1>  -0.6800 
 12 C       -0.0460     5.1110    -0.2620 C.3   1 <1>   0.2090 
 13 N        1.3050     4.4580    -0.2230 N.pl3 1 <1>  -0.8380 
 14 C        2.4800     5.1480    -0.1440 C.ar  1 <1>   0.4610 
 15 N        3.6430     4.4810    -0.2150 N.ar  1 <1>  -0.1790 
 16 C        2.5840     6.5140     0.0090 C.ar  1 <1>  -0.1500 
 17 C        4.8340     5.1060    -0.1440 C.ar  1 <1>   0.7710 
 18 C        3.8320     7.0960     0.0790 C.ar  1 <1>   0.3930 
 19 N        4.9640     6.3990     0.0030 N.ar  1 <1>  -0.6200 
 20 N        5.9640     4.4010    -0.2240 N.pl3 1 <1>  -0.9000 
 21 O        3.8830     8.4180     0.2300 O.3   1 <1>  -0.3620 
 22 C        5.0710     9.1710     0.3570 C.3   1 <1>   0.2000 
 23 C        5.5120     9.1450     1.8220 C.3   1 <1>  -0.2400 
 24 C        4.7550    10.5930    -0.1000 C.3   1 <1>  -0.2400 
 25 H       -1.9100     1.3590    -0.9210 H     1 <1>   0.0800 
 26 H       -1.0240     1.2680     0.5530 H     1 <1>   0.0800 
 27 H        3.2330    -1.0350    -0.0170 H     1 <1>   0.0800 
 28 H        2.7800    -0.4450    -1.5970 H     1 <1>   0.0800 
 29 H        2.0450    -1.9020    -0.9720 H     1 <1>   0.0800 
 30 H        1.7850    -0.8290     1.8280 H     1 <1>   0.0800 
 31 H        0.5780    -1.7690     0.9760 H     1 <1>   0.0800 
 32 H        0.1660    -0.2080     1.6490 H     1 <1>   0.0800 
 33 H       -0.4080     2.9470    -1.8850 H     1 <1>   0.0800 
 34 H       -2.0120     4.1910    -0.5690 H     1 <1>   0.0800 
 35 H        1.7740     2.6210    -1.2260 H     1 <1>   0.0800 
 36 H        1.3470     2.4670     0.4800 H     1 <1>   0.0800 
 37 H       -0.3680     3.7340     1.6740 H     1 <1>   0.4000 
 38 H       -0.1780     5.8280     0.5320 H     1 <1>   0.0800 
 39 H       -0.1750     5.6010    -1.2130 H     1 <1>   0.0800 
 40 H        3.6250     3.4810    -0.3320 H     1 <1>   0.4570 
 41 H        1.7160     7.1410     0.0760 H     1 <1>   0.1500 
 42 H        6.0840     3.3970    -0.3580 H     1 <1>   0.4000 
 43 H        6.8470     4.9200    -0.1630 H     1 <1>   0.4000 
 44 H        5.8290     8.7490    -0.2820 H     1 <1>   0.0800 
 45 H        4.7400     9.5430     2.4550 H     1 <1>   0.0800 
 46 H        6.3980     9.7420     1.9460 H     1 <1>   0.0800 
 47 H        5.7420     8.1400     2.1260 H     1 <1>   0.0800 
 48 H        3.9820    11.0240     0.5110 H     1 <1>   0.0800 
 49 H        4.4380    10.5880    -1.1270 H     1 <1>   0.0800 
 50 H        5.6340    11.2070    -0.0220 H     1 <1>   0.0800 
@<TRIPOS>BOND
  1   1   2  2   
  2   1   3  2   
  3   1   4  am  
  4   1   5  1   
  5   4   6  1   
  6   4   7  1   
  7   5   8  1   
  8   5  25  1   
  9   5  26  1   
 10   6  27  1   
 11   6  28  1   
 12   6  29  1   
 13   7  30  1   
 14   7  31  1   
 15   7  32  1   
 16   8   9  1   
 17   8  10  1   
 18   8  33  1   
 19   9  11  1   
 20   9  12  1   
 21   9  34  1   
 22  10  13  1   
 23  10  35  1   
 24  10  36  1   
 25  11  37  1   
 26  12  13  1   
 27  12  38  1   
 28  12  39  1   
 29  13  14  1   
 30  14  15  ar  
 31  14  16  ar  
 32  15  17  ar  
 33  15  40  1   
 34  16  18  ar  
 35  16  41  1   
 36  17  19  ar  
 37  17  20  1   
 38  18  19  ar  
 39  18  21  1   
 40  20  42  1   
 41  20  43  1   
 42  21  22  1   
 43  22  23  1   
 44  22  24  1   
 45  22  44  1   
 46  23  45  1   
 47  23  46  1   
 48  23  47  1   
 49  24  48  1   
 50  24  49  1   
 51  24  50  1   
@<TRIPOS>SUBSTRUCTURE
  1 ****  13 GROUP 4 **** **** 0

# MOE 2024.06 (io_trps.svl 2023.06)
