@<TRIPOS>MOLECULE
NONAME
43 45 1 0 0 
SMALL
USER_CHARGES


@<TRIPOS>ATOM
  1 F       -0.1270    -0.5910    -0.5000 F     1 <1>  -0.1900 
  2 C       -0.7180    -1.7140    -0.1790 C.ar  1 <1>   0.1900 
  3 C       -0.0920    -2.9550    -0.3430 C.ar  1 <1>   0.0820 
  4 C       -1.9950    -1.6120     0.3390 C.ar  1 <1>  -0.1500 
  5 O        1.1580    -3.1850    -0.8410 O.3   1 <1>  -0.3630 
  6 C       -0.7990    -4.0860     0.0350 C.ar  1 <1>  -0.1500 
  7 C       -2.6690    -2.7610     0.7060 C.ar  1 <1>  -0.1500 
  8 C        1.9710    -2.1630    -1.3740 C.3   1 <1>   0.0400 
  9 C       -2.0910    -4.0230     0.5610 C.ar  1 <1>   0.0530 
 10 C       -2.7790    -5.2290     0.9580 C.2   1 <1>   0.0870 
 11 O       -2.0830    -6.1980     1.5060 O.3   1 <1>  -0.0190 
 12 C       -4.0720    -5.6540     0.9060 C.2   1 <1>  -0.2330 
 13 N       -2.8140    -7.2280     1.8390 N.2   1 <1>  -0.4100 
 14 C       -4.0130    -6.9130     1.5020 C.2   1 <1>   0.3720 
 15 C       -5.2630    -5.0720     0.3560 C.2   1 <1>   1.0330 
 16 N       -5.1060    -7.7400     1.6980 N.pl3 1 <1>  -0.8520 
 17 O       -5.2360    -3.9770    -0.2250 O.co2 1 <1>  -0.9000 
 18 O       -6.3570    -5.6670     0.4290 O.co2 1 <1>  -0.9000 
 19 C       -5.0470    -8.9990     0.9380 C.3   1 <1>   0.2090 
 20 C       -6.4210    -9.6840     0.9090 C.3   1 <1>  -0.0800 
 21 C       -6.3140   -10.9950     0.1130 C.3   1 <1>   0.1200 
 22 C       -7.5160    -8.7820     0.3060 C.3   1 <1>  -0.1600 
 23 O       -7.5610   -11.6190     0.0270 O.3   1 <1>  -0.5600 
 24 C       -8.8080    -9.5810     0.1020 C.3   1 <1>  -0.1600 
 25 C       -8.5310   -10.8840    -0.6540 C.3   1 <1>   0.1200 
 26 H       -2.4590    -0.6490     0.4500 H     1 <1>   0.1500 
 27 H       -0.3320    -5.0460    -0.0860 H     1 <1>   0.1500 
 28 H       -3.6650    -2.6840     1.1080 H     1 <1>   0.1500 
 29 H        2.8700    -2.6150    -1.7510 H     1 <1>   0.0800 
 30 H        2.2140    -1.4660    -0.5920 H     1 <1>   0.0800 
 31 H        1.4430    -1.6770    -2.1750 H     1 <1>   0.0800 
 32 H       -5.9240    -7.1880     1.3570 H     1 <1>   0.4000 
 33 H       -4.3230    -9.6470     1.4010 H     1 <1>   0.0800 
 34 H       -4.7230    -8.7880    -0.0680 H     1 <1>   0.0800 
 35 H       -6.6860    -9.9340     1.9210 H     1 <1>   0.0800 
 36 H       -5.6430   -11.6780     0.6040 H     1 <1>   0.0800 
 37 H       -5.9580   -10.8130    -0.8870 H     1 <1>   0.0800 
 38 H       -7.1830    -8.3890    -0.6400 H     1 <1>   0.0800 
 39 H       -7.7130    -7.9450     0.9530 H     1 <1>   0.0800 
 40 H       -9.5170    -8.9860    -0.4450 H     1 <1>   0.0800 
 41 H       -9.2420    -9.8190     1.0570 H     1 <1>   0.0800 
 42 H       -9.4210   -11.4850    -0.7080 H     1 <1>   0.0800 
 43 H       -8.1770   -10.6870    -1.6520 H     1 <1>   0.0800 
@<TRIPOS>BOND
  1   1   2  1   
  2   2   3  ar  
  3   2   4  ar  
  4   3   5  1   
  5   3   6  ar  
  6   4   7  ar  
  7   4  26  1   
  8   5   8  1   
  9   6   9  ar  
 10   6  27  1   
 11   7   9  ar  
 12   7  28  1   
 13   8  29  1   
 14   8  30  1   
 15   8  31  1   
 16   9  10  1   
 17  10  11  1   
 18  10  12  2   
 19  11  13  1   
 20  12  14  1   
 21  12  15  1   
 22  13  14  2   
 23  14  16  1   
 24  15  17  ar  
 25  15  18  ar  
 26  16  19  1   
 27  16  32  1   
 28  19  20  1   
 29  19  33  1   
 30  19  34  1   
 31  20  21  1   
 32  20  22  1   
 33  20  35  1   
 34  21  23  1   
 35  21  36  1   
 36  21  37  1   
 37  22  24  1   
 38  22  38  1   
 39  22  39  1   
 40  23  25  1   
 41  24  25  1   
 42  24  40  1   
 43  24  41  1   
 44  25  42  1   
 45  25  43  1   
@<TRIPOS>SUBSTRUCTURE
  1 ****  12 GROUP 4 **** **** 0

# MOE 2024.06 (io_trps.svl 2023.06)
