@<TRIPOS>MOLECULE
NONAME
52 55 1 0 0 
SMALL
USER_CHARGES


@<TRIPOS>ATOM
  1 O       -0.6680    -1.5210    -0.6210 O.2   1 <1>  -0.5700 
  2 C        0.5040    -1.7660    -0.4560 C.2   1 <1>   0.5690 
  3 N        0.9530    -2.4480     0.6440 N.am  1 <1>  -0.6600 
  4 C        1.4710    -1.3160    -1.5380 C.3   1 <1>  -0.0990 
  5 C        2.3840    -2.7690     0.9030 C.3   1 <1>   0.1400 
  6 C        0.0120    -2.8640     1.7400 C.3   1 <1>   0.2010 
  7 C        2.9410    -1.3330    -1.0980 C.3   1 <1>  -0.1600 
  8 C        3.2380    -2.6420    -0.3620 C.3   1 <1>  -0.1600 
  9 C       -0.2080    -4.3780     1.8090 C.2   1 <1>   0.5690 
 10 O        0.4170    -5.0050     2.6350 O.2   1 <1>  -0.5700 
 11 N       -1.0830    -5.0050     0.9620 N.am  1 <1>  -0.6600 
 12 C       -1.8330    -4.3680    -0.1520 C.3   1 <1>   0.1400 
 13 C       -1.2500    -6.4780     0.9210 C.3   1 <1>   0.1400 
 14 C       -2.7950    -5.4530    -0.6280 C.3   1 <1>   0.2000 
 15 C       -2.0230    -6.7550    -0.3770 C.3   1 <1>  -0.0800 
 16 O       -3.9220    -5.4180     0.1810 O.3   1 <1>  -0.6800 
 17 C       -2.9000    -8.0240    -0.3310 C.3   1 <1>  -0.0170 
 18 C       -2.1650    -9.3670    -0.2250 C.ar  1 <1>  -0.1440 
 19 C       -2.9030   -10.5510     0.0250 C.ar  1 <1>   0.0000 
 20 C       -0.8120    -9.5020    -0.3710 C.ar  1 <1>  -0.1500 
 21 C       -2.1890   -11.7700     0.1330 C.ar  1 <1>   0.3100 
 22 C       -4.3100   -10.6000     0.1690 C.ar  1 <1>  -0.1500 
 23 C       -0.2050   -10.7580    -0.2500 C.ar  1 <1>   0.1600 
 24 N       -0.8430   -11.8560    -0.0060 N.ar  1 <1>  -0.6200 
 25 C       -2.8970   -12.9560     0.3900 C.ar  1 <1>  -0.1500 
 26 C       -4.9700   -11.7730     0.4170 C.ar  1 <1>  -0.1500 
 27 C       -4.2570   -12.9680     0.5320 C.ar  1 <1>  -0.1500 
 28 H        1.3440    -1.9750    -2.3770 H     1 <1>   0.0800 
 29 H        1.2010    -0.3250    -1.8550 H     1 <1>   0.0800 
 30 H        2.7540    -2.0910     1.6540 H     1 <1>   0.0800 
 31 H        2.4690    -3.7720     1.2870 H     1 <1>   0.0800 
 32 H        0.4130    -2.5380     2.6820 H     1 <1>   0.0800 
 33 H       -0.9400    -2.3800     1.6210 H     1 <1>   0.0800 
 34 H        3.5820    -1.2330    -1.9570 H     1 <1>   0.0800 
 35 H        3.1290    -0.5020    -0.4390 H     1 <1>   0.0800 
 36 H        4.2780    -2.6800    -0.0890 H     1 <1>   0.0800 
 37 H        3.0400    -3.4800    -1.0080 H     1 <1>   0.0800 
 38 H       -2.3550    -3.4790     0.1610 H     1 <1>   0.0800 
 39 H       -1.1440    -4.1200    -0.9410 H     1 <1>   0.0800 
 40 H       -0.2910    -6.9670     0.9350 H     1 <1>   0.0800 
 41 H       -1.8170    -6.7900     1.7820 H     1 <1>   0.0800 
 42 H       -3.1030    -5.3260    -1.6520 H     1 <1>   0.0800 
 43 H       -1.3120    -6.8510    -1.1780 H     1 <1>   0.0800 
 44 H       -3.6350    -5.3380     1.1130 H     1 <1>   0.4000 
 45 H       -3.5100    -8.0470    -1.2170 H     1 <1>   0.0800 
 46 H       -3.5610    -7.9390     0.5130 H     1 <1>   0.0800 
 47 H       -0.1620    -8.6760    -0.5810 H     1 <1>   0.1500 
 48 H       -4.8860    -9.6980     0.0790 H     1 <1>   0.1500 
 49 H        0.8640   -10.8120    -0.3680 H     1 <1>   0.1500 
 50 H       -2.3260   -13.8630     0.4720 H     1 <1>   0.1500 
 51 H       -6.0410   -11.7910     0.5250 H     1 <1>   0.1500 
 52 H       -4.7860   -13.8840     0.7290 H     1 <1>   0.1500 
@<TRIPOS>BOND
  1   1   2  2   
  2   2   3  am  
  3   2   4  1   
  4   3   5  1   
  5   3   6  1   
  6   4   7  1   
  7   4  28  1   
  8   4  29  1   
  9   5   8  1   
 10   5  30  1   
 11   5  31  1   
 12   6   9  1   
 13   6  32  1   
 14   6  33  1   
 15   7   8  1   
 16   7  34  1   
 17   7  35  1   
 18   8  36  1   
 19   8  37  1   
 20   9  10  2   
 21   9  11  am  
 22  11  12  1   
 23  11  13  1   
 24  12  14  1   
 25  12  38  1   
 26  12  39  1   
 27  13  15  1   
 28  13  40  1   
 29  13  41  1   
 30  14  15  1   
 31  14  16  1   
 32  14  42  1   
 33  15  17  1   
 34  15  43  1   
 35  16  44  1   
 36  17  18  1   
 37  17  45  1   
 38  17  46  1   
 39  18  19  ar  
 40  18  20  ar  
 41  19  21  ar  
 42  19  22  ar  
 43  20  23  ar  
 44  20  47  1   
 45  21  24  ar  
 46  21  25  ar  
 47  22  26  ar  
 48  22  48  1   
 49  23  24  ar  
 50  23  49  1   
 51  25  27  ar  
 52  25  50  1   
 53  26  27  ar  
 54  26  51  1   
 55  27  52  1   
@<TRIPOS>SUBSTRUCTURE
  1 ****  13 GROUP 4 **** **** 0

# MOE 2024.06 (io_trps.svl 2023.06)
