@<TRIPOS>MOLECULE
NONAME
46 48 1 0 0 
SMALL
USER_CHARGES


@<TRIPOS>ATOM
  1 O        1.7610    -0.0380     1.5850 O.2   1 <1>  -0.5700 
  2 C        2.0300    -0.4480     0.4750 C.2   1 <1>   0.5440 
  3 N        2.2610     0.4670    -0.5380 N.am  1 <1>  -0.6600 
  4 C        2.1070    -1.8690     0.2390 C.ar  1 <1>   0.0860 
  5 C        2.7150     0.0760    -1.9120 C.3   1 <1>   0.1400 
  6 C        1.9640     1.9120    -0.3250 C.3   1 <1>   0.1400 
  7 C        1.0780    -2.5600    -0.3900 C.ar  1 <1>   0.1660 
  8 C        3.2240    -2.6220     0.5790 C.ar  1 <1>   0.1660 
  9 C        3.8910     0.9290    -2.4310 C.3   1 <1>   0.3430 
 10 C        3.2100     2.6290     0.2030 C.3   1 <1>  -0.1600 
 11 N        1.1740    -3.8300    -0.7090 N.ar  1 <1>  -0.6200 
 12 C       -0.2370    -1.8950    -0.7650 C.3   1 <1>  -0.0960 
 13 N        3.3350    -3.8940     0.2650 N.ar  1 <1>  -0.6200 
 14 C        4.4150    -2.0470     1.3290 C.3   1 <1>  -0.0970 
 15 N        4.7630     1.4210    -1.3220 N.4   1 <1>  -0.9590 
 16 C        4.3640     2.7520    -0.7930 C.3   1 <1>   0.3430 
 17 C        2.3000    -4.4270    -0.3590 C.ar  1 <1>   0.4700 
 18 C        6.2230     1.3370    -1.6000 C.3   1 <1>   0.5230 
 19 C        6.9330     1.0610    -0.2800 C.2   1 <1>   0.0060 
 20 N        6.3100     0.6770     0.7920 N.2   1 <1>  -0.5650 
 21 N        8.2710     1.1840    -0.1080 N.pl3 1 <1>   0.0330 
 22 C        7.2880     0.5450     1.7090 C.2   1 <1>   0.0770 
 23 C        8.4890     0.8510     1.1760 C.2   1 <1>  -0.3020 
 24 H        1.8880     0.1560    -2.5960 H     1 <1>   0.0800 
 25 H        3.0300    -0.9530    -1.9180 H     1 <1>   0.0800 
 26 H        1.1700     2.0100     0.3990 H     1 <1>   0.0800 
 27 H        1.6190     2.3630    -1.2400 H     1 <1>   0.0800 
 28 H        3.4990     1.7700    -2.9800 H     1 <1>   0.0800 
 29 H        4.4620     0.3310    -3.1200 H     1 <1>   0.0800 
 30 H        3.5530     2.1350     1.0960 H     1 <1>   0.0800 
 31 H        2.9220     3.6230     0.4950 H     1 <1>   0.0800 
 32 H       -0.4460    -1.0440    -0.1430 H     1 <1>   0.0800 
 33 H       -1.0440    -2.5960    -0.6410 H     1 <1>   0.0800 
 34 H       -0.2100    -1.5860    -1.7930 H     1 <1>   0.0800 
 35 H        4.2200    -1.0700     1.7290 H     1 <1>   0.0800 
 36 H        5.2650    -1.9940     0.6740 H     1 <1>   0.0800 
 37 H        4.6630    -2.6940     2.1510 H     1 <1>   0.0800 
 38 H        4.6450     0.7870    -0.5050 H     1 <1>   0.4500 
 39 H        5.1990     3.1990    -0.2760 H     1 <1>   0.0800 
 40 H        4.0840     3.4040    -1.6050 H     1 <1>   0.0800 
 41 H        2.3830    -5.4720    -0.6120 H     1 <1>   0.1500 
 42 H        6.5770     2.2550    -2.0390 H     1 <1>   0.0800 
 43 H        6.4240     0.5220    -2.2740 H     1 <1>   0.0800 
 44 H        8.9900     1.4630    -0.7860 H     1 <1>   0.2700 
 45 H        7.0760     0.2340     2.7210 H     1 <1>   0.1500 
 46 H        9.4630     0.8470     1.6350 H     1 <1>   0.1500 
@<TRIPOS>BOND
  1   1   2  2   
  2   2   3  am  
  3   2   4  1   
  4   3   5  1   
  5   3   6  1   
  6   4   7  ar  
  7   4   8  ar  
  8   5   9  1   
  9   5  24  1   
 10   5  25  1   
 11   6  10  1   
 12   6  26  1   
 13   6  27  1   
 14   7  11  ar  
 15   7  12  1   
 16   8  13  ar  
 17   8  14  1   
 18   9  15  1   
 19   9  28  1   
 20   9  29  1   
 21  10  16  1   
 22  10  30  1   
 23  10  31  1   
 24  11  17  ar  
 25  12  32  1   
 26  12  33  1   
 27  12  34  1   
 28  13  17  ar  
 29  14  35  1   
 30  14  36  1   
 31  14  37  1   
 32  15  16  1   
 33  15  18  1   
 34  15  38  1   
 35  16  39  1   
 36  16  40  1   
 37  17  41  1   
 38  18  19  1   
 39  18  42  1   
 40  18  43  1   
 41  19  20  2   
 42  19  21  1   
 43  20  22  1   
 44  21  23  1   
 45  21  44  1   
 46  22  23  2   
 47  22  45  1   
 48  23  46  1   
@<TRIPOS>SUBSTRUCTURE
  1 ****   3 GROUP 4 **** **** 0

# MOE 2024.06 (io_trps.svl 2023.06)
