@<TRIPOS>MOLECULE
NONAME
59 61 1 0 0 
SMALL
USER_CHARGES


@<TRIPOS>ATOM
  1 O        0.9560    -4.0000     0.9840 O.2   1 <1>  -0.5700 
  2 C       -0.0820    -3.4110     0.7930 C.2   1 <1>   0.5690 
  3 N       -0.0970    -2.0910     0.4630 N.am  1 <1>  -0.7300 
  4 C       -1.4040    -4.1980     0.9310 C.3   1 <1>   0.1710 
  5 C        1.0530    -1.1960     0.3050 C.3   1 <1>   0.2200 
  6 N       -2.6910    -3.4850     0.6490 N.3   1 <1>  -0.8100 
  7 C        0.8230     0.0100     1.2250 C.3   1 <1>  -0.1600 
  8 C        1.1640    -0.8610    -1.1870 C.3   1 <1>  -0.1600 
  9 C       -2.7900    -3.0950    -0.7730 C.3   1 <1>   0.1100 
 10 C       -2.9580    -2.4410     1.6610 C.3   1 <1>   0.1100 
 11 C        2.0780     0.8840     1.3760 C.3   1 <1>  -0.1600 
 12 C        2.2380     0.1780    -1.5510 C.3   1 <1>  -0.1600 
 13 C       -4.0100    -2.2220    -1.0570 C.3   1 <1>  -0.1600 
 14 C       -4.1750    -1.5910     1.3090 C.3   1 <1>  -0.1600 
 15 C        2.2360     1.9780     0.3090 C.3   1 <1>  -0.1600 
 16 C        1.8440     1.6010    -1.1280 C.3   1 <1>  -0.1600 
 17 C       -4.0880    -1.0080    -0.1110 C.3   1 <1>   0.2800 
 18 O       -2.8540    -0.3140    -0.1930 O.3   1 <1>  -0.5600 
 19 C       -5.3140    -0.0610    -0.3830 C.3   1 <1>   0.2000 
 20 C       -2.7520     0.7050    -1.1320 C.3   1 <1>   0.1200 
 21 O       -5.7490    -0.1530    -1.7180 O.3   1 <1>  -0.6800 
 22 C       -4.9840     1.4240    -0.0550 C.3   1 <1>   0.2800 
 23 C       -3.6920     1.8670    -0.7700 C.3   1 <1>  -0.1600 
 24 O       -4.7740     1.5480     1.3050 O.3   1 <1>  -0.6800 
 25 C       -6.1440     2.3810    -0.3550 C.3   1 <1>  -0.2400 
 26 H       -1.0160    -1.6530     0.3180 H     1 <1>   0.3700 
 27 H       -1.4420    -4.5840     1.9340 H     1 <1>   0.0800 
 28 H       -1.3380    -5.0490     0.2770 H     1 <1>   0.0800 
 29 H        1.9450    -1.7140     0.6170 H     1 <1>   0.0800 
 30 H       -0.0110     0.5980     0.8850 H     1 <1>   0.0800 
 31 H        0.5800    -0.3720     2.2020 H     1 <1>   0.0800 
 32 H        1.4000    -1.7750    -1.7040 H     1 <1>   0.0800 
 33 H        0.2110    -0.5220    -1.5500 H     1 <1>   0.0800 
 34 H       -1.9160    -2.5590    -1.0900 H     1 <1>   0.0800 
 35 H       -2.8510    -3.9880    -1.3720 H     1 <1>   0.0800 
 36 H       -3.1280    -2.9150     2.6130 H     1 <1>   0.0800 
 37 H       -2.1190    -1.7830     1.7810 H     1 <1>   0.0800 
 38 H        2.0480     1.3660     2.3380 H     1 <1>   0.0800 
 39 H        2.9520     0.2540     1.3760 H     1 <1>   0.0800 
 40 H        3.1920    -0.0960    -1.1330 H     1 <1>   0.0800 
 41 H        2.3460     0.1700    -2.6220 H     1 <1>   0.0800 
 42 H       -4.8980    -2.8190    -0.9500 H     1 <1>   0.0800 
 43 H       -3.9630    -1.9050    -2.0810 H     1 <1>   0.0800 
 44 H       -4.2590    -0.8030     2.0320 H     1 <1>   0.0800 
 45 H       -5.0560    -2.1990     1.3990 H     1 <1>   0.0800 
 46 H        1.6460     2.8300     0.6000 H     1 <1>   0.0800 
 47 H        3.2650     2.2950     0.3140 H     1 <1>   0.0800 
 48 H        2.3220     2.3010    -1.7910 H     1 <1>   0.0800 
 49 H        0.7840     1.7320    -1.2550 H     1 <1>   0.0800 
 50 H       -6.1500    -0.3760     0.2140 H     1 <1>   0.0800 
 51 H       -1.7300     1.0420    -1.1430 H     1 <1>   0.0800 
 52 H       -2.9870     0.2960    -2.0990 H     1 <1>   0.0800 
 53 H       -5.0190     0.0790    -2.3190 H     1 <1>   0.4000 
 54 H       -3.9430     2.3620    -1.6910 H     1 <1>   0.0800 
 55 H       -3.1590     2.5840    -0.1720 H     1 <1>   0.0800 
 56 H       -4.5400     2.4690     1.5180 H     1 <1>   0.4000 
 57 H       -6.3780     2.3720    -1.4040 H     1 <1>   0.0800 
 58 H       -5.8930     3.3890    -0.0780 H     1 <1>   0.0800 
 59 H       -7.0240     2.0730     0.1800 H     1 <1>   0.0800 
@<TRIPOS>BOND
  1   1   2  2   
  2   2   3  am  
  3   2   4  1   
  4   3   5  1   
  5   3  26  1   
  6   4   6  1   
  7   4  27  1   
  8   4  28  1   
  9   5   7  1   
 10   5   8  1   
 11   5  29  1   
 12   6   9  1   
 13   6  10  1   
 14   7  11  1   
 15   7  30  1   
 16   7  31  1   
 17   8  12  1   
 18   8  32  1   
 19   8  33  1   
 20   9  13  1   
 21   9  34  1   
 22   9  35  1   
 23  10  14  1   
 24  10  36  1   
 25  10  37  1   
 26  11  15  1   
 27  11  38  1   
 28  11  39  1   
 29  12  16  1   
 30  12  40  1   
 31  12  41  1   
 32  13  17  1   
 33  13  42  1   
 34  13  43  1   
 35  14  17  1   
 36  14  44  1   
 37  14  45  1   
 38  15  16  1   
 39  15  46  1   
 40  15  47  1   
 41  16  48  1   
 42  16  49  1   
 43  17  18  1   
 44  17  19  1   
 45  18  20  1   
 46  19  21  1   
 47  19  22  1   
 48  19  50  1   
 49  20  23  1   
 50  20  51  1   
 51  20  52  1   
 52  21  53  1   
 53  22  23  1   
 54  22  24  1   
 55  22  25  1   
 56  23  54  1   
 57  23  55  1   
 58  24  56  1   
 59  25  57  1   
 60  25  58  1   
 61  25  59  1   
@<TRIPOS>SUBSTRUCTURE
  1 ****  18 GROUP 4 **** **** 0

# MOE 2024.06 (io_trps.svl 2023.06)
