@<TRIPOS>MOLECULE
NONAME
48 52 1 0 0 
SMALL
USER_CHARGES


@<TRIPOS>ATOM
  1 O       -0.5320     0.2270    -0.0890 O.2   1 <1>  -0.5700 
  2 C       -1.4710     0.8590     0.3740 C.2   1 <1>   0.7160 
  3 N       -2.6460     0.1570     0.5960 N.am  1 <1>  -0.6600 
  4 C       -1.3100     2.2880     0.6520 C.2   1 <1>   0.2030 
  5 C       -2.6870    -1.3390     0.6700 C.3   1 <1>   0.1400 
  6 C       -4.0000     0.7880     0.6850 C.3   1 <1>   0.1400 
  7 N       -2.0960     3.0790     1.3800 N.2   1 <1>  -0.7070 
  8 C       -0.2330     3.0490     0.1720 C.2   1 <1>  -0.1810 
  9 C       -3.7600    -1.9160    -0.2690 C.3   1 <1>   0.3440 
 10 C       -5.0180     0.0700    -0.2250 C.3   1 <1>   0.2950 
 11 N       -1.5220     4.2980     1.3570 N.pl3 1 <1>   0.3000 
 12 C       -0.3980     4.2830     0.6260 C.2   1 <1>  -0.3320 
 13 C        1.0130     2.9080    -0.6580 C.3   1 <1>   0.0210 
 14 O       -4.9990    -1.3110    -0.0080 O.3   1 <1>  -0.5600 
 15 C       -3.8780    -3.4270    -0.0870 C.ar  1 <1>  -0.1430 
 16 C       -6.4470     0.5550     0.0370 C.3   1 <1>  -0.1950 
 17 C        0.6790     5.2450     0.2120 C.3   1 <1>   0.0200 
 18 C        1.5640     4.3570    -0.6990 C.3   1 <1>  -0.1600 
 19 C       -3.1010    -4.2720    -0.8670 C.ar  1 <1>  -0.1500 
 20 C       -4.7370    -3.9810     0.8540 C.ar  1 <1>  -0.1500 
 21 C       -7.5180     0.4050    -0.9960 C.3   1 <1>  -0.2000 
 22 C       -6.9900     1.7690    -0.6510 C.3   1 <1>  -0.2000 
 23 C       -3.1800    -5.6460    -0.7100 C.ar  1 <1>  -0.1500 
 24 C       -4.8170    -5.3540     1.0120 C.ar  1 <1>  -0.1500 
 25 C       -4.0380    -6.1870     0.2300 C.ar  1 <1>  -0.1500 
 26 H       -1.7330    -1.7630     0.4120 H     1 <1>   0.0800 
 27 H       -2.9110    -1.6350     1.6790 H     1 <1>   0.0800 
 28 H       -4.3380     0.7540     1.7060 H     1 <1>   0.0800 
 29 H       -3.9610     1.8180     0.3830 H     1 <1>   0.0800 
 30 H       -3.4970    -1.7050    -1.2900 H     1 <1>   0.0800 
 31 H       -4.7650     0.2480    -1.2560 H     1 <1>   0.0800 
 32 H       -1.9140     5.1100     1.8490 H     1 <1>   0.2700 
 33 H        1.7020     2.2370    -0.1750 H     1 <1>   0.0800 
 34 H        0.7760     2.5430    -1.6420 H     1 <1>   0.0800 
 35 H       -6.7360     0.4080     1.0630 H     1 <1>   0.1000 
 36 H        0.2700     6.0790    -0.3310 H     1 <1>   0.0800 
 37 H        1.2280     5.5900     1.0710 H     1 <1>   0.0800 
 38 H        1.5220     4.7260    -1.7080 H     1 <1>   0.0800 
 39 H        2.5870     4.3780    -0.3670 H     1 <1>   0.0800 
 40 H       -2.4280    -3.8660    -1.6020 H     1 <1>   0.1500 
 41 H       -5.3490    -3.3400     1.4650 H     1 <1>   0.1500 
 42 H       -7.2600    -0.0350    -1.9440 H     1 <1>   0.1000 
 43 H       -8.5050     0.1260    -0.6700 H     1 <1>   0.1000 
 44 H       -7.6210     2.4410    -0.0950 H     1 <1>   0.1000 
 45 H       -6.3860     2.2810    -1.3800 H     1 <1>   0.1000 
 46 H       -2.5750    -6.2930    -1.3200 H     1 <1>   0.1500 
 47 H       -5.4880    -5.7710     1.7430 H     1 <1>   0.1500 
 48 H       -4.1010    -7.2540     0.3520 H     1 <1>   0.1500 
@<TRIPOS>BOND
  1   1   2  2   
  2   2   3  am  
  3   2   4  1   
  4   3   5  1   
  5   3   6  1   
  6   4   7  2   
  7   4   8  1   
  8   5   9  1   
  9   5  26  1   
 10   5  27  1   
 11   6  10  1   
 12   6  28  1   
 13   6  29  1   
 14   7  11  1   
 15   8  12  2   
 16   8  13  1   
 17   9  14  1   
 18   9  15  1   
 19   9  30  1   
 20  10  14  1   
 21  10  16  1   
 22  10  31  1   
 23  11  12  1   
 24  11  32  1   
 25  12  17  1   
 26  13  18  1   
 27  13  33  1   
 28  13  34  1   
 29  15  19  ar  
 30  15  20  ar  
 31  16  21  1   
 32  16  22  1   
 33  16  35  1   
 34  17  18  1   
 35  17  36  1   
 36  17  37  1   
 37  18  38  1   
 38  18  39  1   
 39  19  23  ar  
 40  19  40  1   
 41  20  24  ar  
 42  20  41  1   
 43  21  22  1   
 44  21  42  1   
 45  21  43  1   
 46  22  44  1   
 47  22  45  1   
 48  23  25  ar  
 49  23  46  1   
 50  24  25  ar  
 51  24  47  1   
 52  25  48  1   
@<TRIPOS>SUBSTRUCTURE
  1 ****   3 GROUP 4 **** **** 0

# MOE 2024.06 (io_trps.svl 2023.06)
