@<TRIPOS>MOLECULE
NONAME
22 23 1 0 0 
SMALL
USER_CHARGES


@<TRIPOS>ATOM
  1 C        6.6240     6.8580    -0.0010 C.2   1 <1>  -0.1380 
  2 C        7.6970     7.6510    -0.0040 C.2   1 <1>  -0.2880 
  3 C        6.5460     5.4220    -0.0010 C.2   1 <1>  -0.1380 
  4 C        5.3540     7.6770     0.0030 C.3   1 <1>  -0.0220 
  5 C        7.3680     9.1210    -0.0030 C.3   1 <1>  -0.0220 
  6 C        7.8190     4.5780    -0.0040 C.3   1 <1>   0.1160 
  7 C        5.4750     4.6040     0.0020 C.2   1 <1>  -0.1500 
  8 C        5.8310     9.1420     0.0000 C.3   1 <1>  -0.1600 
  9 C        7.2190     3.1790    -0.0030 C.2   1 <1>  -0.2880 
 10 C        5.8840     3.2400     0.0010 C.2   1 <1>  -0.1500 
 11 H        8.7330     7.3640    -0.0060 H     1 <1>   0.1500 
 12 H        4.7760     7.4630     0.8840 H     1 <1>   0.0800 
 13 H        4.7700     7.4620    -0.8750 H     1 <1>   0.0800 
 14 H        7.7610     9.5970    -0.8840 H     1 <1>   0.0800 
 15 H        7.7640     9.5960     0.8780 H     1 <1>   0.0800 
 16 H        8.4050     4.7560     0.8800 H     1 <1>   0.0800 
 17 H        8.4000     4.7560    -0.8910 H     1 <1>   0.0800 
 18 H        4.4380     4.8870     0.0050 H     1 <1>   0.1500 
 19 H        5.4680     9.6520     0.8750 H     1 <1>   0.0800 
 20 H        5.4650     9.6480    -0.8760 H     1 <1>   0.0800 
 21 H        7.8670     2.3210    -0.0040 H     1 <1>   0.1500 
 22 H        5.1800     2.4260     0.0030 H     1 <1>   0.1500 
@<TRIPOS>BOND
  1   1   2  2   
  2   1   3  1   
  3   1   4  1   
  4   2   5  1   
  5   2  11  1   
  6   3   6  1   
  7   3   7  2   
  8   4   8  1   
  9   4  12  1   
 10   4  13  1   
 11   5   8  1   
 12   5  14  1   
 13   5  15  1   
 14   6   9  1   
 15   6  16  1   
 16   6  17  1   
 17   7  10  1   
 18   7  18  1   
 19   8  19  1   
 20   8  20  1   
 21   9  10  2   
 22   9  21  1   
 23  10  22  1   
@<TRIPOS>SUBSTRUCTURE
  1 ****   1 GROUP 4 **** **** 0

# MOE 2024.06 (io_trps.svl 2023.06)
