@<TRIPOS>MOLECULE
NONAME
51 54 1 0 0 
SMALL
USER_CHARGES


@<TRIPOS>ATOM
  1 O       -0.9800     0.3870     1.8000 O.2   1 <1>  -0.5700 
  2 C       -1.5420     0.9040     0.8640 C.2   1 <1>   0.5690 
  3 N       -2.3170     0.1710     0.0110 N.am  1 <1>  -0.6600 
  4 C       -1.3870     2.3970     0.6530 C.3   1 <1>  -0.0990 
  5 C       -3.1270     0.6810    -1.1250 C.3   1 <1>   0.1400 
  6 C       -2.4960    -1.2950     0.1540 C.3   1 <1>   0.1400 
  7 C       -0.1120     2.9400     1.3110 C.3   1 <1>   0.0960 
  8 C       -4.1490    -0.4250    -1.3820 C.3   1 <1>   0.2000 
  9 C       -3.3900    -1.7090    -1.0240 C.3   1 <1>  -0.0800 
 10 N        0.0090     4.3900     1.0770 N.pl3 1 <1>   0.3140 
 11 O       -5.2050    -0.2440    -0.5010 O.3   1 <1>  -0.6800 
 12 C       -4.2930    -2.9280    -0.7340 C.3   1 <1>  -0.0160 
 13 N        0.1440     4.9040    -0.1600 N.2   1 <1>  -0.7070 
 14 C       -0.0130     5.3630     2.0090 C.2   1 <1>  -0.3020 
 15 C       -3.5900    -4.2750    -0.5220 C.ar  1 <1>  -0.1440 
 16 C        0.2080     6.1850     0.0160 C.2   1 <1>   0.1080 
 17 C        0.1150     6.5370     1.3570 C.2   1 <1>  -0.1500 
 18 C       -4.3380    -5.3900    -0.0660 C.ar  1 <1>   0.0000 
 19 C       -2.2590    -4.4800    -0.7590 C.ar  1 <1>  -0.1500 
 20 C        0.3680     7.1520    -1.1320 C.3   1 <1>  -0.0590 
 21 C       -3.6540    -6.6150     0.1320 C.ar  1 <1>   0.3100 
 22 C       -5.7290    -5.3640     0.1980 C.ar  1 <1>  -0.1500 
 23 C       -1.6820    -5.7360    -0.5340 C.ar  1 <1>   0.1600 
 24 N       -2.3290    -6.7710    -0.1050 N.ar  1 <1>  -0.6200 
 25 C       -4.3720    -7.7320     0.5910 C.ar  1 <1>  -0.1500 
 26 C       -6.3990    -6.4720     0.6430 C.ar  1 <1>  -0.1500 
 27 C       -5.7140    -7.6720     0.8440 C.ar  1 <1>  -0.1500 
 28 H       -1.3400     2.6020    -0.4000 H     1 <1>   0.0800 
 29 H       -2.2450     2.8900     1.0690 H     1 <1>   0.0800 
 30 H       -3.6050     1.6180    -0.8980 H     1 <1>   0.0800 
 31 H       -2.4900     0.7980    -1.9850 H     1 <1>   0.0800 
 32 H       -1.5420    -1.7930     0.1330 H     1 <1>   0.0800 
 33 H       -2.9770    -1.4990     1.0960 H     1 <1>   0.0800 
 34 H        0.7530     2.4590     0.8930 H     1 <1>   0.0800 
 35 H       -0.1300     2.7590     2.3700 H     1 <1>   0.0800 
 36 H       -4.5350    -0.4200    -2.3870 H     1 <1>   0.0800 
 37 H       -2.7570    -1.9380    -1.8620 H     1 <1>   0.0800 
 38 H       -4.8440    -0.1050     0.3980 H     1 <1>   0.4000 
 39 H       -4.9840    -3.0390    -1.5520 H     1 <1>   0.0800 
 40 H       -4.8710    -2.7110     0.1470 H     1 <1>   0.0800 
 41 H       -0.1160     5.1700     3.0610 H     1 <1>   0.1500 
 42 H        0.1420     7.5330     1.7590 H     1 <1>   0.1500 
 43 H       -1.6050    -3.7120    -1.1220 H     1 <1>   0.1500 
 44 H        0.4030     8.1630    -0.7710 H     1 <1>   0.0800 
 45 H       -0.4610     7.0460    -1.8080 H     1 <1>   0.0800 
 46 H        1.2780     6.9330    -1.6600 H     1 <1>   0.0800 
 47 H       -6.2820    -4.4570     0.0460 H     1 <1>   0.1500 
 48 H       -0.6290    -5.8470    -0.7310 H     1 <1>   0.1500 
 49 H       -3.8230    -8.6440     0.7360 H     1 <1>   0.1500 
 50 H       -7.4570    -6.4340     0.8410 H     1 <1>   0.1500 
 51 H       -6.2520    -8.5360     1.1950 H     1 <1>   0.1500 
@<TRIPOS>BOND
  1   1   2  2   
  2   2   3  am  
  3   2   4  1   
  4   3   5  1   
  5   3   6  1   
  6   4   7  1   
  7   4  28  1   
  8   4  29  1   
  9   5   8  1   
 10   5  30  1   
 11   5  31  1   
 12   6   9  1   
 13   6  32  1   
 14   6  33  1   
 15   7  10  1   
 16   7  34  1   
 17   7  35  1   
 18   8   9  1   
 19   8  11  1   
 20   8  36  1   
 21   9  12  1   
 22   9  37  1   
 23  10  13  1   
 24  10  14  1   
 25  11  38  1   
 26  12  15  1   
 27  12  39  1   
 28  12  40  1   
 29  13  16  2   
 30  14  17  2   
 31  14  41  1   
 32  15  18  ar  
 33  15  19  ar  
 34  16  17  1   
 35  16  20  1   
 36  17  42  1   
 37  18  21  ar  
 38  18  22  ar  
 39  19  23  ar  
 40  19  43  1   
 41  20  44  1   
 42  20  45  1   
 43  20  46  1   
 44  21  24  ar  
 45  21  25  ar  
 46  22  26  ar  
 47  22  47  1   
 48  23  24  ar  
 49  23  48  1   
 50  25  27  ar  
 51  25  49  1   
 52  26  27  ar  
 53  26  50  1   
 54  27  51  1   
@<TRIPOS>SUBSTRUCTURE
  1 ****   6 GROUP 4 **** **** 0

# MOE 2024.06 (io_trps.svl 2023.06)
