@<TRIPOS>MOLECULE
NONAME
41 42 1 0 0 
SMALL
USER_CHARGES


@<TRIPOS>ATOM
  1 CL      -2.4000    -1.6860     1.5920 Cl    1 <1>  -0.1770 
  2 C       -2.3910    -0.0870     0.8820 C.ar  1 <1>   0.1770 
  3 C       -1.9020     0.9800     1.6160 C.ar  1 <1>   0.1770 
  4 C       -2.8730     0.0990    -0.4110 C.ar  1 <1>   0.0860 
  5 CL      -1.3010     0.7490     3.2420 Cl    1 <1>  -0.1770 
  6 C       -1.8750     2.2560     1.0830 C.ar  1 <1>  -0.1500 
  7 C       -3.3940    -0.9950    -1.1950 C.2   1 <1>   0.5440 
  8 C       -2.8330     1.3920    -0.9380 C.ar  1 <1>  -0.1500 
  9 C       -2.3430     2.4590    -0.2040 C.ar  1 <1>  -0.1500 
 10 O       -2.7020    -1.4460    -2.0870 O.2   1 <1>  -0.5700 
 11 N       -4.6620    -1.4980    -0.9900 N.am  1 <1>  -0.6600 
 12 C       -5.1500    -2.7170    -1.7130 C.3   1 <1>   0.1400 
 13 C       -5.6710    -0.8700    -0.0930 C.3   1 <1>   0.1400 
 14 C       -5.7320    -3.7420    -0.7310 C.3   1 <1>   0.2000 
 15 C       -6.2650    -1.8950     0.8840 C.3   1 <1>  -0.1600 
 16 O       -6.2290    -4.8230    -1.4400 O.3   1 <1>  -0.6800 
 17 C       -6.8100    -3.2100     0.2520 C.3   1 <1>  -0.1060 
 18 C       -6.9550    -4.2960     1.3400 C.2   1 <1>   0.9060 
 19 C       -8.2500    -3.0300    -0.3420 C.3   1 <1>  -0.1600 
 20 O       -7.0320    -3.9720     2.5320 O.co2 1 <1>  -0.9000 
 21 O       -7.0320    -5.4850     0.9910 O.co2 1 <1>  -0.9000 
 22 C       -8.5560    -1.8620    -1.2930 C.3   1 <1>  -0.1600 
 23 C       -9.9750    -1.9800    -1.8560 C.3   1 <1>  -0.2400 
 24 H       -1.4900     3.0740     1.6680 H     1 <1>   0.1500 
 25 H       -3.1900     1.5490    -1.9420 H     1 <1>   0.1500 
 26 H       -2.3230     3.4470    -0.6350 H     1 <1>   0.1500 
 27 H       -5.8870    -2.4320    -2.4350 H     1 <1>   0.0800 
 28 H       -4.3370    -3.1860    -2.2380 H     1 <1>   0.0800 
 29 H       -5.2300    -0.0740     0.4790 H     1 <1>   0.0800 
 30 H       -6.4360    -0.4310    -0.7020 H     1 <1>   0.0800 
 31 H       -4.9080    -4.1190    -0.1490 H     1 <1>   0.0800 
 32 H       -5.4830    -2.1540     1.5780 H     1 <1>   0.0800 
 33 H       -7.0420    -1.4320     1.4660 H     1 <1>   0.0800 
 34 H       -6.6250    -5.4150    -0.7370 H     1 <1>   0.4000 
 35 H       -8.5250    -3.9480    -0.8330 H     1 <1>   0.0800 
 36 H       -8.9240    -2.9360     0.4930 H     1 <1>   0.0800 
 37 H       -8.4870    -0.9330    -0.7580 H     1 <1>   0.0800 
 38 H       -7.8660    -1.8500    -2.1130 H     1 <1>   0.0800 
 39 H      -10.6960    -1.9840    -1.0570 H     1 <1>   0.0800 
 40 H      -10.0780    -2.8910    -2.4190 H     1 <1>   0.0800 
 41 H      -10.1850    -1.1490    -2.5060 H     1 <1>   0.0800 
@<TRIPOS>BOND
  1   1   2  1   
  2   2   3  ar  
  3   2   4  ar  
  4   3   5  1   
  5   3   6  ar  
  6   4   7  1   
  7   4   8  ar  
  8   6   9  ar  
  9   6  24  1   
 10   7  10  2   
 11   7  11  am  
 12   8   9  ar  
 13   8  25  1   
 14   9  26  1   
 15  11  12  1   
 16  11  13  1   
 17  12  14  1   
 18  12  27  1   
 19  12  28  1   
 20  13  15  1   
 21  13  29  1   
 22  13  30  1   
 23  14  16  1   
 24  14  17  1   
 25  14  31  1   
 26  15  17  1   
 27  15  32  1   
 28  15  33  1   
 29  16  34  1   
 30  17  18  1   
 31  17  19  1   
 32  18  20  ar  
 33  18  21  ar  
 34  19  22  1   
 35  19  35  1   
 36  19  36  1   
 37  22  23  1   
 38  22  37  1   
 39  22  38  1   
 40  23  39  1   
 41  23  40  1   
 42  23  41  1   
@<TRIPOS>SUBSTRUCTURE
  1 ****  13 GROUP 4 **** **** 0

# MOE 2024.06 (io_trps.svl 2023.06)
