@<TRIPOS>MOLECULE
NONAME
52 54 1 0 0 
SMALL
USER_CHARGES


@<TRIPOS>ATOM
  1 O       -0.2200    -0.3850     0.1010 O.2   1 <1>  -0.5700 
  2 C       -1.1900     0.3430    -0.0040 C.2   1 <1>   0.6900 
  3 N       -2.4490    -0.1830     0.0770 N.am  1 <1>  -0.6600 
  4 N       -1.0680     1.6850    -0.2130 N.am  1 <1>  -0.5470 
  5 C       -3.7090     0.5850     0.1920 C.3   1 <1>   0.1400 
  6 C       -2.6950    -1.6310     0.2290 C.3   1 <1>   0.1400 
  7 C        0.0120     2.5810    -0.2990 C.ar  1 <1>   0.1170 
  8 C       -4.7220    -0.3990     0.7950 C.3   1 <1>  -0.0800 
  9 C       -4.2130    -1.7860     0.3580 C.3   1 <1>  -0.0800 
 10 C       -0.2630     3.9060    -0.6560 C.ar  1 <1>   0.0830 
 11 C        1.3290     2.2180    -0.0400 C.ar  1 <1>  -0.1500 
 12 C       -6.2250    -0.1180     0.4820 C.3   1 <1>   0.2800 
 13 C       -4.8740    -2.2220    -0.9590 C.3   1 <1>  -0.1600 
 14 O       -1.5710     4.2310    -0.8970 O.3   1 <1>  -0.3630 
 15 C        0.7730     4.8300    -0.7510 C.ar  1 <1>  -0.1500 
 16 C        2.3600     3.1370    -0.1370 C.ar  1 <1>  -0.1430 
 17 O       -6.3480     0.5730    -0.7090 O.3   1 <1>  -0.6800 
 18 C       -6.9860    -1.4440     0.2980 C.3   1 <1>  -0.1600 
 19 C       -6.9110     0.7370     1.5710 C.3   1 <1>  -0.1600 
 20 C       -6.4030    -2.3420    -0.8150 C.3   1 <1>  -0.1600 
 21 C       -1.9350     5.5210    -1.3380 C.3   1 <1>   0.0400 
 22 C        2.0770     4.4440    -0.4930 C.ar  1 <1>  -0.1500 
 23 C        3.7890     2.7130     0.1500 C.3   1 <1>  -0.0970 
 24 C       -6.3040     2.1330     1.8020 C.3   1 <1>  -0.2400 
 25 H       -1.9540     2.1350    -0.4220 H     1 <1>   0.3700 
 26 H       -3.5800     1.4470     0.8220 H     1 <1>   0.0800 
 27 H       -3.9950     0.8980    -0.7960 H     1 <1>   0.0800 
 28 H       -2.3010    -2.1670    -0.6180 H     1 <1>   0.0800 
 29 H       -2.2030    -1.9730     1.1230 H     1 <1>   0.0800 
 30 H       -4.5940    -0.3630     1.8620 H     1 <1>   0.0800 
 31 H       -4.4300    -2.5260     1.1090 H     1 <1>   0.0800 
 32 H        1.5540     1.2070     0.2430 H     1 <1>   0.1500 
 33 H       -4.6510    -1.4870    -1.7160 H     1 <1>   0.0800 
 34 H       -4.4670    -3.1610    -1.2910 H     1 <1>   0.0800 
 35 H        0.5910     5.8520    -1.0220 H     1 <1>   0.1500 
 36 H       -7.2910     0.6560    -0.9350 H     1 <1>   0.4000 
 37 H       -6.9340    -1.9850     1.2260 H     1 <1>   0.0800 
 38 H       -8.0280    -1.2590     0.1040 H     1 <1>   0.0800 
 39 H       -7.9500     0.8550     1.3170 H     1 <1>   0.0800 
 40 H       -6.8800     0.1990     2.5020 H     1 <1>   0.0800 
 41 H       -6.6650    -3.3640    -0.6050 H     1 <1>   0.0800 
 42 H       -6.8520    -2.0820    -1.7580 H     1 <1>   0.0800 
 43 H       -2.9990     5.5340    -1.4910 H     1 <1>   0.0800 
 44 H       -1.4300     5.7280    -2.2650 H     1 <1>   0.0800 
 45 H       -1.6660     6.2380    -0.5830 H     1 <1>   0.0800 
 46 H        2.8710     5.1670    -0.5680 H     1 <1>   0.1500 
 47 H        4.4760     3.2650    -0.4660 H     1 <1>   0.0800 
 48 H        3.9180     1.6650    -0.0540 H     1 <1>   0.0800 
 49 H        4.0220     2.8950     1.1830 H     1 <1>   0.0800 
 50 H       -6.2670     2.6910     0.8830 H     1 <1>   0.0800 
 51 H       -5.3100     2.0570     2.2040 H     1 <1>   0.0800 
 52 H       -6.9060     2.6800     2.5060 H     1 <1>   0.0800 
@<TRIPOS>BOND
  1   1   2  2   
  2   2   3  am  
  3   2   4  am  
  4   3   5  1   
  5   3   6  1   
  6   4   7  1   
  7   4  25  1   
  8   5   8  1   
  9   5  26  1   
 10   5  27  1   
 11   6   9  1   
 12   6  28  1   
 13   6  29  1   
 14   7  10  ar  
 15   7  11  ar  
 16   8   9  1   
 17   8  12  1   
 18   8  30  1   
 19   9  13  1   
 20   9  31  1   
 21  10  14  1   
 22  10  15  ar  
 23  11  16  ar  
 24  11  32  1   
 25  12  17  1   
 26  12  18  1   
 27  12  19  1   
 28  13  20  1   
 29  13  33  1   
 30  13  34  1   
 31  14  21  1   
 32  15  22  ar  
 33  15  35  1   
 34  16  22  ar  
 35  16  23  1   
 36  17  36  1   
 37  18  20  1   
 38  18  37  1   
 39  18  38  1   
 40  19  24  1   
 41  19  39  1   
 42  19  40  1   
 43  20  41  1   
 44  20  42  1   
 45  21  43  1   
 46  21  44  1   
 47  21  45  1   
 48  22  46  1   
 49  23  47  1   
 50  23  48  1   
 51  23  49  1   
 52  24  50  1   
 53  24  51  1   
 54  24  52  1   
@<TRIPOS>SUBSTRUCTURE
  1 ****   3 GROUP 4 **** **** 0

# MOE 2024.06 (io_trps.svl 2023.06)
