@<TRIPOS>MOLECULE
NONAME
40 41 1 0 0 
SMALL
USER_CHARGES


@<TRIPOS>ATOM
  1 S        0.6430     0.2630    -1.1820 S.o2  1 <1>   1.3330 
  2 O        0.5660    -1.1810    -1.1900 O.2   1 <1>  -0.6500 
  3 O       -0.0220     1.0180    -2.2190 O.2   1 <1>  -0.6500 
  4 N        0.0420     0.8080     0.3090 N.am  1 <1>  -0.8490 
  5 C        2.3750     0.7300    -1.1420 C.3   1 <1>  -0.0550 
  6 C       -0.1340     2.2630     0.3690 C.3   1 <1>   0.1160 
  7 C       -1.2100     0.1390     0.6700 C.3   1 <1>   0.1160 
  8 C        3.1380     0.2400     0.1010 C.3   1 <1>  -0.0800 
  9 C        4.5740     0.7290     0.1190 C.3   1 <1>   0.2890 
 10 C        3.3040    -1.2710     0.2020 C.3   1 <1>   0.1200 
 11 N        4.6610     2.0150     0.8450 N.pl3 1 <1>  -0.8690 
 12 C        5.3370    -0.4020     0.8130 C.3   1 <1>   0.1200 
 13 O        4.4380    -1.4580     0.9870 O.3   1 <1>  -0.5600 
 14 C        4.8420     3.2340     0.2990 C.ar  1 <1>   0.7200 
 15 N        5.0820     4.1940     1.1730 N.ar  1 <1>  -0.6200 
 16 N        4.7550     3.3520    -1.0190 N.ar  1 <1>  -0.6200 
 17 C        5.2720     5.4160     0.6910 C.ar  1 <1>   0.1670 
 18 C        4.9430     4.5570    -1.4910 C.ar  1 <1>   0.1600 
 19 C        5.2080     5.6310    -0.6750 C.ar  1 <1>  -0.1500 
 20 C        5.5650     6.5960     1.6610 C.3   1 <1>   1.1630 
 21 F        5.7190     7.7580     1.0290 F     1 <1>  -0.3400 
 22 F        6.6770     6.4220     2.3680 F     1 <1>  -0.3400 
 23 F        4.5870     6.7920     2.5400 F     1 <1>  -0.3400 
 24 H        2.8570     0.3580    -2.0260 H     1 <1>   0.0800 
 25 H        2.4400     1.8000    -1.1730 H     1 <1>   0.0800 
 26 H       -0.4570     2.5550     1.3540 H     1 <1>   0.0800 
 27 H       -0.8680     2.5860    -0.3510 H     1 <1>   0.0800 
 28 H        0.7980     2.7600     0.1620 H     1 <1>   0.0800 
 29 H       -1.5540     0.4840     1.6300 H     1 <1>   0.0800 
 30 H       -1.0540    -0.9250     0.7310 H     1 <1>   0.0800 
 31 H       -1.9670     0.3360    -0.0720 H     1 <1>   0.0800 
 32 H        2.6370     0.5700     0.9950 H     1 <1>   0.0800 
 33 H        4.9590     0.8320    -0.8810 H     1 <1>   0.0800 
 34 H        3.4860    -1.7190    -0.7600 H     1 <1>   0.0800 
 35 H        2.4620    -1.7480     0.6760 H     1 <1>   0.0800 
 36 H        4.7050     1.9850     1.8630 H     1 <1>   0.4000 
 37 H        5.7020    -0.1100     1.7810 H     1 <1>   0.0800 
 38 H        6.1480    -0.7510     0.1990 H     1 <1>   0.0800 
 39 H        4.8860     4.6960    -2.5580 H     1 <1>   0.1500 
 40 H        5.3560     6.6030    -1.1090 H     1 <1>   0.1500 
@<TRIPOS>BOND
  1   1   2  2   
  2   1   3  2   
  3   1   4  am  
  4   1   5  1   
  5   4   6  1   
  6   4   7  1   
  7   5   8  1   
  8   5  24  1   
  9   5  25  1   
 10   6  26  1   
 11   6  27  1   
 12   6  28  1   
 13   7  29  1   
 14   7  30  1   
 15   7  31  1   
 16   8   9  1   
 17   8  10  1   
 18   8  32  1   
 19   9  11  1   
 20   9  12  1   
 21   9  33  1   
 22  10  13  1   
 23  10  34  1   
 24  10  35  1   
 25  11  14  1   
 26  11  36  1   
 27  12  13  1   
 28  12  37  1   
 29  12  38  1   
 30  14  15  ar  
 31  14  16  ar  
 32  15  17  ar  
 33  16  18  ar  
 34  17  19  ar  
 35  17  20  1   
 36  18  19  ar  
 37  18  39  1   
 38  19  40  1   
 39  20  21  1   
 40  20  22  1   
 41  20  23  1   
@<TRIPOS>SUBSTRUCTURE
  1 ****  11 GROUP 4 **** **** 0

# MOE 2024.06 (io_trps.svl 2023.06)
