@<TRIPOS>MOLECULE
NONAME
52 54 1 0 0 
SMALL
USER_CHARGES


@<TRIPOS>ATOM
  1 O        0.4080    -1.1640     1.8000 O.3   1 <1>  -0.5600 
  2 C        0.5160    -1.6720     0.5030 C.3   1 <1>   0.2000 
  3 C       -0.8970    -0.9990     2.2570 C.3   1 <1>   0.0400 
  4 C        1.9250    -1.4380    -0.0710 C.3   1 <1>   0.0000 
  5 C        0.2960    -3.1890     0.4930 C.3   1 <1>  -0.1600 
  6 C        3.0050    -1.5770     1.0300 C.3   1 <1>   0.2090 
  7 C        2.0500    -0.0430    -0.7210 C.3   1 <1>  -0.1600 
  8 C        2.0410    -2.5720    -1.1070 C.3   1 <1>  -0.1600 
  9 C        1.3200    -3.7710    -0.4890 C.3   1 <1>  -0.1600 
 10 N        4.3830    -1.3690     0.4630 N.pl3 1 <1>  -0.8380 
 11 C        3.4860     0.2350    -1.1990 C.3   1 <1>  -0.1600 
 12 C        5.3800    -2.2870     0.4290 C.ar  1 <1>   0.4100 
 13 C        4.5160     0.0210    -0.0830 C.3   1 <1>   0.2090 
 14 N        6.5720    -1.8890    -0.0420 N.ar  1 <1>  -0.6200 
 15 C        5.2230    -3.6160     0.8540 C.ar  1 <1>  -0.1500 
 16 C        7.5550    -2.7350    -0.0810 C.ar  1 <1>   0.5280 
 17 C        6.2730    -4.4820     0.8000 C.ar  1 <1>   0.2180 
 18 N        7.4430    -4.0160     0.3260 N.ar  1 <1>  -0.1790 
 19 C        8.8990    -2.2590    -0.6120 C.3   1 <1>  -0.0170 
 20 C        6.1760    -5.9310     1.2460 C.3   1 <1>  -0.0970 
 21 C        9.9600    -2.1470     0.4960 C.3   1 <1>  -0.1600 
 22 C       11.2980    -1.6540    -0.0660 C.3   1 <1>  -0.2400 
 23 H       -0.2100    -1.1890    -0.1300 H     1 <1>   0.0800 
 24 H       -0.8520    -0.6020     3.2560 H     1 <1>   0.0800 
 25 H       -1.3980    -1.9510     2.2700 H     1 <1>   0.0800 
 26 H       -1.4130    -0.3060     1.6160 H     1 <1>   0.0800 
 27 H        0.4570    -3.6020     1.4740 H     1 <1>   0.0800 
 28 H       -0.7060    -3.4130     0.1710 H     1 <1>   0.0800 
 29 H        2.9030    -2.5210     1.5250 H     1 <1>   0.0800 
 30 H        2.8390    -0.8230     1.7810 H     1 <1>   0.0800 
 31 H        1.3680     0.0500    -1.5480 H     1 <1>   0.0800 
 32 H        1.7790     0.7020     0.0090 H     1 <1>   0.0800 
 33 H        1.5230    -2.2880    -2.0070 H     1 <1>   0.0800 
 34 H        3.0590    -2.8020    -1.3650 H     1 <1>   0.0800 
 35 H        2.0230    -4.3850     0.0460 H     1 <1>   0.0800 
 36 H        0.8450    -4.3700    -1.2470 H     1 <1>   0.0800 
 37 H        3.5550     1.2490    -1.5490 H     1 <1>   0.0800 
 38 H        3.7320    -0.4110    -2.0230 H     1 <1>   0.0800 
 39 H        4.3410     0.7270     0.7110 H     1 <1>   0.0800 
 40 H        5.4990     0.2110    -0.4740 H     1 <1>   0.0800 
 41 H        4.2750    -3.9520     1.2180 H     1 <1>   0.1500 
 42 H        8.2610    -4.6200     0.2680 H     1 <1>   0.4570 
 43 H        9.2380    -2.9280    -1.3830 H     1 <1>   0.0800 
 44 H        8.7660    -1.2910    -1.0660 H     1 <1>   0.0800 
 45 H        5.1830    -6.1520     1.5970 H     1 <1>   0.0800 
 46 H        6.8650    -6.1250     2.0500 H     1 <1>   0.0800 
 47 H        6.3950    -6.5930     0.4270 H     1 <1>   0.0800 
 48 H        9.6200    -1.4500     1.2450 H     1 <1>   0.0800 
 49 H       10.1160    -3.0980     0.9730 H     1 <1>   0.0800 
 50 H       11.1850    -0.6830    -0.5180 H     1 <1>   0.0800 
 51 H       11.6820    -2.3360    -0.8040 H     1 <1>   0.0800 
 52 H       12.0220    -1.5710     0.7270 H     1 <1>   0.0800 
@<TRIPOS>BOND
  1   1   2  1   
  2   1   3  1   
  3   2   4  1   
  4   2   5  1   
  5   2  23  1   
  6   3  24  1   
  7   3  25  1   
  8   3  26  1   
  9   4   6  1   
 10   4   7  1   
 11   4   8  1   
 12   5   9  1   
 13   5  27  1   
 14   5  28  1   
 15   6  10  1   
 16   6  29  1   
 17   6  30  1   
 18   7  11  1   
 19   7  31  1   
 20   7  32  1   
 21   8   9  1   
 22   8  33  1   
 23   8  34  1   
 24   9  35  1   
 25   9  36  1   
 26  10  12  1   
 27  10  13  1   
 28  11  13  1   
 29  11  37  1   
 30  11  38  1   
 31  12  14  ar  
 32  12  15  ar  
 33  13  39  1   
 34  13  40  1   
 35  14  16  ar  
 36  15  17  ar  
 37  15  41  1   
 38  16  18  ar  
 39  16  19  1   
 40  17  18  ar  
 41  17  20  1   
 42  18  42  1   
 43  19  21  1   
 44  19  43  1   
 45  19  44  1   
 46  20  45  1   
 47  20  46  1   
 48  20  47  1   
 49  21  22  1   
 50  21  48  1   
 51  21  49  1   
 52  22  50  1   
 53  22  51  1   
 54  22  52  1   
@<TRIPOS>SUBSTRUCTURE
  1 ****  10 GROUP 4 **** **** 0

# MOE 2024.06 (io_trps.svl 2023.06)
