@<TRIPOS>MOLECULE
NONAME
40 41 1 0 0 
SMALL
USER_CHARGES


@<TRIPOS>ATOM
  1 O        0.2260     0.3450     0.6920 O.2   1 <1>  -0.5700 
  2 C        1.1400    -0.2570     0.1690 C.2   1 <1>   0.7800 
  3 O        2.3140     0.3230    -0.0700 O.3   1 <1>  -0.4300 
  4 N        1.0710    -1.5560    -0.2310 N.am  1 <1>  -0.5470 
  5 C        2.6850     1.6540     0.2250 C.3   1 <1>   0.2800 
  6 C        0.0480    -2.5120    -0.1680 C.ar  1 <1>   0.1170 
  7 C        1.8040     2.6360    -0.5570 C.3   1 <1>  -0.2400 
  8 C        2.6340     1.8970     1.7370 C.3   1 <1>  -0.2400 
  9 C        4.1310     1.7820    -0.2570 C.3   1 <1>  -0.2400 
 10 C       -1.0630    -2.3900     0.6610 C.ar  1 <1>  -0.1500 
 11 C        0.1510    -3.6470    -0.9650 C.ar  1 <1>  -0.1500 
 12 C       -2.0410    -3.3670     0.6860 C.ar  1 <1>  -0.1500 
 13 C       -0.8270    -4.6260    -0.9400 C.ar  1 <1>  -0.1500 
 14 C       -1.9300    -4.4930    -0.1140 C.ar  1 <1>  -0.0320 
 15 C       -3.0150    -5.5580    -0.0940 C.3   1 <1>  -0.0630 
 16 C       -3.3420    -6.1910     1.2260 C.3   1 <1>  -0.2000 
 17 C       -2.5950    -6.9720     0.1840 C.3   1 <1>  -0.2000 
 18 C       -4.1200    -5.2250    -1.1160 C.3   1 <1>   0.2150 
 19 O       -5.1330    -6.1700    -1.0860 O.3   1 <1>  -0.6800 
 20 H        1.9260    -1.8500    -0.6920 H     1 <1>   0.3700 
 21 H        0.7930     2.6230    -0.1950 H     1 <1>   0.0800 
 22 H        1.8090     2.3930    -1.6040 H     1 <1>   0.0800 
 23 H        2.1770     3.6370    -0.4380 H     1 <1>   0.0800 
 24 H        1.6220     1.8850     2.0990 H     1 <1>   0.0800 
 25 H        3.0470     2.8620     1.9680 H     1 <1>   0.0800 
 26 H        3.2050     1.1490     2.2570 H     1 <1>   0.0800 
 27 H        4.1910     1.5910    -1.3140 H     1 <1>   0.0800 
 28 H        4.7610     1.0830     0.2630 H     1 <1>   0.0800 
 29 H        4.5010     2.7740    -0.0710 H     1 <1>   0.0800 
 30 H       -1.1720    -1.5300     1.2960 H     1 <1>   0.1500 
 31 H        0.9990    -3.7680    -1.6130 H     1 <1>   0.1500 
 32 H       -2.8940    -3.2520     1.3310 H     1 <1>   0.1500 
 33 H       -0.7300    -5.4950    -1.5670 H     1 <1>   0.1500 
 34 H       -4.3630    -6.4510     1.4430 H     1 <1>   0.1000 
 35 H       -2.8090    -5.8670     2.1030 H     1 <1>   0.1000 
 36 H       -1.5540    -7.1810     0.3640 H     1 <1>   0.1000 
 37 H       -3.0960    -7.7960    -0.2910 H     1 <1>   0.1000 
 38 H       -3.7110    -5.2060    -2.1110 H     1 <1>   0.0800 
 39 H       -4.5570    -4.2660    -0.9000 H     1 <1>   0.0800 
 40 H       -4.7400    -7.0610    -1.0430 H     1 <1>   0.4000 
@<TRIPOS>BOND
  1   1   2  2   
  2   2   3  1   
  3   2   4  am  
  4   3   5  1   
  5   4   6  1   
  6   4  20  1   
  7   5   7  1   
  8   5   8  1   
  9   5   9  1   
 10   6  10  ar  
 11   6  11  ar  
 12   7  21  1   
 13   7  22  1   
 14   7  23  1   
 15   8  24  1   
 16   8  25  1   
 17   8  26  1   
 18   9  27  1   
 19   9  28  1   
 20   9  29  1   
 21  10  12  ar  
 22  10  30  1   
 23  11  13  ar  
 24  11  31  1   
 25  12  14  ar  
 26  12  32  1   
 27  13  14  ar  
 28  13  33  1   
 29  14  15  1   
 30  15  16  1   
 31  15  17  1   
 32  15  18  1   
 33  16  17  1   
 34  16  34  1   
 35  16  35  1   
 36  17  36  1   
 37  17  37  1   
 38  18  19  1   
 39  18  38  1   
 40  18  39  1   
 41  19  40  1   
@<TRIPOS>SUBSTRUCTURE
  1 ****   6 GROUP 4 **** **** 0

# MOE 2024.06 (io_trps.svl 2023.06)
