@<TRIPOS>MOLECULE
NONAME
49 51 1 0 0 
SMALL
USER_CHARGES


@<TRIPOS>ATOM
  1 F        0.2210     1.0840     0.5460 F     1 <1>  -0.1900 
  2 C        0.4380     2.3690     0.4400 C.ar  1 <1>   0.1900 
  3 C        0.7600     2.8890    -0.8000 C.ar  1 <1>  -0.1500 
  4 C        0.3370     3.1570     1.5700 C.ar  1 <1>  -0.1500 
  5 C        0.9910     4.2500    -0.9120 C.ar  1 <1>  -0.1500 
  6 C        0.5710     4.5170     1.4480 C.ar  1 <1>  -0.1500 
  7 C        0.8990     5.0680     0.2160 C.ar  1 <1>   0.0830 
  8 O        1.1170     6.4060     0.1940 O.3   1 <1>  -0.3630 
  9 C        1.5440     7.0650    -0.9900 C.3   1 <1>   0.1810 
 10 C        1.7950     8.5510    -0.7490 C.2   1 <1>   0.5690 
 11 O        1.1280     9.3300    -1.3910 O.2   1 <1>  -0.5700 
 12 N        2.7700     8.9950     0.1160 N.am  1 <1>  -0.6600 
 13 C        3.6850     8.1200     0.9200 C.3   1 <1>   0.1400 
 14 C        2.9630    10.4490     0.3590 C.3   1 <1>   0.1400 
 15 C        5.1160     8.1030     0.3610 C.3   1 <1>   0.1400 
 16 C        3.9320    11.0610    -0.6610 C.3   1 <1>  -0.1600 
 17 N        5.6830     9.4810     0.1900 N.am  1 <1>  -0.6600 
 18 C        5.1560    10.2010    -1.0060 C.3   1 <1>   0.1400 
 19 C        6.5650     9.9870     1.1080 C.2   1 <1>   0.5690 
 20 O        6.8920     9.3610     2.0870 O.2   1 <1>  -0.5700 
 21 C        7.2020    11.3470     0.9330 C.3   1 <1>  -0.0990 
 22 C        8.5420    11.1920     0.2170 C.3   1 <1>   0.2810 
 23 N        9.5210    10.4730     1.0700 N.am  1 <1>  -0.7300 
 24 C        9.2720    12.5190     0.0240 C.2   1 <1>   0.5690 
 25 C       10.5540    11.2890     1.3610 C.2   1 <1>   0.6900 
 26 O        8.8710    13.4570    -0.6170 O.2   1 <1>  -0.5700 
 27 N       10.4330    12.4670     0.7120 N.am  1 <1>  -0.4900 
 28 O       11.4410    11.0360     2.1390 O.2   1 <1>  -0.5700 
 29 H        0.8250     2.2390    -1.6540 H     1 <1>   0.1500 
 30 H        0.0820     2.7160     2.5160 H     1 <1>   0.1500 
 31 H        1.2360     4.6490    -1.8790 H     1 <1>   0.1500 
 32 H        0.4980     5.1590     2.3080 H     1 <1>   0.1500 
 33 H        0.7730     6.9520    -1.7300 H     1 <1>   0.0800 
 34 H        2.4500     6.6020    -1.3320 H     1 <1>   0.0800 
 35 H        3.3190     7.1120     0.9540 H     1 <1>   0.0800 
 36 H        3.7130     8.4740     1.9360 H     1 <1>   0.0800 
 37 H        3.3490    10.5960     1.3530 H     1 <1>   0.0800 
 38 H        2.0140    10.9570     0.3040 H     1 <1>   0.0800 
 39 H        5.1220     7.5930    -0.5860 H     1 <1>   0.0800 
 40 H        5.7370     7.5300     1.0280 H     1 <1>   0.0800 
 41 H        4.2560    12.0150    -0.2900 H     1 <1>   0.0800 
 42 H        3.3890    11.2540    -1.5690 H     1 <1>   0.0800 
 43 H        5.9240    10.8120    -1.4480 H     1 <1>   0.0800 
 44 H        4.8670     9.4770    -1.7490 H     1 <1>   0.0800 
 45 H        7.3540    11.7930     1.8990 H     1 <1>   0.0800 
 46 H        6.5630    12.0030     0.3770 H     1 <1>   0.0800 
 47 H        8.4300    10.6900    -0.7280 H     1 <1>   0.0800 
 48 H        9.2130     9.7470     1.7270 H     1 <1>   0.3700 
 49 H       11.1030    13.2210     0.8070 H     1 <1>   0.3700 
@<TRIPOS>BOND
  1   1   2  1   
  2   2   3  ar  
  3   2   4  ar  
  4   3   5  ar  
  5   3  29  1   
  6   4   6  ar  
  7   4  30  1   
  8   5   7  ar  
  9   5  31  1   
 10   6   7  ar  
 11   6  32  1   
 12   7   8  1   
 13   8   9  1   
 14   9  10  1   
 15   9  33  1   
 16   9  34  1   
 17  10  11  2   
 18  10  12  am  
 19  12  13  1   
 20  12  14  1   
 21  13  15  1   
 22  13  35  1   
 23  13  36  1   
 24  14  16  1   
 25  14  37  1   
 26  14  38  1   
 27  15  17  1   
 28  15  39  1   
 29  15  40  1   
 30  16  18  1   
 31  16  41  1   
 32  16  42  1   
 33  17  18  1   
 34  17  19  am  
 35  18  43  1   
 36  18  44  1   
 37  19  20  2   
 38  19  21  1   
 39  21  22  1   
 40  21  45  1   
 41  21  46  1   
 42  22  23  1   
 43  22  24  1   
 44  22  47  1   
 45  23  25  am  
 46  23  48  1   
 47  24  26  2   
 48  24  27  am  
 49  25  27  am  
 50  25  28  2   
 51  27  49  1   
@<TRIPOS>SUBSTRUCTURE
  1 ****  15 GROUP 4 **** **** 0

# MOE 2024.06 (io_trps.svl 2023.06)
