@<TRIPOS>MOLECULE
NONAME
47 50 1 0 0 
SMALL
USER_CHARGES


@<TRIPOS>ATOM
  1 O       -0.0290    -0.2020     0.4630 O.2   1 <1>  -0.5700 
  2 C       -1.2430    -0.2670     0.4510 C.2   1 <1>   0.7800 
  3 O       -1.9190    -1.2740     1.0070 O.3   1 <1>  -0.2320 
  4 N       -2.0980     0.6470    -0.0970 N.am  1 <1>  -0.4770 
  5 C       -3.2290    -1.0110     0.8250 C.ar  1 <1>   0.0830 
  6 C       -3.3720     0.1760     0.1420 C.ar  1 <1>   0.1170 
  7 C       -1.7240     1.8900    -0.8000 C.3   1 <1>   0.1400 
  8 C       -4.3200    -1.7570     1.2280 C.ar  1 <1>  -0.1500 
  9 C       -4.6340     0.6620    -0.1630 C.ar  1 <1>  -0.1500 
 10 C       -1.7310     3.0600     0.1820 C.3   1 <1>  -0.0990 
 11 C       -5.5840    -1.2730     0.9240 C.ar  1 <1>  -0.1500 
 12 C       -5.7450    -0.0720     0.2330 C.ar  1 <1>  -0.1440 
 13 C       -1.4030     4.3420    -0.5440 C.2   1 <1>   0.5690 
 14 C       -7.1450     0.4250    -0.0800 C.3   1 <1>  -0.0960 
 15 O       -2.1540     4.7370    -1.4000 O.2   1 <1>  -0.5700 
 16 N       -0.2780     5.0150    -0.2230 N.am  1 <1>  -0.7300 
 17 C        0.1220     6.3070    -0.8390 C.3   1 <1>   0.3210 
 18 C        1.3330     6.9230    -0.1380 C.2   1 <1>   0.3350 
 19 N        1.9770     6.3940     0.8280 N.2   1 <1>  -0.4100 
 20 N        1.8180     8.1020    -0.5070 N.2   1 <1>  -0.5650 
 21 O        2.9290     7.2140     1.1510 O.3   1 <1>  -0.0190 
 22 C        2.7860     8.2190     0.3210 C.2   1 <1>   0.2980 
 23 C        3.7850     9.3790     0.4380 C.3   1 <1>   0.3800 
 24 O        3.6310    10.0190     1.6700 O.3   1 <1>  -0.5600 
 25 C        3.5830    10.5070    -0.5720 C.3   1 <1>  -0.1600 
 26 C        2.6360    10.9900     1.5850 C.3   1 <1>   0.1200 
 27 C        2.6020    11.4380     0.1250 C.3   1 <1>  -0.1600 
 28 H       -2.4220     2.0700    -1.6000 H     1 <1>   0.0800 
 29 H       -0.7410     1.7750    -1.2270 H     1 <1>   0.0800 
 30 H       -4.1820    -2.6810     1.7600 H     1 <1>   0.1500 
 31 H       -4.7370     1.5900    -0.6950 H     1 <1>   0.1500 
 32 H       -1.0120     2.8860     0.9610 H     1 <1>   0.0800 
 33 H       -2.7060     3.1620     0.6200 H     1 <1>   0.0800 
 34 H       -6.4510    -1.8340     1.2270 H     1 <1>   0.1500 
 35 H       -7.1140     1.2830    -0.7280 H     1 <1>   0.0800 
 36 H       -7.6460     0.7000     0.8310 H     1 <1>   0.0800 
 37 H       -7.7100    -0.3490    -0.5670 H     1 <1>   0.0800 
 38 H        0.3570     4.6940     0.5150 H     1 <1>   0.3700 
 39 H       -0.7020     6.9960    -0.7860 H     1 <1>   0.0800 
 40 H        0.3610     6.1460    -1.8750 H     1 <1>   0.0800 
 41 H        4.7860     8.9900     0.3850 H     1 <1>   0.0800 
 42 H        3.2230    10.1540    -1.5220 H     1 <1>   0.0800 
 43 H        4.5230    11.0080    -0.7210 H     1 <1>   0.0800 
 44 H        2.8830    11.7960     2.2550 H     1 <1>   0.0800 
 45 H        1.7020    10.5410     1.8770 H     1 <1>   0.0800 
 46 H        1.6070    11.3160    -0.2670 H     1 <1>   0.0800 
 47 H        2.8940    12.4690     0.0270 H     1 <1>   0.0800 
@<TRIPOS>BOND
  1   1   2  2   
  2   2   3  1   
  3   2   4  am  
  4   3   5  1   
  5   4   6  1   
  6   4   7  1   
  7   5   6  ar  
  8   5   8  ar  
  9   6   9  ar  
 10   7  10  1   
 11   7  28  1   
 12   7  29  1   
 13   8  11  ar  
 14   8  30  1   
 15   9  12  ar  
 16   9  31  1   
 17  10  13  1   
 18  10  32  1   
 19  10  33  1   
 20  11  12  ar  
 21  11  34  1   
 22  12  14  1   
 23  13  15  2   
 24  13  16  am  
 25  14  35  1   
 26  14  36  1   
 27  14  37  1   
 28  16  17  1   
 29  16  38  1   
 30  17  18  1   
 31  17  39  1   
 32  17  40  1   
 33  18  19  2   
 34  18  20  1   
 35  19  21  1   
 36  20  22  2   
 37  21  22  1   
 38  22  23  1   
 39  23  24  1   
 40  23  25  1   
 41  23  41  1   
 42  24  26  1   
 43  25  27  1   
 44  25  42  1   
 45  25  43  1   
 46  26  27  1   
 47  26  44  1   
 48  26  45  1   
 49  27  46  1   
 50  27  47  1   
@<TRIPOS>SUBSTRUCTURE
  1 ****  13 GROUP 4 **** **** 0

# MOE 2024.06 (io_trps.svl 2023.06)
