@<TRIPOS>MOLECULE
NONAME
39 41 1 0 0 
SMALL
USER_CHARGES


@<TRIPOS>ATOM
  1 S       -0.7490    -0.3490    -1.7260 S.3   1 <1>  -0.0800 
  2 C       -1.7220    -0.4160    -0.2550 C.2   1 <1>   0.4620 
  3 C        0.0610    -1.8130    -1.2480 C.2   1 <1>  -0.1100 
  4 N       -1.4450    -1.4320     0.4840 N.2   1 <1>  -0.5650 
  5 N       -2.6650     0.5620    -0.0040 N.pl3 1 <1>  -0.8220 
  6 C       -0.4490    -2.2090    -0.0740 C.2   1 <1>   0.0770 
  7 C       -2.9910     1.6940    -0.9040 C.3   1 <1>   0.2090 
  8 C       -3.5320     0.5020     1.1970 C.3   1 <1>   0.2090 
  9 C       -4.4350     1.5410    -1.3810 C.3   1 <1>  -0.1600 
 10 C       -4.9830     0.3380     0.7480 C.3   1 <1>  -0.1600 
 11 C       -5.4470     1.4520    -0.2130 C.3   1 <1>   0.2800 
 12 O       -5.3530     2.6580     0.5160 O.3   1 <1>  -0.5600 
 13 C       -6.9210     1.1740    -0.6920 C.3   1 <1>   0.2000 
 14 C       -6.1980     3.7040     0.1620 C.3   1 <1>   0.1200 
 15 O       -7.1240     1.6210    -2.0110 O.3   1 <1>  -0.6800 
 16 C       -7.9780     1.8380     0.2370 C.3   1 <1>   0.2800 
 17 C       -7.6630     3.3340     0.4430 C.3   1 <1>  -0.1600 
 18 O       -7.9370     1.2250     1.4750 O.3   1 <1>  -0.6800 
 19 C       -9.4200     1.6330    -0.2430 C.3   1 <1>  -0.2400 
 20 H        0.8210    -2.2080    -1.8960 H     1 <1>   0.1500 
 21 H       -0.1440    -3.0870     0.4700 H     1 <1>   0.1500 
 22 H       -2.8810     2.6160    -0.3590 H     1 <1>   0.0800 
 23 H       -2.3310     1.7300    -1.7500 H     1 <1>   0.0800 
 24 H       -3.2520    -0.3210     1.8320 H     1 <1>   0.0800 
 25 H       -3.4210     1.4120     1.7620 H     1 <1>   0.0800 
 26 H       -4.5000     0.6470    -1.9750 H     1 <1>   0.0800 
 27 H       -4.6700     2.3690    -2.0220 H     1 <1>   0.0800 
 28 H       -5.6070     0.3160     1.6210 H     1 <1>   0.0800 
 29 H       -5.0740    -0.6170     0.2640 H     1 <1>   0.0800 
 30 H       -7.0950     0.1130    -0.7190 H     1 <1>   0.0800 
 31 H       -5.9130     4.5650     0.7420 H     1 <1>   0.0800 
 32 H       -6.0410     3.9280    -0.8780 H     1 <1>   0.0800 
 33 H       -6.9340     2.5750    -2.0670 H     1 <1>   0.4000 
 34 H       -8.2650     3.9230    -0.2240 H     1 <1>   0.0800 
 35 H       -7.9210     3.6390     1.4410 H     1 <1>   0.0800 
 36 H       -8.5690     1.6580     2.0770 H     1 <1>   0.4000 
 37 H       -9.5670     2.0950    -1.2030 H     1 <1>   0.0800 
 38 H      -10.1210     2.0670     0.4460 H     1 <1>   0.0800 
 39 H       -9.6270     0.5830    -0.3490 H     1 <1>   0.0800 
@<TRIPOS>BOND
  1   1   2  1   
  2   1   3  1   
  3   2   4  2   
  4   2   5  1   
  5   3   6  2   
  6   3  20  1   
  7   4   6  1   
  8   5   7  1   
  9   5   8  1   
 10   6  21  1   
 11   7   9  1   
 12   7  22  1   
 13   7  23  1   
 14   8  10  1   
 15   8  24  1   
 16   8  25  1   
 17   9  11  1   
 18   9  26  1   
 19   9  27  1   
 20  10  11  1   
 21  10  28  1   
 22  10  29  1   
 23  11  12  1   
 24  11  13  1   
 25  12  14  1   
 26  13  15  1   
 27  13  16  1   
 28  13  30  1   
 29  14  17  1   
 30  14  31  1   
 31  14  32  1   
 32  15  33  1   
 33  16  17  1   
 34  16  18  1   
 35  16  19  1   
 36  17  34  1   
 37  17  35  1   
 38  18  36  1   
 39  19  37  1   
 40  19  38  1   
 41  19  39  1   
@<TRIPOS>SUBSTRUCTURE
  1 ****  11 GROUP 4 **** **** 0

# MOE 2024.06 (io_trps.svl 2023.06)
