@<TRIPOS>MOLECULE
NONAME
43 45 1 0 0 
SMALL
USER_CHARGES


@<TRIPOS>ATOM
  1 N       -1.7640     0.6170    -1.8220 N.ar  1 <1>  -0.6200 
  2 C       -2.0360     0.8470    -0.5500 C.ar  1 <1>   0.4100 
  3 C       -2.2350    -0.5130    -2.3070 C.ar  1 <1>   0.4700 
  4 N       -1.5850     2.0260     0.0120 N.pl3 1 <1>  -0.8380 
  5 C       -2.7590    -0.0570     0.1910 C.ar  1 <1>  -0.1500 
  6 N       -2.9410    -1.4440    -1.6930 N.ar  1 <1>  -0.6200 
  7 C       -0.3150     2.6350    -0.4670 C.3   1 <1>   0.2090 
  8 C       -2.5870     2.9770     0.5660 C.3   1 <1>   0.1290 
  9 C       -3.1940    -1.2060    -0.4210 C.ar  1 <1>   0.4100 
 10 C        0.5070     3.1080     0.7280 C.3   1 <1>  -0.2400 
 11 N       -3.9210    -2.1370     0.2720 N.pl3 1 <1>  -0.8690 
 12 C       -3.8370    -3.5850    -0.0160 C.3   1 <1>   0.5640 
 13 C       -5.2460    -4.1940    -0.0350 C.2   1 <1>   0.0060 
 14 C       -2.9190    -4.2000     1.0540 C.3   1 <1>  -0.1950 
 15 N       -5.6930    -5.1030     0.7840 N.2   1 <1>  -0.5650 
 16 N       -6.1650    -3.8120    -0.9580 N.pl3 1 <1>   0.0480 
 17 C       -1.4320    -4.0110     1.0220 C.3   1 <1>  -0.2000 
 18 C       -2.0260    -5.3610     0.7380 C.3   1 <1>  -0.2000 
 19 C       -6.9560    -5.3200     0.3760 C.2   1 <1>   0.0770 
 20 C       -7.2600    -4.5430    -0.6850 C.2   1 <1>  -0.3020 
 21 C       -6.0360    -2.8070    -2.0320 C.3   1 <1>   0.0160 
 22 H       -2.0160    -0.7000    -3.3440 H     1 <1>   0.1500 
 23 H       -2.9670     0.1350     1.2220 H     1 <1>   0.1500 
 24 H       -0.5320     3.4570    -1.1290 H     1 <1>   0.0800 
 25 H        0.2580     1.9060    -1.0150 H     1 <1>   0.0800 
 26 H       -3.5750     2.5540     0.5200 H     1 <1>   0.0800 
 27 H       -2.5810     3.8920    -0.0010 H     1 <1>   0.0800 
 28 H       -2.3490     3.1960     1.5920 H     1 <1>   0.0800 
 29 H       -0.0020     3.8950     1.2530 H     1 <1>   0.0800 
 30 H        1.4530     3.4840     0.3860 H     1 <1>   0.0800 
 31 H        0.6850     2.2850     1.3960 H     1 <1>   0.0800 
 32 H       -4.0400    -1.9870     1.2720 H     1 <1>   0.4000 
 33 H       -3.3900    -3.7500    -0.9800 H     1 <1>   0.0800 
 34 H       -3.3990    -4.2260     2.0160 H     1 <1>   0.1000 
 35 H       -0.9130    -3.8550     1.9520 H     1 <1>   0.1000 
 36 H       -1.0000    -3.4500     0.2100 H     1 <1>   0.1000 
 37 H       -1.9970    -5.7400    -0.2690 H     1 <1>   0.1000 
 38 H       -1.9330    -6.1420     1.4730 H     1 <1>   0.1000 
 39 H       -7.5880    -6.0350     0.8750 H     1 <1>   0.1500 
 40 H       -8.1760    -4.4740    -1.2420 H     1 <1>   0.1500 
 41 H       -5.1530    -3.0100    -2.6090 H     1 <1>   0.0800 
 42 H       -5.9560    -1.8290    -1.5930 H     1 <1>   0.0800 
 43 H       -6.8990    -2.8450    -2.6700 H     1 <1>   0.0800 
@<TRIPOS>BOND
  1   1   2  ar  
  2   1   3  ar  
  3   2   4  1   
  4   2   5  ar  
  5   3   6  ar  
  6   3  22  1   
  7   4   7  1   
  8   4   8  1   
  9   5   9  ar  
 10   5  23  1   
 11   6   9  ar  
 12   7  10  1   
 13   7  24  1   
 14   7  25  1   
 15   8  26  1   
 16   8  27  1   
 17   8  28  1   
 18   9  11  1   
 19  10  29  1   
 20  10  30  1   
 21  10  31  1   
 22  11  12  1   
 23  11  32  1   
 24  12  13  1   
 25  12  14  1   
 26  12  33  1   
 27  13  15  2   
 28  13  16  1   
 29  14  17  1   
 30  14  18  1   
 31  14  34  1   
 32  15  19  1   
 33  16  20  1   
 34  16  21  1   
 35  17  18  1   
 36  17  35  1   
 37  17  36  1   
 38  18  37  1   
 39  18  38  1   
 40  19  20  2   
 41  19  39  1   
 42  20  40  1   
 43  21  41  1   
 44  21  42  1   
 45  21  43  1   
@<TRIPOS>SUBSTRUCTURE
  1 ****   9 GROUP 4 **** **** 0

# MOE 2024.06 (io_trps.svl 2023.06)
