@<TRIPOS>MOLECULE
NONAME
55 57 1 0 0 
SMALL
USER_CHARGES


@<TRIPOS>ATOM
  1 O        1.1300    -0.1400    -1.5920 O.2   1 <1>  -0.5700 
  2 C        1.7860    -0.7730    -0.7980 C.2   1 <1>   0.5690 
  3 N        1.4290    -2.0380    -0.4260 N.am  1 <1>  -0.6600 
  4 C        3.0480    -0.1390    -0.2200 C.3   1 <1>  -0.0990 
  5 C        0.2120    -2.6940    -0.9530 C.3   1 <1>   0.1400 
  6 C        2.1780    -2.9490     0.4660 C.3   1 <1>   0.1400 
  7 C        3.0610     1.4010    -0.3270 C.3   1 <1>  -0.1600 
  8 C        0.0920    -3.9910    -0.1610 C.3   1 <1>  -0.1600 
  9 C        1.5210    -4.3110     0.2710 C.3   1 <1>  -0.1600 
 10 C        4.2890     2.0710     0.3170 C.3   1 <1>  -0.0800 
 11 C        4.0990     3.5970     0.3100 C.3   1 <1>  -0.1600 
 12 C        5.5960     1.7050    -0.4090 C.3   1 <1>  -0.1600 
 13 C        5.3260     4.3370     0.8390 C.3   1 <1>   0.3430 
 14 C        6.7950     2.4890     0.1280 C.3   1 <1>   0.3430 
 15 N        6.5250     3.9510     0.0350 N.4   1 <1>  -0.9590 
 16 C        7.7330     4.7510     0.3930 C.3   1 <1>   0.4860 
 17 C        7.4660     6.2160     0.1420 C.ar  1 <1>  -0.1440 
 18 C        7.2360     7.0900     1.1800 C.ar  1 <1>   0.1600 
 19 C        7.4350     6.7380    -1.1310 C.ar  1 <1>   0.1600 
 20 N        6.9700     8.3570     0.9760 N.ar  1 <1>  -0.6200 
 21 N        7.1730     8.0020    -1.3580 N.ar  1 <1>  -0.6200 
 22 C        6.9560     8.7520    -0.2880 C.ar  1 <1>   0.4770 
 23 C        6.6620    10.2230    -0.5380 C.3   1 <1>  -0.0170 
 24 C        7.9400    11.0740    -0.5590 C.3   1 <1>  -0.2400 
 25 H        3.8820    -0.5560    -0.7510 H     1 <1>   0.0800 
 26 H        3.1270    -0.4140     0.8150 H     1 <1>   0.0800 
 27 H        0.3510    -2.8980    -2.0010 H     1 <1>   0.0800 
 28 H       -0.6510    -2.0620    -0.8220 H     1 <1>   0.0800 
 29 H        2.0580    -2.6220     1.4850 H     1 <1>   0.0800 
 30 H        3.2230    -2.9790     0.2070 H     1 <1>   0.0800 
 31 H        2.1680     1.7690     0.1510 H     1 <1>   0.0800 
 32 H        2.9990     1.6790    -1.3660 H     1 <1>   0.0800 
 33 H       -0.3470    -4.7770    -0.7490 H     1 <1>   0.0800 
 34 H       -0.5220    -3.8140     0.7040 H     1 <1>   0.0800 
 35 H        1.5550    -4.9060     1.1660 H     1 <1>   0.0800 
 36 H        2.0310    -4.8360    -0.5190 H     1 <1>   0.0800 
 37 H        4.3570     1.7430     1.3430 H     1 <1>   0.0800 
 38 H        3.2520     3.8530     0.9240 H     1 <1>   0.0800 
 39 H        3.8820     3.9410    -0.6870 H     1 <1>   0.0800 
 40 H        5.4970     1.8880    -1.4650 H     1 <1>   0.0800 
 41 H        5.8000     0.6570    -0.2840 H     1 <1>   0.0800 
 42 H        5.4800     4.0860     1.8760 H     1 <1>   0.0800 
 43 H        5.1510     5.4000     0.7670 H     1 <1>   0.0800 
 44 H        7.6720     2.2340    -0.4470 H     1 <1>   0.0800 
 45 H        6.9710     2.2130     1.1560 H     1 <1>   0.0800 
 46 H        6.2890     4.1580    -0.9450 H     1 <1>   0.4500 
 47 H        8.5740     4.4380    -0.2050 H     1 <1>   0.0800 
 48 H        7.9830     4.5980     1.4310 H     1 <1>   0.0800 
 49 H        7.2630     6.7570     2.2050 H     1 <1>   0.1500 
 50 H        7.6260     6.1190    -1.9910 H     1 <1>   0.1500 
 51 H        6.0040    10.5840     0.2330 H     1 <1>   0.0800 
 52 H        6.1500    10.3230    -1.4780 H     1 <1>   0.0800 
 53 H        8.4510    10.9960     0.3850 H     1 <1>   0.0800 
 54 H        7.6960    12.1060    -0.7370 H     1 <1>   0.0800 
 55 H        8.5980    10.7320    -1.3380 H     1 <1>   0.0800 
@<TRIPOS>BOND
  1   1   2  2   
  2   2   3  am  
  3   2   4  1   
  4   3   5  1   
  5   3   6  1   
  6   4   7  1   
  7   4  25  1   
  8   4  26  1   
  9   5   8  1   
 10   5  27  1   
 11   5  28  1   
 12   6   9  1   
 13   6  29  1   
 14   6  30  1   
 15   7  10  1   
 16   7  31  1   
 17   7  32  1   
 18   8   9  1   
 19   8  33  1   
 20   8  34  1   
 21   9  35  1   
 22   9  36  1   
 23  10  11  1   
 24  10  12  1   
 25  10  37  1   
 26  11  13  1   
 27  11  38  1   
 28  11  39  1   
 29  12  14  1   
 30  12  40  1   
 31  12  41  1   
 32  13  15  1   
 33  13  42  1   
 34  13  43  1   
 35  14  15  1   
 36  14  44  1   
 37  14  45  1   
 38  15  16  1   
 39  15  46  1   
 40  16  17  1   
 41  16  47  1   
 42  16  48  1   
 43  17  18  ar  
 44  17  19  ar  
 45  18  20  ar  
 46  18  49  1   
 47  19  21  ar  
 48  19  50  1   
 49  20  22  ar  
 50  21  22  ar  
 51  22  23  1   
 52  23  24  1   
 53  23  51  1   
 54  23  52  1   
 55  24  53  1   
 56  24  54  1   
 57  24  55  1   
@<TRIPOS>SUBSTRUCTURE
  1 ****  11 GROUP 4 **** **** 0

# MOE 2024.06 (io_trps.svl 2023.06)
