@<TRIPOS>MOLECULE
NONAME
47 50 1 0 0 
SMALL
USER_CHARGES


@<TRIPOS>ATOM
  1 CL      -2.4830     2.6880    -1.4770 Cl    1 <1>  -0.1770 
  2 C       -3.3210     1.8840    -0.1710 C.ar  1 <1>   0.1770 
  3 C       -3.2760     2.4070     1.1140 C.ar  1 <1>  -0.1440 
  4 C       -4.0200     0.7300    -0.4580 C.ar  1 <1>  -0.1500 
  5 C       -3.9550     1.7360     2.1190 C.ar  1 <1>  -0.1500 
  6 C       -2.5010     3.6800     1.4230 C.3   1 <1>  -0.0960 
  7 C       -4.7170     0.0560     0.5420 C.ar  1 <1>   0.0860 
  8 C       -4.6600     0.5790     1.8340 C.ar  1 <1>  -0.1500 
  9 C       -5.4730    -1.1420     0.2360 C.2   1 <1>   0.5440 
 10 O       -4.8990    -2.0860    -0.2710 O.2   1 <1>  -0.5700 
 11 N       -6.8300    -1.2270     0.4770 N.am  1 <1>  -0.6600 
 12 C       -7.7010    -0.0430     0.7640 C.3   1 <1>   0.1400 
 13 C       -7.5910    -2.4920     0.2660 C.3   1 <1>   0.1400 
 14 C       -8.7070     0.1910    -0.3800 C.3   1 <1>   0.1430 
 15 C       -8.6010    -2.3080    -0.8740 C.3   1 <1>  -0.1600 
 16 C       -9.5830     1.3720    -0.0070 C.ar  1 <1>   0.1670 
 17 C       -9.5200    -1.0970    -0.6330 C.3   1 <1>  -0.1600 
 18 C       -8.0010     0.6960    -1.6680 C.3   1 <1>  -0.1600 
 19 N      -10.5400     1.3600     0.8940 N.ar  1 <1>  -0.6200 
 20 C       -9.2470     2.4880    -0.7140 C.ar  1 <1>  -0.1430 
 21 C       -8.1030     2.2310    -1.6630 C.3   1 <1>  -0.0160 
 22 C      -11.1620     2.5210     1.0480 C.ar  1 <1>   0.4770 
 23 C       -9.9570     3.6380    -0.4730 C.ar  1 <1>   0.1600 
 24 N      -10.9290     3.6630     0.4160 N.ar  1 <1>  -0.6200 
 25 C      -12.2780     2.5480     2.0650 C.3   1 <1>  -0.0970 
 26 H       -4.0270     0.3430    -1.4610 H     1 <1>   0.1500 
 27 H       -3.9360     2.1100     3.1290 H     1 <1>   0.1500 
 28 H       -2.8790     4.4940     0.8300 H     1 <1>   0.0800 
 29 H       -1.4600     3.5390     1.1940 H     1 <1>   0.0800 
 30 H       -2.5890     3.9440     2.4610 H     1 <1>   0.0800 
 31 H       -5.1780     0.0630     2.6240 H     1 <1>   0.1500 
 32 H       -7.1180     0.8490     0.9030 H     1 <1>   0.0800 
 33 H       -8.2430    -0.2250     1.6770 H     1 <1>   0.0800 
 34 H       -8.1090    -2.7410     1.1760 H     1 <1>   0.0800 
 35 H       -6.9250    -3.3060     0.0340 H     1 <1>   0.0800 
 36 H       -9.1960    -3.2000    -0.9620 H     1 <1>   0.0800 
 37 H       -8.0600    -2.1870    -1.7970 H     1 <1>   0.0800 
 38 H      -10.1830    -0.9600    -1.4690 H     1 <1>   0.0800 
 39 H      -10.1320    -1.2960     0.2310 H     1 <1>   0.0800 
 40 H       -8.5320     0.3330    -2.5300 H     1 <1>   0.0800 
 41 H       -6.9810     0.3640    -1.7430 H     1 <1>   0.0800 
 42 H       -8.3030     2.6180    -2.6470 H     1 <1>   0.0800 
 43 H       -7.2010     2.6710    -1.2720 H     1 <1>   0.0800 
 44 H       -9.7300     4.5440    -1.0080 H     1 <1>   0.1500 
 45 H      -12.1740     1.7330     2.7570 H     1 <1>   0.0800 
 46 H      -13.2200     2.4620     1.5580 H     1 <1>   0.0800 
 47 H      -12.2530     3.4730     2.6090 H     1 <1>   0.0800 
@<TRIPOS>BOND
  1   1   2  1   
  2   2   3  ar  
  3   2   4  ar  
  4   3   5  ar  
  5   3   6  1   
  6   4   7  ar  
  7   4  26  1   
  8   5   8  ar  
  9   5  27  1   
 10   6  28  1   
 11   6  29  1   
 12   6  30  1   
 13   7   8  ar  
 14   7   9  1   
 15   8  31  1   
 16   9  10  2   
 17   9  11  am  
 18  11  12  1   
 19  11  13  1   
 20  12  14  1   
 21  12  32  1   
 22  12  33  1   
 23  13  15  1   
 24  13  34  1   
 25  13  35  1   
 26  14  16  1   
 27  14  17  1   
 28  14  18  1   
 29  15  17  1   
 30  15  36  1   
 31  15  37  1   
 32  16  19  ar  
 33  16  20  ar  
 34  17  38  1   
 35  17  39  1   
 36  18  21  1   
 37  18  40  1   
 38  18  41  1   
 39  19  22  ar  
 40  20  21  1   
 41  20  23  ar  
 42  21  42  1   
 43  21  43  1   
 44  22  24  ar  
 45  22  25  1   
 46  23  24  ar  
 47  23  44  1   
 48  25  45  1   
 49  25  46  1   
 50  25  47  1   
@<TRIPOS>SUBSTRUCTURE
  1 ****  12 GROUP 4 **** **** 0

# MOE 2024.06 (io_trps.svl 2023.06)
