@<TRIPOS>MOLECULE
NONAME
52 56 1 0 0 
SMALL
USER_CHARGES


@<TRIPOS>ATOM
  1 O       -2.4230     0.7010    -1.9910 O.2   1 <1>  -0.5700 
  2 C       -2.4290     0.8080    -0.7780 C.2   1 <1>   0.7160 
  3 N       -2.7830    -0.2840    -0.0180 N.am  1 <1>  -0.6600 
  4 C       -2.0500     2.0410    -0.1690 C.2   1 <1>  -0.0860 
  5 C       -2.9870    -1.6230    -0.6520 C.3   1 <1>   0.3210 
  6 C       -2.9470    -0.2470     1.4700 C.3   1 <1>   0.1400 
  7 C       -2.8080     3.2130    -0.0310 C.2   1 <1>   0.3720 
  8 C       -0.8990     2.3230     0.4950 C.2   1 <1>   0.0870 
  9 C       -2.3950    -2.7210     0.2160 C.2   1 <1>  -0.1810 
 10 C       -1.9110    -1.1470     2.1520 C.3   1 <1>   0.0210 
 11 N       -2.1660     4.0850     0.6660 N.2   1 <1>  -0.4100 
 12 N       -4.1000     3.4780    -0.5080 N.pl3 1 <1>  -0.8210 
 13 O       -1.0200     3.5370     0.9640 O.3   1 <1>  -0.0190 
 14 C        0.2810     1.5410     0.7650 C.ar  1 <1>   0.0530 
 15 C       -1.9100    -2.5090     1.4990 C.2   1 <1>   0.1080 
 16 C       -2.2130    -4.0420    -0.0070 C.2   1 <1>  -0.3320 
 17 C       -4.6920     2.7120    -1.6460 C.3   1 <1>   0.2090 
 18 C       -5.1100     3.9310     0.4940 C.3   1 <1>   0.2090 
 19 C        0.7110     0.5300    -0.0960 C.ar  1 <1>  -0.1500 
 20 C        1.0300     1.7590     1.9220 C.ar  1 <1>  -0.1500 
 21 N       -1.4650    -3.5930     2.0510 N.2   1 <1>  -0.7070 
 22 N       -1.6500    -4.5430     1.1150 N.pl3 1 <1>   0.3000 
 23 C       -2.5410    -4.8800    -1.2300 C.3   1 <1>  -0.0600 
 24 C       -5.9440     3.4160    -2.1980 C.3   1 <1>   0.1200 
 25 C       -6.3330     4.5600    -0.1960 C.3   1 <1>   0.1200 
 26 C        1.8180    -0.2430     0.1970 C.ar  1 <1>  -0.1500 
 27 C        2.1410     0.9910     2.2180 C.ar  1 <1>  -0.1500 
 28 O       -6.8550     3.7000    -1.1720 O.3   1 <1>  -0.5600 
 29 C        2.5360    -0.0160     1.3570 C.ar  1 <1>  -0.1500 
 30 H       -2.5220    -1.6610    -1.6220 H     1 <1>   0.0800 
 31 H       -4.0410    -1.7960    -0.7740 H     1 <1>   0.0800 
 32 H       -3.9330    -0.6060     1.7130 H     1 <1>   0.0800 
 33 H       -2.8620     0.7550     1.8510 H     1 <1>   0.0800 
 34 H       -2.1450    -1.2510     3.1960 H     1 <1>   0.0800 
 35 H       -0.9300    -0.7180     2.0690 H     1 <1>   0.0800 
 36 H       -4.9640     1.7240    -1.3190 H     1 <1>   0.0800 
 37 H       -3.9680     2.6260    -2.4370 H     1 <1>   0.0800 
 38 H       -4.6690     4.6560     1.1550 H     1 <1>   0.0800 
 39 H       -5.4300     3.0900     1.0830 H     1 <1>   0.0800 
 40 H        0.1780     0.3400    -1.0110 H     1 <1>   0.1500 
 41 H        0.7350     2.5370     2.6040 H     1 <1>   0.1500 
 42 H       -1.3820    -5.5210     1.2740 H     1 <1>   0.2700 
 43 H       -2.9800    -4.2690    -1.9980 H     1 <1>   0.0800 
 44 H       -3.2380    -5.6580    -0.9710 H     1 <1>   0.0800 
 45 H       -1.6450    -5.3290    -1.6220 H     1 <1>   0.0800 
 46 H       -6.4390     2.7830    -2.9130 H     1 <1>   0.0800 
 47 H       -5.6710     4.3380    -2.6820 H     1 <1>   0.0800 
 48 H       -6.0600     5.4890    -0.6650 H     1 <1>   0.0800 
 49 H       -7.1080     4.7500     0.5240 H     1 <1>   0.0800 
 50 H        2.1230    -1.0240    -0.4790 H     1 <1>   0.1500 
 51 H        2.7000     1.1750     3.1200 H     1 <1>   0.1500 
 52 H        3.3970    -0.6190     1.5860 H     1 <1>   0.1500 
@<TRIPOS>BOND
  1   1   2  2   
  2   2   3  am  
  3   2   4  1   
  4   3   5  1   
  5   3   6  1   
  6   4   7  1   
  7   4   8  2   
  8   5   9  1   
  9   5  30  1   
 10   5  31  1   
 11   6  10  1   
 12   6  32  1   
 13   6  33  1   
 14   7  11  2   
 15   7  12  1   
 16   8  13  1   
 17   8  14  1   
 18   9  15  1   
 19   9  16  2   
 20  10  15  1   
 21  10  34  1   
 22  10  35  1   
 23  11  13  1   
 24  12  17  1   
 25  12  18  1   
 26  14  19  ar  
 27  14  20  ar  
 28  15  21  2   
 29  16  22  1   
 30  16  23  1   
 31  17  24  1   
 32  17  36  1   
 33  17  37  1   
 34  18  25  1   
 35  18  38  1   
 36  18  39  1   
 37  19  26  ar  
 38  19  40  1   
 39  20  27  ar  
 40  20  41  1   
 41  21  22  1   
 42  22  42  1   
 43  23  43  1   
 44  23  44  1   
 45  23  45  1   
 46  24  28  1   
 47  24  46  1   
 48  24  47  1   
 49  25  28  1   
 50  25  48  1   
 51  25  49  1   
 52  26  29  ar  
 53  26  50  1   
 54  27  29  ar  
 55  27  51  1   
 56  29  52  1   
@<TRIPOS>SUBSTRUCTURE
  1 ****   2 GROUP 4 **** **** 0

# MOE 2024.06 (io_trps.svl 2023.06)
