@<TRIPOS>MOLECULE
NONAME
53 55 1 0 0 
SMALL
USER_CHARGES


@<TRIPOS>ATOM
  1 S       -0.2950    -0.3130     1.8540 S.o2  1 <1>   1.4470 
  2 O       -0.0650     0.8230     2.7240 O.2   1 <1>  -0.6500 
  3 O       -1.0290    -1.4550     2.3550 O.2   1 <1>  -0.6500 
  4 N       -1.1220     0.2670     0.4940 N.am  1 <1>  -0.8490 
  5 C        1.2790    -0.8870     1.1570 C.ar  1 <1>  -0.0090 
  6 C       -2.5530     0.4690     0.7840 C.3   1 <1>   0.1960 
  7 C       -0.5320     1.5010    -0.0290 C.3   1 <1>   0.1960 
  8 C        2.4980    -0.4650     1.6740 C.ar  1 <1>  -0.1500 
  9 C        1.3040    -1.7660     0.0820 C.ar  1 <1>  -0.1500 
 10 C       -3.3490     0.8190    -0.5000 C.3   1 <1>   0.0000 
 11 C       -1.2120     1.8970    -1.3430 C.3   1 <1>  -0.1600 
 12 C        3.6960    -0.8990     1.1340 C.ar  1 <1>  -0.1500 
 13 C        2.4980    -2.2040    -0.4620 C.ar  1 <1>  -0.1500 
 14 C       -4.8420     1.0270    -0.1960 C.3   1 <1>   0.2000 
 15 C       -2.7280     2.0670    -1.1610 C.3   1 <1>  -0.1600 
 16 C       -3.3890    -0.3900    -1.4520 C.3   1 <1>  -0.1600 
 17 C        3.7090    -1.7730     0.0590 C.ar  1 <1>  -0.1430 
 18 O       -5.0250     1.7180     1.0040 O.3   1 <1>  -0.5600 
 19 C       -5.4540    -0.3760    -0.1290 C.3   1 <1>  -0.1600 
 20 C       -4.5160    -1.2880    -0.9330 C.3   1 <1>  -0.1600 
 21 C        5.0390    -2.2450    -0.5260 C.3   1 <1>   0.0630 
 22 C       -6.3100     2.2150     1.2070 C.3   1 <1>   0.0400 
 23 C        5.1780    -1.8080    -1.9870 C.3   1 <1>  -0.2400 
 24 C        5.1840    -3.7650    -0.3960 C.3   1 <1>  -0.2400 
 25 H       -2.9660    -0.4250     1.2200 H     1 <1>   0.0800 
 26 H       -2.6580     1.2590     1.5090 H     1 <1>   0.0800 
 27 H       -0.6430     2.2960     0.6930 H     1 <1>   0.0800 
 28 H        0.5190     1.3560    -0.2100 H     1 <1>   0.0800 
 29 H        2.5090     0.2140     2.5100 H     1 <1>   0.1500 
 30 H        0.3710    -2.1090    -0.3330 H     1 <1>   0.1500 
 31 H       -0.7880     2.8200    -1.6970 H     1 <1>   0.0800 
 32 H       -1.0100     1.1410    -2.0810 H     1 <1>   0.0800 
 33 H        4.6210    -0.5500     1.5610 H     1 <1>   0.1500 
 34 H        2.4780    -2.8840    -1.2950 H     1 <1>   0.1500 
 35 H       -5.2930     1.5870    -0.9980 H     1 <1>   0.0800 
 36 H       -3.1920     2.2630    -2.1110 H     1 <1>   0.0800 
 37 H       -2.9080     2.9180    -0.5260 H     1 <1>   0.0800 
 38 H       -3.6390    -0.0610    -2.4460 H     1 <1>   0.0800 
 39 H       -2.4510    -0.9170    -1.4950 H     1 <1>   0.0800 
 40 H       -5.4970    -0.7170     0.8910 H     1 <1>   0.0800 
 41 H       -6.4430    -0.3770    -0.5520 H     1 <1>   0.0800 
 42 H       -4.1080    -2.0450    -0.2840 H     1 <1>   0.0800 
 43 H       -5.0310    -1.7700    -1.7460 H     1 <1>   0.0800 
 44 H        5.8420    -1.7910     0.0300 H     1 <1>   0.0800 
 45 H       -6.3190     2.7400     2.1460 H     1 <1>   0.0800 
 46 H       -7.0100     1.3990     1.2440 H     1 <1>   0.0800 
 47 H       -6.5590     2.8940     0.4110 H     1 <1>   0.0800 
 48 H        4.4280    -2.2740    -2.6010 H     1 <1>   0.0800 
 49 H        6.1480    -2.0790    -2.3660 H     1 <1>   0.0800 
 50 H        5.0680    -0.7410    -2.0620 H     1 <1>   0.0800 
 51 H        4.4350    -4.2730    -0.9750 H     1 <1>   0.0800 
 52 H        5.0760    -4.0550     0.6350 H     1 <1>   0.0800 
 53 H        6.1540    -4.0760    -0.7390 H     1 <1>   0.0800 
@<TRIPOS>BOND
  1   1   2  2   
  2   1   3  2   
  3   1   4  am  
  4   1   5  1   
  5   4   6  1   
  6   4   7  1   
  7   5   8  ar  
  8   5   9  ar  
  9   6  10  1   
 10   6  25  1   
 11   6  26  1   
 12   7  11  1   
 13   7  27  1   
 14   7  28  1   
 15   8  12  ar  
 16   8  29  1   
 17   9  13  ar  
 18   9  30  1   
 19  10  14  1   
 20  10  15  1   
 21  10  16  1   
 22  11  15  1   
 23  11  31  1   
 24  11  32  1   
 25  12  17  ar  
 26  12  33  1   
 27  13  17  ar  
 28  13  34  1   
 29  14  18  1   
 30  14  19  1   
 31  14  35  1   
 32  15  36  1   
 33  15  37  1   
 34  16  20  1   
 35  16  38  1   
 36  16  39  1   
 37  17  21  1   
 38  18  22  1   
 39  19  20  1   
 40  19  40  1   
 41  19  41  1   
 42  20  42  1   
 43  20  43  1   
 44  21  23  1   
 45  21  24  1   
 46  21  44  1   
 47  22  45  1   
 48  22  46  1   
 49  22  47  1   
 50  23  48  1   
 51  23  49  1   
 52  23  50  1   
 53  24  51  1   
 54  24  52  1   
 55  24  53  1   
@<TRIPOS>SUBSTRUCTURE
  1 ****   4 GROUP 4 **** **** 0

# MOE 2024.06 (io_trps.svl 2023.06)
