@<TRIPOS>MOLECULE
NONAME
62 63 1 0 0 
SMALL
USER_CHARGES


@<TRIPOS>ATOM
  1 O       -0.7960    -0.4550    -2.0550 O.2   1 <1>  -0.5700 
  2 C       -1.4560     0.3530    -1.4420 C.2   1 <1>   0.5690 
  3 N       -2.3260     0.0160    -0.4450 N.am  1 <1>  -0.4930 
  4 C       -1.3110     1.8360    -1.8060 C.3   1 <1>   0.1710 
  5 C       -2.6050    -1.2660     0.0940 C.2   1 <1>   0.0630 
  6 N       -0.1530     2.5290    -1.1660 N.3   1 <1>  -0.8100 
  7 C       -3.8750    -1.7870     0.3480 C.2   1 <1>   0.1080 
  8 C       -1.7510    -2.2360     0.4950 C.2   1 <1>  -0.3320 
  9 C        0.0800     3.8910    -1.7260 C.3   1 <1>   0.1100 
 10 C       -0.1710     2.5260     0.3230 C.3   1 <1>   0.1100 
 11 N       -3.8290    -2.9730     0.8630 N.2   1 <1>  -0.7070 
 12 C       -5.1890    -1.0910     0.0690 C.3   1 <1>  -0.0590 
 13 N       -2.5180    -3.2630     0.9420 N.pl3 1 <1>   0.3140 
 14 C       -0.2290    -2.2560     0.4810 C.3   1 <1>  -0.0600 
 15 C        1.1880     4.6870    -0.9690 C.3   1 <1>   0.4230 
 16 C        1.1460     3.0940     0.9150 C.3   1 <1>   0.3430 
 17 C       -2.0660    -4.5740     1.4570 C.3   1 <1>   0.0960 
 18 N        1.9790     3.6900    -0.1750 N.4   1 <1>  -0.9590 
 19 C        0.5330     5.8250    -0.1470 C.3   1 <1>  -0.1600 
 20 C       -1.8460    -5.5730     0.3140 C.3   1 <1>  -0.2400 
 21 C        3.3540     4.0670     0.2500 C.3   1 <1>   0.3430 
 22 C        1.4390     6.7090     0.7160 C.3   1 <1>   0.1200 
 23 C        4.2770     4.3190    -0.9560 C.3   1 <1>  -0.0800 
 24 O        1.7100     6.0530     1.9030 O.3   1 <1>  -0.6800 
 25 C        4.3230     3.1260    -1.9280 C.3   1 <1>  -0.2400 
 26 C        5.6960     4.6220    -0.4580 C.3   1 <1>  -0.2400 
 27 H       -2.9260     0.7500    -0.0800 H     1 <1>   0.3700 
 28 H       -2.2220     2.3510    -1.5570 H     1 <1>   0.0800 
 29 H       -1.1920     1.8830    -2.8740 H     1 <1>   0.0800 
 30 H       -0.8410     4.4490    -1.7220 H     1 <1>   0.0800 
 31 H        0.3800     3.7890    -2.7550 H     1 <1>   0.0800 
 32 H       -0.2960     1.5210     0.6900 H     1 <1>   0.0800 
 33 H       -1.0030     3.1100     0.6810 H     1 <1>   0.0800 
 34 H       -5.1410    -0.5720    -0.8700 H     1 <1>   0.0800 
 35 H       -5.4080    -0.3980     0.8580 H     1 <1>   0.0800 
 36 H       -5.9780    -1.8200     0.0190 H     1 <1>   0.0800 
 37 H        0.1620    -1.2890     0.2260 H     1 <1>   0.0800 
 38 H        0.1210    -2.9630    -0.2500 H     1 <1>   0.0800 
 39 H        0.1540    -2.5270     1.4480 H     1 <1>   0.0800 
 40 H        1.8280     5.1400    -1.7060 H     1 <1>   0.0800 
 41 H        1.6880     2.2930     1.3900 H     1 <1>   0.0800 
 42 H        0.9220     3.8320     1.6670 H     1 <1>   0.0800 
 43 H       -2.8220    -4.9460     2.1240 H     1 <1>   0.0800 
 44 H       -1.1600    -4.4350     2.0150 H     1 <1>   0.0800 
 45 H        2.0630     2.9010    -0.8350 H     1 <1>   0.4500 
 46 H       -0.2710     5.4500     0.4590 H     1 <1>   0.0800 
 47 H        0.0750     6.4830    -0.8640 H     1 <1>   0.0800 
 48 H       -2.7630    -5.7110    -0.2310 H     1 <1>   0.0800 
 49 H       -1.5360    -6.5230     0.7120 H     1 <1>   0.0800 
 50 H       -1.0860    -5.2160    -0.3580 H     1 <1>   0.0800 
 51 H        3.7730     3.2650     0.8360 H     1 <1>   0.0800 
 52 H        3.3320     4.9440     0.8710 H     1 <1>   0.0800 
 53 H        0.9270     7.6250     0.9620 H     1 <1>   0.0800 
 54 H        2.3670     6.9450     0.2210 H     1 <1>   0.0800 
 55 H        3.9340     5.1900    -1.4860 H     1 <1>   0.0800 
 56 H        2.0380     6.6880     2.5780 H     1 <1>   0.4000 
 57 H        4.6310     2.2290    -1.4180 H     1 <1>   0.0800 
 58 H        5.0300     3.3200    -2.7170 H     1 <1>   0.0800 
 59 H        3.3670     2.9520    -2.3870 H     1 <1>   0.0800 
 60 H        6.1080     3.7790     0.0700 H     1 <1>   0.0800 
 61 H        5.6950     5.4720     0.2020 H     1 <1>   0.0800 
 62 H        6.3440     4.8480    -1.2880 H     1 <1>   0.0800 
@<TRIPOS>BOND
  1   1   2  2   
  2   2   3  am  
  3   2   4  1   
  4   3   5  1   
  5   3  27  1   
  6   4   6  1   
  7   4  28  1   
  8   4  29  1   
  9   5   7  1   
 10   5   8  2   
 11   6   9  1   
 12   6  10  1   
 13   7  11  2   
 14   7  12  1   
 15   8  13  1   
 16   8  14  1   
 17   9  15  1   
 18   9  30  1   
 19   9  31  1   
 20  10  16  1   
 21  10  32  1   
 22  10  33  1   
 23  11  13  1   
 24  12  34  1   
 25  12  35  1   
 26  12  36  1   
 27  13  17  1   
 28  14  37  1   
 29  14  38  1   
 30  14  39  1   
 31  15  18  1   
 32  15  19  1   
 33  15  40  1   
 34  16  18  1   
 35  16  41  1   
 36  16  42  1   
 37  17  20  1   
 38  17  43  1   
 39  17  44  1   
 40  18  21  1   
 41  18  45  1   
 42  19  22  1   
 43  19  46  1   
 44  19  47  1   
 45  20  48  1   
 46  20  49  1   
 47  20  50  1   
 48  21  23  1   
 49  21  51  1   
 50  21  52  1   
 51  22  24  1   
 52  22  53  1   
 53  22  54  1   
 54  23  25  1   
 55  23  26  1   
 56  23  55  1   
 57  24  56  1   
 58  25  57  1   
 59  25  58  1   
 60  25  59  1   
 61  26  60  1   
 62  26  61  1   
 63  26  62  1   
@<TRIPOS>SUBSTRUCTURE
  1 ****  10 GROUP 4 **** **** 0

# MOE 2024.06 (io_trps.svl 2023.06)
