@<TRIPOS>MOLECULE
NONAME
56 59 1 0 0 
SMALL
USER_CHARGES


@<TRIPOS>ATOM
  1 O        0.7310    -0.2510     1.7510 O.3   1 <1>  -0.5600 
  2 C        0.5790    -1.5870     1.3470 C.3   1 <1>   0.1200 
  3 C        1.3970     0.5420     0.8150 C.3   1 <1>   0.1200 
  4 C        1.9480    -2.2420     1.0620 C.3   1 <1>   0.3340 
  5 C        2.8120    -0.0160     0.5690 C.3   1 <1>   0.1900 
  6 N        2.7410    -1.4240     0.1070 N.3   1 <1>  -0.8100 
  7 C        1.7490    -3.6520     0.5140 C.ar  1 <1>  -0.1440 
  8 C        3.5620     0.8500    -0.4650 C.3   1 <1>   0.3430 
  9 C        4.0890    -1.9830    -0.1290 C.3   1 <1>   0.1100 
 10 C        1.2370    -3.8540    -0.7610 C.ar  1 <1>  -0.1500 
 11 C        2.0850    -4.7540     1.2880 C.ar  1 <1>  -0.1500 
 12 N        4.9300     0.2990    -0.7900 N.4   1 <1>  -0.9590 
 13 C        4.8570    -1.1520    -1.1750 C.3   1 <1>   0.3430 
 14 C        1.0670    -5.1350    -1.2560 C.ar  1 <1>  -0.1500 
 15 C        1.9170    -6.0360     0.7930 C.ar  1 <1>  -0.1500 
 16 C        5.6150     1.1110    -1.8290 C.3   1 <1>   0.4860 
 17 C        1.4090    -6.2270    -0.4790 C.ar  1 <1>  -0.1500 
 18 C        5.8350     2.4990    -1.2670 C.ar  1 <1>  -0.1440 
 19 C        6.8460     2.7310    -0.3470 C.ar  1 <1>  -0.1500 
 20 C        5.0190     3.5510    -1.6530 C.ar  1 <1>  -0.1500 
 21 C        7.0340     3.9910     0.1950 C.ar  1 <1>   0.0820 
 22 C        5.1940     4.8150    -1.1170 C.ar  1 <1>   0.0820 
 23 O        8.0440     4.1110     1.0900 O.3   1 <1>  -0.3620 
 24 C        6.2040     5.0400    -0.1880 C.ar  1 <1>  -0.1500 
 25 O        4.3340     5.7700    -1.5480 O.3   1 <1>  -0.3630 
 26 C        8.4020     5.3630     1.6360 C.3   1 <1>   0.0400 
 27 C        4.4610     7.1150    -1.1410 C.3   1 <1>   0.0400 
 28 H        0.0770    -2.1150     2.1380 H     1 <1>   0.0800 
 29 H       -0.0440    -1.6130     0.4710 H     1 <1>   0.0800 
 30 H        0.8210     0.5580    -0.0940 H     1 <1>   0.0800 
 31 H        1.4450     1.5400     1.2150 H     1 <1>   0.0800 
 32 H        2.4790    -2.3040     1.9970 H     1 <1>   0.0800 
 33 H        3.3460     0.0310     1.5040 H     1 <1>   0.0800 
 34 H        3.6540     1.8530    -0.0790 H     1 <1>   0.0800 
 35 H        2.9670     0.8940    -1.3620 H     1 <1>   0.0800 
 36 H        4.6430    -2.0180     0.7930 H     1 <1>   0.0800 
 37 H        4.0040    -2.9910    -0.5000 H     1 <1>   0.0800 
 38 H        0.9710    -3.0110    -1.3740 H     1 <1>   0.1500 
 39 H        2.4790    -4.6260     2.2810 H     1 <1>   0.1500 
 40 H        5.4920     0.3810     0.0650 H     1 <1>   0.4500 
 41 H        4.3470    -1.2520    -2.1190 H     1 <1>   0.0800 
 42 H        5.8490    -1.5560    -1.2870 H     1 <1>   0.0800 
 43 H        0.6680    -5.2840    -2.2450 H     1 <1>   0.1500 
 44 H        2.1800    -6.8860     1.3990 H     1 <1>   0.1500 
 45 H        6.5680     0.6730    -2.0800 H     1 <1>   0.0800 
 46 H        5.0140     1.1630    -2.7230 H     1 <1>   0.0800 
 47 H        1.2770    -7.2240    -0.8620 H     1 <1>   0.1500 
 48 H        7.5110     1.9460    -0.0320 H     1 <1>   0.1500 
 49 H        4.2340     3.4160    -2.3760 H     1 <1>   0.1500 
 50 H        6.3420     6.0150     0.2320 H     1 <1>   0.1500 
 51 H        9.2500     5.2160     2.2810 H     1 <1>   0.0800 
 52 H        7.5740     5.7470     2.2050 H     1 <1>   0.0800 
 53 H        8.6650     6.0320     0.8360 H     1 <1>   0.0800 
 54 H        3.6960     7.6880    -1.6360 H     1 <1>   0.0800 
 55 H        5.4310     7.4790    -1.4290 H     1 <1>   0.0800 
 56 H        4.3260     7.1740    -0.0760 H     1 <1>   0.0800 
@<TRIPOS>BOND
  1   1   2  1   
  2   1   3  1   
  3   2   4  1   
  4   2  28  1   
  5   2  29  1   
  6   3   5  1   
  7   3  30  1   
  8   3  31  1   
  9   4   6  1   
 10   4   7  1   
 11   4  32  1   
 12   5   6  1   
 13   5   8  1   
 14   5  33  1   
 15   6   9  1   
 16   7  10  ar  
 17   7  11  ar  
 18   8  12  1   
 19   8  34  1   
 20   8  35  1   
 21   9  13  1   
 22   9  36  1   
 23   9  37  1   
 24  10  14  ar  
 25  10  38  1   
 26  11  15  ar  
 27  11  39  1   
 28  12  13  1   
 29  12  16  1   
 30  12  40  1   
 31  13  41  1   
 32  13  42  1   
 33  14  17  ar  
 34  14  43  1   
 35  15  17  ar  
 36  15  44  1   
 37  16  18  1   
 38  16  45  1   
 39  16  46  1   
 40  17  47  1   
 41  18  19  ar  
 42  18  20  ar  
 43  19  21  ar  
 44  19  48  1   
 45  20  22  ar  
 46  20  49  1   
 47  21  23  1   
 48  21  24  ar  
 49  22  24  ar  
 50  22  25  1   
 51  23  26  1   
 52  24  50  1   
 53  25  27  1   
 54  26  51  1   
 55  26  52  1   
 56  26  53  1   
 57  27  54  1   
 58  27  55  1   
 59  27  56  1   
@<TRIPOS>SUBSTRUCTURE
  1 ****   8 GROUP 4 **** **** 0

# MOE 2024.06 (io_trps.svl 2023.06)
