@<TRIPOS>MOLECULE
NONAME
53 56 1 0 0 
SMALL
USER_CHARGES


@<TRIPOS>ATOM
  1 O       -2.7520     0.6790    -2.9620 O.2   1 <1>  -0.5700 
  2 C       -2.2280     1.2400    -2.0170 C.2   1 <1>   0.7150 
  3 N       -2.1140     0.5090    -0.8500 N.am  1 <1>  -0.6600 
  4 C       -1.8130     2.6220    -2.1260 C.2   1 <1>   0.0550 
  5 C       -2.5310     1.0600     0.4750 C.3   1 <1>   0.1400 
  6 C       -2.0790    -0.9810    -0.8960 C.3   1 <1>   0.1400 
  7 O       -1.1720     3.2400    -1.1370 O.3   1 <1>  -0.2800 
  8 C       -1.9650     3.5070    -3.1500 C.2   1 <1>  -0.1500 
  9 C       -3.8930     0.4740     0.9190 C.3   1 <1>   0.4230 
 10 C       -3.4500    -1.5530    -0.5020 C.3   1 <1>   0.3430 
 11 C       -0.9150     4.4850    -1.4840 C.2   1 <1>   0.1600 
 12 C       -1.3880     4.7050    -2.7340 C.2   1 <1>  -0.1500 
 13 N       -3.9180    -1.0450     0.8450 N.4   1 <1>  -0.9590 
 14 C       -5.0450     1.0860     0.0860 C.3   1 <1>   0.1200 
 15 C       -0.2400     5.3490    -0.5710 C.1   1 <1>  -0.0200 
 16 C       -5.2890    -1.5430     1.2080 C.3   1 <1>   0.5180 
 17 O       -6.2730     0.5560     0.4960 O.3   1 <1>  -0.5600 
 18 C        0.3180     6.0630     0.2040 C.1   1 <1>  -0.2000 
 19 C       -5.3140    -3.0830     1.1250 C.3   1 <1>  -0.1950 
 20 C       -6.3840    -0.8350     0.3710 C.3   1 <1>   0.1200 
 21 C        1.0150     6.9450     1.1780 C.3   1 <1>   0.4800 
 22 C       -5.6340    -3.8710    -0.1130 C.3   1 <1>  -0.2000 
 23 C       -6.5860    -3.8730     1.0480 C.3   1 <1>  -0.2000 
 24 O        0.2650     6.9680     2.3240 O.3   1 <1>  -0.6800 
 25 C        1.0990     8.3770     0.6630 C.3   1 <1>  -0.2400 
 26 C        2.3840     6.3860     1.5440 C.3   1 <1>  -0.2400 
 27 H       -1.7770     0.8260     1.2070 H     1 <1>   0.0800 
 28 H       -2.6130     2.1320     0.4370 H     1 <1>   0.0800 
 29 H       -1.8220    -1.3170    -1.8880 H     1 <1>   0.0800 
 30 H       -1.3180    -1.3440    -0.2270 H     1 <1>   0.0800 
 31 H       -2.4350     3.3300    -4.1020 H     1 <1>   0.1500 
 32 H       -4.0560     0.7780     1.9400 H     1 <1>   0.0800 
 33 H       -3.3850    -2.6290    -0.4890 H     1 <1>   0.0800 
 34 H       -4.1600    -1.2770    -1.2650 H     1 <1>   0.0800 
 35 H       -1.3380     5.6150    -3.3050 H     1 <1>   0.1500 
 36 H       -3.2700    -1.4050     1.5530 H     1 <1>   0.4500 
 37 H       -4.9190     0.8970    -0.9660 H     1 <1>   0.0800 
 38 H       -5.0870     2.1510     0.2360 H     1 <1>   0.0800 
 39 H       -5.4820    -1.2830     2.2360 H     1 <1>   0.0800 
 40 H       -4.5830    -3.5040     1.7940 H     1 <1>   0.1000 
 41 H       -7.3600    -1.1090     0.7310 H     1 <1>   0.0800 
 42 H       -6.3200    -1.0950    -0.6700 H     1 <1>   0.0800 
 43 H       -5.9700    -3.3950    -1.0190 H     1 <1>   0.1000 
 44 H       -5.0930    -4.7810    -0.3150 H     1 <1>   0.1000 
 45 H       -6.6740    -4.7760     1.6300 H     1 <1>   0.1000 
 46 H       -7.5420    -3.3960     0.9110 H     1 <1>   0.1000 
 47 H        0.6980     7.5480     2.9730 H     1 <1>   0.4000 
 48 H        1.6660     8.4000    -0.2500 H     1 <1>   0.0800 
 49 H        1.5840     9.0150     1.3790 H     1 <1>   0.0800 
 50 H        0.1130     8.7530     0.4560 H     1 <1>   0.0800 
 51 H        3.0000     6.3320     0.6650 H     1 <1>   0.0800 
 52 H        2.2820     5.3920     1.9430 H     1 <1>   0.0800 
 53 H        2.8750     7.0130     2.2650 H     1 <1>   0.0800 
@<TRIPOS>BOND
  1   1   2  2   
  2   2   3  am  
  3   2   4  1   
  4   3   5  1   
  5   3   6  1   
  6   4   7  1   
  7   4   8  2   
  8   5   9  1   
  9   5  27  1   
 10   5  28  1   
 11   6  10  1   
 12   6  29  1   
 13   6  30  1   
 14   7  11  1   
 15   8  12  1   
 16   8  31  1   
 17   9  13  1   
 18   9  14  1   
 19   9  32  1   
 20  10  13  1   
 21  10  33  1   
 22  10  34  1   
 23  11  12  2   
 24  11  15  1   
 25  12  35  1   
 26  13  16  1   
 27  13  36  1   
 28  14  17  1   
 29  14  37  1   
 30  14  38  1   
 31  15  18  3   
 32  16  19  1   
 33  16  20  1   
 34  16  39  1   
 35  17  20  1   
 36  18  21  1   
 37  19  22  1   
 38  19  23  1   
 39  19  40  1   
 40  20  41  1   
 41  20  42  1   
 42  21  24  1   
 43  21  25  1   
 44  21  26  1   
 45  22  23  1   
 46  22  43  1   
 47  22  44  1   
 48  23  45  1   
 49  23  46  1   
 50  24  47  1   
 51  25  48  1   
 52  25  49  1   
 53  25  50  1   
 54  26  51  1   
 55  26  52  1   
 56  26  53  1   
@<TRIPOS>SUBSTRUCTURE
  1 ****   5 GROUP 4 **** **** 0

# MOE 2024.06 (io_trps.svl 2023.06)
