@<TRIPOS>MOLECULE
NONAME
49 50 1 0 0 
SMALL
USER_CHARGES


@<TRIPOS>ATOM
  1 F        0.6260    -2.3120    -2.7860 F     1 <1>  -0.1900 
  2 C        0.3240    -2.9900    -1.7130 C.ar  1 <1>   0.1900 
  3 C        0.4250    -4.3650    -1.7490 C.ar  1 <1>  -0.1500 
  4 C       -0.0920    -2.3030    -0.5890 C.ar  1 <1>  -0.1500 
  5 C        0.0830    -5.0880    -0.6110 C.ar  1 <1>   0.0830 
  6 C       -0.4250    -3.0280     0.5420 C.ar  1 <1>  -0.1500 
  7 O        0.1510    -6.4460    -0.5890 O.3   1 <1>  -0.3630 
  8 C       -0.3460    -4.4160     0.5370 C.ar  1 <1>  -0.1440 
  9 C        1.1280    -7.1120    -1.3660 C.3   1 <1>   0.0400 
 10 C       -0.7100    -5.1880     1.7970 C.3   1 <1>   0.2540 
 11 N       -2.0300    -5.8180     1.6220 N.3   1 <1>  -0.8100 
 12 C       -2.1840    -7.0870     2.3430 C.3   1 <1>   0.2900 
 13 C       -3.1990    -4.9080     1.7400 C.3   1 <1>   0.1100 
 14 C       -2.7170    -8.0450     1.3090 C.2   1 <1>  -0.3320 
 15 C       -3.5980    -4.3410     0.3630 C.3   1 <1>   0.3430 
 16 N       -2.0190    -8.3540     0.2010 N.pl3 1 <1>   0.0330 
 17 C       -3.8820    -8.7230     1.2290 C.2   1 <1>   0.0770 
 18 N       -3.4770    -5.4240    -0.6510 N.4   1 <1>  -0.9590 
 19 C       -2.8200    -9.1810    -0.5030 C.2   1 <1>   0.0060 
 20 N       -3.9530    -9.4130     0.0740 N.2   1 <1>  -0.5650 
 21 C       -3.0430    -4.9160    -1.9790 C.3   1 <1>   0.2630 
 22 C       -4.6890    -6.2920    -0.7390 C.3   1 <1>   0.2630 
 23 C       -2.4150    -9.7750    -1.8350 C.3   1 <1>  -0.0600 
 24 H        0.7590    -4.8360    -2.6530 H     1 <1>   0.1500 
 25 H       -0.1450    -1.2280    -0.6040 H     1 <1>   0.1500 
 26 H       -0.7380    -2.5020     1.4290 H     1 <1>   0.1500 
 27 H        1.1890    -8.1330    -1.0350 H     1 <1>   0.0800 
 28 H        2.0800    -6.6290    -1.2230 H     1 <1>   0.0800 
 29 H        0.8390    -7.0820    -2.4020 H     1 <1>   0.0800 
 30 H       -0.7130    -4.5460     2.6610 H     1 <1>   0.0800 
 31 H        0.0460    -5.9400     1.9510 H     1 <1>   0.0800 
 32 H       -2.8600    -6.9890     3.1760 H     1 <1>   0.0800 
 33 H       -1.2400    -7.4540     2.7100 H     1 <1>   0.0800 
 34 H       -2.9900    -4.1050     2.4270 H     1 <1>   0.0800 
 35 H       -4.0460    -5.4490     2.1250 H     1 <1>   0.0800 
 36 H       -2.9170    -3.5430     0.1180 H     1 <1>   0.0800 
 37 H       -4.5970    -3.9400     0.3860 H     1 <1>   0.0800 
 38 H       -1.0880    -7.9980    -0.0510 H     1 <1>   0.2700 
 39 H       -4.6920    -8.7460     1.9400 H     1 <1>   0.1500 
 40 H       -2.7130    -6.0030    -0.2310 H     1 <1>   0.4500 
 41 H       -3.8180    -4.3100    -2.4200 H     1 <1>   0.0800 
 42 H       -2.8280    -5.7410    -2.6390 H     1 <1>   0.0800 
 43 H       -2.1530    -4.3180    -1.8740 H     1 <1>   0.0800 
 44 H       -5.5170    -5.7470    -1.1600 H     1 <1>   0.0800 
 45 H       -4.9640    -6.6460     0.2400 H     1 <1>   0.0800 
 46 H       -4.4850    -7.1540    -1.3550 H     1 <1>   0.0800 
 47 H       -2.1940    -8.9970    -2.5410 H     1 <1>   0.0800 
 48 H       -3.2170   -10.3780    -2.2220 H     1 <1>   0.0800 
 49 H       -1.5500   -10.4000    -1.7100 H     1 <1>   0.0800 
@<TRIPOS>BOND
  1   1   2  1   
  2   2   3  ar  
  3   2   4  ar  
  4   3   5  ar  
  5   3  24  1   
  6   4   6  ar  
  7   4  25  1   
  8   5   7  1   
  9   5   8  ar  
 10   6   8  ar  
 11   6  26  1   
 12   7   9  1   
 13   8  10  1   
 14   9  27  1   
 15   9  28  1   
 16   9  29  1   
 17  10  11  1   
 18  10  30  1   
 19  10  31  1   
 20  11  12  1   
 21  11  13  1   
 22  12  14  1   
 23  12  32  1   
 24  12  33  1   
 25  13  15  1   
 26  13  34  1   
 27  13  35  1   
 28  14  16  1   
 29  14  17  2   
 30  15  18  1   
 31  15  36  1   
 32  15  37  1   
 33  16  19  1   
 34  16  38  1   
 35  17  20  1   
 36  17  39  1   
 37  18  21  1   
 38  18  22  1   
 39  18  40  1   
 40  19  20  2   
 41  19  23  1   
 42  21  41  1   
 43  21  42  1   
 44  21  43  1   
 45  22  44  1   
 46  22  45  1   
 47  22  46  1   
 48  23  47  1   
 49  23  48  1   
 50  23  49  1   
@<TRIPOS>SUBSTRUCTURE
  1 ****  11 GROUP 4 **** **** 0

# MOE 2024.06 (io_trps.svl 2023.06)
