@<TRIPOS>MOLECULE
NONAME
48 50 1 0 0 
SMALL
USER_CHARGES


@<TRIPOS>ATOM
  1 N       -1.4360    -0.8520    -1.0300 N.ar  1 <1>  -0.6200 
  2 C       -1.9200    -1.6330    -0.0790 C.ar  1 <1>   0.4100 
  3 C       -0.3100    -1.3270    -1.5480 C.ar  1 <1>   0.1600 
  4 N       -3.0990    -1.1950     0.5480 N.pl3 1 <1>  -0.8380 
  5 C       -1.2910    -2.8580     0.3200 C.ar  1 <1>   0.4100 
  6 C        0.2970    -2.5060    -1.1540 C.ar  1 <1>   0.1600 
  7 C       -4.1150    -0.5240    -0.3090 C.3   1 <1>   0.1290 
  8 C       -2.8850    -0.5000     1.8440 C.3   1 <1>   0.1290 
  9 N       -0.1710    -3.3130    -0.2100 N.ar  1 <1>  -0.6200 
 10 N       -1.8770    -3.6330     1.3130 N.pl3 1 <1>  -0.8690 
 11 C       -2.0110    -5.0950     1.1250 C.3   1 <1>   0.2090 
 12 C       -3.4710    -5.4420     0.8140 C.3   1 <1>  -0.0800 
 13 C       -3.6700    -6.9360     0.5710 C.3   1 <1>   0.2090 
 14 C       -4.0080    -4.7870    -0.4580 C.3   1 <1>  -0.1600 
 15 N       -4.7700    -7.0420    -0.4220 N.pl3 1 <1>  -0.8380 
 16 C       -5.1590    -5.6850    -0.8800 C.3   1 <1>   0.2090 
 17 C       -5.6810    -8.1060    -0.3390 C.ar  1 <1>   0.1000 
 18 C       -7.0490    -7.9480    -0.5650 C.ar  1 <1>  -0.1500 
 19 C       -5.2230    -9.3850    -0.0350 C.ar  1 <1>  -0.1500 
 20 C       -7.9290    -9.0130    -0.4700 C.ar  1 <1>  -0.1430 
 21 C       -6.0910   -10.4560     0.0620 C.ar  1 <1>  -0.1500 
 22 C       -7.4450   -10.2710    -0.1530 C.ar  1 <1>  -0.1500 
 23 C       -9.4140    -8.8170    -0.7150 C.3   1 <1>  -0.0970 
 24 H        0.1470    -0.7430    -2.3250 H     1 <1>   0.1500 
 25 H        1.2110    -2.8050    -1.6340 H     1 <1>   0.1500 
 26 H       -4.1950    -1.0390    -1.2510 H     1 <1>   0.0800 
 27 H       -3.8230     0.4960    -0.4970 H     1 <1>   0.0800 
 28 H       -5.0740    -0.5370     0.1780 H     1 <1>   0.0800 
 29 H       -2.1080    -0.9920     2.4060 H     1 <1>   0.0800 
 30 H       -3.7920    -0.5130     2.4220 H     1 <1>   0.0800 
 31 H       -2.5890     0.5200     1.6670 H     1 <1>   0.0800 
 32 H       -2.7720    -3.1960     1.5600 H     1 <1>   0.4000 
 33 H       -1.6980    -5.5910     2.0270 H     1 <1>   0.0800 
 34 H       -1.3770    -5.4330     0.3220 H     1 <1>   0.0800 
 35 H       -4.0880    -5.1640     1.6500 H     1 <1>   0.0800 
 36 H       -3.9230    -7.4470     1.4840 H     1 <1>   0.0800 
 37 H       -2.7840    -7.3760     0.1450 H     1 <1>   0.0800 
 38 H       -3.2580    -4.7960    -1.2300 H     1 <1>   0.0800 
 39 H       -4.3310    -3.7740    -0.2950 H     1 <1>   0.0800 
 40 H       -5.3080    -5.6700    -1.9460 H     1 <1>   0.0800 
 41 H       -6.0580    -5.3750    -0.3760 H     1 <1>   0.0800 
 42 H       -7.4360    -6.9830    -0.8200 H     1 <1>   0.1500 
 43 H       -4.1740    -9.5440     0.1170 H     1 <1>   0.1500 
 44 H       -5.7140   -11.4340     0.3010 H     1 <1>   0.1500 
 45 H       -8.1170   -11.1080    -0.0770 H     1 <1>   0.1500 
 46 H       -9.6750    -7.7760    -0.6720 H     1 <1>   0.0800 
 47 H       -9.9840    -9.3410     0.0320 H     1 <1>   0.0800 
 48 H       -9.6750    -9.2000    -1.6850 H     1 <1>   0.0800 
@<TRIPOS>BOND
  1   1   2  ar  
  2   1   3  ar  
  3   2   4  1   
  4   2   5  ar  
  5   3   6  ar  
  6   3  24  1   
  7   4   7  1   
  8   4   8  1   
  9   5   9  ar  
 10   5  10  1   
 11   6   9  ar  
 12   6  25  1   
 13   7  26  1   
 14   7  27  1   
 15   7  28  1   
 16   8  29  1   
 17   8  30  1   
 18   8  31  1   
 19  10  11  1   
 20  10  32  1   
 21  11  12  1   
 22  11  33  1   
 23  11  34  1   
 24  12  13  1   
 25  12  14  1   
 26  12  35  1   
 27  13  15  1   
 28  13  36  1   
 29  13  37  1   
 30  14  16  1   
 31  14  38  1   
 32  14  39  1   
 33  15  16  1   
 34  15  17  1   
 35  16  40  1   
 36  16  41  1   
 37  17  18  ar  
 38  17  19  ar  
 39  18  20  ar  
 40  18  42  1   
 41  19  21  ar  
 42  19  43  1   
 43  20  22  ar  
 44  20  23  1   
 45  21  22  ar  
 46  21  44  1   
 47  22  45  1   
 48  23  46  1   
 49  23  47  1   
 50  23  48  1   
@<TRIPOS>SUBSTRUCTURE
  1 ****  14 GROUP 4 **** **** 0

# MOE 2024.06 (io_trps.svl 2023.06)
