@<TRIPOS>MOLECULE
NONAME
49 51 1 0 0 
SMALL
USER_CHARGES


@<TRIPOS>ATOM
  1 CL      -0.4930     0.1090     2.3520 Cl    1 <1>  -0.1770 
  2 C       -1.4900     1.1100     1.3290 C.ar  1 <1>   0.1770 
  3 C       -1.4820     2.4770     1.5060 C.ar  1 <1>  -0.1500 
  4 C       -2.2680     0.5170     0.3550 C.ar  1 <1>  -0.1500 
  5 C       -2.2590     3.2980     0.6930 C.ar  1 <1>   0.0860 
  6 C       -3.0590     1.3180    -0.4510 C.ar  1 <1>  -0.1500 
  7 C       -3.0610     2.6950    -0.2850 C.ar  1 <1>  -0.1440 
  8 C       -2.2090     4.7360     0.8790 C.2   1 <1>   0.5440 
  9 C       -3.9580     3.5490    -1.1740 C.3   1 <1>  -0.0960 
 10 O       -2.9210     5.2440     1.7230 O.2   1 <1>  -0.5700 
 11 N       -1.3630     5.5320     0.1300 N.am  1 <1>  -0.6600 
 12 C       -0.4190     4.9640    -0.8830 C.3   1 <1>   0.1400 
 13 C       -1.3420     7.0170     0.3000 C.3   1 <1>   0.1400 
 14 C        0.9270     4.5890    -0.2470 C.3   1 <1>   0.1400 
 15 C        0.0660     7.6000     0.4910 C.3   1 <1>  -0.1600 
 16 N        1.7150     5.7950     0.1560 N.am  1 <1>  -0.6600 
 17 C        1.0640     6.6620     1.1800 C.3   1 <1>   0.1400 
 18 C        2.9240     6.0700    -0.4360 C.2   1 <1>   0.5690 
 19 O        3.3950     5.3440    -1.2800 O.2   1 <1>  -0.5700 
 20 C        3.7010     7.3200    -0.0470 C.3   1 <1>  -0.0990 
 21 C        4.9430     7.5750    -0.9110 C.3   1 <1>   0.0210 
 22 C        5.6210     8.8610    -0.4790 C.2   1 <1>  -0.1810 
 23 C        5.1940    10.1570    -0.7560 C.2   1 <1>   0.1390 
 24 C        6.7460     9.0200     0.2490 C.2   1 <1>  -0.3020 
 25 N        5.9790    11.0540    -0.2410 N.2   1 <1>  -0.7070 
 26 N        6.9430    10.3470     0.3780 N.pl3 1 <1>   0.3000 
 27 H       -0.8730     2.9110     2.2780 H     1 <1>   0.1500 
 28 H       -2.2580    -0.5520     0.2360 H     1 <1>   0.1500 
 29 H       -3.6740     0.8570    -1.2050 H     1 <1>   0.1500 
 30 H       -4.6130     4.1480    -0.5650 H     1 <1>   0.0800 
 31 H       -4.5640     2.9380    -1.8180 H     1 <1>   0.0800 
 32 H       -3.3630     4.2040    -1.7850 H     1 <1>   0.0800 
 33 H       -0.2570     5.6730    -1.6770 H     1 <1>   0.0800 
 34 H       -0.8490     4.0840    -1.3250 H     1 <1>   0.0800 
 35 H       -1.9310     7.2880     1.1590 H     1 <1>   0.0800 
 36 H       -1.8070     7.4730    -0.5570 H     1 <1>   0.0800 
 37 H        1.4830     4.0060    -0.9600 H     1 <1>   0.0800 
 38 H        0.7650     3.9650     0.6130 H     1 <1>   0.0800 
 39 H       -0.0360     8.4870     1.0900 H     1 <1>   0.0800 
 40 H        0.4590     7.9140    -0.4590 H     1 <1>   0.0800 
 41 H        0.5640     6.0540     1.9170 H     1 <1>   0.0800 
 42 H        1.8050     7.2430     1.6990 H     1 <1>   0.0800 
 43 H        4.0090     7.2250     0.9770 H     1 <1>   0.0800 
 44 H        3.0480     8.1690    -0.1300 H     1 <1>   0.0800 
 45 H        4.6650     7.6470    -1.9480 H     1 <1>   0.0800 
 46 H        5.6320     6.7540    -0.8070 H     1 <1>   0.0800 
 47 H        4.3160    10.4020    -1.3300 H     1 <1>   0.1500 
 48 H        7.4030     8.2820     0.6720 H     1 <1>   0.1500 
 49 H        7.7180    10.8000     0.8780 H     1 <1>   0.2700 
@<TRIPOS>BOND
  1   1   2  1   
  2   2   3  ar  
  3   2   4  ar  
  4   3   5  ar  
  5   3  27  1   
  6   4   6  ar  
  7   4  28  1   
  8   5   7  ar  
  9   5   8  1   
 10   6   7  ar  
 11   6  29  1   
 12   7   9  1   
 13   8  10  2   
 14   8  11  am  
 15   9  30  1   
 16   9  31  1   
 17   9  32  1   
 18  11  12  1   
 19  11  13  1   
 20  12  14  1   
 21  12  33  1   
 22  12  34  1   
 23  13  15  1   
 24  13  35  1   
 25  13  36  1   
 26  14  16  1   
 27  14  37  1   
 28  14  38  1   
 29  15  17  1   
 30  15  39  1   
 31  15  40  1   
 32  16  17  1   
 33  16  18  am  
 34  17  41  1   
 35  17  42  1   
 36  18  19  2   
 37  18  20  1   
 38  20  21  1   
 39  20  43  1   
 40  20  44  1   
 41  21  22  1   
 42  21  45  1   
 43  21  46  1   
 44  22  23  1   
 45  22  24  2   
 46  23  25  2   
 47  23  47  1   
 48  24  26  1   
 49  24  48  1   
 50  25  26  1   
 51  26  49  1   
@<TRIPOS>SUBSTRUCTURE
  1 ****  16 GROUP 4 **** **** 0

# MOE 2024.06 (io_trps.svl 2023.06)
