@<TRIPOS>MOLECULE
NONAME
43 44 1 0 0 
SMALL
USER_CHARGES


@<TRIPOS>ATOM
  1 S       -0.9870    -0.1150    -0.6710 S.o2  1 <1>   1.3330 
  2 O       -1.7430    -0.4720    -1.8460 O.2   1 <1>  -0.6500 
  3 O       -0.9330     1.2390    -0.1820 O.2   1 <1>  -0.6500 
  4 N       -1.5670    -1.0420     0.6030 N.am  1 <1>  -0.9140 
  5 C        0.6890    -0.6820    -0.8840 C.3   1 <1>  -0.1350 
  6 C       -1.6530    -2.4730     0.3660 C.3   1 <1>   0.1960 
  7 C       -2.3930    -3.1290     1.5230 C.3   1 <1>  -0.0990 
  8 C       -2.5280    -4.6070     1.2350 C.2   1 <1>   0.5690 
  9 O       -1.5610    -5.3000     1.4440 O.2   1 <1>  -0.5700 
 10 N       -3.6850    -5.1260     0.7250 N.am  1 <1>  -0.6600 
 11 C       -4.9020    -4.3760     0.3210 C.3   1 <1>   0.1400 
 12 C       -3.8270    -6.5670     0.4120 C.3   1 <1>   0.1400 
 13 C       -5.7670    -5.3980    -0.4180 C.3   1 <1>   0.2000 
 14 C       -5.3070    -6.7670     0.0800 C.3   1 <1>  -0.0800 
 15 O       -7.1140    -5.2220    -0.1450 O.3   1 <1>  -0.6800 
 16 C       -5.5670    -7.8890    -0.9370 C.3   1 <1>  -0.0160 
 17 C       -5.1050    -9.2350    -0.4010 C.ar  1 <1>  -0.1440 
 18 C       -5.9030    -9.9950     0.4300 C.ar  1 <1>  -0.1500 
 19 C       -3.8700    -9.7670    -0.7130 C.ar  1 <1>  -0.1500 
 20 C       -5.4410   -11.2140     0.8970 C.ar  1 <1>   0.1600 
 21 C       -3.5030   -10.9970    -0.1920 C.ar  1 <1>   0.1600 
 22 N       -4.2590   -11.7340     0.6060 N.ar  1 <1>  -0.6200 
 23 H       -1.0310    -0.8050     1.4350 H     1 <1>   0.4200 
 24 H        0.7050    -1.7120    -1.1800 H     1 <1>   0.0800 
 25 H        1.2430    -0.5670     0.0260 H     1 <1>   0.0800 
 26 H        1.1700    -0.1050    -1.6500 H     1 <1>   0.0800 
 27 H       -2.1950    -2.6530    -0.5490 H     1 <1>   0.0800 
 28 H       -0.6690    -2.9020     0.2740 H     1 <1>   0.0800 
 29 H       -3.3550    -2.6750     1.6570 H     1 <1>   0.0800 
 30 H       -1.8290    -3.0120     2.4300 H     1 <1>   0.0800 
 31 H       -5.4050    -4.0160     1.2020 H     1 <1>   0.0800 
 32 H       -4.6470    -3.5560    -0.3270 H     1 <1>   0.0800 
 33 H       -3.2060    -6.7990    -0.4360 H     1 <1>   0.0800 
 34 H       -3.5240    -7.1740     1.2490 H     1 <1>   0.0800 
 35 H       -5.6200    -5.2960    -1.4800 H     1 <1>   0.0800 
 36 H       -5.8090    -7.0000     1.0030 H     1 <1>   0.0800 
 37 H       -7.2960    -5.3710     0.8030 H     1 <1>   0.4000 
 38 H       -5.0600    -7.6740    -1.8620 H     1 <1>   0.0800 
 39 H       -6.6200    -7.9360    -1.1520 H     1 <1>   0.0800 
 40 H       -6.8800    -9.6520     0.7180 H     1 <1>   0.1500 
 41 H       -3.1880    -9.2400    -1.3550 H     1 <1>   0.1500 
 42 H       -6.0770   -11.7940     1.5430 H     1 <1>   0.1500 
 43 H       -2.5350   -11.3960    -0.4450 H     1 <1>   0.1500 
@<TRIPOS>BOND
  1   1   2  2   
  2   1   3  2   
  3   1   4  am  
  4   1   5  1   
  5   4   6  1   
  6   4  23  1   
  7   5  24  1   
  8   5  25  1   
  9   5  26  1   
 10   6   7  1   
 11   6  27  1   
 12   6  28  1   
 13   7   8  1   
 14   7  29  1   
 15   7  30  1   
 16   8   9  2   
 17   8  10  am  
 18  10  11  1   
 19  10  12  1   
 20  11  13  1   
 21  11  31  1   
 22  11  32  1   
 23  12  14  1   
 24  12  33  1   
 25  12  34  1   
 26  13  14  1   
 27  13  15  1   
 28  13  35  1   
 29  14  16  1   
 30  14  36  1   
 31  15  37  1   
 32  16  17  1   
 33  16  38  1   
 34  16  39  1   
 35  17  18  ar  
 36  17  19  ar  
 37  18  20  ar  
 38  18  40  1   
 39  19  21  ar  
 40  19  41  1   
 41  20  22  ar  
 42  20  42  1   
 43  21  22  ar  
 44  21  43  1   
@<TRIPOS>SUBSTRUCTURE
  1 ****  10 GROUP 4 **** **** 0

# MOE 2024.06 (io_trps.svl 2023.06)
