@<TRIPOS>MOLECULE
NONAME
45 48 1 0 0 
SMALL
USER_CHARGES


@<TRIPOS>ATOM
  1 O       -0.8530     0.2830    -0.5280 O.2   1 <1>  -0.5700 
  2 C       -1.6450     0.8590     0.1990 C.2   1 <1>   0.7150 
  3 N       -2.6830     0.1250     0.7350 N.am  1 <1>  -0.6600 
  4 C       -1.5070     2.2740     0.4760 C.2   1 <1>   0.0550 
  5 C       -2.6680    -1.3740     0.7220 C.3   1 <1>   0.1400 
  6 C       -4.0650     0.6790     0.8590 C.3   1 <1>   0.1400 
  7 O       -0.9590     3.1000    -0.4120 O.3   1 <1>  -0.2800 
  8 C       -1.8610     3.0060     1.5710 C.2   1 <1>  -0.1500 
  9 C       -3.6850    -1.9270    -0.2940 C.3   1 <1>   0.3440 
 10 C       -5.0130     0.0140    -0.1600 C.3   1 <1>   0.2950 
 11 C       -0.9540     4.3210     0.0740 C.2   1 <1>  -0.0400 
 12 C       -1.5040     4.3290     1.3080 C.2   1 <1>  -0.1500 
 13 O       -4.9550    -1.3780    -0.0470 O.3   1 <1>  -0.5600 
 14 C       -3.7560    -3.4490    -0.2040 C.ar  1 <1>  -0.1430 
 15 C       -6.4670     0.4350     0.0720 C.3   1 <1>  -0.1950 
 16 C       -0.3650     5.4350    -0.7740 C.3   1 <1>   0.3000 
 17 C       -4.6420    -4.0870     0.6540 C.ar  1 <1>  -0.1500 
 18 C       -2.9070    -4.2180    -0.9880 C.ar  1 <1>  -0.1500 
 19 C       -7.4800     0.3560    -1.0260 C.3   1 <1>  -0.2000 
 20 C       -7.0110     1.6940    -0.5280 C.3   1 <1>  -0.2000 
 21 O       -0.7330     6.6630    -0.2470 O.3   1 <1>  -0.6800 
 22 C       -4.6770    -5.4690     0.7290 C.ar  1 <1>  -0.1500 
 23 C       -2.9410    -5.6000    -0.9140 C.ar  1 <1>  -0.1500 
 24 C       -3.8260    -6.2270    -0.0550 C.ar  1 <1>  -0.1500 
 25 H       -1.6880    -1.7440     0.4790 H     1 <1>   0.0800 
 26 H       -2.9180    -1.7410     1.7010 H     1 <1>   0.0800 
 27 H       -4.4310     0.5000     1.8550 H     1 <1>   0.0800 
 28 H       -4.0700     1.7400     0.6870 H     1 <1>   0.0800 
 29 H       -2.3190     2.6530     2.4770 H     1 <1>   0.1500 
 30 H       -3.3890    -1.6460    -1.2900 H     1 <1>   0.0800 
 31 H       -4.7180     0.2810    -1.1600 H     1 <1>   0.0800 
 32 H       -1.6400     5.1640     1.9740 H     1 <1>   0.1500 
 33 H       -6.8060     0.1790     1.0610 H     1 <1>   0.1000 
 34 H       -0.7390     5.3760    -1.7810 H     1 <1>   0.0800 
 35 H        0.7090     5.3760    -0.7870 H     1 <1>   0.0800 
 36 H       -5.3110    -3.5070     1.2660 H     1 <1>   0.1500 
 37 H       -2.2120    -3.7450    -1.6600 H     1 <1>   0.1500 
 38 H       -7.1620     0.0130    -1.9960 H     1 <1>   0.1000 
 39 H       -8.4740     0.0230    -0.7800 H     1 <1>   0.1000 
 40 H       -7.6940     2.2930     0.0490 H     1 <1>   0.1000 
 41 H       -6.3940     2.2880    -1.1810 H     1 <1>   0.1000 
 42 H       -1.7040     6.6930    -0.1560 H     1 <1>   0.4000 
 43 H       -5.3690    -5.9530     1.3960 H     1 <1>   0.1500 
 44 H       -2.2790    -6.1880    -1.5260 H     1 <1>   0.1500 
 45 H       -3.8540    -7.3010     0.0020 H     1 <1>   0.1500 
@<TRIPOS>BOND
  1   1   2  2   
  2   2   3  am  
  3   2   4  1   
  4   3   5  1   
  5   3   6  1   
  6   4   7  1   
  7   4   8  2   
  8   5   9  1   
  9   5  25  1   
 10   5  26  1   
 11   6  10  1   
 12   6  27  1   
 13   6  28  1   
 14   7  11  1   
 15   8  12  1   
 16   8  29  1   
 17   9  13  1   
 18   9  14  1   
 19   9  30  1   
 20  10  13  1   
 21  10  15  1   
 22  10  31  1   
 23  11  12  2   
 24  11  16  1   
 25  12  32  1   
 26  14  17  ar  
 27  14  18  ar  
 28  15  19  1   
 29  15  20  1   
 30  15  33  1   
 31  16  21  1   
 32  16  34  1   
 33  16  35  1   
 34  17  22  ar  
 35  17  36  1   
 36  18  23  ar  
 37  18  37  1   
 38  19  20  1   
 39  19  38  1   
 40  19  39  1   
 41  20  40  1   
 42  20  41  1   
 43  21  42  1   
 44  22  24  ar  
 45  22  43  1   
 46  23  24  ar  
 47  23  44  1   
 48  24  45  1   
@<TRIPOS>SUBSTRUCTURE
  1 ****   3 GROUP 4 **** **** 0

# MOE 2024.06 (io_trps.svl 2023.06)
