@<TRIPOS>MOLECULE
NONAME
42 42 1 0 0 
SMALL
USER_CHARGES


@<TRIPOS>ATOM
  1 O       -1.4820     0.5490     0.4320 O.2   1 <1>  -0.5700 
  2 C       -2.5150     1.1820     0.5100 C.2   1 <1>   0.5690 
  3 N       -3.6200     0.6040     1.0930 N.am  1 <1>  -0.6600 
  4 C       -2.5890     2.6090    -0.1010 C.3   1 <1>   0.2810 
  5 C       -3.4850    -0.7070     1.7980 C.3   1 <1>   0.3200 
  6 C       -5.0270     1.0690     0.9030 C.3   1 <1>   0.1400 
  7 N       -1.5420     2.8860    -1.1420 N.am  1 <1>  -0.7300 
  8 C       -2.6270     3.7010     0.9930 C.3   1 <1>  -0.1600 
  9 C       -3.5780    -1.8490     0.8020 C.2   1 <1>   0.0060 
 10 C       -5.6030     0.5220    -0.4080 C.3   1 <1>   0.1200 
 11 C       -0.2260     3.1420    -0.9360 C.2   1 <1>   0.5690 
 12 C       -2.8090     5.1390     0.4740 C.3   1 <1>  -0.1600 
 13 N       -4.5460    -2.7070     0.7320 N.2   1 <1>  -0.5650 
 14 N       -2.6140    -2.0420    -0.1220 N.pl3 1 <1>   0.0330 
 15 O       -6.7960     1.1720    -0.6820 O.3   1 <1>  -0.6800 
 16 O        0.2630     3.3270     0.1490 O.2   1 <1>  -0.5700 
 17 C        0.6650     3.2020    -2.1480 C.3   1 <1>  -0.1790 
 18 C       -4.1440     5.3480    -0.2530 C.3   1 <1>  -0.2400 
 19 C       -4.1890    -3.5060    -0.2930 C.2   1 <1>   0.0770 
 20 C       -3.0120    -3.1140    -0.8280 C.2   1 <1>  -0.3020 
 21 H       -3.5270     2.6580    -0.6200 H     1 <1>   0.0800 
 22 H       -4.2580    -0.8120     2.5380 H     1 <1>   0.0800 
 23 H       -2.5370    -0.7530     2.3050 H     1 <1>   0.0800 
 24 H       -5.0600     2.1430     0.8810 H     1 <1>   0.0800 
 25 H       -5.6340     0.7370     1.7270 H     1 <1>   0.0800 
 26 H       -1.8380     2.6780    -2.0940 H     1 <1>   0.3700 
 27 H       -1.7250     3.6460     1.5750 H     1 <1>   0.0800 
 28 H       -3.4290     3.4850     1.6740 H     1 <1>   0.0800 
 29 H       -5.7950    -0.5360    -0.3450 H     1 <1>   0.0800 
 30 H       -4.9330     0.7180    -1.2260 H     1 <1>   0.0800 
 31 H       -1.9950     5.3980    -0.1810 H     1 <1>   0.0800 
 32 H       -2.7650     5.8110     1.3140 H     1 <1>   0.0800 
 33 H       -1.7820    -1.4430    -0.2340 H     1 <1>   0.2700 
 34 H       -7.5330     0.7700    -0.1790 H     1 <1>   0.4000 
 35 H        0.2740     3.9080    -2.8550 H     1 <1>   0.0800 
 36 H        0.7250     2.2300    -2.6000 H     1 <1>   0.0800 
 37 H        1.6520     3.5110    -1.8560 H     1 <1>   0.0800 
 38 H       -4.1820     4.7760    -1.1620 H     1 <1>   0.0800 
 39 H       -4.2570     6.3870    -0.5080 H     1 <1>   0.0800 
 40 H       -4.9680     5.0630     0.3780 H     1 <1>   0.0800 
 41 H       -4.8080    -4.3360    -0.5960 H     1 <1>   0.1500 
 42 H       -2.4530    -3.5260    -1.6480 H     1 <1>   0.1500 
@<TRIPOS>BOND
  1   1   2  2   
  2   2   3  am  
  3   2   4  1   
  4   3   5  1   
  5   3   6  1   
  6   4   7  1   
  7   4   8  1   
  8   4  21  1   
  9   5   9  1   
 10   5  22  1   
 11   5  23  1   
 12   6  10  1   
 13   6  24  1   
 14   6  25  1   
 15   7  11  am  
 16   7  26  1   
 17   8  12  1   
 18   8  27  1   
 19   8  28  1   
 20   9  13  2   
 21   9  14  1   
 22  10  15  1   
 23  10  29  1   
 24  10  30  1   
 25  11  16  2   
 26  11  17  1   
 27  12  18  1   
 28  12  31  1   
 29  12  32  1   
 30  13  19  1   
 31  14  20  1   
 32  14  33  1   
 33  15  34  1   
 34  17  35  1   
 35  17  36  1   
 36  17  37  1   
 37  18  38  1   
 38  18  39  1   
 39  18  40  1   
 40  19  20  2   
 41  19  41  1   
 42  20  42  1   
@<TRIPOS>SUBSTRUCTURE
  1 ****   2 GROUP 4 **** **** 0

# MOE 2024.06 (io_trps.svl 2023.06)
