@<TRIPOS>MOLECULE
NONAME
52 54 1 0 0 
SMALL
USER_CHARGES


@<TRIPOS>ATOM
  1 CL      -0.8250     0.9670    -0.8060 Cl    1 <1>  -0.1770 
  2 C       -0.7600     2.5130     0.0070 C.ar  1 <1>   0.1770 
  3 C       -0.9070     3.6680    -0.7220 C.ar  1 <1>  -0.1500 
  4 C       -0.5580     2.5270     1.3910 C.ar  1 <1>  -0.1500 
  5 C       -0.8500     4.8830    -0.0450 C.ar  1 <1>   0.2270 
  6 C       -0.5010     3.7280     2.0640 C.ar  1 <1>  -0.1500 
  7 N       -0.9650     6.1500    -0.5290 N.2   1 <1>  -0.5650 
  8 C       -0.6510     4.9060     1.3250 C.ar  1 <1>  -0.1520 
  9 C       -0.8380     6.9060     0.5070 C.2   1 <1>   0.0060 
 10 N       -0.6470     6.2190     1.6630 N.pl3 1 <1>   0.0330 
 11 C       -0.8980     8.4260     0.4870 C.3   1 <1>   0.0200 
 12 C       -0.6160     8.9870    -0.9110 C.3   1 <1>   0.1100 
 13 N       -0.5240    10.4600    -0.8890 N.3   1 <1>  -0.8100 
 14 C        0.1930    10.9470    -2.1120 C.3   1 <1>   0.1710 
 15 C       -1.8600    11.0790    -0.8100 C.3   1 <1>   0.0300 
 16 C        0.6870    12.3960    -2.0320 C.2   1 <1>   0.5690 
 17 O        0.9090    13.0060    -3.0510 O.2   1 <1>  -0.5700 
 18 N        0.8710    12.9400    -0.8030 N.am  1 <1>  -0.7300 
 19 C        1.4100    14.2830    -0.5040 C.3   1 <1>   0.1400 
 20 C        2.5670    14.1900     0.5030 C.3   1 <1>  -0.0800 
 21 C        3.0360    15.6030     0.8950 C.3   1 <1>  -0.1600 
 22 C        3.7490    13.3710    -0.0550 C.3   1 <1>  -0.1600 
 23 C        4.2060    15.5550     1.8870 C.3   1 <1>  -0.1600 
 24 C        4.9230    13.3250     0.9320 C.3   1 <1>  -0.1600 
 25 C        5.3750    14.7370     1.3240 C.3   1 <1>  -0.1600 
 26 H       -1.0630     3.6570    -1.7840 H     1 <1>   0.1500 
 27 H       -0.4490     1.5920     1.9100 H     1 <1>   0.1500 
 28 H       -0.3470     3.7660     3.1280 H     1 <1>   0.1500 
 29 H       -0.5220     6.6070     2.6010 H     1 <1>   0.2700 
 30 H       -0.1620     8.8170     1.1660 H     1 <1>   0.0800 
 31 H       -1.8740     8.7300     0.8150 H     1 <1>   0.0800 
 32 H       -1.3780     8.6650    -1.6020 H     1 <1>   0.0800 
 33 H        0.3220     8.5720    -1.2410 H     1 <1>   0.0800 
 34 H       -0.4420    10.8460    -2.9740 H     1 <1>   0.0800 
 35 H        1.0650    10.3410    -2.2780 H     1 <1>   0.0800 
 36 H       -2.3480    10.8040     0.1080 H     1 <1>   0.0800 
 37 H       -2.4710    10.7650    -1.6390 H     1 <1>   0.0800 
 38 H       -1.7770    12.1520    -0.8310 H     1 <1>   0.0800 
 39 H        0.6140    12.3420    -0.0110 H     1 <1>   0.3700 
 40 H        0.6190    14.8900    -0.0980 H     1 <1>   0.0800 
 41 H        1.7540    14.7460    -1.4150 H     1 <1>   0.0800 
 42 H        2.2000    13.7060     1.3910 H     1 <1>   0.0800 
 43 H        2.2210    16.1470     1.3380 H     1 <1>   0.0800 
 44 H        3.3470    16.1350     0.0120 H     1 <1>   0.0800 
 45 H        4.0800    13.8090    -0.9820 H     1 <1>   0.0800 
 46 H        3.4330    12.3640    -0.2660 H     1 <1>   0.0800 
 47 H        3.8740    15.1120     2.8110 H     1 <1>   0.0800 
 48 H        4.5380    16.5560     2.1020 H     1 <1>   0.0800 
 49 H        5.7470    12.7940     0.4870 H     1 <1>   0.0800 
 50 H        4.6240    12.7890     1.8160 H     1 <1>   0.0800 
 51 H        6.1590    14.6740     2.0590 H     1 <1>   0.0800 
 52 H        5.7740    15.2360     0.4570 H     1 <1>   0.0800 
@<TRIPOS>BOND
  1   1   2  1   
  2   2   3  ar  
  3   2   4  ar  
  4   3   5  ar  
  5   3  26  1   
  6   4   6  ar  
  7   4  27  1   
  8   5   7  1   
  9   5   8  ar  
 10   6   8  ar  
 11   6  28  1   
 12   7   9  2   
 13   8  10  1   
 14   9  10  1   
 15   9  11  1   
 16  10  29  1   
 17  11  12  1   
 18  11  30  1   
 19  11  31  1   
 20  12  13  1   
 21  12  32  1   
 22  12  33  1   
 23  13  14  1   
 24  13  15  1   
 25  14  16  1   
 26  14  34  1   
 27  14  35  1   
 28  15  36  1   
 29  15  37  1   
 30  15  38  1   
 31  16  17  2   
 32  16  18  am  
 33  18  19  1   
 34  18  39  1   
 35  19  20  1   
 36  19  40  1   
 37  19  41  1   
 38  20  21  1   
 39  20  22  1   
 40  20  42  1   
 41  21  23  1   
 42  21  43  1   
 43  21  44  1   
 44  22  24  1   
 45  22  45  1   
 46  22  46  1   
 47  23  25  1   
 48  23  47  1   
 49  23  48  1   
 50  24  25  1   
 51  24  49  1   
 52  24  50  1   
 53  25  51  1   
 54  25  52  1   
@<TRIPOS>SUBSTRUCTURE
  1 ****  12 GROUP 4 **** **** 0

# MOE 2024.06 (io_trps.svl 2023.06)
