@<TRIPOS>MOLECULE
NONAME
37 38 1 0 0 
SMALL
USER_CHARGES


@<TRIPOS>ATOM
  1 F       -2.1910    -0.4360    -2.1010 F     1 <1>  -0.1900 
  2 C       -2.3710    -0.9790    -0.9280 C.ar  1 <1>   0.1900 
  3 C       -2.5580    -0.1760     0.1840 C.ar  1 <1>  -0.1440 
  4 C       -2.3680    -2.3590    -0.8660 C.ar  1 <1>  -0.1500 
  5 C       -2.7470    -0.8160     1.4070 C.ar  1 <1>  -0.1500 
  6 C       -2.5500     1.3480     0.0380 C.3   1 <1>   1.1640 
  7 C       -2.5670    -2.9830     0.3570 C.ar  1 <1>  -0.1440 
  8 C       -2.7510    -2.2010     1.4900 C.ar  1 <1>  -0.1500 
  9 F       -2.7410     1.9700     1.1950 F     1 <1>  -0.3400 
 10 F       -3.5060     1.7830    -0.7720 F     1 <1>  -0.3400 
 11 F       -1.4010     1.8090    -0.4400 F     1 <1>  -0.3400 
 12 C       -2.5840    -4.4990     0.4500 C.3   1 <1>   0.4870 
 13 N       -3.9880    -4.9650     0.5420 N.4   1 <1>  -0.9590 
 14 C       -4.0400    -6.4350     0.9120 C.3   1 <1>   0.3430 
 15 C       -4.7510    -4.6690    -0.7110 C.3   1 <1>   0.3430 
 16 C       -5.2190    -7.2060     0.2900 C.3   1 <1>   0.2000 
 17 C       -6.2330    -4.9920    -0.5040 C.3   1 <1>  -0.1600 
 18 O       -4.8760    -7.5520    -1.0070 O.3   1 <1>  -0.6800 
 19 C       -6.4740    -6.3280     0.2450 C.3   1 <1>  -0.1860 
 20 C       -7.6200    -7.1200    -0.3410 C.2   1 <1>   0.9060 
 21 O       -8.6510    -7.2260     0.3180 O.co2 1 <1>  -0.9000 
 22 O       -7.4480    -7.6450    -1.4480 O.co2 1 <1>  -0.9000 
 23 H       -2.2110    -2.9210    -1.7710 H     1 <1>   0.1500 
 24 H       -2.8910    -0.2400     2.3080 H     1 <1>   0.1500 
 25 H       -2.8970    -2.6580     2.4550 H     1 <1>   0.1500 
 26 H       -2.0350    -4.8060     1.3250 H     1 <1>   0.0800 
 27 H       -2.1100    -4.9300    -0.4170 H     1 <1>   0.0800 
 28 H       -4.4600    -4.4340     1.2810 H     1 <1>   0.4500 
 29 H       -3.1350    -6.9320     0.6030 H     1 <1>   0.0800 
 30 H       -4.1120    -6.5190     1.9830 H     1 <1>   0.0800 
 31 H       -4.6490    -3.6320    -0.9880 H     1 <1>   0.0800 
 32 H       -4.3690    -5.2770    -1.5160 H     1 <1>   0.0800 
 33 H       -5.4100    -8.1210     0.8260 H     1 <1>   0.0800 
 34 H       -6.7210    -4.1910     0.0210 H     1 <1>   0.0800 
 35 H       -6.6880    -5.0460    -1.4800 H     1 <1>   0.0800 
 36 H       -5.7450    -7.7800    -1.4660 H     1 <1>   0.4000 
 37 H       -6.7490    -6.1020     1.2590 H     1 <1>   0.0800 
@<TRIPOS>BOND
  1   1   2  1   
  2   2   3  ar  
  3   2   4  ar  
  4   3   5  ar  
  5   3   6  1   
  6   4   7  ar  
  7   4  23  1   
  8   5   8  ar  
  9   5  24  1   
 10   6   9  1   
 11   6  10  1   
 12   6  11  1   
 13   7   8  ar  
 14   7  12  1   
 15   8  25  1   
 16  12  13  1   
 17  12  26  1   
 18  12  27  1   
 19  13  14  1   
 20  13  15  1   
 21  13  28  1   
 22  14  16  1   
 23  14  29  1   
 24  14  30  1   
 25  15  17  1   
 26  15  31  1   
 27  15  32  1   
 28  16  18  1   
 29  16  19  1   
 30  16  33  1   
 31  17  19  1   
 32  17  34  1   
 33  17  35  1   
 34  18  36  1   
 35  19  20  1   
 36  19  37  1   
 37  20  21  ar  
 38  20  22  ar  
@<TRIPOS>SUBSTRUCTURE
  1 ****   7 GROUP 4 **** **** 0

# MOE 2024.06 (io_trps.svl 2023.06)
