@<TRIPOS>MOLECULE
NONAME
40 42 1 0 0 
SMALL
USER_CHARGES


@<TRIPOS>ATOM
  1 O       -0.4070     0.0720    -0.0230 O.2   1 <1>  -0.5700 
  2 C       -1.4470     0.6770     0.0780 C.2   1 <1>   0.5690 
  3 N       -2.6390     0.0180     0.2410 N.am  1 <1>  -0.6600 
  4 C       -1.4200     2.2030     0.0120 C.3   1 <1>  -0.0990 
  5 C       -2.6940    -1.4720     0.3930 C.3   1 <1>   0.1400 
  6 C       -4.0000     0.6370     0.1990 C.3   1 <1>   0.1400 
  7 C       -0.0150     2.8290     0.0840 C.3   1 <1>  -0.2400 
  8 C       -3.6750    -2.0990    -0.6140 C.3   1 <1>   0.3440 
  9 C       -4.9120    -0.1000    -0.8100 C.3   1 <1>   0.2950 
 10 O       -4.9270    -1.4690    -0.5290 O.3   1 <1>  -0.5600 
 11 C       -3.8340    -3.5940    -0.3490 C.ar  1 <1>  -0.1440 
 12 C       -6.3780     0.3680    -0.8130 C.3   1 <1>  -0.1950 
 13 C       -2.9900    -4.4950    -0.9830 C.ar  1 <1>  -0.1500 
 14 C       -4.7990    -4.0760     0.5260 C.ar  1 <1>  -0.1500 
 15 C       -6.8080     1.7720    -0.5050 C.3   1 <1>  -0.2000 
 16 C       -7.1670     0.6490     0.4290 C.3   1 <1>  -0.2000 
 17 C       -3.1070    -5.8540    -0.7470 C.ar  1 <1>  -0.1500 
 18 C       -4.9170    -5.4350     0.7630 C.ar  1 <1>  -0.1500 
 19 C       -4.0710    -6.3250     0.1270 C.ar  1 <1>  -0.1500 
 20 H       -1.8850     2.5070    -0.9070 H     1 <1>   0.0800 
 21 H       -2.0000     2.5880     0.8300 H     1 <1>   0.0800 
 22 H       -1.7210    -1.9080     0.2500 H     1 <1>   0.0800 
 23 H       -3.0150    -1.7140     1.3910 H     1 <1>   0.0800 
 24 H       -4.4350     0.5830     1.1800 H     1 <1>   0.0800 
 25 H       -3.9410     1.6710    -0.0830 H     1 <1>   0.0800 
 26 H        0.5850     2.4900    -0.7430 H     1 <1>   0.0800 
 27 H        0.4720     2.5400     0.9990 H     1 <1>   0.0800 
 28 H       -0.0800     3.9010     0.0470 H     1 <1>   0.0800 
 29 H       -3.3010    -1.9570    -1.6140 H     1 <1>   0.0800 
 30 H       -4.5130     0.0320    -1.8010 H     1 <1>   0.0800 
 31 H       -6.9140    -0.1190    -1.6100 H     1 <1>   0.1000 
 32 H       -2.2340    -4.1440    -1.6640 H     1 <1>   0.1500 
 33 H       -5.4640    -3.3920     1.0240 H     1 <1>   0.1500 
 34 H       -6.1050     2.5070    -0.1570 H     1 <1>   0.1000 
 35 H       -7.5900     2.2110    -1.1010 H     1 <1>   0.1000 
 36 H       -8.1870     0.3070     0.4670 H     1 <1>   0.1000 
 37 H       -6.6860     0.5900     1.3890 H     1 <1>   0.1000 
 38 H       -2.4480    -6.5450    -1.2430 H     1 <1>   0.1500 
 39 H       -5.6690    -5.7970     1.4410 H     1 <1>   0.1500 
 40 H       -4.1630    -7.3810     0.3100 H     1 <1>   0.1500 
@<TRIPOS>BOND
  1   1   2  2   
  2   2   3  am  
  3   2   4  1   
  4   3   5  1   
  5   3   6  1   
  6   4   7  1   
  7   4  20  1   
  8   4  21  1   
  9   5   8  1   
 10   5  22  1   
 11   5  23  1   
 12   6   9  1   
 13   6  24  1   
 14   6  25  1   
 15   7  26  1   
 16   7  27  1   
 17   7  28  1   
 18   8  10  1   
 19   8  11  1   
 20   8  29  1   
 21   9  10  1   
 22   9  12  1   
 23   9  30  1   
 24  11  13  ar  
 25  11  14  ar  
 26  12  15  1   
 27  12  16  1   
 28  12  31  1   
 29  13  17  ar  
 30  13  32  1   
 31  14  18  ar  
 32  14  33  1   
 33  15  16  1   
 34  15  34  1   
 35  15  35  1   
 36  16  36  1   
 37  16  37  1   
 38  17  19  ar  
 39  17  38  1   
 40  18  19  ar  
 41  18  39  1   
 42  19  40  1   
@<TRIPOS>SUBSTRUCTURE
  1 ****   8 GROUP 4 **** **** 0

# MOE 2024.06 (io_trps.svl 2023.06)
