@<TRIPOS>MOLECULE
NONAME
50 53 1 0 0 
SMALL
USER_CHARGES


@<TRIPOS>ATOM
  1 O       -0.1240    -0.0660     0.8720 O.3   1 <1>  -0.5600 
  2 C        0.0440    -1.4570     0.7850 C.3   1 <1>   0.1200 
  3 C        0.7140     0.6840     0.0350 C.3   1 <1>   0.1200 
  4 C        1.4960    -1.8590     1.1400 C.3   1 <1>   0.5660 
  5 C        2.2000     0.3840     0.3350 C.3   1 <1>   0.4230 
  6 N        2.4800    -1.1010     0.3110 N.4   1 <1>  -0.9590 
  7 C        1.7940    -3.3530     1.0350 C.ar  1 <1>  -0.1430 
  8 C        3.1450     1.1540    -0.6220 C.3   1 <1>   0.1100 
  9 C        2.6730    -1.6150    -1.0890 C.3   1 <1>   0.3430 
 10 C        2.8200    -3.8690     1.8160 C.ar  1 <1>  -0.1500 
 11 C        1.0980    -4.2130     0.1890 C.ar  1 <1>  -0.1500 
 12 N        4.2860     0.3070    -1.0380 N.3   1 <1>  -0.8100 
 13 C        3.8360    -0.8770    -1.7980 C.3   1 <1>   0.1100 
 14 C        3.1510    -5.2110     1.7510 C.ar  1 <1>  -0.1500 
 15 C        1.4290    -5.5550     0.1270 C.ar  1 <1>  -0.1500 
 16 C        5.3940     1.0490    -1.6940 C.3   1 <1>   0.2530 
 17 C        2.4550    -6.0550     0.9060 C.ar  1 <1>  -0.1500 
 18 C        5.9120     2.2250    -0.8590 C.ar  1 <1>   0.1670 
 19 N        6.3380     1.9610     0.3710 N.ar  1 <1>  -0.6200 
 20 C        5.9090     3.4970    -1.4140 C.ar  1 <1>  -0.1500 
 21 C        6.7840     2.9910     1.0700 C.ar  1 <1>   0.1670 
 22 C        6.3690     4.5650    -0.6760 C.ar  1 <1>  -0.1500 
 23 C        6.8170     4.2930     0.5980 C.ar  1 <1>  -0.1500 
 24 C        7.2800     2.6750     2.4650 C.3   1 <1>  -0.0970 
 25 H       -0.6410    -1.9130     1.4780 H     1 <1>   0.0800 
 26 H       -0.2190    -1.7640    -0.2110 H     1 <1>   0.0800 
 27 H        0.4700     0.4570    -0.9880 H     1 <1>   0.0800 
 28 H        0.5050     1.7240     0.2140 H     1 <1>   0.0800 
 29 H        1.6400    -1.5810     2.1710 H     1 <1>   0.0800 
 30 H        2.3970     0.7480     1.3300 H     1 <1>   0.0800 
 31 H        3.4160    -1.1870     0.7310 H     1 <1>   0.4500 
 32 H        3.4970     2.0280    -0.0990 H     1 <1>   0.0800 
 33 H        2.6120     1.4930    -1.4930 H     1 <1>   0.0800 
 34 H        2.8940    -2.6710    -1.0730 H     1 <1>   0.0800 
 35 H        1.7680    -1.4780    -1.6560 H     1 <1>   0.0800 
 36 H        3.3780    -3.2370     2.4860 H     1 <1>   0.1500 
 37 H        0.2920    -3.8720    -0.4350 H     1 <1>   0.1500 
 38 H        3.5240    -0.5890    -2.7880 H     1 <1>   0.0800 
 39 H        4.6640    -1.5590    -1.9040 H     1 <1>   0.0800 
 40 H        3.9480    -5.6040     2.3610 H     1 <1>   0.1500 
 41 H        0.8870    -6.2180    -0.5270 H     1 <1>   0.1500 
 42 H        6.2180     0.3750    -1.8520 H     1 <1>   0.0800 
 43 H        5.0680     1.4040    -2.6560 H     1 <1>   0.0800 
 44 H        2.7110    -7.1010     0.8570 H     1 <1>   0.1500 
 45 H        5.5550     3.6580    -2.4160 H     1 <1>   0.1500 
 46 H        6.3820     5.5650    -1.0750 H     1 <1>   0.1500 
 47 H        7.1900     5.0880     1.2170 H     1 <1>   0.1500 
 48 H        7.6360     3.5590     2.9600 H     1 <1>   0.0800 
 49 H        8.0830     1.9640     2.4050 H     1 <1>   0.0800 
 50 H        6.4820     2.2490     3.0430 H     1 <1>   0.0800 
@<TRIPOS>BOND
  1   1   2  1   
  2   1   3  1   
  3   2   4  1   
  4   2  25  1   
  5   2  26  1   
  6   3   5  1   
  7   3  27  1   
  8   3  28  1   
  9   4   6  1   
 10   4   7  1   
 11   4  29  1   
 12   5   6  1   
 13   5   8  1   
 14   5  30  1   
 15   6   9  1   
 16   6  31  1   
 17   7  10  ar  
 18   7  11  ar  
 19   8  12  1   
 20   8  32  1   
 21   8  33  1   
 22   9  13  1   
 23   9  34  1   
 24   9  35  1   
 25  10  14  ar  
 26  10  36  1   
 27  11  15  ar  
 28  11  37  1   
 29  12  13  1   
 30  12  16  1   
 31  13  38  1   
 32  13  39  1   
 33  14  17  ar  
 34  14  40  1   
 35  15  17  ar  
 36  15  41  1   
 37  16  18  1   
 38  16  42  1   
 39  16  43  1   
 40  17  44  1   
 41  18  19  ar  
 42  18  20  ar  
 43  19  21  ar  
 44  20  22  ar  
 45  20  45  1   
 46  21  23  ar  
 47  21  24  1   
 48  22  23  ar  
 49  22  46  1   
 50  23  47  1   
 51  24  48  1   
 52  24  49  1   
 53  24  50  1   
@<TRIPOS>SUBSTRUCTURE
  1 ****   6 GROUP 4 **** **** 0

# MOE 2024.06 (io_trps.svl 2023.06)
