@<TRIPOS>MOLECULE
NONAME
46 48 1 0 0 
SMALL
USER_CHARGES


@<TRIPOS>ATOM
  1 O       -1.1970     0.4880    -1.2060 O.2   1 <1>  -0.5700 
  2 C       -1.4360     1.3900    -0.4170 C.2   1 <1>   0.5440 
  3 N       -2.4870     1.1870     0.4680 N.am  1 <1>  -0.6600 
  4 C       -0.6260     2.6150    -0.4770 C.ar  1 <1>   0.3960 
  5 C       -3.0210    -0.1900     0.6920 C.3   1 <1>   0.1400 
  6 C       -3.1310     2.2900     1.2400 C.3   1 <1>   0.1400 
  7 N       -0.3780     3.3240     0.6380 N.ar  1 <1>  -0.6200 
  8 C       -0.1140     3.0170    -1.7140 C.ar  1 <1>  -0.1500 
  9 C       -4.1430    -0.5200    -0.3030 C.3   1 <1>   0.1400 
 10 C       -4.6580     2.1690     1.3290 C.3   1 <1>  -0.1600 
 11 C        0.3580     4.4050     0.5040 C.ar  1 <1>   0.3920 
 12 C        0.6580     4.1530    -1.8380 C.ar  1 <1>  -0.1500 
 13 N       -5.4150     0.2170    -0.0060 N.am  1 <1>  -0.6600 
 14 C       -5.3210     1.7050     0.0270 C.3   1 <1>   0.1400 
 15 O        0.5780     5.0870     1.6240 O.3   1 <1>  -0.5320 
 16 C        0.8970     4.8640    -0.6870 C.ar  1 <1>  -0.1500 
 17 C       -6.5930    -0.4140     0.3440 C.2   1 <1>   0.5440 
 18 O       -7.4160     0.2020     0.9950 O.2   1 <1>  -0.5700 
 19 C       -6.8790    -1.7810    -0.0290 C.ar  1 <1>   0.0860 
 20 C       -6.6580    -2.2380    -1.3260 C.ar  1 <1>   0.1600 
 21 C       -7.3990    -2.6950     0.8780 C.ar  1 <1>  -0.1500 
 22 N       -6.8710    -3.4660    -1.7640 N.ar  1 <1>  -0.6200 
 23 C       -7.6400    -3.9790     0.4430 C.ar  1 <1>  -0.1500 
 24 C       -7.3610    -4.3230    -0.8800 C.ar  1 <1>   0.3930 
 25 O       -7.5740    -5.5600    -1.3650 O.3   1 <1>  -0.3630 
 26 C       -8.1660    -6.5970    -0.6150 C.3   1 <1>   0.0400 
 27 H       -3.3750    -0.2970     1.7020 H     1 <1>   0.0800 
 28 H       -2.2220    -0.8980     0.5550 H     1 <1>   0.0800 
 29 H       -2.9110     3.2270     0.7600 H     1 <1>   0.0800 
 30 H       -2.7070     2.3240     2.2290 H     1 <1>   0.0800 
 31 H       -0.3270     2.4210    -2.5840 H     1 <1>   0.1500 
 32 H       -4.3120    -1.5800    -0.2530 H     1 <1>   0.0800 
 33 H       -3.8130    -0.2890    -1.3010 H     1 <1>   0.0800 
 34 H       -5.0420     3.1420     1.5760 H     1 <1>   0.0800 
 35 H       -4.9390     1.5150     2.1350 H     1 <1>   0.0800 
 36 H        1.0540     4.4630    -2.7910 H     1 <1>   0.1500 
 37 H       -4.7710     2.0580    -0.8280 H     1 <1>   0.0800 
 38 H       -6.3120     2.1220    -0.0290 H     1 <1>   0.0800 
 39 H        1.1550     5.8540     1.5000 H     1 <1>   0.4500 
 40 H        1.4900     5.7590    -0.7130 H     1 <1>   0.1500 
 41 H       -6.2770    -1.5320    -2.0440 H     1 <1>   0.1500 
 42 H       -7.6080    -2.3910     1.8900 H     1 <1>   0.1500 
 43 H       -8.0410    -4.6970     1.1300 H     1 <1>   0.1500 
 44 H       -8.2460    -7.4610    -1.2500 H     1 <1>   0.0800 
 45 H       -9.1460    -6.2860    -0.3000 H     1 <1>   0.0800 
 46 H       -7.5390    -6.8220     0.2290 H     1 <1>   0.0800 
@<TRIPOS>BOND
  1   1   2  2   
  2   2   3  am  
  3   2   4  1   
  4   3   5  1   
  5   3   6  1   
  6   4   7  ar  
  7   4   8  ar  
  8   5   9  1   
  9   5  27  1   
 10   5  28  1   
 11   6  10  1   
 12   6  29  1   
 13   6  30  1   
 14   7  11  ar  
 15   8  12  ar  
 16   8  31  1   
 17   9  13  1   
 18   9  32  1   
 19   9  33  1   
 20  10  14  1   
 21  10  34  1   
 22  10  35  1   
 23  11  15  1   
 24  11  16  ar  
 25  12  16  ar  
 26  12  36  1   
 27  13  14  1   
 28  13  17  am  
 29  14  37  1   
 30  14  38  1   
 31  15  39  1   
 32  16  40  1   
 33  17  18  2   
 34  17  19  1   
 35  19  20  ar  
 36  19  21  ar  
 37  20  22  ar  
 38  20  41  1   
 39  21  23  ar  
 40  21  42  1   
 41  22  24  ar  
 42  23  24  ar  
 43  23  43  1   
 44  24  25  1   
 45  25  26  1   
 46  26  44  1   
 47  26  45  1   
 48  26  46  1   
@<TRIPOS>SUBSTRUCTURE
  1 ****   9 GROUP 4 **** **** 0

# MOE 2024.06 (io_trps.svl 2023.06)
