@<TRIPOS>MOLECULE
NONAME
56 59 1 0 0 
SMALL
USER_CHARGES


@<TRIPOS>ATOM
  1 O        3.8870    -1.4370     2.1130 O.co2 1 <1>  -0.9000 
  2 C        3.6300    -0.2310     2.0340 C.2   1 <1>   0.9060 
  3 O        4.2430     0.6010     2.6970 O.co2 1 <1>  -0.9000 
  4 C        2.7540     0.2170     0.8520 C.3   1 <1>  -0.1060 
  5 C        3.4960    -0.2960    -0.3940 C.3   1 <1>   0.4230 
  6 C        2.6760     1.7610     0.7010 C.3   1 <1>  -0.1600 
  7 C        1.3220    -0.3840     0.9660 C.3   1 <1>  -0.1600 
  8 N        3.3690    -1.7970    -0.4510 N.4   1 <1>  -0.9590 
  9 C        4.9450     0.2800    -0.3690 C.3   1 <1>   0.3430 
 10 C        4.0540     2.4400     0.6330 C.3   1 <1>   0.3430 
 11 C        0.9250    -1.1940    -0.2790 C.3   1 <1>  -0.1600 
 12 C        1.9600    -2.2740    -0.6280 C.3   1 <1>   0.3430 
 13 C        4.3250    -2.5500    -1.3120 C.3   1 <1>   0.2630 
 14 N        4.9900     1.7940    -0.3550 N.4   1 <1>  -0.9590 
 15 C        6.3620     2.2320     0.0020 C.3   1 <1>   0.5230 
 16 C        6.4350     3.7210    -0.2450 C.2   1 <1>  -0.3320 
 17 N        6.6040     4.2640    -1.4940 N.pl3 1 <1>   0.0330 
 18 C        6.3550     4.7220     0.6680 C.2   1 <1>  -0.1810 
 19 C        6.6030     5.6260    -1.3710 C.ar  1 <1>  -0.1520 
 20 C        6.4500     5.9470    -0.0280 C.ar  1 <1>   0.0000 
 21 C        6.1990     4.6440     2.1780 C.3   1 <1>  -0.0590 
 22 C        6.7270     6.6250    -2.3380 C.ar  1 <1>  -0.1500 
 23 C        6.4200     7.2900     0.3600 C.ar  1 <1>  -0.1500 
 24 C        6.6940     7.9410    -1.9400 C.ar  1 <1>  -0.1500 
 25 C        6.5400     8.2810    -0.5890 C.ar  1 <1>  -0.1430 
 26 C        6.5110     9.7480    -0.2000 C.3   1 <1>  -0.0970 
 27 H        3.0100     0.1020    -1.2680 H     1 <1>   0.0800 
 28 H        2.1640     2.1690     1.5560 H     1 <1>   0.0800 
 29 H        2.1040     2.0300    -0.1700 H     1 <1>   0.0800 
 30 H        1.2780    -1.0410     1.8210 H     1 <1>   0.0800 
 31 H        0.5910     0.3880     1.1420 H     1 <1>   0.0800 
 32 H        3.5950    -2.0500     0.5530 H     1 <1>   0.4500 
 33 H        5.4810    -0.0800    -1.2290 H     1 <1>   0.0800 
 34 H        5.4410    -0.0910     0.5140 H     1 <1>   0.0800 
 35 H        4.4990     2.4110     1.6140 H     1 <1>   0.0800 
 36 H        3.9280     3.4840     0.3870 H     1 <1>   0.0800 
 37 H        0.8010    -0.5340    -1.1190 H     1 <1>   0.0800 
 38 H       -0.0260    -1.6680    -0.1100 H     1 <1>   0.0800 
 39 H        1.8010    -2.5920    -1.6460 H     1 <1>   0.0800 
 40 H        1.8040    -3.1270     0.0130 H     1 <1>   0.0800 
 41 H        4.1790    -2.2970    -2.3490 H     1 <1>   0.0800 
 42 H        4.1700    -3.6100    -1.1900 H     1 <1>   0.0800 
 43 H        5.3410    -2.3280    -1.0290 H     1 <1>   0.0800 
 44 H        4.7770     2.1950    -1.2730 H     1 <1>   0.4500 
 45 H        6.5540     2.0190     1.0430 H     1 <1>   0.0800 
 46 H        7.1010     1.7240    -0.5960 H     1 <1>   0.0800 
 47 H        6.7730     3.7850    -2.3850 H     1 <1>   0.2700 
 48 H        7.0230     5.1480     2.6510 H     1 <1>   0.0800 
 49 H        6.1810     3.6270     2.5240 H     1 <1>   0.0800 
 50 H        5.2870     5.1280     2.4770 H     1 <1>   0.0800 
 51 H        6.8480     6.3690    -3.3750 H     1 <1>   0.1500 
 52 H        6.3050     7.5270     1.4010 H     1 <1>   0.1500 
 53 H        6.7880     8.7260    -2.6700 H     1 <1>   0.1500 
 54 H        7.4300    10.2220    -0.4930 H     1 <1>   0.0800 
 55 H        6.3910     9.8610     0.8630 H     1 <1>   0.0800 
 56 H        5.6920    10.2400    -0.6910 H     1 <1>   0.0800 
@<TRIPOS>BOND
  1   1   2  ar  
  2   2   3  ar  
  3   2   4  1   
  4   4   5  1   
  5   4   6  1   
  6   4   7  1   
  7   5   8  1   
  8   5   9  1   
  9   5  27  1   
 10   6  10  1   
 11   6  28  1   
 12   6  29  1   
 13   7  11  1   
 14   7  30  1   
 15   7  31  1   
 16   8  12  1   
 17   8  13  1   
 18   8  32  1   
 19   9  14  1   
 20   9  33  1   
 21   9  34  1   
 22  10  14  1   
 23  10  35  1   
 24  10  36  1   
 25  11  12  1   
 26  11  37  1   
 27  11  38  1   
 28  12  39  1   
 29  12  40  1   
 30  13  41  1   
 31  13  42  1   
 32  13  43  1   
 33  14  15  1   
 34  14  44  1   
 35  15  16  1   
 36  15  45  1   
 37  15  46  1   
 38  16  17  1   
 39  16  18  2   
 40  17  19  1   
 41  17  47  1   
 42  18  20  1   
 43  18  21  1   
 44  19  20  ar  
 45  19  22  ar  
 46  20  23  ar  
 47  21  48  1   
 48  21  49  1   
 49  21  50  1   
 50  22  24  ar  
 51  22  51  1   
 52  23  25  ar  
 53  23  52  1   
 54  24  25  ar  
 55  24  53  1   
 56  25  26  1   
 57  26  54  1   
 58  26  55  1   
 59  26  56  1   
@<TRIPOS>SUBSTRUCTURE
  1 ****  14 GROUP 4 **** **** 0

# MOE 2024.06 (io_trps.svl 2023.06)
