@<TRIPOS>MOLECULE
NONAME
53 55 1 0 0 
SMALL
USER_CHARGES


@<TRIPOS>ATOM
  1 O       -1.6670     0.9550     3.2050 O.2   1 <1>  -0.5700 
  2 C       -1.8430     1.4470     2.1150 C.2   1 <1>   0.5690 
  3 N       -2.3150     0.6780     1.0750 N.am  1 <1>  -0.6600 
  4 C       -1.5350     2.9330     1.9580 C.3   1 <1>   0.0440 
  5 C       -2.4230    -0.8020     1.2130 C.3   1 <1>   0.1400 
  6 C       -2.7330     1.2030    -0.2560 C.3   1 <1>   0.1400 
  7 C       -0.4790     3.2220     0.8940 C.ar  1 <1>  -0.1440 
  8 C       -3.8710    -1.2600     0.9320 C.3   1 <1>   0.4230 
  9 C       -4.1780     0.7650    -0.5280 C.3   1 <1>  -0.1600 
 10 C        0.7110     2.5110     0.8800 C.ar  1 <1>  -0.1500 
 11 C       -0.6940     4.1980    -0.0670 C.ar  1 <1>  -0.1500 
 12 N       -4.1080    -2.7430     1.1960 N.4   1 <1>  -0.9590 
 13 C       -4.3860    -0.7750    -0.4560 C.3   1 <1>   0.0000 
 14 C        1.6660     2.7630    -0.0890 C.ar  1 <1>  -0.1500 
 15 C        0.2610     4.4490    -1.0370 C.ar  1 <1>  -0.1500 
 16 C       -5.3450    -3.2920     0.5500 C.3   1 <1>   0.3430 
 17 C       -2.9420    -3.6440     0.9100 C.3   1 <1>   0.2630 
 18 C       -5.9100    -1.0770    -0.5720 C.3   1 <1>  -0.1600 
 19 C       -3.6020    -1.4800    -1.5990 C.3   1 <1>   0.1200 
 20 C        1.4460     3.7310    -1.0560 C.ar  1 <1>  -0.1440 
 21 C       -6.3960    -2.2000     0.3650 C.3   1 <1>  -0.1600 
 22 O       -3.8880    -0.9240    -2.8350 O.3   1 <1>  -0.6800 
 23 C        2.4990     4.0040    -2.1160 C.3   1 <1>   0.2630 
 24 O        3.5570     4.6370    -1.4990 O.3   1 <1>  -0.6800 
 25 H       -2.4490     3.4490     1.7360 H     1 <1>   0.0800 
 26 H       -1.1770     3.3090     2.9000 H     1 <1>   0.0800 
 27 H       -1.7320    -1.2510     0.5250 H     1 <1>   0.0800 
 28 H       -2.1480    -1.1040     2.2080 H     1 <1>   0.0800 
 29 H       -2.6850     2.2760    -0.2840 H     1 <1>   0.0800 
 30 H       -2.0690     0.8290    -1.0180 H     1 <1>   0.0800 
 31 H       -4.4710    -0.7290     1.6530 H     1 <1>   0.0800 
 32 H       -4.8030     1.2550     0.1990 H     1 <1>   0.0800 
 33 H       -4.4750     1.1420    -1.4910 H     1 <1>   0.0800 
 34 H        0.9040     1.7580     1.6260 H     1 <1>   0.1500 
 35 H       -1.6050     4.7710    -0.0690 H     1 <1>   0.1500 
 36 H       -4.2750    -2.7960     2.2130 H     1 <1>   0.4500 
 37 H        2.5870     2.2050    -0.0880 H     1 <1>   0.1500 
 38 H        0.0760     5.2100    -1.7750 H     1 <1>   0.1500 
 39 H       -5.1010    -3.6980    -0.4180 H     1 <1>   0.0800 
 40 H       -5.7490    -4.0910     1.1520 H     1 <1>   0.0800 
 41 H       -2.6800    -3.6030    -0.1340 H     1 <1>   0.0800 
 42 H       -3.1870    -4.6630     1.1630 H     1 <1>   0.0800 
 43 H       -2.0840    -3.3500     1.4940 H     1 <1>   0.0800 
 44 H       -6.4890    -0.1970    -0.3440 H     1 <1>   0.0800 
 45 H       -6.1580    -1.3380    -1.5860 H     1 <1>   0.0800 
 46 H       -3.8400    -2.5270    -1.6570 H     1 <1>   0.0800 
 47 H       -2.5390    -1.3810    -1.4650 H     1 <1>   0.0800 
 48 H       -7.2920    -2.6360    -0.0440 H     1 <1>   0.0800 
 49 H       -6.6570    -1.7940     1.3280 H     1 <1>   0.0800 
 50 H       -4.8240    -1.0430    -3.0900 H     1 <1>   0.4000 
 51 H        2.1200     4.6530    -2.8860 H     1 <1>   0.0800 
 52 H        2.8600     3.0920    -2.5590 H     1 <1>   0.0800 
 53 H        3.2100     5.1460    -0.7400 H     1 <1>   0.4000 
@<TRIPOS>BOND
  1   1   2  2   
  2   2   3  am  
  3   2   4  1   
  4   3   5  1   
  5   3   6  1   
  6   4   7  1   
  7   4  25  1   
  8   4  26  1   
  9   5   8  1   
 10   5  27  1   
 11   5  28  1   
 12   6   9  1   
 13   6  29  1   
 14   6  30  1   
 15   7  10  ar  
 16   7  11  ar  
 17   8  12  1   
 18   8  13  1   
 19   8  31  1   
 20   9  13  1   
 21   9  32  1   
 22   9  33  1   
 23  10  14  ar  
 24  10  34  1   
 25  11  15  ar  
 26  11  35  1   
 27  12  16  1   
 28  12  17  1   
 29  12  36  1   
 30  13  18  1   
 31  13  19  1   
 32  14  20  ar  
 33  14  37  1   
 34  15  20  ar  
 35  15  38  1   
 36  16  21  1   
 37  16  39  1   
 38  16  40  1   
 39  17  41  1   
 40  17  42  1   
 41  17  43  1   
 42  18  21  1   
 43  18  44  1   
 44  18  45  1   
 45  19  22  1   
 46  19  46  1   
 47  19  47  1   
 48  20  23  1   
 49  21  48  1   
 50  21  49  1   
 51  22  50  1   
 52  23  24  1   
 53  23  51  1   
 54  23  52  1   
 55  24  53  1   
@<TRIPOS>SUBSTRUCTURE
  1 ****   6 GROUP 4 **** **** 0

# MOE 2024.06 (io_trps.svl 2023.06)
