@<TRIPOS>MOLECULE
NONAME
39 41 1 0 0 
SMALL
USER_CHARGES


@<TRIPOS>ATOM
  1 F        0.5230    -0.5650     0.3070 F     1 <1>  -0.3400 
  2 C        0.5750    -1.8390    -0.0590 C.3   1 <1>   1.1640 
  3 F        0.9060    -1.8440    -1.3430 F     1 <1>  -0.3400 
  4 F        1.6010    -2.3730     0.5930 F     1 <1>  -0.3400 
  5 C       -0.7410    -2.5620     0.1930 C.ar  1 <1>  -0.1440 
  6 C       -1.8840    -2.0830    -0.4220 C.ar  1 <1>   0.1600 
  7 C       -0.8530    -3.6770     1.0100 C.ar  1 <1>  -0.1500 
  8 N       -3.0910    -2.6060    -0.2990 N.ar  1 <1>  -0.6200 
  9 C       -2.1050    -4.2270     1.1470 C.ar  1 <1>  -0.1500 
 10 C       -3.1970    -3.6760     0.4800 C.ar  1 <1>   0.4100 
 11 N       -4.4540    -4.2390     0.6240 N.pl3 1 <1>  -0.8380 
 12 C       -5.6500    -3.5750     0.0270 C.3   1 <1>   0.2090 
 13 C       -4.6240    -5.7140     0.5180 C.3   1 <1>   0.2090 
 14 C       -6.7470    -4.6320     0.1080 C.3   1 <1>   0.2000 
 15 C       -5.9830    -5.9300    -0.1600 C.3   1 <1>  -0.0800 
 16 O       -7.2280    -4.6420     1.4090 O.3   1 <1>  -0.6800 
 17 C       -6.6990    -7.2220     0.2750 C.3   1 <1>  -0.0170 
 18 C       -5.8370    -8.4440    -0.0050 C.ar  1 <1>  -0.1430 
 19 C       -5.1910    -9.1280     1.0050 C.ar  1 <1>  -0.1500 
 20 C       -5.6510    -8.9280    -1.2840 C.ar  1 <1>  -0.1500 
 21 C       -4.4090   -10.2290     0.6950 C.ar  1 <1>   0.1600 
 22 C       -4.8470   -10.0370    -1.4870 C.ar  1 <1>   0.1600 
 23 N       -4.2190   -10.6980    -0.5270 N.ar  1 <1>  -0.6200 
 24 H       -1.8100    -1.2150    -1.0580 H     1 <1>   0.1500 
 25 H       -0.0050    -4.1010     1.5230 H     1 <1>   0.1500 
 26 H       -2.2550    -5.0830     1.7760 H     1 <1>   0.1500 
 27 H       -5.9110    -2.6770     0.5610 H     1 <1>   0.0800 
 28 H       -5.4540    -3.3340    -1.0040 H     1 <1>   0.0800 
 29 H       -3.8310    -6.1590    -0.0600 H     1 <1>   0.0800 
 30 H       -4.6250    -6.1360     1.5080 H     1 <1>   0.0800 
 31 H       -7.5650    -4.4590    -0.5690 H     1 <1>   0.0800 
 32 H       -5.8000    -5.9860    -1.2180 H     1 <1>   0.0800 
 33 H       -6.4590    -4.5010     2.0010 H     1 <1>   0.4000 
 34 H       -7.6300    -7.3120    -0.2580 H     1 <1>   0.0800 
 35 H       -6.9340    -7.1850     1.3250 H     1 <1>   0.0800 
 36 H       -5.2880    -8.8200     2.0300 H     1 <1>   0.1500 
 37 H       -6.1230    -8.4540    -2.1250 H     1 <1>   0.1500 
 38 H       -3.9130   -10.7510     1.4950 H     1 <1>   0.1500 
 39 H       -4.7130   -10.4000    -2.4910 H     1 <1>   0.1500 
@<TRIPOS>BOND
  1   1   2  1   
  2   2   3  1   
  3   2   4  1   
  4   2   5  1   
  5   5   6  ar  
  6   5   7  ar  
  7   6   8  ar  
  8   6  24  1   
  9   7   9  ar  
 10   7  25  1   
 11   8  10  ar  
 12   9  10  ar  
 13   9  26  1   
 14  10  11  1   
 15  11  12  1   
 16  11  13  1   
 17  12  14  1   
 18  12  27  1   
 19  12  28  1   
 20  13  15  1   
 21  13  29  1   
 22  13  30  1   
 23  14  15  1   
 24  14  16  1   
 25  14  31  1   
 26  15  17  1   
 27  15  32  1   
 28  16  33  1   
 29  17  18  1   
 30  17  34  1   
 31  17  35  1   
 32  18  19  ar  
 33  18  20  ar  
 34  19  21  ar  
 35  19  36  1   
 36  20  22  ar  
 37  20  37  1   
 38  21  23  ar  
 39  21  38  1   
 40  22  23  ar  
 41  22  39  1   
@<TRIPOS>SUBSTRUCTURE
  1 ****  13 GROUP 4 **** **** 0

# MOE 2024.06 (io_trps.svl 2023.06)
