@<TRIPOS>MOLECULE
NONAME
58 62 1 0 0 
SMALL
USER_CHARGES


@<TRIPOS>ATOM
  1 O       -1.4520     2.0750    -3.1380 O.2   1 <1>  -0.5700 
  2 C       -1.6950     2.2560    -1.9610 C.2   1 <1>   0.5440 
  3 N       -1.9560     1.1500    -1.1770 N.am  1 <1>  -0.6600 
  4 C       -1.7330     3.6090    -1.4460 C.ar  1 <1>   0.0860 
  5 C       -2.4470     1.2170     0.2320 C.3   1 <1>   0.1400 
  6 C       -1.6230    -0.2320    -1.6330 C.3   1 <1>   0.1400 
  7 C       -0.9560     4.0290    -0.3560 C.ar  1 <1>   0.0830 
  8 C       -2.5790     4.5510    -2.0320 C.ar  1 <1>  -0.1500 
  9 C       -3.6350     0.2580     0.4620 C.3   1 <1>   0.4230 
 10 C       -2.8210    -1.1690    -1.4350 C.3   1 <1>   0.3430 
 11 O       -0.0900     3.1950     0.2530 O.3   1 <1>  -0.3630 
 12 C       -1.0670     5.3150     0.1480 C.ar  1 <1>  -0.1500 
 13 C       -2.6810     5.8380    -1.5380 C.ar  1 <1>  -0.1500 
 14 N       -3.3330    -1.1520    -0.0120 N.4   1 <1>  -0.9590 
 15 C       -4.9130     0.8040    -0.2160 C.3   1 <1>   0.1200 
 16 C        1.0900     2.8390    -0.4450 C.3   1 <1>   0.2630 
 17 C       -1.9290     6.2200    -0.4410 C.ar  1 <1>  -0.1500 
 18 C       -4.5480    -2.0050     0.1860 C.3   1 <1>   0.5180 
 19 O       -5.9910    -0.0650     0.0020 O.3   1 <1>  -0.5600 
 20 C        1.3410     1.3450    -0.2880 C.ar  1 <1>  -0.1430 
 21 C       -4.2780    -3.4240    -0.3280 C.3   1 <1>  -0.1950 
 22 C       -5.8040    -1.3750    -0.4600 C.3   1 <1>   0.1200 
 23 C        1.6520     0.5740    -1.3980 C.ar  1 <1>  -0.1500 
 24 C        1.2780     0.7400     0.9600 C.ar  1 <1>  -0.1500 
 25 C       -4.8010    -4.6080     0.4250 C.3   1 <1>  -0.2000 
 26 C       -3.3240    -4.3450     0.3720 C.3   1 <1>  -0.2000 
 27 C        1.9010    -0.7810    -1.2640 C.ar  1 <1>  -0.1500 
 28 C        1.5210    -0.6160     1.0950 C.ar  1 <1>  -0.1500 
 29 C        1.8330    -1.3780    -0.0170 C.ar  1 <1>  -0.1500 
 30 H       -1.6400     0.9550     0.8940 H     1 <1>   0.0800 
 31 H       -2.7540     2.2180     0.4810 H     1 <1>   0.0800 
 32 H       -1.3350    -0.2370    -2.6700 H     1 <1>   0.0800 
 33 H       -0.7890    -0.5990    -1.0630 H     1 <1>   0.0800 
 34 H       -3.1630     4.2630    -2.8900 H     1 <1>   0.1500 
 35 H       -3.8300     0.2370     1.5210 H     1 <1>   0.0800 
 36 H       -2.5240    -2.1690    -1.7060 H     1 <1>   0.0800 
 37 H       -3.6020    -0.8630    -2.1110 H     1 <1>   0.0800 
 38 H       -0.4740     5.6050     0.9970 H     1 <1>   0.1500 
 39 H       -3.3440     6.5470    -2.0060 H     1 <1>   0.1500 
 40 H       -2.5910    -1.5380     0.5810 H     1 <1>   0.4500 
 41 H       -4.7740     0.9290    -1.2770 H     1 <1>   0.0800 
 42 H       -5.1780     1.7580     0.2040 H     1 <1>   0.0800 
 43 H        0.9840     3.1010    -1.4840 H     1 <1>   0.0800 
 44 H        1.9040     3.4020    -0.0230 H     1 <1>   0.0800 
 45 H       -2.0120     7.2210    -0.0510 H     1 <1>   0.1500 
 46 H       -4.7410    -2.0770     1.2440 H     1 <1>   0.0800 
 47 H       -4.3570    -3.5010    -1.4000 H     1 <1>   0.1000 
 48 H       -6.6770    -1.9430    -0.1920 H     1 <1>   0.0800 
 49 H       -5.7270    -1.3560    -1.5330 H     1 <1>   0.0800 
 50 H        1.7060     1.0270    -2.3750 H     1 <1>   0.1500 
 51 H        1.0490     1.3310     1.8300 H     1 <1>   0.1500 
 52 H       -5.3050    -4.4760     1.3680 H     1 <1>   0.1000 
 53 H       -5.1860    -5.4520    -0.1240 H     1 <1>   0.1000 
 54 H       -2.7140    -5.0160    -0.2110 H     1 <1>   0.1000 
 55 H       -2.8420    -4.0540     1.2900 H     1 <1>   0.1000 
 56 H        2.1530    -1.3690    -2.1300 H     1 <1>   0.1500 
 57 H        1.4820    -1.0750     2.0680 H     1 <1>   0.1500 
 58 H        2.0360    -2.4300     0.0890 H     1 <1>   0.1500 
@<TRIPOS>BOND
  1   1   2  2   
  2   2   3  am  
  3   2   4  1   
  4   3   5  1   
  5   3   6  1   
  6   4   7  ar  
  7   4   8  ar  
  8   5   9  1   
  9   5  30  1   
 10   5  31  1   
 11   6  10  1   
 12   6  32  1   
 13   6  33  1   
 14   7  11  1   
 15   7  12  ar  
 16   8  13  ar  
 17   8  34  1   
 18   9  14  1   
 19   9  15  1   
 20   9  35  1   
 21  10  14  1   
 22  10  36  1   
 23  10  37  1   
 24  11  16  1   
 25  12  17  ar  
 26  12  38  1   
 27  13  17  ar  
 28  13  39  1   
 29  14  18  1   
 30  14  40  1   
 31  15  19  1   
 32  15  41  1   
 33  15  42  1   
 34  16  20  1   
 35  16  43  1   
 36  16  44  1   
 37  17  45  1   
 38  18  21  1   
 39  18  22  1   
 40  18  46  1   
 41  19  22  1   
 42  20  23  ar  
 43  20  24  ar  
 44  21  25  1   
 45  21  26  1   
 46  21  47  1   
 47  22  48  1   
 48  22  49  1   
 49  23  27  ar  
 50  23  50  1   
 51  24  28  ar  
 52  24  51  1   
 53  25  26  1   
 54  25  52  1   
 55  25  53  1   
 56  26  54  1   
 57  26  55  1   
 58  27  29  ar  
 59  27  56  1   
 60  28  29  ar  
 61  28  57  1   
 62  29  58  1   
@<TRIPOS>SUBSTRUCTURE
  1 ****   3 GROUP 4 **** **** 0

# MOE 2024.06 (io_trps.svl 2023.06)
