@<TRIPOS>MOLECULE
NONAME
53 54 1 0 0 
SMALL
USER_CHARGES


@<TRIPOS>ATOM
  1 O       -0.3920     1.1020    -1.9060 O.co2 1 <1>  -0.9000 
  2 C       -1.0810     1.0670    -0.8810 C.2   1 <1>   0.9060 
  3 O       -1.8960     0.1660    -0.6590 O.co2 1 <1>  -0.9000 
  4 C       -0.9880     2.2250     0.1080 C.3   1 <1>  -0.1060 
  5 C       -2.4090     2.8140     0.2260 C.3   1 <1>   0.2000 
  6 C       -0.0880     3.2830    -0.5570 C.3   1 <1>   0.3430 
  7 C       -0.4430     1.7310     1.4950 C.3   1 <1>  -0.1600 
  8 O       -3.2310     1.9120     0.8590 O.3   1 <1>  -0.6800 
  9 C       -2.4750     4.1380     1.0010 C.3   1 <1>  -0.1600 
 10 N       -0.3920     4.7140    -0.1850 N.4   1 <1>  -0.9590 
 11 C        1.0830     1.5860     1.6610 C.3   1 <1>  -0.1600 
 12 C       -1.1180     4.8290     1.1100 C.3   1 <1>   0.3430 
 13 C        0.8780     5.5040    -0.2280 C.3   1 <1>   0.3430 
 14 C        1.7110     0.5800     0.6910 C.3   1 <1>  -0.2400 
 15 C        0.6390     7.0160    -0.1790 C.3   1 <1>   0.1200 
 16 O        1.8970     7.6400    -0.2380 O.3   1 <1>  -0.3630 
 17 C        2.0230     8.9940    -0.2040 C.ar  1 <1>   0.0830 
 18 C        3.3100     9.5220    -0.2370 C.ar  1 <1>  -0.1430 
 19 C        0.9290     9.8550    -0.1370 C.ar  1 <1>  -0.1500 
 20 C        3.4870    10.8960    -0.2000 C.ar  1 <1>  -0.1500 
 21 C        4.5280     8.6120    -0.3130 C.3   1 <1>  -0.0970 
 22 C        1.1210    11.2240    -0.1010 C.ar  1 <1>  -0.1500 
 23 C        2.4000    11.7510    -0.1300 C.ar  1 <1>  -0.1430 
 24 C        2.6140    13.2540    -0.0930 C.3   1 <1>  -0.0970 
 25 H       -2.8090     2.9570    -0.7660 H     1 <1>   0.0800 
 26 H       -0.1940     3.2030    -1.6270 H     1 <1>   0.0800 
 27 H        0.9380     3.0450    -0.3400 H     1 <1>   0.0800 
 28 H       -0.7910     2.3730     2.2810 H     1 <1>   0.0800 
 29 H       -0.8890     0.7700     1.7010 H     1 <1>   0.0800 
 30 H       -3.0480     1.0220     0.4360 H     1 <1>   0.4000 
 31 H       -3.1740     4.7920     0.5120 H     1 <1>   0.0800 
 32 H       -2.8380     3.9650     1.9990 H     1 <1>   0.0800 
 33 H       -1.0210     5.0560    -0.9220 H     1 <1>   0.4500 
 34 H        1.5720     2.5380     1.5690 H     1 <1>   0.0800 
 35 H        1.2690     1.2340     2.6620 H     1 <1>   0.0800 
 36 H       -0.5350     4.3630     1.8870 H     1 <1>   0.0800 
 37 H       -1.2660     5.8630     1.3750 H     1 <1>   0.0800 
 38 H        1.5060     5.2200     0.6000 H     1 <1>   0.0800 
 39 H        1.4040     5.2780    -1.1420 H     1 <1>   0.0800 
 40 H        1.6890     0.9380    -0.3220 H     1 <1>   0.0800 
 41 H        1.1810    -0.3570     0.7270 H     1 <1>   0.0800 
 42 H        2.7370     0.3990     0.9580 H     1 <1>   0.0800 
 43 H        0.1710     7.3080     0.7430 H     1 <1>   0.0800 
 44 H        0.0650     7.3410    -1.0280 H     1 <1>   0.0800 
 45 H       -0.0790     9.4910    -0.1130 H     1 <1>   0.1500 
 46 H        4.4800    11.3080    -0.2270 H     1 <1>   0.1500 
 47 H        5.4380     9.1830    -0.3400 H     1 <1>   0.0800 
 48 H        4.4770     8.0090    -1.2020 H     1 <1>   0.0800 
 49 H        4.5550     7.9660     0.5450 H     1 <1>   0.0800 
 50 H        0.2710    11.8810    -0.0510 H     1 <1>   0.1500 
 51 H        1.7870    13.7420     0.3920 H     1 <1>   0.0800 
 52 H        2.7030    13.6340    -1.0940 H     1 <1>   0.0800 
 53 H        3.5110    13.4910     0.4500 H     1 <1>   0.0800 
@<TRIPOS>BOND
  1   1   2  ar  
  2   2   3  ar  
  3   2   4  1   
  4   4   5  1   
  5   4   6  1   
  6   4   7  1   
  7   5   8  1   
  8   5   9  1   
  9   5  25  1   
 10   6  10  1   
 11   6  26  1   
 12   6  27  1   
 13   7  11  1   
 14   7  28  1   
 15   7  29  1   
 16   8  30  1   
 17   9  12  1   
 18   9  31  1   
 19   9  32  1   
 20  10  12  1   
 21  10  13  1   
 22  10  33  1   
 23  11  14  1   
 24  11  34  1   
 25  11  35  1   
 26  12  36  1   
 27  12  37  1   
 28  13  15  1   
 29  13  38  1   
 30  13  39  1   
 31  14  40  1   
 32  14  41  1   
 33  14  42  1   
 34  15  16  1   
 35  15  43  1   
 36  15  44  1   
 37  16  17  1   
 38  17  18  ar  
 39  17  19  ar  
 40  18  20  ar  
 41  18  21  1   
 42  19  22  ar  
 43  19  45  1   
 44  20  23  ar  
 45  20  46  1   
 46  21  47  1   
 47  21  48  1   
 48  21  49  1   
 49  22  23  ar  
 50  22  50  1   
 51  23  24  1   
 52  24  51  1   
 53  24  52  1   
 54  24  53  1   
@<TRIPOS>SUBSTRUCTURE
  1 ****  13 GROUP 4 **** **** 0

# MOE 2024.06 (io_trps.svl 2023.06)
