@<TRIPOS>MOLECULE
NONAME
44 46 1 0 0 
SMALL
USER_CHARGES


@<TRIPOS>ATOM
  1 S       -0.6910     0.3690     1.5970 S.3   1 <1>  -0.0800 
  2 C       -1.6400     0.6180     0.1380 C.2   1 <1>  -0.1400 
  3 C        0.6210     1.3470     0.9640 C.2   1 <1>  -0.1100 
  4 C       -0.9680     1.3950    -0.7320 C.2   1 <1>  -0.1500 
  5 C       -3.0100    -0.0290     0.0690 C.3   1 <1>   0.0200 
  6 C        0.3200     1.8090    -0.2630 C.2   1 <1>  -0.1500 
  7 C       -2.9010    -1.5520    -0.0790 C.3   1 <1>  -0.1600 
  8 C       -4.2880    -2.2180    -0.1620 C.3   1 <1>  -0.0990 
  9 C       -4.2540    -3.7350    -0.3190 C.2   1 <1>   0.5690 
 10 O       -3.1940    -4.2940    -0.4680 O.2   1 <1>  -0.5700 
 11 N       -5.4280    -4.4350    -0.2940 N.am  1 <1>  -0.6600 
 12 C       -6.7890    -3.8780    -0.1020 C.3   1 <1>   0.1400 
 13 C       -5.4800    -5.9100    -0.4370 C.3   1 <1>   0.1400 
 14 C       -7.7260    -5.0860    -0.1610 C.3   1 <1>   0.2000 
 15 C       -6.8510    -6.3090     0.1120 C.3   1 <1>  -0.0800 
 16 O       -8.7270    -5.0000     0.7940 O.3   1 <1>  -0.6800 
 17 C       -7.4280    -7.5960    -0.5020 C.3   1 <1>  -0.0170 
 18 C       -6.5650    -8.8080    -0.1920 C.ar  1 <1>   0.1670 
 19 N       -5.5210    -9.0070    -0.9810 N.ar  1 <1>  -0.6200 
 20 C       -6.8890    -9.6400     0.8780 C.ar  1 <1>   0.1600 
 21 C       -4.8280   -10.0760    -0.6290 C.ar  1 <1>   0.1600 
 22 N       -6.1980   -10.7110     1.2320 N.ar  1 <1>  -0.6200 
 23 C       -5.1550   -10.9010     0.4410 C.ar  1 <1>   0.1600 
 24 H        1.4890     1.4720     1.5870 H     1 <1>   0.1500 
 25 H       -1.3240     1.7010    -1.7000 H     1 <1>   0.1500 
 26 H       -3.5590     0.2190     0.9600 H     1 <1>   0.0800 
 27 H       -3.5410     0.3750    -0.7750 H     1 <1>   0.0800 
 28 H        0.9540     2.4310    -0.8700 H     1 <1>   0.1500 
 29 H       -2.3380    -1.7820    -0.9680 H     1 <1>   0.0800 
 30 H       -2.3630    -1.9590     0.7610 H     1 <1>   0.0800 
 31 H       -4.8220    -1.8130    -1.0020 H     1 <1>   0.0800 
 32 H       -4.8350    -1.9860     0.7320 H     1 <1>   0.0800 
 33 H       -6.8460    -3.3930     0.8570 H     1 <1>   0.0800 
 34 H       -7.0220    -3.1810    -0.8890 H     1 <1>   0.0800 
 35 H       -5.3910    -6.1640    -1.4800 H     1 <1>   0.0800 
 36 H       -4.6800    -6.3820     0.1100 H     1 <1>   0.0800 
 37 H       -8.1870    -5.1420    -1.1330 H     1 <1>   0.0800 
 38 H       -6.7380    -6.4400     1.1740 H     1 <1>   0.0800 
 39 H       -8.3420    -4.9770     1.6920 H     1 <1>   0.4000 
 40 H       -7.5100    -7.4900    -1.5700 H     1 <1>   0.0800 
 41 H       -8.4200    -7.7560    -0.1180 H     1 <1>   0.0800 
 42 H       -7.7570    -9.4100     1.4690 H     1 <1>   0.1500 
 43 H       -3.9580   -10.3130    -1.2150 H     1 <1>   0.1500 
 44 H       -4.5280   -11.7490     0.6500 H     1 <1>   0.1500 
@<TRIPOS>BOND
  1   1   2  1   
  2   1   3  1   
  3   2   4  2   
  4   2   5  1   
  5   3   6  2   
  6   3  24  1   
  7   4   6  1   
  8   4  25  1   
  9   5   7  1   
 10   5  26  1   
 11   5  27  1   
 12   6  28  1   
 13   7   8  1   
 14   7  29  1   
 15   7  30  1   
 16   8   9  1   
 17   8  31  1   
 18   8  32  1   
 19   9  10  2   
 20   9  11  am  
 21  11  12  1   
 22  11  13  1   
 23  12  14  1   
 24  12  33  1   
 25  12  34  1   
 26  13  15  1   
 27  13  35  1   
 28  13  36  1   
 29  14  15  1   
 30  14  16  1   
 31  14  37  1   
 32  15  17  1   
 33  15  38  1   
 34  16  39  1   
 35  17  18  1   
 36  17  40  1   
 37  17  41  1   
 38  18  19  ar  
 39  18  20  ar  
 40  19  21  ar  
 41  20  22  ar  
 42  20  42  1   
 43  21  23  ar  
 44  21  43  1   
 45  22  23  ar  
 46  23  44  1   
@<TRIPOS>SUBSTRUCTURE
  1 ****   9 GROUP 4 **** **** 0

# MOE 2024.06 (io_trps.svl 2023.06)
