@<TRIPOS>MOLECULE
NONAME
53 55 1 0 0 
SMALL
USER_CHARGES


@<TRIPOS>ATOM
  1 O       -0.4250    -0.9530     2.6940 O.2   1 <1>  -0.5700 
  2 C       -0.8840     0.0500     2.2010 C.2   1 <1>   0.5690 
  3 N       -1.8680    -0.0350     1.2420 N.am  1 <1>  -0.6600 
  4 C       -0.3320     1.3870     2.6870 C.3   1 <1>   0.0440 
  5 C       -2.1940    -1.3420     0.6060 C.3   1 <1>   0.1400 
  6 C       -2.6440     1.1210     0.7080 C.3   1 <1>   0.1400 
  7 C        0.2220     2.2490     1.5550 C.ar  1 <1>  -0.1440 
  8 C       -3.7020    -1.6450     0.7410 C.3   1 <1>   0.4230 
  9 C       -4.1410     0.8270     0.8610 C.3   1 <1>  -0.1600 
 10 C       -0.1590     3.5770     1.4250 C.ar  1 <1>  -0.1500 
 11 C        1.1090     1.7060     0.6370 C.ar  1 <1>  -0.1500 
 12 N       -4.0950    -3.0310     0.2440 N.4   1 <1>  -0.9590 
 13 C       -4.5890    -0.4960     0.1780 C.3   1 <1>   0.0000 
 14 C        0.3210     4.3480     0.3810 C.ar  1 <1>  -0.1500 
 15 C        1.5900     2.4750    -0.4070 C.ar  1 <1>  -0.1500 
 16 C       -5.5610    -3.1930    -0.0270 C.3   1 <1>   0.3430 
 17 C       -3.3040    -3.5490    -0.9210 C.3   1 <1>   0.2630 
 18 C       -6.0780    -0.7670     0.5490 C.3   1 <1>  -0.1600 
 19 C       -4.4220    -0.3900    -1.3660 C.3   1 <1>   0.1200 
 20 C        1.1980     3.7950    -0.5480 C.ar  1 <1>   0.0830 
 21 C       -6.3860    -2.2480     0.8450 C.3   1 <1>  -0.1600 
 22 O       -5.0360     0.7440    -1.8700 O.3   1 <1>  -0.6800 
 23 O        1.7060     4.4740    -1.6060 O.3   1 <1>  -0.3630 
 24 C        1.3520     5.8160    -1.8540 C.3   1 <1>   0.0400 
 25 H       -1.1080     1.9060     3.2150 H     1 <1>   0.0800 
 26 H        0.4610     1.1970     3.3870 H     1 <1>   0.0800 
 27 H       -1.8980    -1.2920    -0.4260 H     1 <1>   0.0800 
 28 H       -1.6360    -2.1330     1.0750 H     1 <1>   0.0800 
 29 H       -2.4150     2.0230     1.2460 H     1 <1>   0.0800 
 30 H       -2.3870     1.2850    -0.3260 H     1 <1>   0.0800 
 31 H       -3.8870    -1.6440     1.8030 H     1 <1>   0.0800 
 32 H       -4.3530     0.7870     1.9150 H     1 <1>   0.0800 
 33 H       -4.6960     1.6620     0.4690 H     1 <1>   0.0800 
 34 H       -0.8340     4.0220     2.1360 H     1 <1>   0.1500 
 35 H        1.4290     0.6820     0.7280 H     1 <1>   0.1500 
 36 H       -3.8860    -3.6550     1.0390 H     1 <1>   0.4500 
 37 H        0.0050     5.3710     0.3070 H     1 <1>   0.1500 
 38 H        2.2750     2.0550    -1.1220 H     1 <1>   0.1500 
 39 H       -5.7680    -2.9700    -1.0610 H     1 <1>   0.0800 
 40 H       -5.8580    -4.2130     0.1580 H     1 <1>   0.0800 
 41 H       -3.4380    -2.9150    -1.7820 H     1 <1>   0.0800 
 42 H       -3.6240    -4.5470    -1.1760 H     1 <1>   0.0800 
 43 H       -2.2530    -3.5860    -0.6790 H     1 <1>   0.0800 
 44 H       -6.3610    -0.2010     1.4210 H     1 <1>   0.0800 
 45 H       -6.7230    -0.4290    -0.2440 H     1 <1>   0.0800 
 46 H       -4.8500    -1.2370    -1.8700 H     1 <1>   0.0800 
 47 H       -3.3850    -0.3190    -1.6440 H     1 <1>   0.0800 
 48 H       -7.4340    -2.4300     0.6720 H     1 <1>   0.0800 
 49 H       -6.1960    -2.4670     1.8810 H     1 <1>   0.0800 
 50 H       -6.0040     0.7350    -1.7360 H     1 <1>   0.4000 
 51 H        1.8650     6.1380    -2.7420 H     1 <1>   0.0800 
 52 H        1.6580     6.4180    -1.0160 H     1 <1>   0.0800 
 53 H        0.2880     5.8750    -2.0040 H     1 <1>   0.0800 
@<TRIPOS>BOND
  1   1   2  2   
  2   2   3  am  
  3   2   4  1   
  4   3   5  1   
  5   3   6  1   
  6   4   7  1   
  7   4  25  1   
  8   4  26  1   
  9   5   8  1   
 10   5  27  1   
 11   5  28  1   
 12   6   9  1   
 13   6  29  1   
 14   6  30  1   
 15   7  10  ar  
 16   7  11  ar  
 17   8  12  1   
 18   8  13  1   
 19   8  31  1   
 20   9  13  1   
 21   9  32  1   
 22   9  33  1   
 23  10  14  ar  
 24  10  34  1   
 25  11  15  ar  
 26  11  35  1   
 27  12  16  1   
 28  12  17  1   
 29  12  36  1   
 30  13  18  1   
 31  13  19  1   
 32  14  20  ar  
 33  14  37  1   
 34  15  20  ar  
 35  15  38  1   
 36  16  21  1   
 37  16  39  1   
 38  16  40  1   
 39  17  41  1   
 40  17  42  1   
 41  17  43  1   
 42  18  21  1   
 43  18  44  1   
 44  18  45  1   
 45  19  22  1   
 46  19  46  1   
 47  19  47  1   
 48  20  23  1   
 49  21  48  1   
 50  21  49  1   
 51  22  50  1   
 52  23  24  1   
 53  24  51  1   
 54  24  52  1   
 55  24  53  1   
@<TRIPOS>SUBSTRUCTURE
  1 ****   6 GROUP 4 **** **** 0

# MOE 2024.06 (io_trps.svl 2023.06)
