@<TRIPOS>MOLECULE
NONAME
42 44 1 0 0 
SMALL
USER_CHARGES


@<TRIPOS>ATOM
  1 CL       0.3750     0.0610     2.2490 Cl    1 <1>  -0.1770 
  2 C        1.4670    -0.8950     1.2650 C.ar  1 <1>   0.1770 
  3 C        1.0590    -2.1180     0.7130 C.ar  1 <1>   0.4100 
  4 C        2.7330    -0.4100     1.0440 C.ar  1 <1>  -0.1500 
  5 N        1.8620    -2.8520    -0.0560 N.ar  1 <1>  -0.6200 
  6 N       -0.2210    -2.6090     0.9180 N.pl3 1 <1>  -0.8380 
  7 C        3.5700    -1.1830     0.2510 C.ar  1 <1>  -0.1430 
  8 C        3.0790    -2.3730    -0.2620 C.ar  1 <1>   0.1600 
  9 C       -1.2840    -2.0920     0.0120 C.3   1 <1>   0.2090 
 10 C       -0.4310    -4.0710     1.0770 C.3   1 <1>   0.2090 
 11 C        5.0000    -0.7800    -0.0870 C.3   1 <1>   1.1640 
 12 C       -2.1070    -3.3070    -0.4510 C.3   1 <1>   0.2000 
 13 C       -1.1870    -4.4960    -0.1790 C.3   1 <1>  -0.0800 
 14 F        5.1390    -0.4910    -1.3730 F     1 <1>  -0.3400 
 15 F        5.8650    -1.7500     0.1750 F     1 <1>  -0.3400 
 16 F        5.4150     0.2860     0.5850 F     1 <1>  -0.3400 
 17 O       -3.2640    -3.4440     0.3290 O.3   1 <1>  -0.5600 
 18 C       -1.8970    -5.8540    -0.0400 C.3   1 <1>   0.0200 
 19 C       -4.3450    -2.6600    -0.0660 C.3   1 <1>   0.0400 
 20 C       -0.9250    -7.0180     0.0580 C.2   1 <1>  -0.0400 
 21 O       -1.3910    -8.2120     0.3150 O.3   1 <1>  -0.0190 
 22 C        0.4080    -7.1210    -0.0730 C.2   1 <1>  -0.1500 
 23 N       -0.4450    -9.1050     0.3660 N.2   1 <1>  -0.4100 
 24 C        0.6510    -8.4750     0.1370 C.2   1 <1>   0.1080 
 25 C        2.0140    -9.1270     0.1000 C.3   1 <1>  -0.0590 
 26 H        3.0380     0.5280     1.4750 H     1 <1>   0.1500 
 27 H        3.7220    -2.9770    -0.8830 H     1 <1>   0.1500 
 28 H       -1.8950    -1.3750     0.5300 H     1 <1>   0.0800 
 29 H       -0.8270    -1.6220    -0.8410 H     1 <1>   0.0800 
 30 H        0.4990    -4.6010     1.1910 H     1 <1>   0.0800 
 31 H       -1.0370    -4.2370     1.9520 H     1 <1>   0.0800 
 32 H       -2.3850    -3.2460    -1.4890 H     1 <1>   0.0800 
 33 H       -0.4770    -4.5510    -0.9840 H     1 <1>   0.0800 
 34 H       -2.5340    -6.0130    -0.8910 H     1 <1>   0.0800 
 35 H       -2.5200    -5.8510     0.8380 H     1 <1>   0.0800 
 36 H       -5.1610    -2.8570     0.6070 H     1 <1>   0.0800 
 37 H       -4.6310    -2.9280    -1.0680 H     1 <1>   0.0800 
 38 H       -4.0780    -1.6190    -0.0110 H     1 <1>   0.0800 
 39 H        1.1450    -6.3700    -0.2890 H     1 <1>   0.1500 
 40 H        2.6970    -8.5830     0.7260 H     1 <1>   0.0800 
 41 H        2.3850    -9.1360    -0.9080 H     1 <1>   0.0800 
 42 H        1.9460   -10.1390     0.4560 H     1 <1>   0.0800 
@<TRIPOS>BOND
  1   1   2  1   
  2   2   3  ar  
  3   2   4  ar  
  4   3   5  ar  
  5   3   6  1   
  6   4   7  ar  
  7   4  26  1   
  8   5   8  ar  
  9   6   9  1   
 10   6  10  1   
 11   7   8  ar  
 12   7  11  1   
 13   8  27  1   
 14   9  12  1   
 15   9  28  1   
 16   9  29  1   
 17  10  13  1   
 18  10  30  1   
 19  10  31  1   
 20  11  14  1   
 21  11  15  1   
 22  11  16  1   
 23  12  13  1   
 24  12  17  1   
 25  12  32  1   
 26  13  18  1   
 27  13  33  1   
 28  17  19  1   
 29  18  20  1   
 30  18  34  1   
 31  18  35  1   
 32  19  36  1   
 33  19  37  1   
 34  19  38  1   
 35  20  21  1   
 36  20  22  2   
 37  21  23  1   
 38  22  24  1   
 39  22  39  1   
 40  23  24  2   
 41  24  25  1   
 42  25  40  1   
 43  25  41  1   
 44  25  42  1   
@<TRIPOS>SUBSTRUCTURE
  1 ****   5 GROUP 4 **** **** 0

# MOE 2024.06 (io_trps.svl 2023.06)
