@<TRIPOS>MOLECULE
NONAME
47 50 1 0 0 
SMALL
USER_CHARGES


@<TRIPOS>ATOM
  1 O       -1.9370    -0.3950    -2.6080 O.2   1 <1>  -0.5700 
  2 C       -2.1230    -0.8360    -1.5080 C.2   1 <1>   0.5690 
  3 N       -2.0980    -0.0250    -0.4370 N.am  1 <1>  -0.7300 
  4 C       -2.4260    -2.3000    -1.3330 C.3   1 <1>  -0.0190 
  5 C       -2.3170    -0.4390     0.9670 C.3   1 <1>   0.2200 
  6 C       -1.3620    -3.0030    -0.4620 C.3   1 <1>   0.1200 
  7 C       -3.8880    -2.4440    -0.8890 C.3   1 <1>   0.3430 
  8 C       -1.2550    -1.4840     1.3920 C.3   1 <1>   0.1200 
  9 C       -3.7820    -0.9210     1.1710 C.3   1 <1>   0.3430 
 10 O       -1.5320    -2.7770     0.9130 O.3   1 <1>  -0.5600 
 11 N       -4.0990    -2.2760     0.5910 N.4   1 <1>  -0.9590 
 12 C       -5.4150    -2.8010     1.0430 C.3   1 <1>   0.4860 
 13 C       -5.4960    -4.2670     0.6720 C.ar  1 <1>  -0.1440 
 14 C       -6.3560    -4.6850    -0.3200 C.ar  1 <1>  -0.1500 
 15 C       -4.6730    -5.1980     1.3270 C.ar  1 <1>  -0.1500 
 16 C       -6.3920    -6.0330    -0.6810 C.ar  1 <1>   0.0000 
 17 C       -4.7040    -6.5290     0.9810 C.ar  1 <1>  -0.1500 
 18 C       -5.5670    -6.9480    -0.0350 C.ar  1 <1>  -0.1520 
 19 C       -7.1300    -6.7620    -1.6360 C.2   1 <1>  -0.1500 
 20 N       -5.7950    -8.1940    -0.5750 N.pl3 1 <1>   0.0480 
 21 C       -6.7460    -8.0570    -1.5460 C.2   1 <1>  -0.3020 
 22 C       -5.1490    -9.4630    -0.1780 C.3   1 <1>   0.0960 
 23 C       -5.8870   -10.0950     1.0050 C.3   1 <1>  -0.2400 
 24 H       -1.8320     0.9500    -0.6200 H     1 <1>   0.3700 
 25 H       -2.3560    -2.7320    -2.3150 H     1 <1>   0.0800 
 26 H       -2.1720     0.4370     1.5760 H     1 <1>   0.0800 
 27 H       -0.3680    -2.6950    -0.7440 H     1 <1>   0.0800 
 28 H       -1.4300    -4.0680    -0.6090 H     1 <1>   0.0800 
 29 H       -4.2080    -3.4330    -1.1750 H     1 <1>   0.0800 
 30 H       -4.4970    -1.7380    -1.4310 H     1 <1>   0.0800 
 31 H       -1.2380    -1.5530     2.4660 H     1 <1>   0.0800 
 32 H       -0.2710    -1.1900     1.0660 H     1 <1>   0.0800 
 33 H       -4.4470    -0.1830     0.7540 H     1 <1>   0.0800 
 34 H       -3.9640    -0.9570     2.2320 H     1 <1>   0.0800 
 35 H       -3.3770    -2.9060     0.9940 H     1 <1>   0.4500 
 36 H       -5.5130    -2.7010     2.1110 H     1 <1>   0.0800 
 37 H       -6.2160    -2.2570     0.5700 H     1 <1>   0.0800 
 38 H       -7.0120    -4.0090    -0.8400 H     1 <1>   0.1500 
 39 H       -4.0080    -4.8800     2.1120 H     1 <1>   0.1500 
 40 H       -4.0790    -7.2470     1.4810 H     1 <1>   0.1500 
 41 H       -7.8600    -6.3320    -2.2980 H     1 <1>   0.1500 
 42 H       -7.0990    -8.8970    -2.1180 H     1 <1>   0.1500 
 43 H       -5.1610   -10.1320    -1.0200 H     1 <1>   0.0800 
 44 H       -4.1250    -9.2650     0.0830 H     1 <1>   0.0800 
 45 H       -6.9090   -10.3020     0.7380 H     1 <1>   0.0800 
 46 H       -5.8700    -9.4330     1.8530 H     1 <1>   0.0800 
 47 H       -5.4110   -11.0180     1.2810 H     1 <1>   0.0800 
@<TRIPOS>BOND
  1   1   2  2   
  2   2   3  am  
  3   2   4  1   
  4   3   5  1   
  5   3  24  1   
  6   4   6  1   
  7   4   7  1   
  8   4  25  1   
  9   5   8  1   
 10   5   9  1   
 11   5  26  1   
 12   6  10  1   
 13   6  27  1   
 14   6  28  1   
 15   7  11  1   
 16   7  29  1   
 17   7  30  1   
 18   8  10  1   
 19   8  31  1   
 20   8  32  1   
 21   9  11  1   
 22   9  33  1   
 23   9  34  1   
 24  11  12  1   
 25  11  35  1   
 26  12  13  1   
 27  12  36  1   
 28  12  37  1   
 29  13  14  ar  
 30  13  15  ar  
 31  14  16  ar  
 32  14  38  1   
 33  15  17  ar  
 34  15  39  1   
 35  16  18  ar  
 36  16  19  1   
 37  17  18  ar  
 38  17  40  1   
 39  18  20  1   
 40  19  21  2   
 41  19  41  1   
 42  20  21  1   
 43  20  22  1   
 44  21  42  1   
 45  22  23  1   
 46  22  43  1   
 47  22  44  1   
 48  23  45  1   
 49  23  46  1   
 50  23  47  1   
@<TRIPOS>SUBSTRUCTURE
  1 ****  13 GROUP 4 **** **** 0

# MOE 2024.06 (io_trps.svl 2023.06)
