@<TRIPOS>MOLECULE
NONAME
41 43 1 0 0 
SMALL
USER_CHARGES


@<TRIPOS>ATOM
  1 O       -0.4380     0.1980    -0.0500 O.2   1 <1>  -0.5700 
  2 C       -1.4900     0.8160    -0.1210 C.2   1 <1>   0.7160 
  3 N       -2.6420     0.0670    -0.3000 N.am  1 <1>  -0.6600 
  4 C       -1.4760     2.2770    -0.0150 C.2   1 <1>   0.2030 
  5 C       -4.0200     0.6060    -0.4030 C.3   1 <1>   0.1400 
  6 C       -2.6540    -1.4130    -0.3510 C.3   1 <1>   0.1400 
  7 N       -2.5080     3.1080    -0.0180 N.2   1 <1>  -0.7070 
  8 C       -0.2900     3.0120     0.1120 C.2   1 <1>  -0.1500 
  9 C       -4.9190    -0.6220    -0.5560 C.3   1 <1>   0.2000 
 10 C       -4.0990    -1.8010    -0.0340 C.3   1 <1>  -0.0800 
 11 N       -1.9930     4.3360     0.1020 N.pl3 1 <1>   0.3140 
 12 C       -0.6470     4.3070     0.1830 C.2   1 <1>  -0.3320 
 13 O       -6.0870    -0.5020     0.1810 O.3   1 <1>  -0.6800 
 14 C       -4.5390    -3.1440    -0.6400 C.3   1 <1>  -0.0170 
 15 C       -2.8510     5.5270     0.1340 C.3   1 <1>   0.0160 
 16 C        0.2470     5.5270     0.3270 C.3   1 <1>  -0.0600 
 17 C       -3.7210    -4.2990    -0.0860 C.ar  1 <1>   0.1670 
 18 N       -2.5870    -4.5740    -0.7090 N.ar  1 <1>  -0.6200 
 19 C       -4.1790    -5.0010     1.0270 C.ar  1 <1>   0.1600 
 20 C       -1.9450    -5.5850    -0.1480 C.ar  1 <1>   0.1600 
 21 N       -3.5380    -6.0130     1.5900 N.ar  1 <1>  -0.6200 
 22 C       -2.4050    -6.2810     0.9640 C.ar  1 <1>   0.1600 
 23 H       -4.2570     1.1520     0.4940 H     1 <1>   0.0800 
 24 H       -4.1030     1.2520    -1.2600 H     1 <1>   0.0800 
 25 H       -2.3750    -1.7330    -1.3410 H     1 <1>   0.0800 
 26 H       -1.9660    -1.8350     0.3630 H     1 <1>   0.0800 
 27 H        0.6960     2.5800     0.1420 H     1 <1>   0.1500 
 28 H       -5.1810    -0.7550    -1.5920 H     1 <1>   0.0800 
 29 H       -4.1840    -1.8470     1.0370 H     1 <1>   0.0800 
 30 H       -5.8770    -0.2790     1.1090 H     1 <1>   0.4000 
 31 H       -4.4320    -3.1180    -1.7110 H     1 <1>   0.0800 
 32 H       -5.5800    -3.3050    -0.4230 H     1 <1>   0.0800 
 33 H       -2.5940     6.1690    -0.6870 H     1 <1>   0.0800 
 34 H       -2.7050     6.0420     1.0640 H     1 <1>   0.0800 
 35 H       -3.8780     5.2240     0.0470 H     1 <1>   0.0800 
 36 H        1.2790     5.2250     0.3690 H     1 <1>   0.0800 
 37 H        0.0100     6.0590     1.2310 H     1 <1>   0.0800 
 38 H        0.1190     6.1850    -0.5140 H     1 <1>   0.0800 
 39 H       -5.1130    -4.7120     1.4740 H     1 <1>   0.1500 
 40 H       -1.0090    -5.8790    -0.5890 H     1 <1>   0.1500 
 41 H       -1.8110    -7.0910     1.3480 H     1 <1>   0.1500 
@<TRIPOS>BOND
  1   1   2  2   
  2   2   3  am  
  3   2   4  1   
  4   3   5  1   
  5   3   6  1   
  6   4   7  2   
  7   4   8  1   
  8   5   9  1   
  9   5  23  1   
 10   5  24  1   
 11   6  10  1   
 12   6  25  1   
 13   6  26  1   
 14   7  11  1   
 15   8  12  2   
 16   8  27  1   
 17   9  10  1   
 18   9  13  1   
 19   9  28  1   
 20  10  14  1   
 21  10  29  1   
 22  11  12  1   
 23  11  15  1   
 24  12  16  1   
 25  13  30  1   
 26  14  17  1   
 27  14  31  1   
 28  14  32  1   
 29  15  33  1   
 30  15  34  1   
 31  15  35  1   
 32  16  36  1   
 33  16  37  1   
 34  16  38  1   
 35  17  18  ar  
 36  17  19  ar  
 37  18  20  ar  
 38  19  21  ar  
 39  19  39  1   
 40  20  22  ar  
 41  20  40  1   
 42  21  22  ar  
 43  22  41  1   
@<TRIPOS>SUBSTRUCTURE
  1 ****   3 GROUP 4 **** **** 0

# MOE 2024.06 (io_trps.svl 2023.06)
