@<TRIPOS>MOLECULE
NONAME
56 58 1 0 0 
SMALL
USER_CHARGES


@<TRIPOS>ATOM
  1 O        4.9670    -1.6540     0.3850 O.2   1 <1>  -0.5700 
  2 C        3.8580    -1.6660    -0.1200 C.2   1 <1>   0.5440 
  3 N        3.5450    -0.5920    -0.9210 N.am  1 <1>  -0.6600 
  4 C        2.8990    -2.7150     0.1800 C.ar  1 <1>   0.0860 
  5 C        4.5500    -0.0250    -1.8800 C.3   1 <1>   0.1400 
  6 C        2.4340     0.3170    -0.5460 C.3   1 <1>   0.1400 
  7 C        2.9870    -3.4580     1.3580 C.ar  1 <1>  -0.1500 
  8 C        1.8520    -3.0270    -0.6930 C.ar  1 <1>  -0.1500 
  9 C        5.6570     0.8080    -1.1960 C.3   1 <1>   0.3430 
 10 C        2.8640     1.2260     0.6140 C.3   1 <1>  -0.1600 
 11 C        2.0700    -4.4480     1.6580 C.ar  1 <1>  -0.1500 
 12 C        0.9310    -4.0170    -0.4000 C.ar  1 <1>  -0.1500 
 13 N        5.3200     1.1570     0.2220 N.4   1 <1>  -0.9590 
 14 C        4.1340     2.0470     0.3600 C.3   1 <1>   0.3430 
 15 C        1.0330    -4.7360     0.7870 C.ar  1 <1>   0.0830 
 16 C        6.5030     1.5610     1.0450 C.3   1 <1>   0.3430 
 17 O        0.1770    -5.7160     1.1530 O.3   1 <1>  -0.3630 
 18 C        7.3800     2.6670     0.4280 C.3   1 <1>  -0.0800 
 19 C       -0.8960    -6.1150     0.3340 C.3   1 <1>   0.1200 
 20 C        8.5930     2.8920     1.3450 C.3   1 <1>   0.1200 
 21 C        6.6520     4.0080     0.2000 C.3   1 <1>  -0.1600 
 22 C       -1.6390    -7.2420     1.0450 C.3   1 <1>  -0.2400 
 23 O        9.4240     3.8510     0.7760 O.3   1 <1>  -0.5600 
 24 C        7.6540     5.0840    -0.2430 C.3   1 <1>  -0.1600 
 25 C        8.8720     5.1280     0.6860 C.3   1 <1>   0.1200 
 26 H        4.0460     0.5850    -2.6090 H     1 <1>   0.0800 
 27 H        5.0150    -0.8340    -2.4170 H     1 <1>   0.0800 
 28 H        1.5770    -0.2630    -0.2440 H     1 <1>   0.0800 
 29 H        2.1420     0.9080    -1.3980 H     1 <1>   0.0800 
 30 H        3.7880    -3.2580     2.0490 H     1 <1>   0.1500 
 31 H        1.7610    -2.4900    -1.6200 H     1 <1>   0.1500 
 32 H        5.8530     1.6990    -1.7690 H     1 <1>   0.0800 
 33 H        6.5570     0.2160    -1.2000 H     1 <1>   0.0800 
 34 H        2.9850     0.6400     1.5080 H     1 <1>   0.0800 
 35 H        2.0590     1.9140     0.8050 H     1 <1>   0.0800 
 36 H        2.1510    -5.0100     2.5720 H     1 <1>   0.1500 
 37 H        0.1440    -4.2180    -1.1030 H     1 <1>   0.1500 
 38 H        5.0180     0.2260     0.5870 H     1 <1>   0.4500 
 39 H        4.2830     2.7120     1.1950 H     1 <1>   0.0800 
 40 H        4.0150     2.6470    -0.5270 H     1 <1>   0.0800 
 41 H        7.1230     0.6910     1.1930 H     1 <1>   0.0800 
 42 H        6.1660     1.8790     2.0180 H     1 <1>   0.0800 
 43 H        7.7760     2.3140    -0.5080 H     1 <1>   0.0800 
 44 H       -0.4990    -6.4560    -0.6070 H     1 <1>   0.0800 
 45 H       -1.5430    -5.2680     0.1830 H     1 <1>   0.0800 
 46 H        9.1720     1.9900     1.4450 H     1 <1>   0.0800 
 47 H        8.3010     3.2320     2.3250 H     1 <1>   0.0800 
 48 H        6.1830     4.3280     1.1140 H     1 <1>   0.0800 
 49 H        5.8990     3.9130    -0.5600 H     1 <1>   0.0800 
 50 H       -0.9790    -8.0750     1.2060 H     1 <1>   0.0800 
 51 H       -2.4670    -7.5700     0.4430 H     1 <1>   0.0800 
 52 H       -2.0170    -6.8960     1.9900 H     1 <1>   0.0800 
 53 H        7.1790     6.0490    -0.2550 H     1 <1>   0.0800 
 54 H        7.9980     4.8780    -1.2420 H     1 <1>   0.0800 
 55 H        9.6270     5.7850     0.2900 H     1 <1>   0.0800 
 56 H        8.6040     5.4600     1.6750 H     1 <1>   0.0800 
@<TRIPOS>BOND
  1   1   2  2   
  2   2   3  am  
  3   2   4  1   
  4   3   5  1   
  5   3   6  1   
  6   4   7  ar  
  7   4   8  ar  
  8   5   9  1   
  9   5  26  1   
 10   5  27  1   
 11   6  10  1   
 12   6  28  1   
 13   6  29  1   
 14   7  11  ar  
 15   7  30  1   
 16   8  12  ar  
 17   8  31  1   
 18   9  13  1   
 19   9  32  1   
 20   9  33  1   
 21  10  14  1   
 22  10  34  1   
 23  10  35  1   
 24  11  15  ar  
 25  11  36  1   
 26  12  15  ar  
 27  12  37  1   
 28  13  14  1   
 29  13  16  1   
 30  13  38  1   
 31  14  39  1   
 32  14  40  1   
 33  15  17  1   
 34  16  18  1   
 35  16  41  1   
 36  16  42  1   
 37  17  19  1   
 38  18  20  1   
 39  18  21  1   
 40  18  43  1   
 41  19  22  1   
 42  19  44  1   
 43  19  45  1   
 44  20  23  1   
 45  20  46  1   
 46  20  47  1   
 47  21  24  1   
 48  21  48  1   
 49  21  49  1   
 50  22  50  1   
 51  22  51  1   
 52  22  52  1   
 53  23  25  1   
 54  24  25  1   
 55  24  53  1   
 56  24  54  1   
 57  25  55  1   
 58  25  56  1   
@<TRIPOS>SUBSTRUCTURE
  1 ****   2 GROUP 4 **** **** 0

# MOE 2024.06 (io_trps.svl 2023.06)
