@<TRIPOS>MOLECULE
NONAME
53 54 1 0 0 
SMALL
USER_CHARGES


@<TRIPOS>ATOM
  1 O       -0.2120    -0.4980     0.4620 O.2   1 <1>  -0.5700 
  2 C        0.7390    -0.7700     1.1590 C.2   1 <1>   0.5690 
  3 N        1.8730     0.0030     1.1980 N.am  1 <1>  -0.4940 
  4 C        0.6900    -2.0730     2.0070 C.3   1 <1>   0.4840 
  5 C        2.2410     1.1090     0.3930 C.2   1 <1>  -0.0880 
  6 N       -0.1040    -3.2280     1.4090 N.4   1 <1>  -0.9590 
  7 C        0.2170    -1.7970     3.4380 C.3   1 <1>  -0.2400 
  8 N        1.4520     2.1330    -0.0420 N.pl3 1 <1>   0.3140 
  9 C        3.4860     1.3640    -0.0800 C.2   1 <1>  -0.1810 
 10 C        0.3700    -3.5830     0.0240 C.3   1 <1>   0.4230 
 11 C       -1.5820    -2.9290     1.4050 C.3   1 <1>   0.2630 
 12 N        2.1580     3.0190    -0.7720 N.2   1 <1>  -0.7070 
 13 C        0.0410     2.4140     0.2550 C.3   1 <1>   0.0160 
 14 C        3.3650     2.5540    -0.7930 C.2   1 <1>   0.1080 
 15 C        4.7630     0.5590     0.0930 C.3   1 <1>  -0.0590 
 16 C       -0.3970    -4.8130    -0.5020 C.3   1 <1>  -0.1600 
 17 C        1.8860    -3.8710     0.0260 C.3   1 <1>  -0.1600 
 18 C        4.4830     3.2700    -1.5310 C.3   1 <1>   0.0210 
 19 C        0.1160    -5.2790    -1.8720 C.3   1 <1>  -0.1600 
 20 C        2.3910    -4.3370    -1.3470 C.3   1 <1>  -0.1600 
 21 C        4.5850     2.7890    -2.9820 C.3   1 <1>  -0.2400 
 22 C        1.6190    -5.5640    -1.8360 C.3   1 <1>  -0.1600 
 23 H        2.6330    -0.2960     1.8110 H     1 <1>   0.3700 
 24 H        1.7100    -2.4030     2.0930 H     1 <1>   0.0800 
 25 H        0.0520    -4.0550     1.9970 H     1 <1>   0.4500 
 26 H       -0.7390    -1.3030     3.4460 H     1 <1>   0.0800 
 27 H        0.9170    -1.1410     3.9260 H     1 <1>   0.0800 
 28 H        0.1630    -2.7060     4.0100 H     1 <1>   0.0800 
 29 H        0.1800    -2.7540    -0.6420 H     1 <1>   0.0800 
 30 H       -1.8020    -2.1230     0.7230 H     1 <1>   0.0800 
 31 H       -1.9200    -2.6500     2.3880 H     1 <1>   0.0800 
 32 H       -2.1450    -3.7960     1.1000 H     1 <1>   0.0800 
 33 H       -0.1940     2.0730     1.2440 H     1 <1>   0.0800 
 34 H       -0.5740     1.9110    -0.4670 H     1 <1>   0.0800 
 35 H       -0.1270     3.4730     0.1900 H     1 <1>   0.0800 
 36 H        4.5680    -0.3760     0.5820 H     1 <1>   0.0800 
 37 H        5.4690     1.1190     0.6800 H     1 <1>   0.0800 
 38 H        5.1980     0.3550    -0.8690 H     1 <1>   0.0800 
 39 H       -1.4410    -4.5880    -0.6250 H     1 <1>   0.0800 
 40 H       -0.2990    -5.6290     0.1930 H     1 <1>   0.0800 
 41 H        2.1100    -4.6370     0.7480 H     1 <1>   0.0800 
 42 H        2.4460    -2.9880     0.2700 H     1 <1>   0.0800 
 43 H        5.4160     3.1080    -1.0240 H     1 <1>   0.0800 
 44 H        4.2800     4.3260    -1.5190 H     1 <1>   0.0800 
 45 H       -0.0840    -4.5200    -2.6110 H     1 <1>   0.0800 
 46 H       -0.4090    -6.1710    -2.1730 H     1 <1>   0.0800 
 47 H        3.4390    -4.5780    -1.2870 H     1 <1>   0.0800 
 48 H        2.2810    -3.5390    -2.0640 H     1 <1>   0.0800 
 49 H        4.7940     1.7350    -3.0130 H     1 <1>   0.0800 
 50 H        5.3680     3.3170    -3.4960 H     1 <1>   0.0800 
 51 H        3.6530     2.9690    -3.4890 H     1 <1>   0.0800 
 52 H        1.9570    -5.8330    -2.8230 H     1 <1>   0.0800 
 53 H        1.8140    -6.4010    -1.1870 H     1 <1>   0.0800 
@<TRIPOS>BOND
  1   1   2  2   
  2   2   3  am  
  3   2   4  1   
  4   3   5  1   
  5   3  23  1   
  6   4   6  1   
  7   4   7  1   
  8   4  24  1   
  9   5   8  1   
 10   5   9  2   
 11   6  10  1   
 12   6  11  1   
 13   6  25  1   
 14   7  26  1   
 15   7  27  1   
 16   7  28  1   
 17   8  12  1   
 18   8  13  1   
 19   9  14  1   
 20   9  15  1   
 21  10  16  1   
 22  10  17  1   
 23  10  29  1   
 24  11  30  1   
 25  11  31  1   
 26  11  32  1   
 27  12  14  2   
 28  13  33  1   
 29  13  34  1   
 30  13  35  1   
 31  14  18  1   
 32  15  36  1   
 33  15  37  1   
 34  15  38  1   
 35  16  19  1   
 36  16  39  1   
 37  16  40  1   
 38  17  20  1   
 39  17  41  1   
 40  17  42  1   
 41  18  21  1   
 42  18  43  1   
 43  18  44  1   
 44  19  22  1   
 45  19  45  1   
 46  19  46  1   
 47  20  22  1   
 48  20  47  1   
 49  20  48  1   
 50  21  49  1   
 51  21  50  1   
 52  21  51  1   
 53  22  52  1   
 54  22  53  1   
@<TRIPOS>SUBSTRUCTURE
  1 ****   2 GROUP 4 **** **** 0

# MOE 2024.06 (io_trps.svl 2023.06)
