@<TRIPOS>MOLECULE
NONAME
39 41 1 0 0 
SMALL
USER_CHARGES


@<TRIPOS>ATOM
  1 O       -0.3410    -0.3240    -0.3590 O.3   1 <1>  -0.3630 
  2 C       -1.2430     0.6790    -0.1860 C.ar  1 <1>   0.0830 
  3 C       -0.7460    -1.6490    -0.6190 C.3   1 <1>   0.0400 
  4 C       -0.7510     1.9730     0.0030 C.ar  1 <1>  -0.1440 
  5 C       -2.6200     0.4510    -0.1850 C.ar  1 <1>  -0.1500 
  6 C       -1.6390     3.0240     0.2060 C.ar  1 <1>  -0.1500 
  7 C        0.7480     2.2450     0.0060 C.3   1 <1>   0.3530 
  8 C       -3.4820     1.5120     0.0090 C.ar  1 <1>  -0.1440 
  9 C       -2.9990     2.7790     0.2030 C.ar  1 <1>  -0.1440 
 10 N        1.0410     3.4240    -0.8360 N.pl3 1 <1>  -0.8690 
 11 C       -4.9900     1.4900     0.0470 C.3   1 <1>  -0.0170 
 12 C       -4.1170     3.7720     0.3970 C.3   1 <1>  -0.0170 
 13 C        1.5940     4.5560    -0.3290 C.ar  1 <1>   0.4100 
 14 C       -5.3710     2.9800    -0.0110 C.3   1 <1>  -0.1600 
 15 N        0.9730     5.6690    -0.6390 N.ar  1 <1>  -0.6200 
 16 C        2.7300     4.5560     0.4550 C.ar  1 <1>  -0.1500 
 17 C        1.5020     6.7730    -0.1490 C.ar  1 <1>   0.4770 
 18 C        3.1840     5.7620     0.9100 C.ar  1 <1>   0.1600 
 19 N        2.5730     6.8940     0.6170 N.ar  1 <1>  -0.6200 
 20 C        0.7910     8.0590    -0.4980 C.3   1 <1>  -0.0970 
 21 H        0.1360    -2.2500    -0.7460 H     1 <1>   0.0800 
 22 H       -1.3310    -1.6650    -1.5210 H     1 <1>   0.0800 
 23 H       -1.3170    -2.0110     0.2180 H     1 <1>   0.0800 
 24 H       -3.0340    -0.5280    -0.3300 H     1 <1>   0.1500 
 25 H       -1.2790     4.0260     0.3630 H     1 <1>   0.1500 
 26 H        1.2980     1.4060    -0.3840 H     1 <1>   0.0800 
 27 H        1.0700     2.4180     1.0180 H     1 <1>   0.0800 
 28 H        0.2480     3.6280    -1.4490 H     1 <1>   0.4000 
 29 H       -5.3180     1.0500     0.9730 H     1 <1>   0.0800 
 30 H       -5.3990     0.9440    -0.7850 H     1 <1>   0.0800 
 31 H       -3.9810     4.6440    -0.2180 H     1 <1>   0.0800 
 32 H       -4.1660     4.0570     1.4330 H     1 <1>   0.0800 
 33 H       -6.2100     3.2040     0.6230 H     1 <1>   0.0800 
 34 H       -5.6220     3.2320    -1.0270 H     1 <1>   0.0800 
 35 H        3.2320     3.6380     0.6850 H     1 <1>   0.1500 
 36 H        4.0660     5.8140     1.5250 H     1 <1>   0.1500 
 37 H        0.2850     7.9580    -1.4400 H     1 <1>   0.0800 
 38 H        1.4990     8.8640    -0.5670 H     1 <1>   0.0800 
 39 H        0.0730     8.2840     0.2670 H     1 <1>   0.0800 
@<TRIPOS>BOND
  1   1   2  1   
  2   1   3  1   
  3   2   4  ar  
  4   2   5  ar  
  5   3  21  1   
  6   3  22  1   
  7   3  23  1   
  8   4   6  ar  
  9   4   7  1   
 10   5   8  ar  
 11   5  24  1   
 12   6   9  ar  
 13   6  25  1   
 14   7  10  1   
 15   7  26  1   
 16   7  27  1   
 17   8   9  ar  
 18   8  11  1   
 19   9  12  1   
 20  10  13  1   
 21  10  28  1   
 22  11  14  1   
 23  11  29  1   
 24  11  30  1   
 25  12  14  1   
 26  12  31  1   
 27  12  32  1   
 28  13  15  ar  
 29  13  16  ar  
 30  14  33  1   
 31  14  34  1   
 32  15  17  ar  
 33  16  18  ar  
 34  16  35  1   
 35  17  19  ar  
 36  17  20  1   
 37  18  19  ar  
 38  18  36  1   
 39  20  37  1   
 40  20  38  1   
 41  20  39  1   
@<TRIPOS>SUBSTRUCTURE
  1 ****   6 GROUP 4 **** **** 0

# MOE 2024.06 (io_trps.svl 2023.06)
