@<TRIPOS>MOLECULE
NONAME
50 53 1 0 0 
SMALL
USER_CHARGES


@<TRIPOS>ATOM
  1 F       -2.7150     2.9980    -2.6090 F     1 <1>  -0.3400 
  2 C       -2.4870     3.3390    -1.3510 C.3   1 <1>   0.8800 
  3 F       -2.5000     2.2030    -0.6650 F     1 <1>  -0.3400 
  4 O       -3.5960     4.0990    -0.9210 O.3   1 <1>  -0.3630 
  5 C       -3.4740     4.6920     0.2850 C.ar  1 <1>   0.0830 
  6 C       -4.1260     4.1550     1.3920 C.ar  1 <1>  -0.1440 
  7 C       -2.7210     5.8500     0.3990 C.ar  1 <1>  -0.1500 
  8 C       -4.0020     4.7900     2.6190 C.ar  1 <1>  -0.1500 
  9 C       -4.9620     2.8940     1.2690 C.3   1 <1>   0.4870 
 10 C       -2.6050     6.4730     1.6280 C.ar  1 <1>  -0.1500 
 11 C       -3.2440     5.9430     2.7350 C.ar  1 <1>  -0.1500 
 12 N       -6.0220     3.1340     0.2600 N.4   1 <1>  -0.9590 
 13 C       -7.0270     4.1410     0.7390 C.3   1 <1>   0.3430 
 14 C       -6.6650     1.8750    -0.2020 C.3   1 <1>   0.3430 
 15 C       -8.0190     4.5200    -0.3720 C.3   1 <1>   0.1440 
 16 C       -7.6260     2.1880    -1.3520 C.3   1 <1>  -0.1600 
 17 C       -9.0770     5.4220     0.2170 C.ar  1 <1>   0.1670 
 18 C       -8.6710     3.2520    -0.9650 C.3   1 <1>  -0.1600 
 19 C       -7.3820     5.4180    -1.4670 C.3   1 <1>  -0.1600 
 20 N       -9.7160     5.1860     1.3400 N.ar  1 <1>  -0.6200 
 21 C       -9.2870     6.5270    -0.5490 C.ar  1 <1>  -0.1430 
 22 C       -8.4000     6.5360    -1.7700 C.3   1 <1>  -0.0170 
 23 C      -10.6070     6.1170     1.6600 C.ar  1 <1>   0.4770 
 24 C      -10.2280     7.4290    -0.1200 C.ar  1 <1>   0.1600 
 25 N      -10.8990     7.2270     0.9960 N.ar  1 <1>  -0.6200 
 26 C      -11.3800     5.8950     2.9380 C.3   1 <1>  -0.0970 
 27 H       -1.5400     3.8410    -1.2550 H     1 <1>   0.0800 
 28 H       -2.2320     6.2740    -0.4610 H     1 <1>   0.1500 
 29 H       -4.4880     4.4000     3.4980 H     1 <1>   0.1500 
 30 H       -5.4000     2.6380     2.2200 H     1 <1>   0.0800 
 31 H       -4.3270     2.0820     0.9530 H     1 <1>   0.0800 
 32 H       -2.0200     7.3730     1.7260 H     1 <1>   0.1500 
 33 H       -3.1500     6.4330     3.6910 H     1 <1>   0.1500 
 34 H       -5.5240     3.5530    -0.5420 H     1 <1>   0.4500 
 35 H       -6.5290     5.0340     1.0810 H     1 <1>   0.0800 
 36 H       -7.5820     3.7340     1.5680 H     1 <1>   0.0800 
 37 H       -7.2110     1.4240     0.6120 H     1 <1>   0.0800 
 38 H       -5.9150     1.1760    -0.5390 H     1 <1>   0.0800 
 39 H       -8.1350     1.2820    -1.6340 H     1 <1>   0.0800 
 40 H       -7.0610     2.5110    -2.2090 H     1 <1>   0.0800 
 41 H       -9.2720     3.5100    -1.8200 H     1 <1>   0.0800 
 42 H       -9.3350     2.8290    -0.2290 H     1 <1>   0.0800 
 43 H       -7.1260     4.8780    -2.3600 H     1 <1>   0.0800 
 44 H       -6.4880     5.8800    -1.0820 H     1 <1>   0.0800 
 45 H       -8.9850     6.2960    -2.6420 H     1 <1>   0.0800 
 46 H       -7.9180     7.4890    -1.9050 H     1 <1>   0.0800 
 47 H      -10.4370     8.3200    -0.6880 H     1 <1>   0.1500 
 48 H      -11.3360     4.8620     3.2300 H     1 <1>   0.0800 
 49 H      -12.4080     6.1710     2.7920 H     1 <1>   0.0800 
 50 H      -10.9600     6.5020     3.7170 H     1 <1>   0.0800 
@<TRIPOS>BOND
  1   1   2  1   
  2   2   3  1   
  3   2   4  1   
  4   2  27  1   
  5   4   5  1   
  6   5   6  ar  
  7   5   7  ar  
  8   6   8  ar  
  9   6   9  1   
 10   7  10  ar  
 11   7  28  1   
 12   8  11  ar  
 13   8  29  1   
 14   9  12  1   
 15   9  30  1   
 16   9  31  1   
 17  10  11  ar  
 18  10  32  1   
 19  11  33  1   
 20  12  13  1   
 21  12  14  1   
 22  12  34  1   
 23  13  15  1   
 24  13  35  1   
 25  13  36  1   
 26  14  16  1   
 27  14  37  1   
 28  14  38  1   
 29  15  17  1   
 30  15  18  1   
 31  15  19  1   
 32  16  18  1   
 33  16  39  1   
 34  16  40  1   
 35  17  20  ar  
 36  17  21  ar  
 37  18  41  1   
 38  18  42  1   
 39  19  22  1   
 40  19  43  1   
 41  19  44  1   
 42  20  23  ar  
 43  21  22  1   
 44  21  24  ar  
 45  22  45  1   
 46  22  46  1   
 47  23  25  ar  
 48  23  26  1   
 49  24  25  ar  
 50  24  47  1   
 51  26  48  1   
 52  26  49  1   
 53  26  50  1   
@<TRIPOS>SUBSTRUCTURE
  1 ****  13 GROUP 4 **** **** 0

# MOE 2024.06 (io_trps.svl 2023.06)
