@<TRIPOS>MOLECULE
NONAME
53 57 1 0 0 
SMALL
USER_CHARGES


@<TRIPOS>ATOM
  1 O       -0.7870     0.5050    -0.9090 O.2   1 <1>  -0.5700 
  2 C       -1.2470     1.4950    -0.3700 C.2   1 <1>   0.7150 
  3 N       -2.5790     1.4580    -0.0030 N.am  1 <1>  -0.6600 
  4 C       -0.3780     2.6310    -0.1460 C.2   1 <1>   0.0550 
  5 C       -3.4740     0.3380    -0.3990 C.3   1 <1>   0.1400 
  6 C       -3.2980     2.4420     0.8410 C.3   1 <1>   0.1400 
  7 O       -0.8510     3.7970     0.2650 O.3   1 <1>  -0.0190 
  8 C        0.9550     2.7270    -0.3130 C.2   1 <1>  -0.1500 
  9 C       -4.8680     0.7590     0.0580 C.3   1 <1>   0.2800 
 10 C       -4.6980     1.8550     1.1100 C.3   1 <1>  -0.0800 
 11 N        0.1580     4.6240     0.3690 N.2   1 <1>  -0.4100 
 12 C        1.2590     4.0270     0.0360 C.2   1 <1>   0.2350 
 13 O       -5.5830     1.4370    -0.9150 O.3   1 <1>  -0.5600 
 14 C       -5.8810    -0.2940     0.4990 C.3   1 <1>  -0.1600 
 15 C       -5.9730     2.7070     0.8650 C.3   1 <1>  -0.0800 
 16 C        2.5760     4.6380     0.0310 C.ar  1 <1>   0.0540 
 17 C       -6.6750     1.8410    -0.1900 C.3   1 <1>   0.2000 
 18 C       -7.1790     0.5090     0.3860 C.3   1 <1>  -0.1600 
 19 C       -5.6790     4.1030     0.2880 C.3   1 <1>   0.3430 
 20 C        3.7430     3.8720     0.0280 C.ar  1 <1>  -0.1500 
 21 C        2.7220     6.0250     0.0300 C.ar  1 <1>  -0.1500 
 22 N       -6.9140     4.8940    -0.0110 N.4   1 <1>  -0.9590 
 23 C        4.9940     4.4630     0.0180 C.ar  1 <1>  -0.1500 
 24 C        3.9700     6.6220     0.0210 C.ar  1 <1>  -0.1500 
 25 C       -6.5560     6.1030    -0.8160 C.3   1 <1>   0.2630 
 26 C       -7.6580     5.2960     1.2250 C.3   1 <1>   0.2630 
 27 C        5.1100     5.8410     0.0140 C.ar  1 <1>  -0.1500 
 28 H       -3.4460     0.1690    -1.4610 H     1 <1>   0.0800 
 29 H       -3.1640    -0.5530     0.1180 H     1 <1>   0.0800 
 30 H       -2.7650     2.5910     1.7660 H     1 <1>   0.0800 
 31 H       -3.3290     3.3710     0.3040 H     1 <1>   0.0800 
 32 H        1.6320     1.9650    -0.6500 H     1 <1>   0.1500 
 33 H       -4.7020     1.4200     2.0940 H     1 <1>   0.0800 
 34 H       -5.8770    -1.1210    -0.1890 H     1 <1>   0.0800 
 35 H       -5.6920    -0.6540     1.4960 H     1 <1>   0.0800 
 36 H       -6.5530     2.7810     1.7660 H     1 <1>   0.0800 
 37 H       -7.3900     2.3400    -0.8190 H     1 <1>   0.0800 
 38 H       -7.6700     0.6390     1.3350 H     1 <1>   0.0800 
 39 H       -7.8580     0.0380    -0.3040 H     1 <1>   0.0800 
 40 H       -5.1180     3.9690    -0.6250 H     1 <1>   0.0800 
 41 H       -5.0590     4.6510     0.9790 H     1 <1>   0.0800 
 42 H        3.6810     2.8000     0.0380 H     1 <1>   0.1500 
 43 H        1.8430     6.6460     0.0360 H     1 <1>   0.1500 
 44 H       -7.5290     4.3090    -0.5960 H     1 <1>   0.4500 
 45 H        5.8800     3.8510     0.0150 H     1 <1>   0.1500 
 46 H        4.0530     7.6960     0.0200 H     1 <1>   0.1500 
 47 H       -5.9000     6.7490    -0.2550 H     1 <1>   0.0800 
 48 H       -7.4430     6.6570    -1.0770 H     1 <1>   0.0800 
 49 H       -6.0550     5.8120    -1.7260 H     1 <1>   0.0800 
 50 H       -7.0290     5.8960     1.8630 H     1 <1>   0.0800 
 51 H       -7.9770     4.4260     1.7740 H     1 <1>   0.0800 
 52 H       -8.5320     5.8720     0.9640 H     1 <1>   0.0800 
 53 H        6.0830     6.3030     0.0070 H     1 <1>   0.1500 
@<TRIPOS>BOND
  1   1   2  2   
  2   2   3  am  
  3   2   4  1   
  4   3   5  1   
  5   3   6  1   
  6   4   7  1   
  7   4   8  2   
  8   5   9  1   
  9   5  28  1   
 10   5  29  1   
 11   6  10  1   
 12   6  30  1   
 13   6  31  1   
 14   7  11  1   
 15   8  12  1   
 16   8  32  1   
 17   9  10  1   
 18   9  13  1   
 19   9  14  1   
 20  10  15  1   
 21  10  33  1   
 22  11  12  2   
 23  12  16  1   
 24  13  17  1   
 25  14  18  1   
 26  14  34  1   
 27  14  35  1   
 28  15  17  1   
 29  15  19  1   
 30  15  36  1   
 31  16  20  ar  
 32  16  21  ar  
 33  17  18  1   
 34  17  37  1   
 35  18  38  1   
 36  18  39  1   
 37  19  22  1   
 38  19  40  1   
 39  19  41  1   
 40  20  23  ar  
 41  20  42  1   
 42  21  24  ar  
 43  21  43  1   
 44  22  25  1   
 45  22  26  1   
 46  22  44  1   
 47  23  27  ar  
 48  23  45  1   
 49  24  27  ar  
 50  24  46  1   
 51  25  47  1   
 52  25  48  1   
 53  25  49  1   
 54  26  50  1   
 55  26  51  1   
 56  26  52  1   
 57  27  53  1   
@<TRIPOS>SUBSTRUCTURE
  1 ****   7 GROUP 4 **** **** 0

# MOE 2024.06 (io_trps.svl 2023.06)
