@<TRIPOS>MOLECULE
NONAME
59 62 1 0 0 
SMALL
USER_CHARGES


@<TRIPOS>ATOM
  1 O        0.1030    -0.7510     1.4370 O.3   1 <1>  -0.5600 
  2 C        0.5680    -1.8400     2.1840 C.3   1 <1>   0.1200 
  3 C       -0.9970    -1.0630     0.6280 C.3   1 <1>   0.1200 
  4 C        1.0260    -2.9890     1.2690 C.3   1 <1>   0.2090 
  5 C       -0.6440    -2.1610    -0.3920 C.3   1 <1>   0.2090 
  6 N       -0.0400    -3.3540     0.2820 N.pl3 1 <1>  -0.8380 
  7 C       -0.2040    -4.6350    -0.1940 C.ar  1 <1>   0.7200 
  8 N       -1.0530    -4.8130    -1.2050 N.ar  1 <1>  -0.6200 
  9 N        0.4960    -5.6030     0.3960 N.ar  1 <1>  -0.6200 
 10 C       -1.2120    -6.0340    -1.6390 C.ar  1 <1>   0.1600 
 11 C        0.3230    -6.8160    -0.0520 C.ar  1 <1>   0.1600 
 12 C       -0.5540    -7.1010    -1.0720 C.ar  1 <1>  -0.1430 
 13 C       -0.7950    -8.5180    -1.5340 C.3   1 <1>   0.4860 
 14 N       -1.6890    -9.2010    -0.5440 N.4   1 <1>  -0.9590 
 15 C       -1.7500   -10.6910    -0.7940 C.3   1 <1>   0.3430 
 16 C       -3.0530    -8.5820    -0.5550 C.3   1 <1>   0.3430 
 17 C       -2.7110   -11.4570     0.1730 C.3   1 <1>   0.4230 
 18 C       -3.9470    -9.2710     0.4810 C.3   1 <1>  -0.1600 
 19 N       -2.7630   -12.9740    -0.0110 N.4   1 <1>  -0.9590 
 20 C       -4.1190   -10.7980     0.2560 C.3   1 <1>   0.0000 
 21 C       -3.9300   -13.6300     0.6770 C.3   1 <1>   0.3430 
 22 C       -2.7190   -13.4480    -1.4370 C.3   1 <1>   0.2630 
 23 C       -4.8640   -11.3870     1.4880 C.3   1 <1>  -0.1600 
 24 C       -5.0010   -11.0370    -1.0050 C.3   1 <1>   0.1200 
 25 C       -4.4010   -12.8070     1.8760 C.3   1 <1>  -0.1600 
 26 O       -4.3070   -10.7650    -2.1760 O.3   1 <1>  -0.6800 
 27 H        1.3900    -1.4980     2.7860 H     1 <1>   0.0800 
 28 H       -0.2210    -2.1740     2.8350 H     1 <1>   0.0800 
 29 H       -1.8070    -1.3860     1.2580 H     1 <1>   0.0800 
 30 H       -1.2930    -0.1650     0.1170 H     1 <1>   0.0800 
 31 H        1.2860    -3.8300     1.8860 H     1 <1>   0.0800 
 32 H        1.9100    -2.6840     0.7360 H     1 <1>   0.0800 
 33 H        0.0570    -1.7670    -1.1060 H     1 <1>   0.0800 
 34 H       -1.5410    -2.4300    -0.9220 H     1 <1>   0.0800 
 35 H       -1.8920    -6.1730    -2.4630 H     1 <1>   0.1500 
 36 H        0.9010    -7.5930     0.4200 H     1 <1>   0.1500 
 37 H        0.1520    -9.0310    -1.6000 H     1 <1>   0.0800 
 38 H       -1.2490    -8.5160    -2.5120 H     1 <1>   0.0800 
 39 H       -1.2860    -9.0100     0.3850 H     1 <1>   0.4500 
 40 H       -2.0780   -10.8560    -1.8060 H     1 <1>   0.0800 
 41 H       -0.7600   -11.1050    -0.6940 H     1 <1>   0.0800 
 42 H       -2.9860    -7.5300    -0.3160 H     1 <1>   0.0800 
 43 H       -3.4950    -8.6720    -1.5350 H     1 <1>   0.0800 
 44 H       -2.2870   -11.3030     1.1510 H     1 <1>   0.0800 
 45 H       -3.5300    -9.0750     1.4550 H     1 <1>   0.0800 
 46 H       -4.9130    -8.7940     0.4620 H     1 <1>   0.0800 
 47 H       -1.9290   -13.3630     0.4580 H     1 <1>   0.4500 
 48 H       -4.7530   -13.7290    -0.0130 H     1 <1>   0.0800 
 49 H       -3.6560   -14.6230     1.0010 H     1 <1>   0.0800 
 50 H       -3.5660   -13.0730    -1.9880 H     1 <1>   0.0800 
 51 H       -2.7440   -14.5270    -1.4730 H     1 <1>   0.0800 
 52 H       -1.8170   -13.1190    -1.9250 H     1 <1>   0.0800 
 53 H       -4.7320   -10.7630     2.3570 H     1 <1>   0.0800 
 54 H       -5.9260   -11.4010     1.2980 H     1 <1>   0.0800 
 55 H       -5.8720   -10.4010    -0.9790 H     1 <1>   0.0800 
 56 H       -5.3430   -12.0550    -1.0590 H     1 <1>   0.0800 
 57 H       -5.2170   -13.3220     2.3570 H     1 <1>   0.0800 
 58 H       -3.6040   -12.7530     2.5980 H     1 <1>   0.0800 
 59 H       -4.9270   -10.7790    -2.9440 H     1 <1>   0.4000 
@<TRIPOS>BOND
  1   1   2  1   
  2   1   3  1   
  3   2   4  1   
  4   2  27  1   
  5   2  28  1   
  6   3   5  1   
  7   3  29  1   
  8   3  30  1   
  9   4   6  1   
 10   4  31  1   
 11   4  32  1   
 12   5   6  1   
 13   5  33  1   
 14   5  34  1   
 15   6   7  1   
 16   7   8  ar  
 17   7   9  ar  
 18   8  10  ar  
 19   9  11  ar  
 20  10  12  ar  
 21  10  35  1   
 22  11  12  ar  
 23  11  36  1   
 24  12  13  1   
 25  13  14  1   
 26  13  37  1   
 27  13  38  1   
 28  14  15  1   
 29  14  16  1   
 30  14  39  1   
 31  15  17  1   
 32  15  40  1   
 33  15  41  1   
 34  16  18  1   
 35  16  42  1   
 36  16  43  1   
 37  17  19  1   
 38  17  20  1   
 39  17  44  1   
 40  18  20  1   
 41  18  45  1   
 42  18  46  1   
 43  19  21  1   
 44  19  22  1   
 45  19  47  1   
 46  20  23  1   
 47  20  24  1   
 48  21  25  1   
 49  21  48  1   
 50  21  49  1   
 51  22  50  1   
 52  22  51  1   
 53  22  52  1   
 54  23  25  1   
 55  23  53  1   
 56  23  54  1   
 57  24  26  1   
 58  24  55  1   
 59  24  56  1   
 60  25  57  1   
 61  25  58  1   
 62  26  59  1   
@<TRIPOS>SUBSTRUCTURE
  1 ****  14 GROUP 4 **** **** 0

# MOE 2024.06 (io_trps.svl 2023.06)
