@<TRIPOS>MOLECULE
NONAME
59 63 1 0 0 
SMALL
USER_CHARGES


@<TRIPOS>ATOM
  1 O        0.5660    -3.7100    -2.4750 O.2   1 <1>  -0.5700 
  2 C        0.3160    -3.2660    -1.3770 C.2   1 <1>   0.5690 
  3 N        1.2140    -2.4570    -0.7240 N.am  1 <1>  -0.4770 
  4 C       -0.9420    -3.7770    -0.6530 C.3   1 <1>   0.1710 
  5 C        1.2150    -1.0440    -0.8040 C.ar  1 <1>   0.1170 
  6 C        2.4740    -3.1020    -0.2960 C.3   1 <1>   0.1400 
  7 N       -2.0510    -2.8150    -0.3780 N.3   1 <1>  -0.8100 
  8 C        2.1650    -0.2870    -0.1100 C.ar  1 <1>  -0.1430 
  9 C        0.2650    -0.3690    -1.5660 C.ar  1 <1>  -0.1500 
 10 C        2.9710    -2.4290     0.9820 C.3   1 <1>  -0.1600 
 11 C       -1.7530    -1.9420     0.7800 C.3   1 <1>   0.1100 
 12 C       -3.3090    -3.5480    -0.1790 C.3   1 <1>   0.1100 
 13 C        2.1450     1.0970    -0.1830 C.ar  1 <1>  -0.1500 
 14 C        3.2600    -0.9480     0.7190 C.3   1 <1>  -0.0170 
 15 C        0.2590     1.0100    -1.6410 C.ar  1 <1>  -0.1500 
 16 C       -2.8750    -0.9320     1.1270 C.3   1 <1>   0.1430 
 17 C       -4.4780    -2.5840     0.0340 C.3   1 <1>  -0.1600 
 18 C        1.1950     1.7540    -0.9460 C.ar  1 <1>  -0.1430 
 19 C       -2.8900     0.2680     0.1760 C.ar  1 <1>   0.1670 
 20 C       -4.2350    -1.6530     1.2300 C.3   1 <1>  -0.1600 
 21 C       -2.5260    -0.2430     2.4730 C.3   1 <1>  -0.1600 
 22 C        1.1850     3.2690    -1.0240 C.3   1 <1>  -0.0970 
 23 N       -3.4310     0.3270    -1.0230 N.ar  1 <1>  -0.6200 
 24 C       -2.2820     1.3500     0.7440 C.ar  1 <1>  -0.1430 
 25 C       -1.7590     1.0410     2.1210 C.3   1 <1>  -0.0170 
 26 C       -3.3290     1.4990    -1.6280 C.ar  1 <1>   0.4770 
 27 C       -2.2390     2.5220     0.0320 C.ar  1 <1>   0.1600 
 28 N       -2.7680     2.6120    -1.1710 N.ar  1 <1>  -0.6200 
 29 C       -3.9290     1.5680    -3.0100 C.3   1 <1>  -0.0970 
 30 H       -0.6320    -4.2330     0.2690 H     1 <1>   0.0800 
 31 H       -1.3290    -4.5640    -1.2750 H     1 <1>   0.0800 
 32 H        3.2010    -3.0010    -1.0840 H     1 <1>   0.0800 
 33 H        2.3050    -4.1510    -0.1200 H     1 <1>   0.0800 
 34 H       -0.4880    -0.9160    -2.1050 H     1 <1>   0.1500 
 35 H        3.8640    -2.9170     1.3290 H     1 <1>   0.0800 
 36 H        2.2180    -2.5250     1.7440 H     1 <1>   0.0800 
 37 H       -0.8540    -1.3890     0.5990 H     1 <1>   0.0800 
 38 H       -1.5800    -2.5690     1.6370 H     1 <1>   0.0800 
 39 H       -3.2200    -4.2040     0.6710 H     1 <1>   0.0800 
 40 H       -3.5140    -4.1460    -1.0510 H     1 <1>   0.0800 
 41 H        2.8800     1.6720     0.3510 H     1 <1>   0.1500 
 42 H        3.3740    -0.4330     1.6570 H     1 <1>   0.0800 
 43 H        4.1850    -0.8610     0.1770 H     1 <1>   0.0800 
 44 H       -0.4870     1.4980    -2.2420 H     1 <1>   0.1500 
 45 H       -5.3780    -3.1480     0.1950 H     1 <1>   0.0800 
 46 H       -4.6150    -2.0090    -0.8650 H     1 <1>   0.0800 
 47 H       -5.0270    -0.9270     1.2880 H     1 <1>   0.0800 
 48 H       -4.2540    -2.2430     2.1290 H     1 <1>   0.0800 
 49 H       -1.9650    -0.8760     3.1380 H     1 <1>   0.0800 
 50 H       -3.4380     0.0440     2.9670 H     1 <1>   0.0800 
 51 H        1.2760     3.6910    -0.0390 H     1 <1>   0.0800 
 52 H        0.2680     3.6200    -1.4620 H     1 <1>   0.0800 
 53 H        2.0070     3.6070    -1.6280 H     1 <1>   0.0800 
 54 H       -0.7000     0.8550     2.0660 H     1 <1>   0.0800 
 55 H       -1.9630     1.8330     2.8190 H     1 <1>   0.0800 
 56 H       -1.7690     3.3940     0.4490 H     1 <1>   0.1500 
 57 H       -3.5440     0.7620    -3.6050 H     1 <1>   0.0800 
 58 H       -3.6850     2.5020    -3.4820 H     1 <1>   0.0800 
 59 H       -4.9960     1.4760    -2.9370 H     1 <1>   0.0800 
@<TRIPOS>BOND
  1   1   2  2   
  2   2   3  am  
  3   2   4  1   
  4   3   5  1   
  5   3   6  1   
  6   4   7  1   
  7   4  30  1   
  8   4  31  1   
  9   5   8  ar  
 10   5   9  ar  
 11   6  10  1   
 12   6  32  1   
 13   6  33  1   
 14   7  11  1   
 15   7  12  1   
 16   8  13  ar  
 17   8  14  1   
 18   9  15  ar  
 19   9  34  1   
 20  10  14  1   
 21  10  35  1   
 22  10  36  1   
 23  11  16  1   
 24  11  37  1   
 25  11  38  1   
 26  12  17  1   
 27  12  39  1   
 28  12  40  1   
 29  13  18  ar  
 30  13  41  1   
 31  14  42  1   
 32  14  43  1   
 33  15  18  ar  
 34  15  44  1   
 35  16  19  1   
 36  16  20  1   
 37  16  21  1   
 38  17  20  1   
 39  17  45  1   
 40  17  46  1   
 41  18  22  1   
 42  19  23  ar  
 43  19  24  ar  
 44  20  47  1   
 45  20  48  1   
 46  21  25  1   
 47  21  49  1   
 48  21  50  1   
 49  22  51  1   
 50  22  52  1   
 51  22  53  1   
 52  23  26  ar  
 53  24  25  1   
 54  24  27  ar  
 55  25  54  1   
 56  25  55  1   
 57  26  28  ar  
 58  26  29  1   
 59  27  28  ar  
 60  27  56  1   
 61  29  57  1   
 62  29  58  1   
 63  29  59  1   
@<TRIPOS>SUBSTRUCTURE
  1 ****   9 GROUP 4 **** **** 0

# MOE 2024.06 (io_trps.svl 2023.06)
