@<TRIPOS>MOLECULE
NONAME
46 48 1 0 0 
SMALL
USER_CHARGES


@<TRIPOS>ATOM
  1 S       -0.4960     0.8140     1.3640 S.3   1 <1>  -0.2860 
  2 C        0.2940    -0.7380     0.9320 C.2   1 <1>   0.2420 
  3 C        0.5850     1.5350     2.6950 C.3   1 <1>   0.1310 
  4 N       -0.2080    -1.5310    -0.0020 N.pl3 1 <1>   0.0330 
  5 N        1.3770    -1.1910     1.4560 N.2   1 <1>  -0.3380 
  6 C        1.3050     2.7760     2.1850 C.2   1 <1>   0.5690 
  7 C        0.6750    -2.5340    -0.0260 C.2   1 <1>   0.0060 
  8 N        1.6250    -2.3480     0.8310 N.2   1 <1>  -0.3380 
  9 O        0.8570     3.8550     2.4960 O.2   1 <1>  -0.5700 
 10 N        2.4340     2.6790     1.4160 N.am  1 <1>  -0.6600 
 11 C        0.5640    -3.7340    -0.9500 C.3   1 <1>   0.0200 
 12 C        3.1680     3.8720     0.9100 C.3   1 <1>   0.1400 
 13 C        3.0860     1.4440     0.9290 C.3   1 <1>   0.1400 
 14 C        0.7320    -3.3300    -2.4180 C.3   1 <1>  -0.2400 
 15 C        4.0550     3.3610    -0.2360 C.3   1 <1>   0.4240 
 16 C        4.3550     1.9330     0.2340 C.3   1 <1>  -0.1600 
 17 O        3.2600     3.2290    -1.3630 O.3   1 <1>  -0.6800 
 18 C        5.2750     4.2510    -0.5790 C.ar  1 <1>  -0.1430 
 19 C        5.1670     5.6260    -0.8310 C.ar  1 <1>  -0.1430 
 20 C        6.5450     3.6770    -0.6500 C.ar  1 <1>  -0.1500 
 21 C        6.3060     6.3740    -1.0970 C.ar  1 <1>  -0.1500 
 22 C        3.8460     6.3880    -0.8510 C.3   1 <1>  -0.0970 
 23 C        7.6710     4.4310    -0.9210 C.ar  1 <1>  -0.1500 
 24 C        7.5540     5.7870    -1.1390 C.ar  1 <1>  -0.1500 
 25 H        1.2810     0.7890     3.0240 H     1 <1>   0.0800 
 26 H       -0.0640     1.7990     3.5080 H     1 <1>   0.0800 
 27 H       -1.0540    -1.3880    -0.5530 H     1 <1>   0.2700 
 28 H       -0.3890    -4.2120    -0.8050 H     1 <1>   0.0800 
 29 H        1.3300    -4.4450    -0.6890 H     1 <1>   0.0800 
 30 H        3.7840     4.2650     1.6990 H     1 <1>   0.0800 
 31 H        2.4780     4.6280     0.5850 H     1 <1>   0.0800 
 32 H        2.4430     0.9530     0.2180 H     1 <1>   0.0800 
 33 H        3.3150     0.7720     1.7390 H     1 <1>   0.0800 
 34 H       -0.0460    -2.6530    -2.7200 H     1 <1>   0.0800 
 35 H        0.6930    -4.2020    -3.0460 H     1 <1>   0.0800 
 36 H        1.6850    -2.8490    -2.5590 H     1 <1>   0.0800 
 37 H        4.6530     1.2870    -0.5730 H     1 <1>   0.0800 
 38 H        5.1360     1.9520     0.9720 H     1 <1>   0.0800 
 39 H        2.4110     2.8430    -1.0790 H     1 <1>   0.4000 
 40 H        6.6930     2.6250    -0.5020 H     1 <1>   0.1500 
 41 H        6.2290     7.4320    -1.2800 H     1 <1>   0.1500 
 42 H        3.0820     5.8170    -1.3460 H     1 <1>   0.0800 
 43 H        3.9480     7.3120    -1.3900 H     1 <1>   0.0800 
 44 H        3.5350     6.6190     0.1510 H     1 <1>   0.0800 
 45 H        8.6380     3.9610    -0.9640 H     1 <1>   0.1500 
 46 H        8.4260     6.3800    -1.3480 H     1 <1>   0.1500 
@<TRIPOS>BOND
  1   1   2  1   
  2   1   3  1   
  3   2   4  1   
  4   2   5  2   
  5   3   6  1   
  6   3  25  1   
  7   3  26  1   
  8   4   7  1   
  9   4  27  1   
 10   5   8  1   
 11   6   9  2   
 12   6  10  am  
 13   7   8  2   
 14   7  11  1   
 15  10  12  1   
 16  10  13  1   
 17  11  14  1   
 18  11  28  1   
 19  11  29  1   
 20  12  15  1   
 21  12  30  1   
 22  12  31  1   
 23  13  16  1   
 24  13  32  1   
 25  13  33  1   
 26  14  34  1   
 27  14  35  1   
 28  14  36  1   
 29  15  16  1   
 30  15  17  1   
 31  15  18  1   
 32  16  37  1   
 33  16  38  1   
 34  17  39  1   
 35  18  19  ar  
 36  18  20  ar  
 37  19  21  ar  
 38  19  22  1   
 39  20  23  ar  
 40  20  40  1   
 41  21  24  ar  
 42  21  41  1   
 43  22  42  1   
 44  22  43  1   
 45  22  44  1   
 46  23  24  ar  
 47  23  45  1   
 48  24  46  1   
@<TRIPOS>SUBSTRUCTURE
  1 ****  13 GROUP 4 **** **** 0

# MOE 2024.06 (io_trps.svl 2023.06)
