@<TRIPOS>MOLECULE
NONAME
46 48 1 0 0 
SMALL
USER_CHARGES


@<TRIPOS>ATOM
  1 O       -1.3410    -1.0200    -1.4910 O.2   1 <1>  -0.5700 
  2 C       -1.9870    -0.1490    -0.9720 C.2   1 <1>   0.5690 
  3 N       -3.3350    -0.1930    -1.0070 N.am  1 <1>  -0.7300 
  4 C       -1.2710     0.9880    -0.2860 C.3   1 <1>  -0.1790 
  5 C       -4.3050     0.7140    -0.3710 C.3   1 <1>   0.2840 
  6 C       -5.5710    -0.0640    -0.0730 C.ar  1 <1>  -0.1430 
  7 C       -6.7660     0.2540    -0.6980 C.ar  1 <1>   0.1600 
  8 C       -5.5580    -1.1080     0.8330 C.ar  1 <1>  -0.1500 
  9 N       -7.9160    -0.3660    -0.5010 N.ar  1 <1>  -0.6200 
 10 C       -6.7480    -1.7620     1.0460 C.ar  1 <1>  -0.1500 
 11 C       -7.8990    -1.3730     0.3640 C.ar  1 <1>   0.4100 
 12 N       -9.0870    -2.0520     0.5840 N.pl3 1 <1>  -0.8380 
 13 C      -10.3700    -1.5210     0.0340 C.3   1 <1>   0.2090 
 14 C       -9.0970    -3.5360     0.4600 C.3   1 <1>   0.2090 
 15 C      -11.3390    -2.6950     0.1350 C.3   1 <1>   0.2000 
 16 C      -10.4440    -3.8950    -0.1790 C.3   1 <1>  -0.0800 
 17 O      -11.7720    -2.7760     1.4500 O.3   1 <1>  -0.6800 
 18 C      -10.9950    -5.2660     0.2560 C.3   1 <1>  -0.0170 
 19 C      -10.0080    -6.3750    -0.0760 C.ar  1 <1>  -0.1430 
 20 C       -9.8270    -6.8270    -1.3670 C.ar  1 <1>  -0.1500 
 21 C       -9.2390    -6.9840     0.8960 C.ar  1 <1>  -0.1500 
 22 C       -8.9050    -7.8290    -1.6190 C.ar  1 <1>   0.1600 
 23 C       -8.3450    -7.9790     0.5380 C.ar  1 <1>   0.1600 
 24 N       -8.1570    -8.4130    -0.6970 N.ar  1 <1>  -0.6200 
 25 H       -3.7450    -1.0020    -1.4810 H     1 <1>   0.3700 
 26 H       -1.6290     1.9280    -0.6600 H     1 <1>   0.0800 
 27 H       -0.2160     0.9180    -0.4810 H     1 <1>   0.0800 
 28 H       -1.4310     0.9310     0.7740 H     1 <1>   0.0800 
 29 H       -3.9010     1.1100     0.5450 H     1 <1>   0.0800 
 30 H       -4.5140     1.5330    -1.0390 H     1 <1>   0.0800 
 31 H       -6.7830     1.0660    -1.4040 H     1 <1>   0.1500 
 32 H       -4.6580    -1.3990     1.3470 H     1 <1>   0.1500 
 33 H       -6.8040    -2.5740     1.7440 H     1 <1>   0.1500 
 34 H      -10.7120    -0.6640     0.5890 H     1 <1>   0.0800 
 35 H      -10.2410    -1.2490    -1.0000 H     1 <1>   0.0800 
 36 H       -8.2780    -3.8840    -0.1470 H     1 <1>   0.0800 
 37 H       -9.0190    -3.9660     1.4440 H     1 <1>   0.0800 
 38 H      -12.1940    -2.6070    -0.5130 H     1 <1>   0.0800 
 39 H      -10.2910    -3.9160    -1.2430 H     1 <1>   0.0800 
 40 H      -11.0020    -2.5590     2.0190 H     1 <1>   0.4000 
 41 H      -11.9270    -5.4530    -0.2480 H     1 <1>   0.0800 
 42 H      -11.1950    -5.2710     1.3130 H     1 <1>   0.0800 
 43 H      -10.3920    -6.4090    -2.1800 H     1 <1>   0.1500 
 44 H       -9.3260    -6.6950     1.9280 H     1 <1>   0.1500 
 45 H       -8.7760    -8.1690    -2.6330 H     1 <1>   0.1500 
 46 H       -7.7540    -8.4430     1.3090 H     1 <1>   0.1500 
@<TRIPOS>BOND
  1   1   2  2   
  2   2   3  am  
  3   2   4  1   
  4   3   5  1   
  5   3  25  1   
  6   4  26  1   
  7   4  27  1   
  8   4  28  1   
  9   5   6  1   
 10   5  29  1   
 11   5  30  1   
 12   6   7  ar  
 13   6   8  ar  
 14   7   9  ar  
 15   7  31  1   
 16   8  10  ar  
 17   8  32  1   
 18   9  11  ar  
 19  10  11  ar  
 20  10  33  1   
 21  11  12  1   
 22  12  13  1   
 23  12  14  1   
 24  13  15  1   
 25  13  34  1   
 26  13  35  1   
 27  14  16  1   
 28  14  36  1   
 29  14  37  1   
 30  15  16  1   
 31  15  17  1   
 32  15  38  1   
 33  16  18  1   
 34  16  39  1   
 35  17  40  1   
 36  18  19  1   
 37  18  41  1   
 38  18  42  1   
 39  19  20  ar  
 40  19  21  ar  
 41  20  22  ar  
 42  20  43  1   
 43  21  23  ar  
 44  21  44  1   
 45  22  24  ar  
 46  22  45  1   
 47  23  24  ar  
 48  23  46  1   
@<TRIPOS>SUBSTRUCTURE
  1 ****  11 GROUP 4 **** **** 0

# MOE 2024.06 (io_trps.svl 2023.06)
