@<TRIPOS>MOLECULE
NONAME
49 51 1 0 0 
SMALL
USER_CHARGES


@<TRIPOS>ATOM
  1 CL      -1.9150    -0.2720    -1.6810 Cl    1 <1>  -0.1770 
  2 C       -2.1800     0.5330    -0.1470 C.ar  1 <1>   0.1770 
  3 C       -2.6690    -0.1980     0.9370 C.ar  1 <1>   0.0860 
  4 C       -1.8820     1.8870    -0.0530 C.ar  1 <1>  -0.1440 
  5 C       -3.0030    -1.6040     0.8460 C.2   1 <1>   0.5440 
  6 C       -2.8290     0.4810     2.1440 C.ar  1 <1>  -0.1500 
  7 C       -2.0670     2.5300     1.1600 C.ar  1 <1>  -0.1500 
  8 C       -1.3540     2.6670    -1.2490 C.3   1 <1>  -0.0960 
  9 O       -2.5480    -2.3900     1.6570 O.2   1 <1>  -0.5700 
 10 N       -3.8870    -2.1010    -0.0860 N.am  1 <1>  -0.6600 
 11 C       -2.5360     1.8270     2.2550 C.ar  1 <1>  -0.1500 
 12 C       -3.9720    -3.5610    -0.3350 C.3   1 <1>   0.1400 
 13 C       -5.0740    -1.3360    -0.5480 C.3   1 <1>   0.1400 
 14 C       -5.1780    -4.1220     0.4470 C.3   1 <1>   0.4230 
 15 C       -6.3020    -1.8710     0.2040 C.3   1 <1>  -0.1600 
 16 N       -5.2610    -5.6420     0.4490 N.4   1 <1>  -0.9590 
 17 C       -6.5100    -3.4090     0.0560 C.3   1 <1>   0.0000 
 18 C       -6.6070    -6.1810     0.8280 C.3   1 <1>   0.3430 
 19 C       -4.7670    -6.3170    -0.7960 C.3   1 <1>   0.2630 
 20 C       -7.6350    -3.8580     1.0360 C.3   1 <1>  -0.1600 
 21 C       -6.8940    -3.7590    -1.4110 C.3   1 <1>   0.1200 
 22 C       -7.3530    -5.2030     1.7350 C.3   1 <1>  -0.1600 
 23 O       -7.9700    -3.0080    -1.8530 O.3   1 <1>  -0.6800 
 24 H       -3.1850    -0.0600     3.0040 H     1 <1>   0.1500 
 25 H       -1.8430     3.5790     1.2620 H     1 <1>   0.1500 
 26 H       -1.1940     3.7000    -0.9990 H     1 <1>   0.0800 
 27 H       -2.0590     2.6210    -2.0610 H     1 <1>   0.0800 
 28 H       -0.4190     2.2490    -1.5780 H     1 <1>   0.0800 
 29 H       -2.6700     2.3310     3.1980 H     1 <1>   0.1500 
 30 H       -4.0690    -3.7250    -1.3920 H     1 <1>   0.0800 
 31 H       -3.0650    -4.0370    -0.0020 H     1 <1>   0.0800 
 32 H       -4.9540    -0.2850    -0.3440 H     1 <1>   0.0800 
 33 H       -5.1940    -1.4530    -1.6120 H     1 <1>   0.0800 
 34 H       -4.9950    -3.8320     1.4690 H     1 <1>   0.0800 
 35 H       -6.1700    -1.6190     1.2430 H     1 <1>   0.0800 
 36 H       -7.1730    -1.3340    -0.1310 H     1 <1>   0.0800 
 37 H       -4.6200    -5.9210     1.2080 H     1 <1>   0.4500 
 38 H       -7.1990    -6.3420    -0.0590 H     1 <1>   0.0800 
 39 H       -6.4940    -7.1300     1.3280 H     1 <1>   0.0800 
 40 H       -5.3650    -6.0290    -1.6450 H     1 <1>   0.0800 
 41 H       -4.8220    -7.3890    -0.6860 H     1 <1>   0.0800 
 42 H       -3.7400    -6.0510    -0.9890 H     1 <1>   0.0800 
 43 H       -7.7800    -3.1220     1.8090 H     1 <1>   0.0800 
 44 H       -8.5740    -3.9280     0.5150 H     1 <1>   0.0800 
 45 H       -7.1640    -4.7940    -1.5120 H     1 <1>   0.0800 
 46 H       -6.0850    -3.5510    -2.0880 H     1 <1>   0.0800 
 47 H       -8.2870    -5.6440     2.0390 H     1 <1>   0.0800 
 48 H       -6.7750    -5.0420     2.6290 H     1 <1>   0.0800 
 49 H       -8.7770    -3.1690    -1.3270 H     1 <1>   0.4000 
@<TRIPOS>BOND
  1   1   2  1   
  2   2   3  ar  
  3   2   4  ar  
  4   3   5  1   
  5   3   6  ar  
  6   4   7  ar  
  7   4   8  1   
  8   5   9  2   
  9   5  10  am  
 10   6  11  ar  
 11   6  24  1   
 12   7  11  ar  
 13   7  25  1   
 14   8  26  1   
 15   8  27  1   
 16   8  28  1   
 17  10  12  1   
 18  10  13  1   
 19  11  29  1   
 20  12  14  1   
 21  12  30  1   
 22  12  31  1   
 23  13  15  1   
 24  13  32  1   
 25  13  33  1   
 26  14  16  1   
 27  14  17  1   
 28  14  34  1   
 29  15  17  1   
 30  15  35  1   
 31  15  36  1   
 32  16  18  1   
 33  16  19  1   
 34  16  37  1   
 35  17  20  1   
 36  17  21  1   
 37  18  22  1   
 38  18  38  1   
 39  18  39  1   
 40  19  40  1   
 41  19  41  1   
 42  19  42  1   
 43  20  22  1   
 44  20  43  1   
 45  20  44  1   
 46  21  23  1   
 47  21  45  1   
 48  21  46  1   
 49  22  47  1   
 50  22  48  1   
 51  23  49  1   
@<TRIPOS>SUBSTRUCTURE
  1 ****  10 GROUP 4 **** **** 0

# MOE 2024.06 (io_trps.svl 2023.06)
