@<TRIPOS>MOLECULE
NONAME
49 51 1 0 0 
SMALL
USER_CHARGES


@<TRIPOS>ATOM
  1 O       -0.4260     0.2020    -1.1340 O.2   1 <1>  -0.5700 
  2 C       -1.4030     0.8110    -0.7690 C.2   1 <1>   0.5690 
  3 N       -2.5160     0.1690    -0.3100 N.am  1 <1>  -0.6600 
  4 C       -1.3860     2.3260    -0.8210 C.3   1 <1>  -0.0990 
  5 C       -3.7870     0.7980     0.1340 C.3   1 <1>   0.1400 
  6 C       -2.5860    -1.3060    -0.1720 C.3   1 <1>   0.1400 
  7 C       -0.0170     2.8790    -1.2350 C.3   1 <1>   0.0960 
  8 C       -4.7330    -0.3740     0.3980 C.3   1 <1>   0.2000 
  9 C       -3.8260    -1.5680     0.6820 C.3   1 <1>  -0.0800 
 10 N       -0.0350     4.3540    -1.1870 N.pl3 1 <1>   0.0480 
 11 O       -5.5580    -0.1270     1.4820 O.3   1 <1>  -0.6800 
 12 C       -4.4930    -2.9230     0.4010 C.3   1 <1>   0.0210 
 13 C        0.3040     5.1870    -0.1700 C.2   1 <1>   0.0060 
 14 C       -0.4580     5.1700    -2.1700 C.2   1 <1>  -0.3020 
 15 C       -3.5070    -4.0620     0.5770 C.2   1 <1>   0.1080 
 16 N        0.1210     6.4380    -0.4430 N.2   1 <1>  -0.5650 
 17 C        0.8440     4.7150     1.1710 C.3   1 <1>   0.0200 
 18 C       -0.3550     6.4310    -1.7000 C.2   1 <1>   0.0770 
 19 N       -2.8420    -4.2530     1.6740 N.2   1 <1>  -0.7070 
 20 C       -3.1960    -5.0040    -0.3970 C.2   1 <1>  -0.1500 
 21 C        2.3480     4.4370     1.0980 C.3   1 <1>  -0.2400 
 22 N       -2.0810    -5.3350     1.4260 N.pl3 1 <1>   0.3000 
 23 C       -2.2760    -5.8070     0.1770 C.2   1 <1>  -0.3320 
 24 C       -1.5610    -7.0150    -0.4000 C.3   1 <1>  -0.0600 
 25 H       -2.1280     2.6510    -1.5260 H     1 <1>   0.0800 
 26 H       -1.6380     2.7020     0.1530 H     1 <1>   0.0800 
 27 H       -3.6110     1.3550     1.0380 H     1 <1>   0.0800 
 28 H       -4.1820     1.4400    -0.6330 H     1 <1>   0.0800 
 29 H       -2.6880    -1.7440    -1.1500 H     1 <1>   0.0800 
 30 H       -1.6970    -1.6950     0.2980 H     1 <1>   0.0800 
 31 H        0.2230     2.5640    -2.2350 H     1 <1>   0.0800 
 32 H        0.7470     2.5110    -0.5740 H     1 <1>   0.0800 
 33 H       -5.3500    -0.5430    -0.4680 H     1 <1>   0.0800 
 34 H       -3.5070    -1.5420     1.7100 H     1 <1>   0.0800 
 35 H       -5.0470    -0.1700     2.3140 H     1 <1>   0.4000 
 36 H       -4.8840    -2.9430    -0.6000 H     1 <1>   0.0800 
 37 H       -5.3120    -3.0680     1.0830 H     1 <1>   0.0800 
 38 H       -0.8010     4.8220    -3.1260 H     1 <1>   0.1500 
 39 H        0.6660     5.4860     1.9010 H     1 <1>   0.0800 
 40 H        0.3180     3.8350     1.4930 H     1 <1>   0.0800 
 41 H       -0.6010     7.3480    -2.2080 H     1 <1>   0.1500 
 42 H       -3.6130    -5.0570    -1.3870 H     1 <1>   0.1500 
 43 H        2.8660     5.3300     0.7950 H     1 <1>   0.0800 
 44 H        2.5590     3.6610     0.3850 H     1 <1>   0.0800 
 45 H        2.7170     4.1340     2.0610 H     1 <1>   0.0800 
 46 H       -1.4390    -5.7240     2.1270 H     1 <1>   0.2700 
 47 H       -1.8880    -7.1910    -1.4090 H     1 <1>   0.0800 
 48 H       -1.7750    -7.8900     0.1870 H     1 <1>   0.0800 
 49 H       -0.4980    -6.8480    -0.4090 H     1 <1>   0.0800 
@<TRIPOS>BOND
  1   1   2  2   
  2   2   3  am  
  3   2   4  1   
  4   3   5  1   
  5   3   6  1   
  6   4   7  1   
  7   4  25  1   
  8   4  26  1   
  9   5   8  1   
 10   5  27  1   
 11   5  28  1   
 12   6   9  1   
 13   6  29  1   
 14   6  30  1   
 15   7  10  1   
 16   7  31  1   
 17   7  32  1   
 18   8   9  1   
 19   8  11  1   
 20   8  33  1   
 21   9  12  1   
 22   9  34  1   
 23  10  13  1   
 24  10  14  1   
 25  11  35  1   
 26  12  15  1   
 27  12  36  1   
 28  12  37  1   
 29  13  16  2   
 30  13  17  1   
 31  14  18  2   
 32  14  38  1   
 33  15  19  2   
 34  15  20  1   
 35  16  18  1   
 36  17  21  1   
 37  17  39  1   
 38  17  40  1   
 39  18  41  1   
 40  19  22  1   
 41  20  23  2   
 42  20  42  1   
 43  21  43  1   
 44  21  44  1   
 45  21  45  1   
 46  22  23  1   
 47  22  46  1   
 48  23  24  1   
 49  24  47  1   
 50  24  48  1   
 51  24  49  1   
@<TRIPOS>SUBSTRUCTURE
  1 ****   3 GROUP 4 **** **** 0

# MOE 2024.06 (io_trps.svl 2023.06)
