@<TRIPOS>MOLECULE
NONAME
44 47 1 0 0 
SMALL
USER_CHARGES


@<TRIPOS>ATOM
  1 S       -0.7600     0.4250    -1.9450 S.3   1 <1>  -0.0800 
  2 C       -1.1770     1.5060    -0.6250 C.2   1 <1>  -0.1400 
  3 C       -2.4350    -0.0930    -2.0920 C.2   1 <1>  -0.1100 
  4 C       -2.4900     1.4520    -0.3640 C.2   1 <1>  -0.1810 
  5 C       -0.1470     2.3700     0.0930 C.3   1 <1>   0.4600 
  6 C       -3.2150     0.5370    -1.1920 C.2   1 <1>  -0.1500 
  7 C       -3.0700     2.3190     0.7300 C.3   1 <1>   0.0210 
  8 O       -0.7730     2.9930     1.1980 O.3   1 <1>  -0.5600 
  9 C        0.9850     1.5120     0.6680 C.3   1 <1>  -0.1600 
 10 C        0.4250     3.4520    -0.8340 C.3   1 <1>  -0.1600 
 11 C       -2.0890     3.4680     1.0350 C.3   1 <1>   0.1200 
 12 C        2.0490     2.3690     1.3560 C.3   1 <1>   0.1400 
 13 C        1.4920     4.2910    -0.1310 C.3   1 <1>   0.1400 
 14 N        2.5590     3.3900     0.3970 N.am  1 <1>  -0.6600 
 15 C        3.9040     3.5130     0.1300 C.2   1 <1>   0.5690 
 16 O        4.7200     2.7790     0.6380 O.2   1 <1>  -0.5700 
 17 C        4.4390     4.5520    -0.8310 C.3   1 <1>   0.1570 
 18 N        4.3810     5.8840    -0.2190 N.pl3 1 <1>   0.3140 
 19 N        3.7030     6.8980    -0.7950 N.2   1 <1>  -0.7070 
 20 C        4.9720     6.2830     0.9250 C.2   1 <1>  -0.3020 
 21 C        3.8780     7.9080    -0.0030 C.2   1 <1>   0.1080 
 22 C        4.6660     7.5860     1.0950 C.2   1 <1>  -0.1500 
 23 C        3.2790     9.2670    -0.2800 C.3   1 <1>  -0.0590 
 24 H       -2.6600    -0.8260    -2.8460 H     1 <1>   0.1500 
 25 H       -4.2750     0.3960    -1.0740 H     1 <1>   0.1500 
 26 H       -3.2310     1.7300     1.6150 H     1 <1>   0.0800 
 27 H       -4.0130     2.7300     0.4170 H     1 <1>   0.0800 
 28 H        1.4560     0.9530    -0.1200 H     1 <1>   0.0800 
 29 H        0.5740     0.8070     1.3670 H     1 <1>   0.0800 
 30 H       -0.3640     4.0840    -1.1950 H     1 <1>   0.0800 
 31 H        0.8700     2.9810    -1.6910 H     1 <1>   0.0800 
 32 H       -2.3730     3.9650     1.9460 H     1 <1>   0.0800 
 33 H       -2.0950     4.1880     0.2360 H     1 <1>   0.0800 
 34 H        2.8480     1.7370     1.7050 H     1 <1>   0.0800 
 35 H        1.6240     2.8690     2.2100 H     1 <1>   0.0800 
 36 H        1.0520     4.8310     0.6920 H     1 <1>   0.0800 
 37 H        1.8840     5.0120    -0.8230 H     1 <1>   0.0800 
 38 H        3.8660     4.5500    -1.7360 H     1 <1>   0.0800 
 39 H        5.4620     4.3310    -1.0670 H     1 <1>   0.0800 
 40 H        5.5620     5.6280     1.5400 H     1 <1>   0.1500 
 41 H        4.9540     8.2480     1.8910 H     1 <1>   0.1500 
 42 H        3.6360     9.6290    -1.2260 H     1 <1>   0.0800 
 43 H        3.5540     9.9630     0.4910 H     1 <1>   0.0800 
 44 H        2.2090     9.1860    -0.3170 H     1 <1>   0.0800 
@<TRIPOS>BOND
  1   1   2  1   
  2   1   3  1   
  3   2   4  2   
  4   2   5  1   
  5   3   6  2   
  6   3  24  1   
  7   4   6  1   
  8   4   7  1   
  9   5   8  1   
 10   5   9  1   
 11   5  10  1   
 12   6  25  1   
 13   7  11  1   
 14   7  26  1   
 15   7  27  1   
 16   8  11  1   
 17   9  12  1   
 18   9  28  1   
 19   9  29  1   
 20  10  13  1   
 21  10  30  1   
 22  10  31  1   
 23  11  32  1   
 24  11  33  1   
 25  12  14  1   
 26  12  34  1   
 27  12  35  1   
 28  13  14  1   
 29  13  36  1   
 30  13  37  1   
 31  14  15  am  
 32  15  16  2   
 33  15  17  1   
 34  17  18  1   
 35  17  38  1   
 36  17  39  1   
 37  18  19  1   
 38  18  20  1   
 39  19  21  2   
 40  20  22  2   
 41  20  40  1   
 42  21  22  1   
 43  21  23  1   
 44  22  41  1   
 45  23  42  1   
 46  23  43  1   
 47  23  44  1   
@<TRIPOS>SUBSTRUCTURE
  1 ****  13 GROUP 4 **** **** 0

# MOE 2024.06 (io_trps.svl 2023.06)
