@<TRIPOS>MOLECULE
NONAME
42 43 1 0 0 
SMALL
USER_CHARGES


@<TRIPOS>ATOM
  1 F        0.1770    -1.4340    -0.3460 F     1 <1>  -0.3400 
  2 C       -0.7730    -1.2060     0.5510 C.3   1 <1>   0.8800 
  3 F       -0.2070    -0.4840     1.5070 F     1 <1>  -0.3400 
  4 O       -1.1700    -2.4350     1.1130 O.3   1 <1>  -0.3630 
  5 C       -1.9560    -3.3040     0.4330 C.ar  1 <1>   0.0820 
  6 C       -2.3790    -4.4240     1.1300 C.ar  1 <1>  -0.1500 
  7 C       -2.3480    -3.1380    -0.8930 C.ar  1 <1>  -0.1500 
  8 C       -3.1890    -5.3660     0.5230 C.ar  1 <1>  -0.1500 
  9 C       -3.1610    -4.0800    -1.4990 C.ar  1 <1>  -0.1500 
 10 C       -3.5910    -5.1960    -0.7940 C.ar  1 <1>  -0.1440 
 11 C       -4.4940    -6.2290    -1.4420 C.3   1 <1>   0.4870 
 12 N       -5.8340    -6.1290    -0.8160 N.4   1 <1>  -0.9590 
 13 C       -6.6760    -7.3280    -1.0840 C.3   1 <1>   0.5240 
 14 C       -6.5260    -4.8200    -1.0360 C.3   1 <1>   0.3430 
 15 C       -6.0140    -8.5200    -0.4000 C.2   1 <1>   0.0460 
 16 C       -7.3680    -4.3860     0.1800 C.3   1 <1>   0.1200 
 17 N       -5.3450    -8.3520     0.7640 N.2   1 <1>  -0.5650 
 18 C       -5.9630    -9.8100    -0.7980 C.2   1 <1>  -0.3020 
 19 O       -8.2510    -5.3940     0.5480 O.3   1 <1>  -0.6800 
 20 C       -4.9160    -9.5360     1.0520 C.2   1 <1>   0.0060 
 21 N       -5.2600   -10.4710     0.1400 N.pl3 1 <1>   0.0330 
 22 C       -4.1100    -9.8640     2.2920 C.3   1 <1>  -0.0600 
 23 H       -1.5860    -0.6580     0.1100 H     1 <1>   0.0800 
 24 H       -2.0650    -4.5550     2.1510 H     1 <1>   0.1500 
 25 H       -2.0240    -2.2950    -1.4750 H     1 <1>   0.1500 
 26 H       -3.4960    -6.2330     1.0880 H     1 <1>   0.1500 
 27 H       -3.4460    -3.9360    -2.5280 H     1 <1>   0.1500 
 28 H       -4.0770    -7.2090    -1.2730 H     1 <1>   0.0800 
 29 H       -4.5580    -6.0590    -2.5040 H     1 <1>   0.0800 
 30 H       -5.6570    -6.2380     0.1970 H     1 <1>   0.4500 
 31 H       -6.7750    -7.5050    -2.1410 H     1 <1>   0.0800 
 32 H       -7.6570    -7.1970    -0.6610 H     1 <1>   0.0800 
 33 H       -7.1580    -4.8780    -1.9060 H     1 <1>   0.0800 
 34 H       -5.7940    -4.0510    -1.2160 H     1 <1>   0.0800 
 35 H       -7.9400    -3.5060    -0.0590 H     1 <1>   0.0800 
 36 H       -6.7280    -4.1710     1.0200 H     1 <1>   0.0800 
 37 H       -6.3770   -10.2940    -1.6660 H     1 <1>   0.1500 
 38 H       -8.7880    -5.1300     1.3270 H     1 <1>   0.4000 
 39 H       -5.0340   -11.4720     0.1700 H     1 <1>   0.2700 
 40 H       -3.9810    -8.9810     2.8910 H     1 <1>   0.0800 
 41 H       -3.1400   -10.2370     2.0160 H     1 <1>   0.0800 
 42 H       -4.6200   -10.6040     2.8800 H     1 <1>   0.0800 
@<TRIPOS>BOND
  1   1   2  1   
  2   2   3  1   
  3   2   4  1   
  4   2  23  1   
  5   4   5  1   
  6   5   6  ar  
  7   5   7  ar  
  8   6   8  ar  
  9   6  24  1   
 10   7   9  ar  
 11   7  25  1   
 12   8  10  ar  
 13   8  26  1   
 14   9  10  ar  
 15   9  27  1   
 16  10  11  1   
 17  11  12  1   
 18  11  28  1   
 19  11  29  1   
 20  12  13  1   
 21  12  14  1   
 22  12  30  1   
 23  13  15  1   
 24  13  31  1   
 25  13  32  1   
 26  14  16  1   
 27  14  33  1   
 28  14  34  1   
 29  15  17  1   
 30  15  18  2   
 31  16  19  1   
 32  16  35  1   
 33  16  36  1   
 34  17  20  2   
 35  18  21  1   
 36  18  37  1   
 37  19  38  1   
 38  20  21  1   
 39  20  22  1   
 40  21  39  1   
 41  22  40  1   
 42  22  41  1   
 43  22  42  1   
@<TRIPOS>SUBSTRUCTURE
  1 ****   8 GROUP 4 **** **** 0

# MOE 2024.06 (io_trps.svl 2023.06)
