@<TRIPOS>MOLECULE
NONAME
42 43 1 0 0 
SMALL
USER_CHARGES


@<TRIPOS>ATOM
  1 S       -0.5490     0.3490     1.2030 S.o2  1 <1>   1.4470 
  2 O       -0.4760    -0.8030     2.0700 O.2   1 <1>  -0.6500 
  3 O       -1.1810     1.5550     1.6770 O.2   1 <1>  -0.6500 
  4 N       -1.4710    -0.0650    -0.1410 N.am  1 <1>  -0.9140 
  5 C        1.0810     0.7410     0.5070 C.ar  1 <1>  -0.0090 
  6 C       -1.5420    -1.4570    -0.5990 C.3   1 <1>   0.2760 
  7 C        2.2390     0.1560     1.0180 C.ar  1 <1>  -0.1500 
  8 C        1.2050     1.6370    -0.5530 C.ar  1 <1>  -0.1500 
  9 C       -2.3680    -2.3700     0.3120 C.3   1 <1>  -0.0800 
 10 C       -0.2080    -2.1940    -0.7720 C.3   1 <1>   0.1200 
 11 C        3.4860     0.4460     0.4860 C.ar  1 <1>  -0.1500 
 12 C        2.4420     1.9410    -1.0980 C.ar  1 <1>  -0.1500 
 13 C       -1.3910    -3.5070     0.6290 C.3   1 <1>   0.1200 
 14 C       -3.6220    -2.8880    -0.4200 C.3   1 <1>  -0.0550 
 15 O       -0.4890    -3.5100    -0.4290 O.3   1 <1>  -0.5600 
 16 C        3.5630     1.3360    -0.5660 C.ar  1 <1>   0.1900 
 17 S       -4.8150    -3.6730     0.6620 S.o2  1 <1>   1.3330 
 18 F        4.7320     1.6140    -1.0730 F     1 <1>  -0.1900 
 19 O       -4.2620    -4.8900     1.2110 O.2   1 <1>  -0.6500 
 20 O       -5.3250    -2.6500     1.5460 O.2   1 <1>  -0.6500 
 21 N       -6.0530    -4.1060    -0.4160 N.am  1 <1>  -0.8490 
 22 C       -7.3680    -4.1360     0.2340 C.3   1 <1>   0.1160 
 23 C       -5.8090    -5.3820    -1.0990 C.3   1 <1>   0.1160 
 24 H       -2.4080     0.2450     0.1140 H     1 <1>   0.4200 
 25 H       -2.0010    -1.4380    -1.5730 H     1 <1>   0.0800 
 26 H        2.1650    -0.5370     1.8410 H     1 <1>   0.1500 
 27 H        0.3200     2.1020    -0.9550 H     1 <1>   0.1500 
 28 H       -2.6640    -1.8790     1.2230 H     1 <1>   0.0800 
 29 H        0.5580    -1.8490    -0.1050 H     1 <1>   0.0800 
 30 H        0.1410    -2.1680    -1.7890 H     1 <1>   0.0800 
 31 H        4.3800    -0.0060     0.8780 H     1 <1>   0.1500 
 32 H        2.5390     2.6320    -1.9160 H     1 <1>   0.1500 
 33 H       -1.8520    -4.4770     0.6990 H     1 <1>   0.0800 
 34 H       -0.8420    -3.3060     1.5340 H     1 <1>   0.0800 
 35 H       -3.3240    -3.5740    -1.1890 H     1 <1>   0.0800 
 36 H       -4.1120    -2.0600    -0.8940 H     1 <1>   0.0800 
 37 H       -8.1310    -4.3980    -0.4790 H     1 <1>   0.0800 
 38 H       -7.6040    -3.1640     0.6350 H     1 <1>   0.0800 
 39 H       -7.3720    -4.8520     1.0390 H     1 <1>   0.0800 
 40 H       -6.5750    -5.5600    -1.8350 H     1 <1>   0.0800 
 41 H       -5.8080    -6.1950    -0.3910 H     1 <1>   0.0800 
 42 H       -4.8560    -5.3610    -1.5990 H     1 <1>   0.0800 
@<TRIPOS>BOND
  1   1   2  2   
  2   1   3  2   
  3   1   4  am  
  4   1   5  1   
  5   4   6  1   
  6   4  24  1   
  7   5   7  ar  
  8   5   8  ar  
  9   6   9  1   
 10   6  10  1   
 11   6  25  1   
 12   7  11  ar  
 13   7  26  1   
 14   8  12  ar  
 15   8  27  1   
 16   9  13  1   
 17   9  14  1   
 18   9  28  1   
 19  10  15  1   
 20  10  29  1   
 21  10  30  1   
 22  11  16  ar  
 23  11  31  1   
 24  12  16  ar  
 25  12  32  1   
 26  13  15  1   
 27  13  33  1   
 28  13  34  1   
 29  14  17  1   
 30  14  35  1   
 31  14  36  1   
 32  16  18  1   
 33  17  19  2   
 34  17  20  2   
 35  17  21  am  
 36  21  22  1   
 37  21  23  1   
 38  22  37  1   
 39  22  38  1   
 40  22  39  1   
 41  23  40  1   
 42  23  41  1   
 43  23  42  1   
@<TRIPOS>SUBSTRUCTURE
  1 ****   6 GROUP 4 **** **** 0

# MOE 2024.06 (io_trps.svl 2023.06)
