@<TRIPOS>MOLECULE
NONAME
43 45 1 0 0 
SMALL
USER_CHARGES


@<TRIPOS>ATOM
  1 O       -0.1440     0.5260     0.1500 O.2   1 <1>  -0.5700 
  2 C       -0.2360     1.7300    -0.0180 C.2   1 <1>   0.7160 
  3 N       -1.4470     2.3400     0.2430 N.am  1 <1>  -0.6600 
  4 C        0.9150     2.4720    -0.4950 C.2   1 <1>  -0.0860 
  5 C       -2.5120     1.6090     0.9920 C.3   1 <1>   0.1400 
  6 C       -1.8190     3.6620    -0.3360 C.3   1 <1>   0.1400 
  7 C        1.3100     3.7680    -0.2590 C.2   1 <1>  -0.3020 
  8 C        1.9160     1.9410    -1.3350 C.2   1 <1>  -0.1500 
  9 C       -3.4650     2.5990     1.6660 C.3   1 <1>  -0.1600 
 10 C       -3.3170     3.6970    -0.6340 C.3   1 <1>  -0.1600 
 11 N        2.4650     4.0390    -0.9070 N.pl3 1 <1>   0.0330 
 12 C        2.8340     2.9120    -1.5680 C.2   1 <1>  -0.3020 
 13 C       -4.1510     3.5570     0.6610 C.3   1 <1>   0.2800 
 14 O       -4.0960     4.8340     1.2640 O.3   1 <1>  -0.5600 
 15 C       -5.6240     3.1060     0.3860 C.3   1 <1>   0.2000 
 16 C       -5.2730     5.5630     1.4570 C.3   1 <1>   0.1200 
 17 O       -5.6670     1.8880    -0.3120 O.3   1 <1>  -0.6800 
 18 C       -6.5040     4.2130    -0.2810 C.3   1 <1>   0.2800 
 19 C       -6.0470     5.6190     0.1400 C.3   1 <1>  -0.1600 
 20 O       -7.7910     4.0590     0.1950 O.3   1 <1>  -0.6800 
 21 C       -6.6220     4.1190    -1.8100 C.3   1 <1>  -0.2400 
 22 H       -3.0560     0.9790     0.3080 H     1 <1>   0.0800 
 23 H       -2.0590     0.9780     1.7390 H     1 <1>   0.0800 
 24 H       -1.5710     4.4400     0.3670 H     1 <1>   0.0800 
 25 H       -1.2690     3.8300    -1.2460 H     1 <1>   0.0800 
 26 H        0.8140     4.4980     0.3560 H     1 <1>   0.1500 
 27 H        1.9140     0.9280    -1.7010 H     1 <1>   0.1500 
 28 H       -2.8940     3.1620     2.3840 H     1 <1>   0.0800 
 29 H       -4.2020     2.0390     2.2130 H     1 <1>   0.0800 
 30 H       -3.5290     2.8960    -1.3170 H     1 <1>   0.0800 
 31 H       -3.5570     4.6180    -1.1300 H     1 <1>   0.0800 
 32 H        2.9810     4.9260    -0.8950 H     1 <1>   0.2700 
 33 H        3.7290     2.8590    -2.1630 H     1 <1>   0.1500 
 34 H       -6.0600     2.8980     1.3470 H     1 <1>   0.0800 
 35 H       -5.8510     5.0950     2.2370 H     1 <1>   0.0800 
 36 H       -4.9940     6.5520     1.7770 H     1 <1>   0.0800 
 37 H       -5.5530     2.0440    -1.2670 H     1 <1>   0.4000 
 38 H       -5.3930     6.0420    -0.6010 H     1 <1>   0.0800 
 39 H       -6.8880     6.2820     0.2380 H     1 <1>   0.0800 
 40 H       -8.4060     4.6130    -0.3190 H     1 <1>   0.4000 
 41 H       -5.6510     4.1670    -2.2660 H     1 <1>   0.0800 
 42 H       -7.2060     4.9370    -2.1930 H     1 <1>   0.0800 
 43 H       -7.0910     3.1950    -2.1000 H     1 <1>   0.0800 
@<TRIPOS>BOND
  1   1   2  2   
  2   2   3  am  
  3   2   4  1   
  4   3   5  1   
  5   3   6  1   
  6   4   7  2   
  7   4   8  1   
  8   5   9  1   
  9   5  22  1   
 10   5  23  1   
 11   6  10  1   
 12   6  24  1   
 13   6  25  1   
 14   7  11  1   
 15   7  26  1   
 16   8  12  2   
 17   8  27  1   
 18   9  13  1   
 19   9  28  1   
 20   9  29  1   
 21  10  13  1   
 22  10  30  1   
 23  10  31  1   
 24  11  12  1   
 25  11  32  1   
 26  12  33  1   
 27  13  14  1   
 28  13  15  1   
 29  14  16  1   
 30  15  17  1   
 31  15  18  1   
 32  15  34  1   
 33  16  19  1   
 34  16  35  1   
 35  16  36  1   
 36  17  37  1   
 37  18  19  1   
 38  18  20  1   
 39  18  21  1   
 40  19  38  1   
 41  19  39  1   
 42  20  40  1   
 43  21  41  1   
 44  21  42  1   
 45  21  43  1   
@<TRIPOS>SUBSTRUCTURE
  1 ****   6 GROUP 4 **** **** 0

# MOE 2024.06 (io_trps.svl 2023.06)
