@<TRIPOS>MOLECULE
NONAME
49 51 1 0 0 
SMALL
USER_CHARGES


@<TRIPOS>ATOM
  1 O       -0.6280    -0.9290    -0.3450 O.3   1 <1>  -0.5600 
  2 C       -1.6820    -1.7530    -0.7100 C.3   1 <1>   0.1200 
  3 C        0.0230    -0.3140    -1.4130 C.3   1 <1>   0.0400 
  4 C       -2.2770    -2.3180     0.5850 C.3   1 <1>   0.3430 
  5 N       -3.4590    -3.2150     0.3450 N.4   1 <1>  -0.9590 
  6 C       -4.1220    -3.6140     1.6230 C.3   1 <1>   0.3430 
  7 C       -3.1140    -4.4660    -0.3790 C.3   1 <1>   0.3430 
  8 C       -4.5650    -5.0730     1.4480 C.3   1 <1>  -0.0800 
  9 C       -4.2400    -5.4160    -0.0100 C.3   1 <1>  -0.1600 
 10 C       -6.0370    -5.2950     1.8340 C.3   1 <1>   0.2090 
 11 N       -6.4010    -6.7340     1.6800 N.pl3 1 <1>  -0.8690 
 12 C       -7.2540    -7.2990     0.8030 C.ar  1 <1>   0.4610 
 13 N       -7.5150    -8.6070     0.8980 N.ar  1 <1>  -0.1790 
 14 C       -7.9080    -6.5900    -0.2370 C.ar  1 <1>  -0.1500 
 15 C       -8.3650    -9.2990     0.0540 C.ar  1 <1>   0.3610 
 16 C       -8.7590    -7.2010    -1.1080 C.ar  1 <1>  -0.1440 
 17 C       -9.0130    -8.6020    -0.9830 C.ar  1 <1>   0.0000 
 18 C       -8.5820   -10.6710     0.2210 C.ar  1 <1>  -0.1500 
 19 C       -9.4420    -6.3980    -2.2090 C.3   1 <1>  -0.0970 
 20 C       -9.8690    -9.3300    -1.8270 C.ar  1 <1>  -0.1500 
 21 C       -9.4250   -11.3550    -0.6210 C.ar  1 <1>  -0.1500 
 22 C      -10.0710   -10.6770    -1.6500 C.ar  1 <1>  -0.1500 
 23 H       -1.2940    -2.5370    -1.3370 H     1 <1>   0.0800 
 24 H       -2.4070    -1.1610    -1.2410 H     1 <1>   0.0800 
 25 H        0.8160     0.2960    -1.0150 H     1 <1>   0.0800 
 26 H       -0.6730     0.3080    -1.9490 H     1 <1>   0.0800 
 27 H        0.4400    -1.0650    -2.0620 H     1 <1>   0.0800 
 28 H       -2.5780    -1.4870     1.2010 H     1 <1>   0.0800 
 29 H       -1.5080    -2.8630     1.1080 H     1 <1>   0.0800 
 30 H       -4.1460    -2.6980    -0.2210 H     1 <1>   0.4500 
 31 H       -4.9630    -2.9700     1.8240 H     1 <1>   0.0800 
 32 H       -3.4270    -3.5460     2.4450 H     1 <1>   0.0800 
 33 H       -2.1760    -4.8560    -0.0140 H     1 <1>   0.0800 
 34 H       -3.0500    -4.3110    -1.4450 H     1 <1>   0.0800 
 35 H       -3.9480    -5.6680     2.1000 H     1 <1>   0.0800 
 36 H       -3.9400    -6.4430    -0.1290 H     1 <1>   0.0800 
 37 H       -5.0820    -5.2240    -0.6520 H     1 <1>   0.0800 
 38 H       -6.6750    -4.6670     1.2370 H     1 <1>   0.0800 
 39 H       -6.1870    -5.0130     2.8640 H     1 <1>   0.0800 
 40 H       -5.9460    -7.3000     2.4080 H     1 <1>   0.4000 
 41 H       -7.0750    -9.1370     1.6430 H     1 <1>   0.4570 
 42 H       -7.7210    -5.5400    -0.3340 H     1 <1>   0.1500 
 43 H       -8.0900   -11.2080     1.0130 H     1 <1>   0.1500 
 44 H       -9.1590    -5.3610    -2.1720 H     1 <1>   0.0800 
 45 H      -10.5110    -6.4530    -2.1010 H     1 <1>   0.0800 
 46 H       -9.1700    -6.7830    -3.1760 H     1 <1>   0.0800 
 47 H      -10.3840    -8.8340    -2.6320 H     1 <1>   0.1500 
 48 H       -9.5970   -12.4130    -0.4980 H     1 <1>   0.1500 
 49 H      -10.7310   -11.2210    -2.3060 H     1 <1>   0.1500 
@<TRIPOS>BOND
  1   1   2  1   
  2   1   3  1   
  3   2   4  1   
  4   2  23  1   
  5   2  24  1   
  6   3  25  1   
  7   3  26  1   
  8   3  27  1   
  9   4   5  1   
 10   4  28  1   
 11   4  29  1   
 12   5   6  1   
 13   5   7  1   
 14   5  30  1   
 15   6   8  1   
 16   6  31  1   
 17   6  32  1   
 18   7   9  1   
 19   7  33  1   
 20   7  34  1   
 21   8   9  1   
 22   8  10  1   
 23   8  35  1   
 24   9  36  1   
 25   9  37  1   
 26  10  11  1   
 27  10  38  1   
 28  10  39  1   
 29  11  12  1   
 30  11  40  1   
 31  12  13  ar  
 32  12  14  ar  
 33  13  15  ar  
 34  13  41  1   
 35  14  16  ar  
 36  14  42  1   
 37  15  17  ar  
 38  15  18  ar  
 39  16  17  ar  
 40  16  19  1   
 41  17  20  ar  
 42  18  21  ar  
 43  18  43  1   
 44  19  44  1   
 45  19  45  1   
 46  19  46  1   
 47  20  22  ar  
 48  20  47  1   
 49  21  22  ar  
 50  21  48  1   
 51  22  49  1   
@<TRIPOS>SUBSTRUCTURE
  1 ****  11 GROUP 4 **** **** 0

# MOE 2024.06 (io_trps.svl 2023.06)
