@<TRIPOS>MOLECULE
NONAME
50 52 1 0 0 
SMALL
USER_CHARGES


@<TRIPOS>ATOM
  1 CL       1.5840     0.3210    -1.2600 Cl    1 <1>  -0.1770 
  2 C        0.6920     1.5590    -0.4020 C.ar  1 <1>   0.1770 
  3 C        1.3250     2.4540     0.4570 C.ar  1 <1>  -0.1440 
  4 C       -0.6730     1.6090    -0.6210 C.ar  1 <1>  -0.1500 
  5 C        0.5430     3.4130     1.0890 C.ar  1 <1>  -0.1500 
  6 C        2.8270     2.4300     0.7370 C.3   1 <1>   0.3640 
  7 C       -1.4360     2.5680     0.0200 C.ar  1 <1>  -0.1500 
  8 C       -0.8240     3.4700     0.8730 C.ar  1 <1>  -0.1500 
  9 N        3.1720     1.1250     1.3530 N.am  1 <1>  -0.7300 
 10 C        3.6900     2.7690    -0.5130 C.3   1 <1>   0.2610 
 11 C        4.1900     0.3450     0.9300 C.2   1 <1>   0.5690 
 12 O        4.9990     2.2100    -0.4200 O.3   1 <1>  -0.5600 
 13 C        3.7670     4.2910    -0.6720 C.2   1 <1>   0.5690 
 14 O        4.4330    -0.7020     1.4740 O.2   1 <1>  -0.5700 
 15 C        5.0250     0.8080    -0.2650 C.3   1 <1>   0.1810 
 16 O        2.7560     4.9230    -0.8670 O.2   1 <1>  -0.5700 
 17 N        4.9740     4.9020    -0.5760 N.am  1 <1>  -0.7300 
 18 C        5.2370     6.3450    -0.6580 C.3   1 <1>   0.2350 
 19 C        6.3660     6.6610     0.3260 C.3   1 <1>  -0.1950 
 20 C        7.3740     7.7610     0.1200 C.3   1 <1>  -0.1900 
 21 C        7.8120     6.3210     0.0750 C.3   1 <1>  -0.1900 
 22 C        7.3650     8.6240    -1.1540 C.3   1 <1>  -0.1450 
 23 C        7.7100     8.6450     1.3320 C.3   1 <1>  -0.1450 
 24 C        8.6040     5.7050     1.2390 C.3   1 <1>  -0.1450 
 25 C        8.2480     5.6660    -1.2480 C.3   1 <1>  -0.1450 
 26 H       -1.1320     0.9030    -1.2890 H     1 <1>   0.1500 
 27 H        0.9920     4.1340     1.7520 H     1 <1>   0.1500 
 28 H        3.0410     3.1840     1.4750 H     1 <1>   0.0800 
 29 H       -2.4990     2.6150    -0.1450 H     1 <1>   0.1500 
 30 H       -1.4140     4.2220     1.3700 H     1 <1>   0.1500 
 31 H        2.5840     0.7880     2.1150 H     1 <1>   0.3700 
 32 H        3.2340     2.3750    -1.4000 H     1 <1>   0.0800 
 33 H        4.6500     0.3560    -1.1650 H     1 <1>   0.0800 
 34 H        6.0470     0.5110    -0.1230 H     1 <1>   0.0800 
 35 H        5.8020     4.3190    -0.4220 H     1 <1>   0.3700 
 36 H        5.5110     6.5890    -1.6670 H     1 <1>   0.0800 
 37 H        4.3520     6.9020    -0.4010 H     1 <1>   0.0800 
 38 H        6.0080     6.5400     1.3340 H     1 <1>   0.1000 
 39 H        6.6740     9.4410    -1.0400 H     1 <1>   0.0800 
 40 H        7.0780     8.0780    -2.0300 H     1 <1>   0.0800 
 41 H        8.3460     9.0290    -1.3220 H     1 <1>   0.0800 
 42 H        7.0640     9.5040     1.3540 H     1 <1>   0.0800 
 43 H        8.7290     8.9820     1.2680 H     1 <1>   0.0800 
 44 H        7.5810     8.1230     2.2610 H     1 <1>   0.0800 
 45 H        8.5410     4.6320     1.2050 H     1 <1>   0.0800 
 46 H        8.2280     6.0180     2.1940 H     1 <1>   0.0800 
 47 H        9.6390     5.9900     1.1690 H     1 <1>   0.0800 
 48 H        8.1740     4.5960    -1.1730 H     1 <1>   0.0800 
 49 H        9.2710     5.9230    -1.4580 H     1 <1>   0.0800 
 50 H        7.6470     5.9730    -2.0810 H     1 <1>   0.0800 
@<TRIPOS>BOND
  1   1   2  1   
  2   2   3  ar  
  3   2   4  ar  
  4   3   5  ar  
  5   3   6  1   
  6   4   7  ar  
  7   4  26  1   
  8   5   8  ar  
  9   5  27  1   
 10   6   9  1   
 11   6  10  1   
 12   6  28  1   
 13   7   8  ar  
 14   7  29  1   
 15   8  30  1   
 16   9  11  am  
 17   9  31  1   
 18  10  12  1   
 19  10  13  1   
 20  10  32  1   
 21  11  14  2   
 22  11  15  1   
 23  12  15  1   
 24  13  16  2   
 25  13  17  am  
 26  15  33  1   
 27  15  34  1   
 28  17  18  1   
 29  17  35  1   
 30  18  19  1   
 31  18  36  1   
 32  18  37  1   
 33  19  20  1   
 34  19  21  1   
 35  19  38  1   
 36  20  21  1   
 37  20  22  1   
 38  20  23  1   
 39  21  24  1   
 40  21  25  1   
 41  22  39  1   
 42  22  40  1   
 43  22  41  1   
 44  23  42  1   
 45  23  43  1   
 46  23  44  1   
 47  24  45  1   
 48  24  46  1   
 49  24  47  1   
 50  25  48  1   
 51  25  49  1   
 52  25  50  1   
@<TRIPOS>SUBSTRUCTURE
  1 ****  13 GROUP 4 **** **** 0

# MOE 2024.06 (io_trps.svl 2023.06)
