@<TRIPOS>MOLECULE
NONAME
37 39 1 0 0 
SMALL
USER_CHARGES


@<TRIPOS>ATOM
  1 S        0.7850    -0.6260     0.4280 S.3   1 <1>  -0.0800 
  2 C       -0.0330    -1.9060     1.3140 C.ar  1 <1>   0.2970 
  3 C       -0.5290    -0.5200    -0.7400 C.2   1 <1>  -0.1400 
  4 N        0.4820    -2.4280     2.4070 N.ar  1 <1>  -0.5670 
  5 C       -1.2290    -2.2350     0.7170 C.ar  1 <1>   0.0000 
  6 C       -1.5010    -1.4100    -0.4490 C.2   1 <1>  -0.1810 
  7 C       -0.3420     0.5230    -1.8250 C.3   1 <1>  -0.0600 
  8 C       -0.2950    -3.3540     2.9270 C.ar  1 <1>   0.4700 
  9 C       -1.9230    -3.2680     1.3700 C.ar  1 <1>   0.4100 
 10 C       -2.7910    -1.5470    -1.2440 C.3   1 <1>  -0.0590 
 11 N       -1.4620    -3.7970     2.4910 N.ar  1 <1>  -0.6200 
 12 N       -3.1000    -3.8060     0.8970 N.pl3 1 <1>  -0.8380 
 13 C       -3.0670    -4.6610    -0.3290 C.3   1 <1>   0.2090 
 14 C       -4.2450    -4.0470     1.8170 C.3   1 <1>   0.2090 
 15 C       -3.1950    -6.1440     0.0150 C.3   1 <1>  -0.1860 
 16 C       -4.3550    -5.5300     2.1710 C.3   1 <1>  -0.1600 
 17 C       -3.3050    -6.9650    -1.2510 C.2   1 <1>   0.9060 
 18 C       -4.4150    -6.3760     0.9040 C.3   1 <1>   0.2000 
 19 O       -3.2570    -6.4070    -2.3520 O.co2 1 <1>  -0.9000 
 20 O       -3.4730    -8.1860    -1.1400 O.co2 1 <1>  -0.9000 
 21 O       -4.4510    -7.7040     1.2700 O.3   1 <1>  -0.6800 
 22 H       -1.1490     0.4990    -2.5320 H     1 <1>   0.0800 
 23 H        0.5770     0.3370    -2.3510 H     1 <1>   0.0800 
 24 H       -0.2960     1.5020    -1.3830 H     1 <1>   0.0800 
 25 H        0.0660    -3.8150     3.8300 H     1 <1>   0.1500 
 26 H       -3.6300    -1.6270    -0.5770 H     1 <1>   0.0800 
 27 H       -2.7480    -2.4220    -1.8660 H     1 <1>   0.0800 
 28 H       -2.9520    -0.6950    -1.8750 H     1 <1>   0.0800 
 29 H       -3.8780    -4.3730    -0.9770 H     1 <1>   0.0800 
 30 H       -2.1440    -4.5040    -0.8640 H     1 <1>   0.0800 
 31 H       -4.1160    -3.4690     2.7160 H     1 <1>   0.0800 
 32 H       -5.1500    -3.7210     1.3350 H     1 <1>   0.0800 
 33 H       -2.3050    -6.4480     0.5320 H     1 <1>   0.0800 
 34 H       -5.2390    -5.6940     2.7570 H     1 <1>   0.0800 
 35 H       -3.4960    -5.8110     2.7530 H     1 <1>   0.0800 
 36 H       -5.3140    -6.1660     0.3490 H     1 <1>   0.0800 
 37 H       -4.1580    -8.2150     0.4590 H     1 <1>   0.4000 
@<TRIPOS>BOND
  1   1   2  1   
  2   1   3  1   
  3   2   4  ar  
  4   2   5  ar  
  5   3   6  2   
  6   3   7  1   
  7   4   8  ar  
  8   5   6  1   
  9   5   9  ar  
 10   6  10  1   
 11   7  22  1   
 12   7  23  1   
 13   7  24  1   
 14   8  11  ar  
 15   8  25  1   
 16   9  11  ar  
 17   9  12  1   
 18  10  26  1   
 19  10  27  1   
 20  10  28  1   
 21  12  13  1   
 22  12  14  1   
 23  13  15  1   
 24  13  29  1   
 25  13  30  1   
 26  14  16  1   
 27  14  31  1   
 28  14  32  1   
 29  15  17  1   
 30  15  18  1   
 31  15  33  1   
 32  16  18  1   
 33  16  34  1   
 34  16  35  1   
 35  17  19  ar  
 36  17  20  ar  
 37  18  21  1   
 38  18  36  1   
 39  21  37  1   
@<TRIPOS>SUBSTRUCTURE
  1 ****  12 GROUP 4 **** **** 0

# MOE 2024.06 (io_trps.svl 2023.06)
