@<TRIPOS>MOLECULE
NONAME
57 60 1 0 0 
SMALL
USER_CHARGES


@<TRIPOS>ATOM
  1 O        1.2520    -0.2310    -2.1530 O.2   1 <1>  -0.5700 
  2 C        1.9270    -0.8850    -1.3950 C.2   1 <1>   0.5690 
  3 N        1.7360    -0.9030    -0.0410 N.am  1 <1>  -0.6600 
  4 C        3.0520    -1.7330    -1.9530 C.3   1 <1>  -0.0990 
  5 C        2.6190    -1.7210     0.8270 C.3   1 <1>   0.1400 
  6 C        0.6950    -0.0850     0.6360 C.3   1 <1>   0.0600 
  7 C        3.0400    -3.1360    -1.3170 C.3   1 <1>  -0.0800 
  8 C        2.8090    -3.1220     0.2130 C.3   1 <1>  -0.0800 
  9 C        4.3370    -3.9170    -1.5630 C.3   1 <1>  -0.1600 
 10 C        3.9920    -3.8790     0.8320 C.3   1 <1>  -0.1600 
 11 C        4.5370    -4.7450    -0.2970 C.3   1 <1>   0.2200 
 12 N        5.9390    -5.2140    -0.0780 N.am  1 <1>  -0.6600 
 13 C        7.0790    -4.4790    -0.3570 C.2   1 <1>   0.5440 
 14 C        6.0530    -6.6940     0.0480 C.3   1 <1>   0.0600 
 15 O        7.9880    -5.0240    -0.9540 O.2   1 <1>  -0.5700 
 16 C        7.2400    -3.0980     0.0510 C.ar  1 <1>   0.0860 
 17 C        7.2280    -2.7370     1.3990 C.ar  1 <1>  -0.1500 
 18 C        7.4320    -2.0840    -0.8880 C.ar  1 <1>  -0.1500 
 19 C        7.3630    -1.4190     1.7920 C.ar  1 <1>  -0.1500 
 20 C        7.5650    -0.7630    -0.5050 C.ar  1 <1>  -0.1500 
 21 C        7.5310    -0.4230     0.8430 C.ar  1 <1>   0.0820 
 22 O        7.6450     0.8550     1.2730 O.3   1 <1>  -0.1650 
 23 C        8.3710     1.7800     0.5980 C.ar  1 <1>   0.0820 
 24 C        7.8310     3.0450     0.4230 C.ar  1 <1>  -0.1500 
 25 C        9.6360     1.4900     0.1010 C.ar  1 <1>  -0.1500 
 26 C        8.5400     4.0190    -0.2610 C.ar  1 <1>  -0.1440 
 27 C       10.3460     2.4610    -0.5810 C.ar  1 <1>  -0.1500 
 28 C        9.7980     3.7210    -0.7620 C.ar  1 <1>  -0.1500 
 29 C        7.9520     5.4040    -0.4580 C.3   1 <1>  -0.0970 
 30 H        2.9520    -1.8080    -3.0200 H     1 <1>   0.0800 
 31 H        3.9750    -1.2270    -1.7360 H     1 <1>   0.0800 
 32 H        3.5690    -1.2190     0.9090 H     1 <1>   0.0800 
 33 H        2.1960    -1.8110     1.8130 H     1 <1>   0.0800 
 34 H        1.1600     0.5970     1.3260 H     1 <1>   0.0800 
 35 H        0.0170    -0.7280     1.1700 H     1 <1>   0.0800 
 36 H        0.1340     0.4840    -0.0850 H     1 <1>   0.0800 
 37 H        2.2230    -3.6860    -1.7570 H     1 <1>   0.0800 
 38 H        1.9130    -3.6870     0.4110 H     1 <1>   0.0800 
 39 H        5.1460    -3.2290    -1.7020 H     1 <1>   0.0800 
 40 H        4.2590    -4.5470    -2.4310 H     1 <1>   0.0800 
 41 H        3.6860    -4.4760     1.6720 H     1 <1>   0.0800 
 42 H        4.7320    -3.1740     1.1480 H     1 <1>   0.0800 
 43 H        3.8920    -5.6050    -0.3810 H     1 <1>   0.0800 
 44 H        5.3950    -7.0500     0.8210 H     1 <1>   0.0800 
 45 H        7.0620    -6.9710     0.3030 H     1 <1>   0.0800 
 46 H        5.7940    -7.1590    -0.8880 H     1 <1>   0.0800 
 47 H        7.1080    -3.5090     2.1390 H     1 <1>   0.1500 
 48 H        7.4750    -2.3480    -1.9310 H     1 <1>   0.1500 
 49 H        7.3450    -1.1540     2.8340 H     1 <1>   0.1500 
 50 H        7.6920     0.0000    -1.2530 H     1 <1>   0.1500 
 51 H        6.8560     3.2550     0.8240 H     1 <1>   0.1500 
 52 H       10.0620     0.5140     0.2510 H     1 <1>   0.1500 
 53 H       11.3250     2.2400    -0.9690 H     1 <1>   0.1500 
 54 H       10.3580     4.4710    -1.2930 H     1 <1>   0.1500 
 55 H        8.1910     5.7740    -1.4390 H     1 <1>   0.0800 
 56 H        8.3550     6.0780     0.2760 H     1 <1>   0.0800 
 57 H        6.8810     5.3810    -0.3570 H     1 <1>   0.0800 
@<TRIPOS>BOND
  1   1   2  2   
  2   2   3  am  
  3   2   4  1   
  4   3   5  1   
  5   3   6  1   
  6   4   7  1   
  7   4  30  1   
  8   4  31  1   
  9   5   8  1   
 10   5  32  1   
 11   5  33  1   
 12   6  34  1   
 13   6  35  1   
 14   6  36  1   
 15   7   8  1   
 16   7   9  1   
 17   7  37  1   
 18   8  10  1   
 19   8  38  1   
 20   9  11  1   
 21   9  39  1   
 22   9  40  1   
 23  10  11  1   
 24  10  41  1   
 25  10  42  1   
 26  11  12  1   
 27  11  43  1   
 28  12  13  am  
 29  12  14  1   
 30  13  15  2   
 31  13  16  1   
 32  14  44  1   
 33  14  45  1   
 34  14  46  1   
 35  16  17  ar  
 36  16  18  ar  
 37  17  19  ar  
 38  17  47  1   
 39  18  20  ar  
 40  18  48  1   
 41  19  21  ar  
 42  19  49  1   
 43  20  21  ar  
 44  20  50  1   
 45  21  22  1   
 46  22  23  1   
 47  23  24  ar  
 48  23  25  ar  
 49  24  26  ar  
 50  24  51  1   
 51  25  27  ar  
 52  25  52  1   
 53  26  28  ar  
 54  26  29  1   
 55  27  28  ar  
 56  27  53  1   
 57  28  54  1   
 58  29  55  1   
 59  29  56  1   
 60  29  57  1   
@<TRIPOS>SUBSTRUCTURE
  1 ****  20 GROUP 4 **** **** 0

# MOE 2024.06 (io_trps.svl 2023.06)
