@<TRIPOS>MOLECULE
NONAME
47 49 1 0 0 
SMALL
USER_CHARGES


@<TRIPOS>ATOM
  1 O       -0.4880     0.7480    -0.5930 O.2   1 <1>  -0.5700 
  2 C        0.5520     0.1410    -0.7260 C.2   1 <1>   0.5690 
  3 N        1.7270     0.7400    -1.0930 N.am  1 <1>  -0.4940 
  4 C        0.6160    -1.3640    -0.3920 C.3   1 <1>   0.3410 
  5 C        2.1400     2.0880    -1.0720 C.2   1 <1>  -0.0880 
  6 O        1.6460    -1.9500    -1.1840 O.3   1 <1>  -0.2170 
  7 C        1.1430    -1.5610     1.0350 C.3   1 <1>  -0.0990 
  8 C       -0.6870    -2.1310    -0.6660 C.3   1 <1>  -0.2400 
  9 N        1.4400     3.1910    -1.4420 N.pl3 1 <1>   0.3140 
 10 C        3.3640     2.5140    -0.6570 C.2   1 <1>  -0.0540 
 11 N        2.7650    -2.1110    -0.5000 N.2   1 <1>  -0.5130 
 12 C        2.5650    -1.9110     0.7200 C.2   1 <1>   0.3280 
 13 N        2.1750     4.3140    -1.2870 N.2   1 <1>  -0.7070 
 14 C        0.0860     3.2700    -2.0040 C.3   1 <1>   0.0160 
 15 C        4.4510     1.7010    -0.1630 C.ar  1 <1>   0.0540 
 16 C        3.3070     3.9030    -0.8170 C.2   1 <1>   0.1080 
 17 C        3.5930    -1.9840     1.8240 C.3   1 <1>  -0.1790 
 18 C        4.9480     1.8140     1.1430 C.ar  1 <1>   0.0820 
 19 C        5.0210     0.7480    -1.0030 C.ar  1 <1>  -0.1500 
 20 C        4.4310     4.8610    -0.4910 C.3   1 <1>  -0.0590 
 21 O        4.3710     2.7370     1.9590 O.3   1 <1>  -0.3630 
 22 C        5.9880     0.9920     1.5690 C.ar  1 <1>  -0.1500 
 23 C        6.0470    -0.0720    -0.5740 C.ar  1 <1>  -0.1500 
 24 C        4.8260     2.9710     3.2720 C.3   1 <1>   0.0400 
 25 C        6.5340     0.0520     0.7140 C.ar  1 <1>  -0.1500 
 26 H        2.4990     0.0610    -1.1540 H     1 <1>   0.3700 
 27 H        0.6570    -2.3750     1.5390 H     1 <1>   0.0800 
 28 H        1.0660    -0.6620     1.6210 H     1 <1>   0.0800 
 29 H       -0.9860    -1.9870    -1.6890 H     1 <1>   0.0800 
 30 H       -1.4720    -1.7590    -0.0310 H     1 <1>   0.0800 
 31 H       -0.5540    -3.1810    -0.4780 H     1 <1>   0.0800 
 32 H       -0.0910     2.4150    -2.6280 H     1 <1>   0.0800 
 33 H       -0.0030     4.1680    -2.5850 H     1 <1>   0.0800 
 34 H       -0.6230     3.2870    -1.1990 H     1 <1>   0.0800 
 35 H        3.3020    -2.7190     2.5520 H     1 <1>   0.0800 
 36 H        3.6850    -1.0250     2.3000 H     1 <1>   0.0800 
 37 H        4.5470    -2.2580     1.4130 H     1 <1>   0.0800 
 38 H        4.6510     0.6510    -2.0090 H     1 <1>   0.1500 
 39 H        5.3810     4.3690    -0.5870 H     1 <1>   0.0800 
 40 H        4.3150     5.2130     0.5170 H     1 <1>   0.0800 
 41 H        4.3990     5.6990    -1.1620 H     1 <1>   0.0800 
 42 H        6.3870     1.0650     2.5630 H     1 <1>   0.1500 
 43 H        6.4660    -0.8050    -1.2420 H     1 <1>   0.1500 
 44 H        4.2270     3.7570     3.6960 H     1 <1>   0.0800 
 45 H        5.8570     3.2770     3.2360 H     1 <1>   0.0800 
 46 H        4.7080     2.0710     3.8490 H     1 <1>   0.0800 
 47 H        7.3370    -0.5830     1.0480 H     1 <1>   0.1500 
@<TRIPOS>BOND
  1   1   2  2   
  2   2   3  am  
  3   2   4  1   
  4   3   5  1   
  5   3  26  1   
  6   4   6  1   
  7   4   7  1   
  8   4   8  1   
  9   5   9  1   
 10   5  10  2   
 11   6  11  1   
 12   7  12  1   
 13   7  27  1   
 14   7  28  1   
 15   8  29  1   
 16   8  30  1   
 17   8  31  1   
 18   9  13  1   
 19   9  14  1   
 20  10  15  1   
 21  10  16  1   
 22  11  12  2   
 23  12  17  1   
 24  13  16  2   
 25  14  32  1   
 26  14  33  1   
 27  14  34  1   
 28  15  18  ar  
 29  15  19  ar  
 30  16  20  1   
 31  17  35  1   
 32  17  36  1   
 33  17  37  1   
 34  18  21  1   
 35  18  22  ar  
 36  19  23  ar  
 37  19  38  1   
 38  20  39  1   
 39  20  40  1   
 40  20  41  1   
 41  21  24  1   
 42  22  25  ar  
 43  22  42  1   
 44  23  25  ar  
 45  23  43  1   
 46  24  44  1   
 47  24  45  1   
 48  24  46  1   
 49  25  47  1   
@<TRIPOS>SUBSTRUCTURE
  1 ****   3 GROUP 4 **** **** 0

# MOE 2024.06 (io_trps.svl 2023.06)
