@<TRIPOS>MOLECULE
NONAME
42 45 1 0 0 
SMALL
USER_CHARGES


@<TRIPOS>ATOM
  1 O        1.2390     0.6510     1.1420 O.3   1 <1>  -0.6800 
  2 C        1.8390     0.2350    -0.0420 C.3   1 <1>   0.2000 
  3 C        2.6040    -1.0570     0.2420 C.3   1 <1>  -0.0800 
  4 C        2.9470     1.2270    -0.3990 C.3   1 <1>   0.3430 
  5 C        3.9260    -0.5720     0.8630 C.3   1 <1>   0.3430 
  6 C        2.8330    -1.8780    -1.0470 C.3   1 <1>  -0.0170 
  7 N        4.0950     0.8610     0.4780 N.4   1 <1>  -0.9590 
  8 C        3.4300    -3.2480    -0.7570 C.ar  1 <1>   0.1670 
  9 C        4.1560     1.7510     1.6580 C.3   1 <1>   0.5240 
 10 N        4.6840    -3.2650    -0.3330 N.ar  1 <1>  -0.6200 
 11 C        2.6660    -4.4010    -0.9420 C.ar  1 <1>   0.1600 
 12 C        4.7030     3.0840     1.2010 C.2   1 <1>  -0.1810 
 13 C        5.1210    -4.4970    -0.1190 C.ar  1 <1>   0.1600 
 14 N        3.0990    -5.6290    -0.7170 N.ar  1 <1>  -0.6200 
 15 C        5.6220     3.3190     0.2270 C.2   1 <1>  -0.0260 
 16 C        4.3780     4.3330     1.7030 C.2   1 <1>   0.1390 
 17 C        4.3540    -5.6400    -0.3040 C.ar  1 <1>   0.1600 
 18 N        6.2870     2.4450    -0.6130 N.2   1 <1>  -0.5760 
 19 N        5.8040     4.6850     0.2030 N.pl3 1 <1>   0.6010 
 20 N        5.0230     5.2990     1.1130 N.2   1 <1>  -0.7070 
 21 C        7.1330     2.9840    -1.4360 C.2   1 <1>   0.3760 
 22 C        6.7050     5.2320    -0.6850 C.2   1 <1>  -0.1810 
 23 C        7.3770     4.3860    -1.5090 C.2   1 <1>  -0.1360 
 24 H        0.4160     0.1470     1.3200 H     1 <1>   0.4000 
 25 H        1.0850     0.1560    -0.8080 H     1 <1>   0.0800 
 26 H        2.0690    -1.6760     0.9410 H     1 <1>   0.0800 
 27 H        2.6280     2.2470    -0.2540 H     1 <1>   0.0800 
 28 H        3.2300     1.0900    -1.4300 H     1 <1>   0.0800 
 29 H        4.7640    -1.1530     0.5160 H     1 <1>   0.0800 
 30 H        3.8690    -0.6610     1.9350 H     1 <1>   0.0800 
 31 H        3.4920    -1.3540    -1.7190 H     1 <1>   0.0800 
 32 H        1.8940    -2.0100    -1.5570 H     1 <1>   0.0800 
 33 H        4.9860     1.0380    -0.0290 H     1 <1>   0.4500 
 34 H        3.1750     1.8690     2.0910 H     1 <1>   0.0800 
 35 H        4.8180     1.3370     2.4000 H     1 <1>   0.0800 
 36 H        1.6530    -4.3090    -1.2900 H     1 <1>   0.1500 
 37 H        6.1370    -4.6110     0.2190 H     1 <1>   0.1500 
 38 H        3.6700     4.5190     2.4970 H     1 <1>   0.1500 
 39 H        4.7960    -6.6000    -0.1030 H     1 <1>   0.1500 
 40 H        7.6860     2.3510    -2.1080 H     1 <1>   0.0600 
 41 H        6.8130     6.3000    -0.6600 H     1 <1>   0.1500 
 42 H        8.0970     4.7360    -2.2260 H     1 <1>   0.1500 
@<TRIPOS>BOND
  1   1   2  1   
  2   1  24  1   
  3   2   3  1   
  4   2   4  1   
  5   2  25  1   
  6   3   5  1   
  7   3   6  1   
  8   3  26  1   
  9   4   7  1   
 10   4  27  1   
 11   4  28  1   
 12   5   7  1   
 13   5  29  1   
 14   5  30  1   
 15   6   8  1   
 16   6  31  1   
 17   6  32  1   
 18   7   9  1   
 19   7  33  1   
 20   8  10  ar  
 21   8  11  ar  
 22   9  12  1   
 23   9  34  1   
 24   9  35  1   
 25  10  13  ar  
 26  11  14  ar  
 27  11  36  1   
 28  12  15  2   
 29  12  16  1   
 30  13  17  ar  
 31  13  37  1   
 32  14  17  ar  
 33  15  18  1   
 34  15  19  1   
 35  16  20  2   
 36  16  38  1   
 37  17  39  1   
 38  18  21  2   
 39  19  20  1   
 40  19  22  1   
 41  21  23  1   
 42  21  40  1   
 43  22  23  2   
 44  22  41  1   
 45  23  42  1   
@<TRIPOS>SUBSTRUCTURE
  1 ****   7 GROUP 4 **** **** 0

# MOE 2024.06 (io_trps.svl 2023.06)
