@<TRIPOS>MOLECULE
NONAME
52 54 1 0 0 
SMALL
USER_CHARGES


@<TRIPOS>ATOM
  1 O       -1.3510     1.8530     1.8260 O.2   1 <1>  -0.5700 
  2 C       -0.7230     2.4090     0.9540 C.2   1 <1>   0.6900 
  3 N       -1.2710     3.1040    -0.0820 N.am  1 <1>  -0.4200 
  4 N        0.6210     2.3920     0.8810 N.am  1 <1>  -0.7300 
  5 C       -0.2820     3.5320    -0.9150 C.2   1 <1>   0.5690 
  6 C       -2.7110     3.0790    -0.4370 C.3   1 <1>   0.2010 
  7 C        1.0700     3.0480    -0.3540 C.3   1 <1>   0.3610 
  8 O       -0.4350     4.1900    -1.9170 O.2   1 <1>  -0.5700 
  9 C       -3.1540     1.6950    -0.9160 C.2   1 <1>   0.5690 
 10 C        1.7480     2.0070    -1.2460 C.3   1 <1>  -0.2400 
 11 C        2.0180     4.1910     0.0130 C.3   1 <1>  -0.2400 
 12 O       -2.7440     1.3320    -1.9950 O.2   1 <1>  -0.5700 
 13 N       -3.9950     0.8980    -0.1760 N.am  1 <1>  -0.6600 
 14 C       -4.4050    -0.4570    -0.6670 C.3   1 <1>   0.1400 
 15 C       -4.5470     1.2370     1.1670 C.3   1 <1>   0.1400 
 16 C       -5.8560    -0.4840    -1.1740 C.3   1 <1>   0.1400 
 17 C       -5.8650     2.0160     1.0530 C.3   1 <1>  -0.1600 
 18 N       -6.8240     0.0670    -0.1690 N.am  1 <1>  -0.6600 
 19 C       -6.8050     1.5510    -0.0670 C.3   1 <1>   0.1400 
 20 C       -7.6940    -0.6860     0.5870 C.2   1 <1>   0.5690 
 21 O       -8.4650    -0.1430     1.3500 O.2   1 <1>  -0.5700 
 22 C       -7.6830    -2.2350     0.5060 C.3   1 <1>   0.2610 
 23 O       -8.1530    -2.6870    -0.7360 O.3   1 <1>  -0.5600 
 24 C       -8.5940    -2.9590     1.5000 C.3   1 <1>  -0.1600 
 25 C       -9.5410    -2.7830    -0.7040 C.3   1 <1>   0.1200 
 26 C       -9.9100    -3.0880     0.7470 C.3   1 <1>  -0.1600 
 27 H        1.1840     1.7120     1.3890 H     1 <1>   0.3700 
 28 H       -2.8860     3.7770    -1.2350 H     1 <1>   0.0800 
 29 H       -3.2840     3.4000     0.4090 H     1 <1>   0.0800 
 30 H        1.0710     1.1980    -1.4590 H     1 <1>   0.0800 
 31 H        2.6330     1.6190    -0.7760 H     1 <1>   0.0800 
 32 H        2.0270     2.4610    -2.1810 H     1 <1>   0.0800 
 33 H        1.5290     4.8840     0.6740 H     1 <1>   0.0800 
 34 H        2.3070     4.7210    -0.8770 H     1 <1>   0.0800 
 35 H        2.9040     3.8110     0.4890 H     1 <1>   0.0800 
 36 H       -4.2920    -1.1730     0.1280 H     1 <1>   0.0800 
 37 H       -3.7570    -0.7730    -1.4660 H     1 <1>   0.0800 
 38 H       -3.8340     1.7990     1.7440 H     1 <1>   0.0800 
 39 H       -4.7300     0.3250     1.7100 H     1 <1>   0.0800 
 40 H       -6.1130    -1.4930    -1.4380 H     1 <1>   0.0800 
 41 H       -5.9160     0.0960    -2.0780 H     1 <1>   0.0800 
 42 H       -5.6540     3.0590     0.9100 H     1 <1>   0.0800 
 43 H       -6.3860     1.9330     1.9900 H     1 <1>   0.0800 
 44 H       -6.4800     1.9670    -1.0040 H     1 <1>   0.0800 
 45 H       -7.8010     1.9170     0.1210 H     1 <1>   0.0800 
 46 H       -6.6710    -2.5750     0.6220 H     1 <1>   0.0800 
 47 H       -8.6960    -2.4310     2.4320 H     1 <1>   0.0800 
 48 H       -8.1860    -3.9340     1.6970 H     1 <1>   0.0800 
 49 H       -9.8500    -3.5630    -1.3780 H     1 <1>   0.0800 
 50 H       -9.9510    -1.8380    -1.0170 H     1 <1>   0.0800 
 51 H      -10.6270    -2.3650     1.0960 H     1 <1>   0.0800 
 52 H      -10.3270    -4.0750     0.8440 H     1 <1>   0.0800 
@<TRIPOS>BOND
  1   1   2  2   
  2   2   3  am  
  3   2   4  am  
  4   3   5  am  
  5   3   6  1   
  6   4   7  1   
  7   4  27  1   
  8   5   7  1   
  9   5   8  2   
 10   6   9  1   
 11   6  28  1   
 12   6  29  1   
 13   7  10  1   
 14   7  11  1   
 15   9  12  2   
 16   9  13  am  
 17  10  30  1   
 18  10  31  1   
 19  10  32  1   
 20  11  33  1   
 21  11  34  1   
 22  11  35  1   
 23  13  14  1   
 24  13  15  1   
 25  14  16  1   
 26  14  36  1   
 27  14  37  1   
 28  15  17  1   
 29  15  38  1   
 30  15  39  1   
 31  16  18  1   
 32  16  40  1   
 33  16  41  1   
 34  17  19  1   
 35  17  42  1   
 36  17  43  1   
 37  18  19  1   
 38  18  20  am  
 39  19  44  1   
 40  19  45  1   
 41  20  21  2   
 42  20  22  1   
 43  22  23  1   
 44  22  24  1   
 45  22  46  1   
 46  23  25  1   
 47  24  26  1   
 48  24  47  1   
 49  24  48  1   
 50  25  26  1   
 51  25  49  1   
 52  25  50  1   
 53  26  51  1   
 54  26  52  1   
@<TRIPOS>SUBSTRUCTURE
  1 ****  13 GROUP 4 **** **** 0

# MOE 2024.06 (io_trps.svl 2023.06)
