@<TRIPOS>MOLECULE
NONAME
46 48 1 0 0 
SMALL
USER_CHARGES


@<TRIPOS>ATOM
  1 S        0.5130     0.5960     0.3100 S.o2  1 <1>   1.3330 
  2 O        1.9380     0.8100     0.1800 O.2   1 <1>  -0.6500 
  3 O       -0.0140    -0.0300     1.5010 O.2   1 <1>  -0.6500 
  4 N        0.0130    -0.3140    -1.0330 N.am  1 <1>  -0.8490 
  5 C       -0.3520     2.1460     0.0680 C.3   1 <1>  -0.0550 
  6 C        0.7590    -0.0040    -2.2590 C.3   1 <1>   0.1160 
  7 C        0.0620    -1.7560    -0.7730 C.3   1 <1>   0.1160 
  8 C       -0.3200     3.1070     1.2780 C.3   1 <1>  -0.0800 
  9 C       -0.9580     4.4380     0.8970 C.3   1 <1>   0.2000 
 10 C        1.0960     3.5370     1.6810 C.3   1 <1>   0.1100 
 11 O       -1.2690     5.1220     2.0580 O.3   1 <1>  -0.6800 
 12 C        0.1880     5.1710     0.2010 C.3   1 <1>   0.1100 
 13 N        1.4350     4.7040     0.8520 N.3   1 <1>  -0.8100 
 14 C        2.5000     4.3820    -0.1250 C.3   1 <1>   0.2900 
 15 C        2.7900     5.5440    -1.0640 C.2   1 <1>   0.0060 
 16 N        2.4060     5.5770    -2.3050 N.2   1 <1>  -0.5650 
 17 N        3.4870     6.6410    -0.6750 N.pl3 1 <1>   0.2940 
 18 C        2.8780     6.7550    -2.7510 C.2   1 <1>   0.0770 
 19 C        3.5400     7.4130    -1.7760 C.2   1 <1>  -0.3020 
 20 C        4.1240     6.9330     0.6320 C.3   1 <1>  -0.0910 
 21 C        3.2670     7.2680     1.8170 C.3   1 <1>  -0.2000 
 22 C        4.1060     8.3300     1.1810 C.3   1 <1>  -0.2000 
 23 H        0.0550     2.6330    -0.7950 H     1 <1>   0.0800 
 24 H       -1.3800     1.9240    -0.1470 H     1 <1>   0.0800 
 25 H        0.3410    -0.5430    -3.0920 H     1 <1>   0.0800 
 26 H        1.7960    -0.2780    -2.1500 H     1 <1>   0.0800 
 27 H        0.7010     1.0490    -2.4740 H     1 <1>   0.0800 
 28 H       -0.2770    -2.3030    -1.6350 H     1 <1>   0.0800 
 29 H       -0.5810    -2.0030     0.0560 H     1 <1>   0.0800 
 30 H        1.0680    -2.0600    -0.5320 H     1 <1>   0.0800 
 31 H       -0.8340     2.6450     2.1040 H     1 <1>   0.0800 
 32 H       -1.8480     4.3520     0.2980 H     1 <1>   0.0800 
 33 H        1.8280     2.7530     1.6070 H     1 <1>   0.0800 
 34 H        1.0790     3.8560     2.7100 H     1 <1>   0.0800 
 35 H       -0.4260     5.4020     2.4710 H     1 <1>   0.4000 
 36 H        0.0860     6.2400     0.2770 H     1 <1>   0.0800 
 37 H        0.1860     4.9040    -0.8420 H     1 <1>   0.0800 
 38 H        3.4000     4.1200     0.4040 H     1 <1>   0.0800 
 39 H        2.2080     3.5300    -0.7150 H     1 <1>   0.0800 
 40 H        2.7160     7.0720    -3.7690 H     1 <1>   0.1500 
 41 H        4.0370     8.3640    -1.7990 H     1 <1>   0.1500 
 42 H        5.0020     6.3320     0.7900 H     1 <1>   0.1000 
 43 H        2.1990     7.2960     1.6870 H     1 <1>   0.1000 
 44 H        3.5540     6.8960     2.7850 H     1 <1>   0.1000 
 45 H        4.9610     8.6900     1.7260 H     1 <1>   0.1000 
 46 H        3.6040     9.1120     0.6360 H     1 <1>   0.1000 
@<TRIPOS>BOND
  1   1   2  2   
  2   1   3  2   
  3   1   4  am  
  4   1   5  1   
  5   4   6  1   
  6   4   7  1   
  7   5   8  1   
  8   5  23  1   
  9   5  24  1   
 10   6  25  1   
 11   6  26  1   
 12   6  27  1   
 13   7  28  1   
 14   7  29  1   
 15   7  30  1   
 16   8   9  1   
 17   8  10  1   
 18   8  31  1   
 19   9  11  1   
 20   9  12  1   
 21   9  32  1   
 22  10  13  1   
 23  10  33  1   
 24  10  34  1   
 25  11  35  1   
 26  12  13  1   
 27  12  36  1   
 28  12  37  1   
 29  13  14  1   
 30  14  15  1   
 31  14  38  1   
 32  14  39  1   
 33  15  16  2   
 34  15  17  1   
 35  16  18  1   
 36  17  19  1   
 37  17  20  1   
 38  18  19  2   
 39  18  40  1   
 40  19  41  1   
 41  20  21  1   
 42  20  22  1   
 43  20  42  1   
 44  21  22  1   
 45  21  43  1   
 46  21  44  1   
 47  22  45  1   
 48  22  46  1   
@<TRIPOS>SUBSTRUCTURE
  1 ****  14 GROUP 4 **** **** 0

# MOE 2024.06 (io_trps.svl 2023.06)
