@<TRIPOS>MOLECULE
NONAME
50 52 1 0 0 
SMALL
USER_CHARGES


@<TRIPOS>ATOM
  1 O        0.0670     1.1060     0.0030 O.2   1 <1>  -0.5700 
  2 C       -0.1140     2.3010    -0.0070 C.2   1 <1>   0.5690 
  3 N       -1.1280     2.8980     0.6910 N.am  1 <1>  -0.6600 
  4 C        0.8170     3.1660    -0.8560 C.3   1 <1>   0.1810 
  5 C       -1.3680     4.3780     0.6120 C.3   1 <1>   0.3640 
  6 C       -2.0370     2.1330     1.5930 C.3   1 <1>   0.0600 
  7 O        0.8900     4.4900    -0.3900 O.3   1 <1>  -0.5600 
  8 C       -2.8280     4.6720     0.2220 C.ar  1 <1>  -0.1440 
  9 C       -0.3670     5.1500    -0.2910 C.3   1 <1>   0.2610 
 10 C       -3.4830     4.1360    -0.8920 C.ar  1 <1>  -0.1440 
 11 C       -3.5300     5.5370     1.0550 C.ar  1 <1>  -0.1500 
 12 C       -0.1640     6.5680     0.2600 C.2   1 <1>   0.5690 
 13 C       -4.8080     4.4720    -1.1320 C.ar  1 <1>  -0.1500 
 14 C       -2.8280     3.1770    -1.8800 C.3   1 <1>  -0.0960 
 15 C       -4.8480     5.8660     0.8050 C.ar  1 <1>  -0.1500 
 16 O       -1.0800     7.3550     0.2510 O.2   1 <1>  -0.5700 
 17 N        1.0560     6.9150     0.7540 N.am  1 <1>  -0.7300 
 18 C       -5.4910     5.3300    -0.2920 C.ar  1 <1>  -0.1500 
 19 C        1.4340     8.2350     1.2930 C.3   1 <1>   0.1400 
 20 C        2.4480     8.8810     0.3520 C.3   1 <1>  -0.1600 
 21 C        2.8150    10.2910     0.8310 C.3   1 <1>   0.0960 
 22 N        3.8500    10.8820    -0.0370 N.pl3 1 <1>   0.3140 
 23 N        5.1610    10.6910     0.1930 N.2   1 <1>  -0.7070 
 24 C        3.6510    11.6490    -1.1280 C.2   1 <1>  -0.3020 
 25 C        5.7640    11.3400    -0.7550 C.2   1 <1>   0.1390 
 26 C        4.8700    11.9630    -1.6170 C.2   1 <1>  -0.1500 
 27 H        0.4790     3.1750    -1.8760 H     1 <1>   0.0800 
 28 H        1.8080     2.7530    -0.8230 H     1 <1>   0.0800 
 29 H       -1.2170     4.7500     1.6100 H     1 <1>   0.0800 
 30 H       -2.0440     2.5790     2.5710 H     1 <1>   0.0800 
 31 H       -1.7100     1.1110     1.6840 H     1 <1>   0.0800 
 32 H       -3.0380     2.1380     1.1960 H     1 <1>   0.0800 
 33 H       -0.7670     5.2430    -1.2830 H     1 <1>   0.0800 
 34 H       -3.0510     5.9770     1.9130 H     1 <1>   0.1500 
 35 H       -5.3260     4.0640    -1.9820 H     1 <1>   0.1500 
 36 H       -3.4390     3.0500    -2.7560 H     1 <1>   0.0800 
 37 H       -2.6990     2.2110    -1.4260 H     1 <1>   0.0800 
 38 H       -1.8760     3.5470    -2.2030 H     1 <1>   0.0800 
 39 H       -5.3700     6.5400     1.4600 H     1 <1>   0.1500 
 40 H        1.8020     6.2150     0.6660 H     1 <1>   0.3700 
 41 H       -6.5170     5.5820    -0.4930 H     1 <1>   0.1500 
 42 H        0.5580     8.8570     1.3760 H     1 <1>   0.0800 
 43 H        1.8580     8.1090     2.2750 H     1 <1>   0.0800 
 44 H        2.0260     8.9430    -0.6350 H     1 <1>   0.0800 
 45 H        3.3390     8.2770     0.3200 H     1 <1>   0.0800 
 46 H        3.2070    10.2530     1.8320 H     1 <1>   0.0800 
 47 H        1.9520    10.9300     0.8210 H     1 <1>   0.0800 
 48 H        2.6770    11.9210    -1.4890 H     1 <1>   0.1500 
 49 H        6.8360    11.3850    -0.8530 H     1 <1>   0.1500 
 50 H        5.1240    12.5570    -2.4760 H     1 <1>   0.1500 
@<TRIPOS>BOND
  1   1   2  2   
  2   2   3  am  
  3   2   4  1   
  4   3   5  1   
  5   3   6  1   
  6   4   7  1   
  7   4  27  1   
  8   4  28  1   
  9   5   8  1   
 10   5   9  1   
 11   5  29  1   
 12   6  30  1   
 13   6  31  1   
 14   6  32  1   
 15   7   9  1   
 16   8  10  ar  
 17   8  11  ar  
 18   9  12  1   
 19   9  33  1   
 20  10  13  ar  
 21  10  14  1   
 22  11  15  ar  
 23  11  34  1   
 24  12  16  2   
 25  12  17  am  
 26  13  18  ar  
 27  13  35  1   
 28  14  36  1   
 29  14  37  1   
 30  14  38  1   
 31  15  18  ar  
 32  15  39  1   
 33  17  19  1   
 34  17  40  1   
 35  18  41  1   
 36  19  20  1   
 37  19  42  1   
 38  19  43  1   
 39  20  21  1   
 40  20  44  1   
 41  20  45  1   
 42  21  22  1   
 43  21  46  1   
 44  21  47  1   
 45  22  23  1   
 46  22  24  1   
 47  23  25  2   
 48  24  26  2   
 49  24  48  1   
 50  25  26  1   
 51  25  49  1   
 52  26  50  1   
@<TRIPOS>SUBSTRUCTURE
  1 ****  12 GROUP 4 **** **** 0

# MOE 2024.06 (io_trps.svl 2023.06)
