@<TRIPOS>MOLECULE
NONAME
44 46 1 0 0 
SMALL
USER_CHARGES


@<TRIPOS>ATOM
  1 O        2.7980    -1.0340    -0.4950 O.2   1 <1>  -0.5700 
  2 C        1.9020    -0.8900     0.3190 C.2   1 <1>   0.7150 
  3 N        1.6660     0.3730     0.7630 N.am  1 <1>  -0.7300 
  4 C        1.1270    -1.9810     0.8430 C.2   1 <1>  -0.2370 
  5 C        2.4030     1.5810     0.3100 C.3   1 <1>   0.2200 
  6 N        1.1340    -3.2640     0.3460 N.pl3 1 <1>   0.0480 
  7 C        0.2590    -1.9610     1.9080 C.2   1 <1>  -0.1500 
  8 C        3.8660     1.5140     0.7890 C.3   1 <1>   0.4230 
  9 C        1.8670     2.8360     0.9880 C.3   1 <1>   0.1200 
 10 C        0.2870    -4.0100     1.0950 C.2   1 <1>  -0.3020 
 11 C        1.8930    -3.7920    -0.8050 C.3   1 <1>   0.0160 
 12 C       -0.2670    -3.2380     2.0650 C.2   1 <1>  -0.1500 
 13 N        4.8830     1.8660    -0.2760 N.4   1 <1>  -0.9590 
 14 C        3.8820     2.4760     1.9940 C.3   1 <1>   0.1200 
 15 O        2.5840     2.9500     2.1700 O.3   1 <1>  -0.5600 
 16 C        4.8080     0.8950    -1.4180 C.3   1 <1>   0.3430 
 17 C        6.2740     1.8920     0.2730 C.3   1 <1>   0.3430 
 18 C        5.7430     1.3410    -2.5430 C.3   1 <1>  -0.1600 
 19 C        7.2480     2.3710    -0.8060 C.3   1 <1>  -0.1600 
 20 C        7.1890     1.4830    -2.0550 C.3   1 <1>  -0.1600 
 21 H        0.9490     0.5010     1.4810 H     1 <1>   0.3700 
 22 H        2.3080     1.6640    -0.7580 H     1 <1>   0.0800 
 23 H        0.0030    -1.1300     2.5410 H     1 <1>   0.1500 
 24 H        4.0680     0.5150     1.1380 H     1 <1>   0.0800 
 25 H        0.8140     2.7820     1.2060 H     1 <1>   0.0800 
 26 H        2.0700     3.7120     0.3960 H     1 <1>   0.0800 
 27 H        0.1140    -5.0550     0.9080 H     1 <1>   0.1500 
 28 H        1.6250    -4.8180    -0.9780 H     1 <1>   0.0800 
 29 H        2.9450    -3.7280    -0.5950 H     1 <1>   0.0800 
 30 H        1.6640    -3.2110    -1.6790 H     1 <1>   0.0800 
 31 H       -0.9770    -3.5380     2.8180 H     1 <1>   0.1500 
 32 H        4.6750     2.8000    -0.6470 H     1 <1>   0.4500 
 33 H        4.5160     3.3280     1.8300 H     1 <1>   0.0800 
 34 H        4.1710     1.9670     2.8970 H     1 <1>   0.0800 
 35 H        5.0910    -0.0890    -1.0790 H     1 <1>   0.0800 
 36 H        3.8020     0.8310    -1.7990 H     1 <1>   0.0800 
 37 H        6.3350     2.5570     1.1190 H     1 <1>   0.0800 
 38 H        6.5570     0.9030     0.5970 H     1 <1>   0.0800 
 39 H        5.7060     0.6140    -3.3360 H     1 <1>   0.0800 
 40 H        5.3960     2.2750    -2.9490 H     1 <1>   0.0800 
 41 H        7.0240     3.3900    -1.0670 H     1 <1>   0.0800 
 42 H        8.2490     2.3540    -0.4080 H     1 <1>   0.0800 
 43 H        7.8010     1.9050    -2.8360 H     1 <1>   0.0800 
 44 H        7.5850     0.5080    -1.8210 H     1 <1>   0.0800 
@<TRIPOS>BOND
  1   1   2  2   
  2   2   3  am  
  3   2   4  1   
  4   3   5  1   
  5   3  21  1   
  6   4   6  1   
  7   4   7  2   
  8   5   8  1   
  9   5   9  1   
 10   5  22  1   
 11   6  10  1   
 12   6  11  1   
 13   7  12  1   
 14   7  23  1   
 15   8  13  1   
 16   8  14  1   
 17   8  24  1   
 18   9  15  1   
 19   9  25  1   
 20   9  26  1   
 21  10  12  2   
 22  10  27  1   
 23  11  28  1   
 24  11  29  1   
 25  11  30  1   
 26  12  31  1   
 27  13  16  1   
 28  13  17  1   
 29  13  32  1   
 30  14  15  1   
 31  14  33  1   
 32  14  34  1   
 33  16  18  1   
 34  16  35  1   
 35  16  36  1   
 36  17  19  1   
 37  17  37  1   
 38  17  38  1   
 39  18  20  1   
 40  18  39  1   
 41  18  40  1   
 42  19  20  1   
 43  19  41  1   
 44  19  42  1   
 45  20  43  1   
 46  20  44  1   
@<TRIPOS>SUBSTRUCTURE
  1 ****   1 GROUP 4 **** **** 0

# MOE 2024.06 (io_trps.svl 2023.06)
