@<TRIPOS>MOLECULE
NONAME
42 44 1 0 0 
SMALL
USER_CHARGES


@<TRIPOS>ATOM
  1 O        1.3380    -0.5630    -1.2910 O.2   1 <1>  -0.5760 
  2 C        2.4190    -0.1880    -0.8990 C.2   1 <1>   0.6850 
  3 N        2.6350     1.1050    -0.4440 N.am  1 <1>  -0.4430 
  4 N        3.4550    -1.0770    -0.9060 N.am  1 <1>  -0.4960 
  5 C        3.9130     1.4290    -0.0110 C.2   1 <1>   0.4190 
  6 C        1.5350     2.1120    -0.4260 C.3   1 <1>   0.0500 
  7 C        4.7170    -0.7770    -0.4810 C.2   1 <1>   0.6980 
  8 N        4.3540     2.6250     0.4660 N.pl3 1 <1>  -0.7050 
  9 C        4.9480     0.5560    -0.0070 C.2   1 <1>   0.2690 
 10 O        5.5730    -1.6390    -0.5180 O.2   1 <1>  -0.5760 
 11 C        5.6460     2.4970     0.7580 C.cat 1 <1>   1.0680 
 12 N        6.0580     1.2570     0.4970 N.pl3 1 <1>  -0.7680 
 13 N        6.4170     3.4620     1.2350 N.pl3 1 <1>  -0.7190 
 14 C        7.4400     0.6940     0.4720 C.3   1 <1>   0.2660 
 15 C        6.4460     4.8350     0.6900 C.3   1 <1>   0.3400 
 16 C        7.4510     4.8470    -0.4530 C.2   1 <1>  -0.0040 
 17 N        8.0000     3.7780    -0.9280 N.2   1 <1>  -0.3460 
 18 N        7.8830     5.9430    -1.0890 N.pl3 1 <1>   0.0380 
 19 N        8.8180     4.1560    -1.9030 N.2   1 <1>  -0.3460 
 20 C        8.7360     5.4390    -1.9830 C.2   1 <1>   0.0270 
 21 C        7.5410     7.3690    -0.8910 C.3   1 <1>   0.0860 
 22 C        8.3930     7.9780     0.2290 C.3   1 <1>  -0.1690 
 23 C        8.0220     9.4460     0.4640 C.3   1 <1>  -0.2480 
 24 H        3.2660    -2.0160    -1.2490 H     1 <1>   0.3630 
 25 H        0.6340     1.7050    -0.8540 H     1 <1>   0.0700 
 26 H        1.8190     2.9760    -1.0010 H     1 <1>   0.0700 
 27 H        1.3260     2.4060     0.5870 H     1 <1>   0.0700 
 28 H        3.7980     3.4610     0.6130 H     1 <1>   0.4430 
 29 H        7.3760     3.1610     1.4080 H     1 <1>   0.4430 
 30 H        7.4750    -0.2180     1.0450 H     1 <1>   0.0700 
 31 H        8.1520     1.3900     0.8790 H     1 <1>   0.0700 
 32 H        7.7230     0.4730    -0.5440 H     1 <1>   0.0700 
 33 H        6.7560     5.5200     1.4610 H     1 <1>   0.0700 
 34 H        5.4760     5.1290     0.3300 H     1 <1>   0.0700 
 35 H        9.2850     6.0470    -2.6810 H     1 <1>   0.1410 
 36 H        6.4960     7.4510    -0.6500 H     1 <1>   0.0700 
 37 H        7.7170     7.8980    -1.8110 H     1 <1>   0.0700 
 38 H        9.4340     7.9210    -0.0400 H     1 <1>   0.0700 
 39 H        8.2480     7.4330     1.1450 H     1 <1>   0.0700 
 40 H        8.1820    10.0240    -0.4300 H     1 <1>   0.0700 
 41 H        8.6340     9.8580     1.2470 H     1 <1>   0.0700 
 42 H        6.9900     9.5370     0.7560 H     1 <1>   0.0700 
@<TRIPOS>BOND
  1   1   2  2   
  2   2   3  am  
  3   2   4  am  
  4   3   5  1   
  5   3   6  1   
  6   4   7  am  
  7   4  24  1   
  8   5   8  1   
  9   5   9  2   
 10   6  25  1   
 11   6  26  1   
 12   6  27  1   
 13   7   9  1   
 14   7  10  2   
 15   8  11  ar  
 16   8  28  1   
 17   9  12  1   
 18  11  12  ar  
 19  11  13  ar  
 20  12  14  1   
 21  13  15  1   
 22  13  29  1   
 23  14  30  1   
 24  14  31  1   
 25  14  32  1   
 26  15  16  1   
 27  15  33  1   
 28  15  34  1   
 29  16  17  2   
 30  16  18  1   
 31  17  19  1   
 32  18  20  1   
 33  18  21  1   
 34  19  20  2   
 35  20  35  1   
 36  21  22  1   
 37  21  36  1   
 38  21  37  1   
 39  22  23  1   
 40  22  38  1   
 41  22  39  1   
 42  23  40  1   
 43  23  41  1   
 44  23  42  1   
@<TRIPOS>SUBSTRUCTURE
  1 ****  11 GROUP 4 **** **** 0

# MOE 2024.06 (io_trps.svl 2023.06)
