@<TRIPOS>MOLECULE
NONAME
46 48 1 0 0 
SMALL
USER_CHARGES


@<TRIPOS>ATOM
  1 O       -0.7810     0.4480    -1.7750 O.2   1 <1>  -0.5700 
  2 C       -1.6490     1.0000    -1.1440 C.2   1 <1>   0.5690 
  3 N       -2.6340     0.3030    -0.5030 N.am  1 <1>  -0.6600 
  4 C       -1.5900     2.5050    -1.0450 C.3   1 <1>  -0.0990 
  5 C       -3.7420     0.8670     0.3150 C.3   1 <1>   0.1400 
  6 C       -2.6620    -1.1790    -0.4670 C.3   1 <1>   0.1400 
  7 C       -0.7620     2.8890     0.1820 C.3   1 <1>   0.0960 
  8 C       -4.5550    -0.3470     0.7670 C.3   1 <1>   0.2000 
  9 C       -3.5900    -1.5270     0.6960 C.3   1 <1>  -0.0800 
 10 N       -0.9110     4.3250     0.4660 N.pl3 1 <1>   0.3140 
 11 O       -5.0330    -0.1940     2.0580 O.3   1 <1>  -0.6800 
 12 C       -4.2950    -2.8830     0.5380 C.3   1 <1>   0.0210 
 13 N       -1.9670     4.7770     1.1680 N.2   1 <1>  -0.7070 
 14 C       -0.1040     5.3410     0.0810 C.2   1 <1>  -0.3320 
 15 C       -3.2880    -4.0000     0.3420 C.2   1 <1>   0.1080 
 16 C       -1.8060     6.0630     1.2200 C.2   1 <1>   0.1390 
 17 C       -0.6580     6.4760     0.5570 C.2   1 <1>  -0.1500 
 18 C        1.1690     5.1860    -0.7340 C.3   1 <1>  -0.0600 
 19 N       -2.3410    -4.2510     1.1920 N.2   1 <1>  -0.7070 
 20 C       -3.2540    -4.8570    -0.7520 C.2   1 <1>  -0.1500 
 21 N       -1.6700    -5.2880     0.6560 N.pl3 1 <1>   0.3000 
 22 C       -2.2030    -5.6720    -0.5220 C.2   1 <1>  -0.3320 
 23 C       -1.6670    -6.8110    -1.3700 C.3   1 <1>  -0.0600 
 24 H       -1.1280     2.8960    -1.9320 H     1 <1>   0.0800 
 25 H       -2.5810     2.9110    -0.9740 H     1 <1>   0.0800 
 26 H       -3.3330     1.3930     1.1610 H     1 <1>   0.0800 
 27 H       -4.3500     1.5290    -0.2760 H     1 <1>   0.0800 
 28 H       -3.0550    -1.5440    -1.4000 H     1 <1>   0.0800 
 29 H       -1.6750    -1.5840    -0.3150 H     1 <1>   0.0800 
 30 H        0.2750     2.6570     0.0250 H     1 <1>   0.0800 
 31 H       -1.1050     2.3480     1.0440 H     1 <1>   0.0800 
 32 H       -5.3950    -0.4840     0.1080 H     1 <1>   0.0800 
 33 H       -2.9830    -1.5510     1.5850 H     1 <1>   0.0800 
 34 H       -4.2920    -0.1820     2.6950 H     1 <1>   0.4000 
 35 H       -4.9650    -2.8560    -0.3020 H     1 <1>   0.0800 
 36 H       -4.8730    -3.0910     1.4210 H     1 <1>   0.0800 
 37 H       -2.4900     6.7260     1.7220 H     1 <1>   0.1500 
 38 H       -0.3140     7.4910     0.4620 H     1 <1>   0.1500 
 39 H        1.6080     6.1490    -0.9210 H     1 <1>   0.0800 
 40 H        0.9530     4.7200    -1.6790 H     1 <1>   0.0800 
 41 H        1.8820     4.5840    -0.2000 H     1 <1>   0.0800 
 42 H       -3.9300    -4.8500    -1.5880 H     1 <1>   0.1500 
 43 H       -0.8550    -5.7080     1.1180 H     1 <1>   0.2700 
 44 H       -2.2610    -6.9220    -2.2590 H     1 <1>   0.0800 
 45 H       -1.7010    -7.7340    -0.8180 H     1 <1>   0.0800 
 46 H       -0.6500    -6.6120    -1.6600 H     1 <1>   0.0800 
@<TRIPOS>BOND
  1   1   2  2   
  2   2   3  am  
  3   2   4  1   
  4   3   5  1   
  5   3   6  1   
  6   4   7  1   
  7   4  24  1   
  8   4  25  1   
  9   5   8  1   
 10   5  26  1   
 11   5  27  1   
 12   6   9  1   
 13   6  28  1   
 14   6  29  1   
 15   7  10  1   
 16   7  30  1   
 17   7  31  1   
 18   8   9  1   
 19   8  11  1   
 20   8  32  1   
 21   9  12  1   
 22   9  33  1   
 23  10  13  1   
 24  10  14  1   
 25  11  34  1   
 26  12  15  1   
 27  12  35  1   
 28  12  36  1   
 29  13  16  2   
 30  14  17  2   
 31  14  18  1   
 32  15  19  2   
 33  15  20  1   
 34  16  17  1   
 35  16  37  1   
 36  17  38  1   
 37  18  39  1   
 38  18  40  1   
 39  18  41  1   
 40  19  21  1   
 41  20  22  2   
 42  20  42  1   
 43  21  22  1   
 44  21  43  1   
 45  22  23  1   
 46  23  44  1   
 47  23  45  1   
 48  23  46  1   
@<TRIPOS>SUBSTRUCTURE
  1 ****   3 GROUP 4 **** **** 0

# MOE 2024.06 (io_trps.svl 2023.06)
