@<TRIPOS>MOLECULE
NONAME
49 51 1 0 0 
SMALL
USER_CHARGES


@<TRIPOS>ATOM
  1 F       -1.3780     1.8790     2.5830 F     1 <1>  -0.3400 
  2 C       -1.6230     1.4090     1.3630 C.3   1 <1>   1.1640 
  3 F       -0.5450     1.6850     0.6350 F     1 <1>  -0.3400 
  4 F       -1.6360     0.0820     1.4890 F     1 <1>  -0.3400 
  5 C       -2.9320     1.9730     0.7520 C.ar  1 <1>   0.1660 
  6 N       -3.0260     3.2690     0.4840 N.ar  1 <1>  -0.6200 
  7 C       -3.9920     1.1400     0.4870 C.ar  1 <1>  -0.1500 
  8 C       -4.1690     3.6960    -0.0420 C.ar  1 <1>   0.7200 
  9 C       -5.1440     1.6760    -0.0570 C.ar  1 <1>   0.4100 
 10 N       -5.2280     2.9560    -0.3260 N.ar  1 <1>  -0.6200 
 11 N       -4.2550     5.0480    -0.3180 N.pl3 1 <1>  -0.8380 
 12 N       -6.2420     0.8890    -0.3560 N.pl3 1 <1>  -0.8380 
 13 C       -3.0530     5.9270    -0.3620 C.3   1 <1>   0.1290 
 14 C       -5.5540     5.7120    -0.6170 C.3   1 <1>   0.1290 
 15 C       -7.5800     1.4890    -0.6230 C.3   1 <1>   0.2090 
 16 C       -6.4240    -0.5070     0.1000 C.3   1 <1>   0.2090 
 17 C       -8.6160     0.4030    -0.2840 C.3   1 <1>   0.2000 
 18 C       -7.8190    -0.8990    -0.3850 C.3   1 <1>  -0.0800 
 19 O       -9.0740     0.5440     1.0340 O.3   1 <1>  -0.5600 
 20 C       -8.4090    -2.0930     0.3870 C.3   1 <1>   0.0200 
 21 C      -10.0820     1.4880     1.2180 C.3   1 <1>   0.0400 
 22 C       -7.6190    -3.3740     0.1710 C.2   1 <1>  -0.0400 
 23 O       -7.8050    -4.3770     0.9870 O.3   1 <1>  -0.0190 
 24 C       -6.7000    -3.7500    -0.7340 C.2   1 <1>  -0.1500 
 25 N       -7.0570    -5.3970     0.6830 N.2   1 <1>  -0.4100 
 26 C       -6.3800    -5.0490    -0.3510 C.2   1 <1>   0.1080 
 27 C       -5.3760    -5.9380    -1.0490 C.3   1 <1>  -0.0590 
 28 H       -3.9440     0.0910     0.6910 H     1 <1>   0.1500 
 29 H       -3.1970     6.7170    -1.0780 H     1 <1>   0.0800 
 30 H       -2.1830     5.3630    -0.6540 H     1 <1>   0.0800 
 31 H       -2.8830     6.3530     0.6110 H     1 <1>   0.0800 
 32 H       -5.5350     6.7320    -0.2770 H     1 <1>   0.0800 
 33 H       -6.3600     5.2030    -0.1180 H     1 <1>   0.0800 
 34 H       -5.7310     5.6910    -1.6780 H     1 <1>   0.0800 
 35 H       -7.7310     2.3770    -0.0360 H     1 <1>   0.0800 
 36 H       -7.6360     1.7390    -1.6670 H     1 <1>   0.0800 
 37 H       -5.6670    -1.1490    -0.3160 H     1 <1>   0.0800 
 38 H       -6.3800    -0.5350     1.1760 H     1 <1>   0.0800 
 39 H       -9.4590     0.4130    -0.9530 H     1 <1>   0.0800 
 40 H       -7.7440    -1.1560    -1.4260 H     1 <1>   0.0800 
 41 H       -9.4260    -2.2580     0.0810 H     1 <1>   0.0800 
 42 H       -8.4160    -1.8730     1.4410 H     1 <1>   0.0800 
 43 H      -10.3530     1.4860     2.2590 H     1 <1>   0.0800 
 44 H      -10.9370     1.2180     0.6230 H     1 <1>   0.0800 
 45 H       -9.7210     2.4630     0.9440 H     1 <1>   0.0800 
 46 H       -6.2820    -3.2160    -1.5670 H     1 <1>   0.1500 
 47 H       -4.4170    -5.4540    -1.0780 H     1 <1>   0.0800 
 48 H       -5.7030    -6.1400    -2.0520 H     1 <1>   0.0800 
 49 H       -5.2810    -6.8690    -0.5200 H     1 <1>   0.0800 
@<TRIPOS>BOND
  1   1   2  1   
  2   2   3  1   
  3   2   4  1   
  4   2   5  1   
  5   5   6  ar  
  6   5   7  ar  
  7   6   8  ar  
  8   7   9  ar  
  9   7  28  1   
 10   8  10  ar  
 11   8  11  1   
 12   9  10  ar  
 13   9  12  1   
 14  11  13  1   
 15  11  14  1   
 16  12  15  1   
 17  12  16  1   
 18  13  29  1   
 19  13  30  1   
 20  13  31  1   
 21  14  32  1   
 22  14  33  1   
 23  14  34  1   
 24  15  17  1   
 25  15  35  1   
 26  15  36  1   
 27  16  18  1   
 28  16  37  1   
 29  16  38  1   
 30  17  18  1   
 31  17  19  1   
 32  17  39  1   
 33  18  20  1   
 34  18  40  1   
 35  19  21  1   
 36  20  22  1   
 37  20  41  1   
 38  20  42  1   
 39  21  43  1   
 40  21  44  1   
 41  21  45  1   
 42  22  23  1   
 43  22  24  2   
 44  23  25  1   
 45  24  26  1   
 46  24  46  1   
 47  25  26  2   
 48  26  27  1   
 49  27  47  1   
 50  27  48  1   
 51  27  49  1   
@<TRIPOS>SUBSTRUCTURE
  1 ****  12 GROUP 4 **** **** 0

# MOE 2024.06 (io_trps.svl 2023.06)
