@<TRIPOS>MOLECULE
NONAME
51 54 1 0 0 
SMALL
USER_CHARGES


@<TRIPOS>ATOM
  1 O       -0.3470     0.3600     0.4310 O.2   1 <1>  -0.5700 
  2 C       -1.3990     0.9730     0.4420 C.2   1 <1>   0.7150 
  3 N       -2.5730     0.2610     0.3980 N.am  1 <1>  -0.6600 
  4 C       -1.4040     2.4170     0.4790 C.2   1 <1>  -0.2370 
  5 C       -3.8800     0.8150    -0.0350 C.3   1 <1>   0.1400 
  6 C       -2.5990    -1.2230     0.3650 C.3   1 <1>   0.1400 
  7 N       -0.4820     3.2030    -0.1850 N.pl3 1 <1>   0.0480 
  8 C       -2.2580     3.2530     1.1410 C.2   1 <1>  -0.1500 
  9 C       -4.6360    -0.3800    -0.6110 C.3   1 <1>   0.2000 
 10 C       -4.0590    -1.5980     0.1040 C.3   1 <1>  -0.0800 
 11 C       -0.7740     4.5260     0.0580 C.ar  1 <1>  -0.1520 
 12 C        0.6420     2.7170    -1.0130 C.3   1 <1>   0.0160 
 13 C       -1.8880     4.5820     0.8860 C.ar  1 <1>   0.0000 
 14 O       -5.9990    -0.2850    -0.3780 O.3   1 <1>  -0.6800 
 15 C       -4.2280    -2.9040    -0.6860 C.3   1 <1>   0.0210 
 16 C       -0.1580     5.7070    -0.3730 C.ar  1 <1>  -0.1500 
 17 C       -2.4010     5.8190     1.2880 C.ar  1 <1>  -0.1500 
 18 C       -3.5270    -4.0560     0.0080 C.2   1 <1>   0.1080 
 19 C       -0.6690     6.9210     0.0260 C.ar  1 <1>  -0.1500 
 20 C       -1.8010     6.9810     0.8630 C.ar  1 <1>   0.0820 
 21 N       -3.7850    -4.4040     1.2300 N.2   1 <1>  -0.7070 
 22 C       -2.5390    -4.8490    -0.5670 C.2   1 <1>  -0.1500 
 23 O       -2.3520     8.1520     1.2900 O.3   1 <1>  -0.3620 
 24 N       -2.9600    -5.4410     1.4700 N.pl3 1 <1>   0.3000 
 25 C       -2.1940    -5.7280     0.3960 C.2   1 <1>  -0.3320 
 26 C       -1.7850     9.3940     0.9360 C.3   1 <1>   0.0400 
 27 C       -1.1640    -6.8420     0.3570 C.3   1 <1>  -0.0600 
 28 H       -4.3940     1.2120     0.8220 H     1 <1>   0.0800 
 29 H       -3.7450     1.5810    -0.7790 H     1 <1>   0.0800 
 30 H       -1.9630    -1.5700    -0.4320 H     1 <1>   0.0800 
 31 H       -2.2510    -1.6330     1.2980 H     1 <1>   0.0800 
 32 H       -3.0830     2.9790     1.7730 H     1 <1>   0.1500 
 33 H       -4.4750    -0.4320    -1.6740 H     1 <1>   0.0800 
 34 H       -4.5290    -1.7080     1.0660 H     1 <1>   0.0800 
 35 H        0.2980     1.9270    -1.6550 H     1 <1>   0.0800 
 36 H        1.4140     2.3390    -0.3680 H     1 <1>   0.0800 
 37 H        1.0330     3.5150    -1.6150 H     1 <1>   0.0800 
 38 H       -6.1870    -0.4020     0.5740 H     1 <1>   0.4000 
 39 H       -3.8280    -2.7910    -1.6770 H     1 <1>   0.0800 
 40 H       -5.2730    -3.1390    -0.7710 H     1 <1>   0.0800 
 41 H        0.7060     5.6640    -1.0100 H     1 <1>   0.1500 
 42 H       -3.2620     5.8540     1.9270 H     1 <1>   0.1500 
 43 H       -0.1910     7.8190    -0.3110 H     1 <1>   0.1500 
 44 H       -2.1510    -4.7580    -1.5660 H     1 <1>   0.1500 
 45 H       -2.9440    -5.9290     2.3730 H     1 <1>   0.2700 
 46 H       -2.3720    10.1700     1.3930 H     1 <1>   0.0800 
 47 H       -1.8120     9.4980    -0.1340 H     1 <1>   0.0800 
 48 H       -0.7760     9.4350     1.3050 H     1 <1>   0.0800 
 49 H       -0.6870    -6.8700    -0.6060 H     1 <1>   0.0800 
 50 H       -1.6370    -7.7930     0.5320 H     1 <1>   0.0800 
 51 H       -0.4110    -6.6790     1.1070 H     1 <1>   0.0800 
@<TRIPOS>BOND
  1   1   2  2   
  2   2   3  am  
  3   2   4  1   
  4   3   5  1   
  5   3   6  1   
  6   4   7  1   
  7   4   8  2   
  8   5   9  1   
  9   5  28  1   
 10   5  29  1   
 11   6  10  1   
 12   6  30  1   
 13   6  31  1   
 14   7  11  1   
 15   7  12  1   
 16   8  13  1   
 17   8  32  1   
 18   9  10  1   
 19   9  14  1   
 20   9  33  1   
 21  10  15  1   
 22  10  34  1   
 23  11  13  ar  
 24  11  16  ar  
 25  12  35  1   
 26  12  36  1   
 27  12  37  1   
 28  13  17  ar  
 29  14  38  1   
 30  15  18  1   
 31  15  39  1   
 32  15  40  1   
 33  16  19  ar  
 34  16  41  1   
 35  17  20  ar  
 36  17  42  1   
 37  18  21  2   
 38  18  22  1   
 39  19  20  ar  
 40  19  43  1   
 41  20  23  1   
 42  21  24  1   
 43  22  25  2   
 44  22  44  1   
 45  23  26  1   
 46  24  25  1   
 47  24  45  1   
 48  25  27  1   
 49  26  46  1   
 50  26  47  1   
 51  26  48  1   
 52  27  49  1   
 53  27  50  1   
 54  27  51  1   
@<TRIPOS>SUBSTRUCTURE
  1 ****   3 GROUP 4 **** **** 0

# MOE 2024.06 (io_trps.svl 2023.06)
