@<TRIPOS>MOLECULE
NONAME
50 52 1 0 0 
SMALL
USER_CHARGES


@<TRIPOS>ATOM
  1 F        0.5910    -0.8280     0.0070 F     1 <1>  -0.1900 
  2 C        0.2270    -2.0770    -0.1260 C.ar  1 <1>   0.1900 
  3 C       -0.1310    -2.7910     1.0010 C.ar  1 <1>  -0.1500 
  4 C        0.2150    -2.6370    -1.3860 C.ar  1 <1>  -0.1500 
  5 C       -0.5190    -4.1150     0.8670 C.ar  1 <1>  -0.1440 
  6 C       -0.1720    -3.9590    -1.5150 C.ar  1 <1>  -0.1500 
  7 C       -0.5440    -4.7110    -0.4000 C.ar  1 <1>   0.1170 
  8 C       -0.9120    -4.8960     2.1170 C.3   1 <1>  -0.0960 
  9 N       -0.9400    -6.0540    -0.5100 N.am  1 <1>  -0.5470 
 10 C       -1.2390    -6.8800    -1.5540 C.2   1 <1>   0.5690 
 11 O       -1.2000    -6.5660    -2.7190 O.2   1 <1>  -0.5700 
 12 C       -1.6660    -8.2990    -1.1770 C.3   1 <1>   0.1710 
 13 N       -2.2250    -8.4030     0.2070 N.3   1 <1>  -0.8100 
 14 C       -3.5740    -7.7860     0.3040 C.3   1 <1>   0.1100 
 15 C       -2.3890    -9.8030     0.6190 C.3   1 <1>   0.1100 
 16 C       -4.5890    -8.8980     0.6160 C.3   1 <1>   0.2000 
 17 C       -3.8280   -10.1750     0.2740 C.3   1 <1>  -0.0800 
 18 O       -4.8900    -8.8960     1.9830 O.3   1 <1>  -0.5600 
 19 C       -4.3220   -11.4410     0.9980 C.3   1 <1>   0.0200 
 20 C       -5.9100    -8.0260     2.3630 C.3   1 <1>   0.0400 
 21 C       -3.6360   -12.7060     0.5090 C.2   1 <1>  -0.0400 
 22 O       -3.8370   -13.8220     1.1580 O.3   1 <1>  -0.0190 
 23 C       -2.8090   -12.9730    -0.5150 C.2   1 <1>  -0.1500 
 24 N       -3.1880   -14.8180     0.6270 N.2   1 <1>  -0.4100 
 25 C       -2.5590   -14.3360    -0.3830 C.2   1 <1>   0.1080 
 26 C       -1.6730   -15.1500    -1.2990 C.3   1 <1>  -0.0590 
 27 H       -0.1030    -2.3060     1.9590 H     1 <1>   0.1500 
 28 H        0.5010    -2.0540    -2.2420 H     1 <1>   0.1500 
 29 H       -0.1800    -4.4020    -2.4930 H     1 <1>   0.1500 
 30 H       -0.8410    -4.2800     2.9950 H     1 <1>   0.0800 
 31 H       -0.2590    -5.7410     2.2460 H     1 <1>   0.0800 
 32 H       -1.9260    -5.2450     2.0320 H     1 <1>   0.0800 
 33 H       -1.1190    -6.5300     0.3800 H     1 <1>   0.3700 
 34 H       -0.7910    -8.9190    -1.2530 H     1 <1>   0.0800 
 35 H       -2.3840    -8.6500    -1.8970 H     1 <1>   0.0800 
 36 H       -3.5790    -7.0430     1.0820 H     1 <1>   0.0800 
 37 H       -3.8400    -7.3100    -0.6250 H     1 <1>   0.0800 
 38 H       -1.6700   -10.4530     0.1510 H     1 <1>   0.0800 
 39 H       -2.2550    -9.8580     1.6870 H     1 <1>   0.0800 
 40 H       -5.4990    -8.8070     0.0490 H     1 <1>   0.0800 
 41 H       -3.8970   -10.3300    -0.7870 H     1 <1>   0.0800 
 42 H       -5.3810   -11.5490     0.8500 H     1 <1>   0.0800 
 43 H       -4.1500   -11.3450     2.0570 H     1 <1>   0.0800 
 44 H       -6.0330    -8.1030     3.4290 H     1 <1>   0.0800 
 45 H       -6.8240    -8.3150     1.8730 H     1 <1>   0.0800 
 46 H       -5.6420    -7.0180     2.1020 H     1 <1>   0.0800 
 47 H       -2.4120   -12.3300    -1.2770 H     1 <1>   0.1500 
 48 H       -0.7090   -14.6840    -1.3860 H     1 <1>   0.0800 
 49 H       -2.1240   -15.2230    -2.2710 H     1 <1>   0.0800 
 50 H       -1.5460   -16.1400    -0.8990 H     1 <1>   0.0800 
@<TRIPOS>BOND
  1   1   2  1   
  2   2   3  ar  
  3   2   4  ar  
  4   3   5  ar  
  5   3  27  1   
  6   4   6  ar  
  7   4  28  1   
  8   5   7  ar  
  9   5   8  1   
 10   6   7  ar  
 11   6  29  1   
 12   7   9  1   
 13   8  30  1   
 14   8  31  1   
 15   8  32  1   
 16   9  10  am  
 17   9  33  1   
 18  10  11  2   
 19  10  12  1   
 20  12  13  1   
 21  12  34  1   
 22  12  35  1   
 23  13  14  1   
 24  13  15  1   
 25  14  16  1   
 26  14  36  1   
 27  14  37  1   
 28  15  17  1   
 29  15  38  1   
 30  15  39  1   
 31  16  17  1   
 32  16  18  1   
 33  16  40  1   
 34  17  19  1   
 35  17  41  1   
 36  18  20  1   
 37  19  21  1   
 38  19  42  1   
 39  19  43  1   
 40  20  44  1   
 41  20  45  1   
 42  20  46  1   
 43  21  22  1   
 44  21  23  2   
 45  22  24  1   
 46  23  25  1   
 47  23  47  1   
 48  24  25  2   
 49  25  26  1   
 50  26  48  1   
 51  26  49  1   
 52  26  50  1   
@<TRIPOS>SUBSTRUCTURE
  1 ****  13 GROUP 4 **** **** 0

# MOE 2024.06 (io_trps.svl 2023.06)
