@<TRIPOS>MOLECULE
NONAME
48 51 1 0 0 
SMALL
USER_CHARGES


@<TRIPOS>ATOM
  1 F       -5.2920    -0.6050     1.9330 F     1 <1>  -0.1900 
  2 C       -5.3300    -1.3560     0.8640 C.ar  1 <1>   0.1900 
  3 C       -5.6620    -0.7720    -0.3460 C.ar  1 <1>  -0.1500 
  4 C       -5.0450    -2.7040     0.9880 C.ar  1 <1>  -0.1500 
  5 C       -5.7160    -1.5740    -1.4740 C.ar  1 <1>  -0.1500 
  6 C       -5.1030    -3.4980    -0.1460 C.ar  1 <1>  -0.1500 
  7 C       -5.4440    -2.9320    -1.3670 C.ar  1 <1>   0.0830 
  8 O       -5.4760    -3.7060    -2.4680 O.3   1 <1>  -0.3630 
  9 C       -6.7230    -4.2820    -2.8300 C.3   1 <1>   0.1810 
 10 C       -7.2080    -5.3400    -1.8300 C.2   1 <1>   0.5690 
 11 O       -6.4970    -6.3090    -1.6800 O.2   1 <1>  -0.5700 
 12 N       -8.4140    -5.2430    -1.1640 N.am  1 <1>  -0.6600 
 13 C       -9.3730    -4.0890    -1.2100 C.3   1 <1>   0.1400 
 14 C       -8.9420    -6.4010    -0.3800 C.3   1 <1>   0.1400 
 15 C       -9.7330    -3.5970     0.2060 C.3   1 <1>   0.1440 
 16 C       -9.2900    -5.9700     1.0480 C.3   1 <1>  -0.1600 
 17 C      -10.7810    -2.5010     0.1390 C.ar  1 <1>   0.1670 
 18 C      -10.2520    -4.7680     1.0670 C.3   1 <1>  -0.1600 
 19 C       -8.5470    -2.8670     0.8870 C.3   1 <1>  -0.1600 
 20 N      -11.8880    -2.5480    -0.5710 N.ar  1 <1>  -0.6200 
 21 C      -10.4430    -1.4320     0.9130 C.ar  1 <1>  -0.1440 
 22 C       -9.1260    -1.6420     1.6160 C.3   1 <1>  -0.0170 
 23 C      -12.6500    -1.4680    -0.4670 C.ar  1 <1>   0.4770 
 24 C      -11.3060    -0.3650     0.9450 C.ar  1 <1>   0.1600 
 25 N      -12.4250    -0.3740     0.2500 N.ar  1 <1>  -0.6200 
 26 C      -13.9360    -1.4810    -1.2560 C.3   1 <1>  -0.0970 
 27 H       -5.8680     0.2820    -0.3990 H     1 <1>   0.1500 
 28 H       -4.7840    -3.1190     1.9450 H     1 <1>   0.1500 
 29 H       -5.9590    -1.1540    -2.4340 H     1 <1>   0.1500 
 30 H       -4.8850    -4.5520    -0.0940 H     1 <1>   0.1500 
 31 H       -6.5730    -4.7680    -3.7760 H     1 <1>   0.0800 
 32 H       -7.4240    -3.4890    -2.9750 H     1 <1>   0.0800 
 33 H      -10.2730    -4.4150    -1.7040 H     1 <1>   0.0800 
 34 H       -8.9820    -3.2620    -1.7690 H     1 <1>   0.0800 
 35 H       -8.2240    -7.2020    -0.3420 H     1 <1>   0.0800 
 36 H       -9.8240    -6.7760    -0.8700 H     1 <1>   0.0800 
 37 H       -8.3790    -5.7350     1.5680 H     1 <1>   0.0800 
 38 H       -9.7450    -6.7980     1.5610 H     1 <1>   0.0800 
 39 H      -11.2050    -5.0840     0.6770 H     1 <1>   0.0800 
 40 H      -10.4110    -4.4400     2.0790 H     1 <1>   0.0800 
 41 H       -7.8830    -2.5090     0.1250 H     1 <1>   0.0800 
 42 H       -7.9840    -3.4950     1.5520 H     1 <1>   0.0800 
 43 H       -8.4790    -0.7870     1.5260 H     1 <1>   0.0800 
 44 H       -9.3000    -1.8640     2.6540 H     1 <1>   0.0800 
 45 H      -11.0830     0.5020     1.5430 H     1 <1>   0.1500 
 46 H      -13.8820    -2.2060    -2.0480 H     1 <1>   0.0800 
 47 H      -14.1130    -0.5110    -1.6820 H     1 <1>   0.0800 
 48 H      -14.7500    -1.7320    -0.6030 H     1 <1>   0.0800 
@<TRIPOS>BOND
  1   1   2  1   
  2   2   3  ar  
  3   2   4  ar  
  4   3   5  ar  
  5   3  27  1   
  6   4   6  ar  
  7   4  28  1   
  8   5   7  ar  
  9   5  29  1   
 10   6   7  ar  
 11   6  30  1   
 12   7   8  1   
 13   8   9  1   
 14   9  10  1   
 15   9  31  1   
 16   9  32  1   
 17  10  11  2   
 18  10  12  am  
 19  12  13  1   
 20  12  14  1   
 21  13  15  1   
 22  13  33  1   
 23  13  34  1   
 24  14  16  1   
 25  14  35  1   
 26  14  36  1   
 27  15  17  1   
 28  15  18  1   
 29  15  19  1   
 30  16  18  1   
 31  16  37  1   
 32  16  38  1   
 33  17  20  ar  
 34  17  21  ar  
 35  18  39  1   
 36  18  40  1   
 37  19  22  1   
 38  19  41  1   
 39  19  42  1   
 40  20  23  ar  
 41  21  22  1   
 42  21  24  ar  
 43  22  43  1   
 44  22  44  1   
 45  23  25  ar  
 46  23  26  1   
 47  24  25  ar  
 48  24  45  1   
 49  26  46  1   
 50  26  47  1   
 51  26  48  1   
@<TRIPOS>SUBSTRUCTURE
  1 ****  19 GROUP 4 **** **** 0

# MOE 2024.06 (io_trps.svl 2023.06)
