@<TRIPOS>MOLECULE
NONAME
47 50 1 0 0 
SMALL
USER_CHARGES


@<TRIPOS>ATOM
  1 S        0.1660    -0.0280     1.7590 S.o2  1 <1>   1.4470 
  2 O       -0.3360    -1.0790     2.6170 O.2   1 <1>  -0.6500 
  3 O        0.5580     1.2380     2.3410 O.2   1 <1>  -0.6500 
  4 N       -1.0280     0.3000     0.6020 N.am  1 <1>  -0.8490 
  5 C        1.5380    -0.6940     0.7740 C.ar  1 <1>  -0.0090 
  6 C       -2.3470     0.4800     1.2310 C.3   1 <1>   0.1960 
  7 C       -0.7000     1.4730    -0.2140 C.3   1 <1>   0.1960 
  8 C        2.8460    -0.2770     1.0050 C.ar  1 <1>  -0.1500 
  9 C        1.3030    -1.6490    -0.2230 C.ar  1 <1>  -0.1500 
 10 C       -3.4680     0.5720     0.1780 C.3   1 <1>   0.0000 
 11 C       -1.7140     1.6320    -1.3510 C.3   1 <1>  -0.1600 
 12 C        3.8760    -0.8090     0.2460 C.ar  1 <1>   0.1170 
 13 C        2.3320    -2.1830    -0.9850 C.ar  1 <1>  -0.1500 
 14 C       -4.8360     0.7320     0.8670 C.3   1 <1>   0.2000 
 15 C       -3.1510     1.7250    -0.8120 C.3   1 <1>  -0.1600 
 16 C       -3.6690    -0.7550    -0.5770 C.3   1 <1>  -0.1600 
 17 N        5.2350    -0.6090     0.2310 N.am  1 <1>  -0.5470 
 18 C        3.6160    -1.7430    -0.7290 C.ar  1 <1>   0.0820 
 19 O       -5.0690     2.0520     1.2590 O.3   1 <1>  -0.5600 
 20 C       -5.8670     0.2540    -0.1560 C.3   1 <1>  -0.1600 
 21 C       -5.1280    -0.7490    -1.0530 C.3   1 <1>  -0.1600 
 22 C        5.7450    -1.4150    -0.7320 C.2   1 <1>   0.7800 
 23 O        4.7710    -2.1080    -1.3250 O.3   1 <1>  -0.2320 
 24 C       -6.1340     2.2270     2.1380 C.3   1 <1>   0.0400 
 25 O        6.9160    -1.5110    -1.0300 O.2   1 <1>  -0.5700 
 26 H       -2.5560    -0.3510     1.8830 H     1 <1>   0.0800 
 27 H       -2.3440     1.3750     1.8330 H     1 <1>   0.0800 
 28 H       -0.7020     2.3610     0.3990 H     1 <1>   0.0800 
 29 H        0.2840     1.3610    -0.6390 H     1 <1>   0.0800 
 30 H        3.0610     0.4530     1.7670 H     1 <1>   0.1500 
 31 H        0.2910    -1.9770    -0.3980 H     1 <1>   0.1500 
 32 H       -1.4860     2.5240    -1.9050 H     1 <1>   0.0800 
 33 H       -1.6170     0.8010    -2.0250 H     1 <1>   0.0800 
 34 H        2.1490    -2.9170    -1.7500 H     1 <1>   0.1500 
 35 H       -4.8690     0.0990     1.7390 H     1 <1>   0.0800 
 36 H       -3.8500     1.7330    -1.6290 H     1 <1>   0.0800 
 37 H       -3.2470     2.6670    -0.3000 H     1 <1>   0.0800 
 38 H       -2.9830    -0.8870    -1.3930 H     1 <1>   0.0800 
 39 H       -3.5330    -1.5770     0.1050 H     1 <1>   0.0800 
 40 H        5.8110    -0.0070     0.8160 H     1 <1>   0.3700 
 41 H       -6.7060    -0.2100     0.3320 H     1 <1>   0.0800 
 42 H       -6.2060     1.0850    -0.7510 H     1 <1>   0.0800 
 43 H       -5.5560    -1.7340    -0.9800 H     1 <1>   0.0800 
 44 H       -5.1800    -0.4240    -2.0780 H     1 <1>   0.0800 
 45 H       -6.1940     3.2730     2.3830 H     1 <1>   0.0800 
 46 H       -5.9550     1.6560     3.0330 H     1 <1>   0.0800 
 47 H       -7.0470     1.9150     1.6640 H     1 <1>   0.0800 
@<TRIPOS>BOND
  1   1   2  2   
  2   1   3  2   
  3   1   4  am  
  4   1   5  1   
  5   4   6  1   
  6   4   7  1   
  7   5   8  ar  
  8   5   9  ar  
  9   6  10  1   
 10   6  26  1   
 11   6  27  1   
 12   7  11  1   
 13   7  28  1   
 14   7  29  1   
 15   8  12  ar  
 16   8  30  1   
 17   9  13  ar  
 18   9  31  1   
 19  10  14  1   
 20  10  15  1   
 21  10  16  1   
 22  11  15  1   
 23  11  32  1   
 24  11  33  1   
 25  12  17  1   
 26  12  18  ar  
 27  13  18  ar  
 28  13  34  1   
 29  14  19  1   
 30  14  20  1   
 31  14  35  1   
 32  15  36  1   
 33  15  37  1   
 34  16  21  1   
 35  16  38  1   
 36  16  39  1   
 37  17  22  am  
 38  17  40  1   
 39  18  23  1   
 40  19  24  1   
 41  20  21  1   
 42  20  41  1   
 43  20  42  1   
 44  21  43  1   
 45  21  44  1   
 46  22  23  1   
 47  22  25  2   
 48  24  45  1   
 49  24  46  1   
 50  24  47  1   
@<TRIPOS>SUBSTRUCTURE
  1 ****   4 GROUP 4 **** **** 0

# MOE 2024.06 (io_trps.svl 2023.06)
