@<TRIPOS>MOLECULE
NONAME
61 64 1 0 0 
SMALL
USER_CHARGES


@<TRIPOS>ATOM
  1 S        1.1630     0.0360    -1.0140 S.o2  1 <1>   1.5760 
  2 O        2.5990    -0.1080    -1.1280 O.2   1 <1>  -0.6500 
  3 O        0.3070    -0.3530    -2.1130 O.2   1 <1>  -0.6500 
  4 N        0.8130     1.6290    -0.5730 N.am  1 <1>  -0.8490 
  5 N        0.6490    -0.7790     0.3680 N.am  1 <1>  -0.8490 
  6 C        1.6410     2.0240     0.5880 C.3   1 <1>   0.1960 
  7 C        0.9740     2.5100    -1.7330 C.3   1 <1>   0.1960 
  8 C       -0.7890    -0.7470     0.5640 C.3   1 <1>   0.1960 
  9 C        1.0030    -2.1840     0.3480 C.3   1 <1>   0.1960 
 10 C        1.5060     3.4860     1.0660 C.3   1 <1>   0.2090 
 11 C        0.2310     3.8330    -1.5230 C.3   1 <1>  -0.1600 
 12 C       -1.0510    -1.8470     1.5840 C.3   1 <1>  -0.1600 
 13 C        0.1230    -2.8140     1.4220 C.3   1 <1>  -0.1600 
 14 N        2.0410     4.4940     0.0930 N.pl3 1 <1>  -0.8380 
 15 C        1.1000     4.9600    -0.9570 C.3   1 <1>   0.2090 
 16 C        3.3750     4.6770    -0.0560 C.ar  1 <1>   0.4100 
 17 N        4.0490     3.6560    -0.5330 N.ar  1 <1>  -0.6200 
 18 C        4.0050     5.8980     0.2800 C.ar  1 <1>  -0.1430 
 19 C        5.3540     3.7690    -0.6920 C.ar  1 <1>   0.7710 
 20 C        5.3510     5.9900     0.1050 C.ar  1 <1>   0.2180 
 21 C        3.1880     7.0600     0.8480 C.3   1 <1>  -0.0160 
 22 N        5.9970     4.9090    -0.3940 N.ar  1 <1>  -0.1790 
 23 N        6.0610     2.7040    -1.1640 N.pl3 1 <1>  -0.8380 
 24 C        6.1670     7.2350     0.4370 C.3   1 <1>  -0.0170 
 25 C        3.9570     8.3890     0.8300 C.3   1 <1>  -0.1600 
 26 C        7.5480     2.5590    -1.2430 C.3   1 <1>   0.1290 
 27 C        5.3460     1.4520    -1.5970 C.3   1 <1>   0.1290 
 28 C        5.3920     8.2070     1.3370 C.3   1 <1>  -0.1600 
 29 H        2.6760     1.8180     0.3920 H     1 <1>   0.0800 
 30 H        1.3630     1.4040     1.4220 H     1 <1>   0.0800 
 31 H        0.5330     2.0380    -2.5950 H     1 <1>   0.0800 
 32 H        2.0170     2.6710    -1.9510 H     1 <1>   0.0800 
 33 H       -1.3000    -0.9810    -0.3560 H     1 <1>   0.0800 
 34 H       -1.1100     0.2200     0.9150 H     1 <1>   0.0800 
 35 H        2.0520    -2.3200     0.5510 H     1 <1>   0.0800 
 36 H        0.7650    -2.6100    -0.6150 H     1 <1>   0.0800 
 37 H        2.0570     3.5840     1.9840 H     1 <1>   0.0800 
 38 H        0.4750     3.6960     1.2880 H     1 <1>   0.0800 
 39 H       -0.6300     3.6730    -0.8990 H     1 <1>   0.0800 
 40 H       -0.1390     4.1660    -2.4750 H     1 <1>   0.0800 
 41 H       -1.9980    -2.3220     1.4000 H     1 <1>   0.0800 
 42 H       -1.0540    -1.4270     2.5740 H     1 <1>   0.0800 
 43 H        0.6740    -2.8910     2.3430 H     1 <1>   0.0800 
 44 H       -0.1990    -3.7950     1.1210 H     1 <1>   0.0800 
 45 H        0.4650     5.7280    -0.5500 H     1 <1>   0.0800 
 46 H        1.6690     5.3940    -1.7610 H     1 <1>   0.0800 
 47 H        2.9120     6.8180     1.8610 H     1 <1>   0.0800 
 48 H        2.2790     7.1880     0.2890 H     1 <1>   0.0800 
 49 H        6.9890     4.9000    -0.5760 H     1 <1>   0.4570 
 50 H        6.4220     7.7360    -0.4820 H     1 <1>   0.0800 
 51 H        7.0810     6.9620     0.9350 H     1 <1>   0.0800 
 52 H        3.4410     9.1070     1.4460 H     1 <1>   0.0800 
 53 H        3.9780     8.7770    -0.1740 H     1 <1>   0.0800 
 54 H        8.0600     3.3130    -0.6750 H     1 <1>   0.0800 
 55 H        7.8650     2.6120    -2.2720 H     1 <1>   0.0800 
 56 H        7.8380     1.5980    -0.8490 H     1 <1>   0.0800 
 57 H        4.3880     1.6810    -2.0320 H     1 <1>   0.0800 
 58 H        5.1880     0.8060    -0.7500 H     1 <1>   0.0800 
 59 H        5.9210     0.9210    -2.3360 H     1 <1>   0.0800 
 60 H        5.8940     9.1590     1.3620 H     1 <1>   0.0800 
 61 H        5.3640     7.8240     2.3440 H     1 <1>   0.0800 
@<TRIPOS>BOND
  1   1   2  2   
  2   1   3  2   
  3   1   4  am  
  4   1   5  am  
  5   4   6  1   
  6   4   7  1   
  7   5   8  1   
  8   5   9  1   
  9   6  10  1   
 10   6  29  1   
 11   6  30  1   
 12   7  11  1   
 13   7  31  1   
 14   7  32  1   
 15   8  12  1   
 16   8  33  1   
 17   8  34  1   
 18   9  13  1   
 19   9  35  1   
 20   9  36  1   
 21  10  14  1   
 22  10  37  1   
 23  10  38  1   
 24  11  15  1   
 25  11  39  1   
 26  11  40  1   
 27  12  13  1   
 28  12  41  1   
 29  12  42  1   
 30  13  43  1   
 31  13  44  1   
 32  14  15  1   
 33  14  16  1   
 34  15  45  1   
 35  15  46  1   
 36  16  17  ar  
 37  16  18  ar  
 38  17  19  ar  
 39  18  20  ar  
 40  18  21  1   
 41  19  22  ar  
 42  19  23  1   
 43  20  22  ar  
 44  20  24  1   
 45  21  25  1   
 46  21  47  1   
 47  21  48  1   
 48  22  49  1   
 49  23  26  1   
 50  23  27  1   
 51  24  28  1   
 52  24  50  1   
 53  24  51  1   
 54  25  28  1   
 55  25  52  1   
 56  25  53  1   
 57  26  54  1   
 58  26  55  1   
 59  26  56  1   
 60  27  57  1   
 61  27  58  1   
 62  27  59  1   
 63  28  60  1   
 64  28  61  1   
@<TRIPOS>SUBSTRUCTURE
  1 ****  17 GROUP 4 **** **** 0

# MOE 2024.06 (io_trps.svl 2023.06)
