@<TRIPOS>MOLECULE
NONAME
55 58 1 0 0 
SMALL
USER_CHARGES


@<TRIPOS>ATOM
  1 O       -1.7070     1.8400     1.4450 O.2   1 <1>  -0.5700 
  2 C       -2.5070     2.7280     1.6500 C.2   1 <1>   0.6900 
  3 N       -3.7680     2.7440     1.0660 N.am  1 <1>  -0.4690 
  4 N       -2.1630     3.7440     2.4850 N.am  1 <1>  -0.4900 
  5 C       -4.6560     3.7790     1.3450 C.2   1 <1>  -0.0410 
  6 C       -4.1660     1.6530     0.1370 C.3   1 <1>   0.1400 
  7 C       -2.9970     4.7750     2.7820 C.2   1 <1>   0.6160 
  8 C       -4.2880     4.7750     2.1820 C.2   1 <1>  -0.1360 
  9 C       -4.7680     0.4850     0.9200 C.3   1 <1>  -0.0990 
 10 O       -2.6100     5.6430     3.5370 O.2   1 <1>  -0.5700 
 11 C       -5.5100    -0.4450    -0.0190 C.2   1 <1>   0.5690 
 12 O       -4.8900    -1.3680    -0.4900 O.2   1 <1>  -0.5700 
 13 N       -6.8290    -0.2310    -0.3270 N.am  1 <1>  -0.6600 
 14 C       -7.6090     0.9790     0.0960 C.3   1 <1>   0.1400 
 15 C       -7.5690    -1.2430    -1.1450 C.3   1 <1>   0.1400 
 16 C       -8.6180     1.4030    -0.9840 C.3   1 <1>   0.1430 
 17 C       -9.0880    -1.1340    -0.9390 C.3   1 <1>  -0.1600 
 18 C       -9.2970     2.6970    -0.5780 C.ar  1 <1>   0.1670 
 19 C       -9.6550     0.2770    -1.2110 C.3   1 <1>  -0.1600 
 20 C       -7.9250     1.8110    -2.3140 C.3   1 <1>  -0.1600 
 21 N       -9.7850     2.9490     0.6100 N.ar  1 <1>  -0.6200 
 22 C       -9.3210     3.5970    -1.6000 C.ar  1 <1>  -0.1430 
 23 C       -8.6720     3.0480    -2.8440 C.3   1 <1>  -0.0170 
 24 C      -10.3230     4.1630     0.7580 C.ar  1 <1>   0.7200 
 25 C       -9.8970     4.8190    -1.3580 C.ar  1 <1>   0.1600 
 26 N      -10.3960     5.1130    -0.1800 N.ar  1 <1>  -0.6200 
 27 N      -10.8450     4.4630     1.9990 N.pl3 1 <1>  -0.8380 
 28 C      -11.2320     3.4020     2.9700 C.3   1 <1>   0.1290 
 29 C      -11.2110     5.8540     2.3860 C.3   1 <1>   0.1290 
 30 H       -1.2410     3.7260     2.9030 H     1 <1>   0.3700 
 31 H       -5.6270     3.7530     0.8760 H     1 <1>   0.1500 
 32 H       -3.3090     1.3100    -0.4210 H     1 <1>   0.0800 
 33 H       -4.8800     2.0370    -0.5690 H     1 <1>   0.0800 
 34 H       -4.9320     5.5970     2.4330 H     1 <1>   0.1500 
 35 H       -5.4330     0.8340     1.6860 H     1 <1>   0.0800 
 36 H       -3.9750    -0.0650     1.3950 H     1 <1>   0.0800 
 37 H       -6.9560     1.8070     0.2990 H     1 <1>   0.0800 
 38 H       -8.1410     0.7510     1.0040 H     1 <1>   0.0800 
 39 H       -7.2420    -2.2320    -0.8680 H     1 <1>   0.0800 
 40 H       -7.3270    -1.0970    -2.1830 H     1 <1>   0.0800 
 41 H       -9.3000    -1.4080     0.0810 H     1 <1>   0.0800 
 42 H       -9.5870    -1.8500    -1.5670 H     1 <1>   0.0800 
 43 H      -10.0360     0.3320    -2.2160 H     1 <1>   0.0800 
 44 H      -10.4930     0.4280    -0.5520 H     1 <1>   0.0800 
 45 H       -7.9130     1.0170    -3.0390 H     1 <1>   0.0800 
 46 H       -6.9070     2.0950    -2.1130 H     1 <1>   0.0800 
 47 H       -9.4320     2.7620    -3.5510 H     1 <1>   0.0800 
 48 H       -7.9990     3.7570    -3.2930 H     1 <1>   0.0800 
 49 H       -9.9460     5.5630    -2.1340 H     1 <1>   0.1500 
 50 H      -11.4470     2.4800     2.4570 H     1 <1>   0.0800 
 51 H      -12.1130     3.6990     3.5120 H     1 <1>   0.0800 
 52 H      -10.4260     3.2380     3.6630 H     1 <1>   0.0800 
 53 H      -10.5750     6.5640     1.8860 H     1 <1>   0.0800 
 54 H      -11.0940     5.9850     3.4470 H     1 <1>   0.0800 
 55 H      -12.2330     6.0470     2.1120 H     1 <1>   0.0800 
@<TRIPOS>BOND
  1   1   2  2   
  2   2   3  am  
  3   2   4  am  
  4   3   5  1   
  5   3   6  1   
  6   4   7  am  
  7   4  30  1   
  8   5   8  2   
  9   5  31  1   
 10   6   9  1   
 11   6  32  1   
 12   6  33  1   
 13   7   8  1   
 14   7  10  2   
 15   8  34  1   
 16   9  11  1   
 17   9  35  1   
 18   9  36  1   
 19  11  12  2   
 20  11  13  am  
 21  13  14  1   
 22  13  15  1   
 23  14  16  1   
 24  14  37  1   
 25  14  38  1   
 26  15  17  1   
 27  15  39  1   
 28  15  40  1   
 29  16  18  1   
 30  16  19  1   
 31  16  20  1   
 32  17  19  1   
 33  17  41  1   
 34  17  42  1   
 35  18  21  ar  
 36  18  22  ar  
 37  19  43  1   
 38  19  44  1   
 39  20  23  1   
 40  20  45  1   
 41  20  46  1   
 42  21  24  ar  
 43  22  23  1   
 44  22  25  ar  
 45  23  47  1   
 46  23  48  1   
 47  24  26  ar  
 48  24  27  1   
 49  25  26  ar  
 50  25  49  1   
 51  27  28  1   
 52  27  29  1   
 53  28  50  1   
 54  28  51  1   
 55  28  52  1   
 56  29  53  1   
 57  29  54  1   
 58  29  55  1   
@<TRIPOS>SUBSTRUCTURE
  1 ****  14 GROUP 4 **** **** 0

# MOE 2024.06 (io_trps.svl 2023.06)
