@<TRIPOS>MOLECULE
NONAME
58 60 1 0 0 
SMALL
USER_CHARGES


@<TRIPOS>ATOM
  1 O       -3.1000     1.3700    -1.7830 O.2   1 <1>  -0.5700 
  2 C       -2.5860     2.0770    -0.9530 C.2   1 <1>   0.5690 
  3 N       -3.1880     2.6120     0.1370 N.am  1 <1>  -0.6600 
  4 C       -1.1380     2.4670    -1.0140 C.3   1 <1>  -0.0990 
  5 C       -2.2440     3.4350     0.9170 C.3   1 <1>   0.1400 
  6 C       -4.6640     2.7220     0.4140 C.3   1 <1>   0.2010 
  7 C       -0.8570     3.0160     0.3970 C.3   1 <1>   0.0630 
  8 C       -5.5790     1.6730    -0.2400 C.2   1 <1>   0.5690 
  9 C        0.2050     4.1190     0.4720 C.ar  1 <1>  -0.1440 
 10 O       -6.5530     2.0730    -0.8420 O.2   1 <1>  -0.5700 
 11 N       -5.3730     0.3240    -0.1090 N.am  1 <1>  -0.6600 
 12 C        0.1950     5.0350     1.5190 C.ar  1 <1>  -0.1500 
 13 C        1.2130     4.2140    -0.4800 C.ar  1 <1>  -0.1500 
 14 C       -4.3570    -0.2550     0.8230 C.3   1 <1>   0.3210 
 15 C       -5.8950    -0.6170    -1.1490 C.3   1 <1>   0.1400 
 16 C        1.1510     6.0320     1.5990 C.ar  1 <1>  -0.1500 
 17 C        2.1700     5.2110    -0.4020 C.ar  1 <1>  -0.1500 
 18 C       -4.8170    -1.5890     1.4120 C.2   1 <1>   0.0460 
 19 C       -7.2690    -1.2050    -0.7770 C.3   1 <1>   0.3430 
 20 C        2.1390     6.1230     0.6360 C.ar  1 <1>  -0.1500 
 21 N       -5.9220    -1.6710     2.1860 N.2   1 <1>  -0.5650 
 22 C       -4.2350    -2.8060     1.2800 C.2   1 <1>  -0.3320 
 23 N       -8.2350    -0.1300    -0.3870 N.4   1 <1>  -0.9590 
 24 C       -5.9740    -2.9180     2.5260 C.2   1 <1>   0.0360 
 25 N       -4.9790    -3.6630     2.0060 N.pl3 1 <1>   0.0330 
 26 C       -2.9940    -3.2540     0.5240 C.3   1 <1>  -0.0600 
 27 C       -8.4020    -0.0920     1.0950 C.3   1 <1>   0.2630 
 28 C       -9.5340    -0.2190    -1.1060 C.3   1 <1>   0.2630 
 29 H       -1.0340     3.2310    -1.7620 H     1 <1>   0.0800 
 30 H       -0.5160     1.6240    -1.2510 H     1 <1>   0.0800 
 31 H       -2.3390     3.2440     1.9720 H     1 <1>   0.0800 
 32 H       -2.4270     4.4760     0.7110 H     1 <1>   0.0800 
 33 H       -4.9910     3.6920     0.0830 H     1 <1>   0.0800 
 34 H       -4.8210     2.6770     1.4750 H     1 <1>   0.0800 
 35 H       -0.5210     2.1970     1.0100 H     1 <1>   0.0800 
 36 H       -0.5510     4.9860     2.2910 H     1 <1>   0.1500 
 37 H        1.2770     3.5160    -1.2940 H     1 <1>   0.1500 
 38 H       -4.1720     0.4200     1.6380 H     1 <1>   0.0800 
 39 H       -3.4350    -0.3910     0.2890 H     1 <1>   0.0800 
 40 H       -5.1930    -1.4180    -1.3020 H     1 <1>   0.0800 
 41 H       -5.9790    -0.0940    -2.0870 H     1 <1>   0.0800 
 42 H        1.1300     6.7370     2.4120 H     1 <1>   0.1500 
 43 H        2.9420     5.2760    -1.1490 H     1 <1>   0.1500 
 44 H       -7.1440    -1.9000     0.0370 H     1 <1>   0.0800 
 45 H       -7.6480    -1.7520    -1.6230 H     1 <1>   0.0800 
 46 H        2.8830     6.8980     0.6970 H     1 <1>   0.1500 
 47 H       -7.7590     0.7640    -0.6500 H     1 <1>   0.4500 
 48 H       -6.7270    -3.3450     3.1670 H     1 <1>   0.1500 
 49 H       -4.8160    -4.6640     2.1530 H     1 <1>   0.2700 
 50 H       -2.5530    -2.4370    -0.0170 H     1 <1>   0.0800 
 51 H       -3.2460    -4.0270    -0.1810 H     1 <1>   0.0800 
 52 H       -2.2610    -3.6390     1.2110 H     1 <1>   0.0800 
 53 H       -8.7940    -1.0280     1.4550 H     1 <1>   0.0800 
 54 H       -9.0720     0.7040     1.3760 H     1 <1>   0.0800 
 55 H       -7.4490     0.0830     1.5660 H     1 <1>   0.0800 
 56 H      -10.0370    -1.1380    -0.8570 H     1 <1>   0.0800 
 57 H       -9.3710    -0.1860    -2.1710 H     1 <1>   0.0800 
 58 H      -10.1660     0.6100    -0.8320 H     1 <1>   0.0800 
@<TRIPOS>BOND
  1   1   2  2   
  2   2   3  am  
  3   2   4  1   
  4   3   5  1   
  5   3   6  1   
  6   4   7  1   
  7   4  29  1   
  8   4  30  1   
  9   5   7  1   
 10   5  31  1   
 11   5  32  1   
 12   6   8  1   
 13   6  33  1   
 14   6  34  1   
 15   7   9  1   
 16   7  35  1   
 17   8  10  2   
 18   8  11  am  
 19   9  12  ar  
 20   9  13  ar  
 21  11  14  1   
 22  11  15  1   
 23  12  16  ar  
 24  12  36  1   
 25  13  17  ar  
 26  13  37  1   
 27  14  18  1   
 28  14  38  1   
 29  14  39  1   
 30  15  19  1   
 31  15  40  1   
 32  15  41  1   
 33  16  20  ar  
 34  16  42  1   
 35  17  20  ar  
 36  17  43  1   
 37  18  21  1   
 38  18  22  2   
 39  19  23  1   
 40  19  44  1   
 41  19  45  1   
 42  20  46  1   
 43  21  24  2   
 44  22  25  1   
 45  22  26  1   
 46  23  27  1   
 47  23  28  1   
 48  23  47  1   
 49  24  25  1   
 50  24  48  1   
 51  25  49  1   
 52  26  50  1   
 53  26  51  1   
 54  26  52  1   
 55  27  53  1   
 56  27  54  1   
 57  27  55  1   
 58  28  56  1   
 59  28  57  1   
 60  28  58  1   
@<TRIPOS>SUBSTRUCTURE
  1 ****   3 GROUP 4 **** **** 0

# MOE 2024.06 (io_trps.svl 2023.06)
