@<TRIPOS>MOLECULE
NONAME
50 52 1 0 0 
SMALL
USER_CHARGES


@<TRIPOS>ATOM
  1 CL       3.1100     0.4760    -2.1160 Cl    1 <1>  -0.1770 
  2 C        2.9230    -0.7720    -0.9110 C.ar  1 <1>   0.1770 
  3 C        2.6210    -2.0570    -1.3120 C.ar  1 <1>  -0.1500 
  4 C        3.0790    -0.4480     0.4250 C.ar  1 <1>  -0.1500 
  5 C        2.4650    -3.0690    -0.3660 C.ar  1 <1>   0.0860 
  6 C        2.9280    -1.4400     1.3760 C.ar  1 <1>  -0.1500 
  7 C        2.6280    -2.7370     0.9830 C.ar  1 <1>   0.0830 
  8 C        2.1340    -4.4150    -0.7700 C.2   1 <1>   0.5440 
  9 O        2.4710    -3.6800     1.9310 O.3   1 <1>  -0.3630 
 10 O        3.0000    -5.2710    -0.8120 O.2   1 <1>  -0.5700 
 11 N        0.8410    -4.7800    -1.0880 N.am  1 <1>  -0.6600 
 12 C        3.6520    -4.2660     2.4300 C.3   1 <1>   0.0400 
 13 C        0.5500    -6.1710    -1.5140 C.3   1 <1>   0.1400 
 14 C       -0.3350    -4.0850    -0.4990 C.3   1 <1>   0.1400 
 15 C        0.1660    -6.9840    -0.2590 C.3   1 <1>   0.4230 
 16 C       -0.7680    -4.8630     0.7520 C.3   1 <1>  -0.1600 
 17 N        0.0640    -8.4840    -0.4990 N.4   1 <1>  -0.9590 
 18 C       -1.0630    -6.3700     0.4820 C.3   1 <1>   0.0000 
 19 C       -0.6870    -9.2230     0.5670 C.3   1 <1>   0.3430 
 20 C       -0.4320    -8.8890    -1.8550 C.3   1 <1>   0.2630 
 21 C       -1.2480    -7.0940     1.8490 C.3   1 <1>  -0.1600 
 22 C       -2.3420    -6.5200    -0.3900 C.3   1 <1>   0.1200 
 23 C       -0.6020    -8.4920     1.9060 C.3   1 <1>  -0.1600 
 24 O       -3.4130    -5.8210     0.1430 O.3   1 <1>  -0.6800 
 25 H        2.5070    -2.2770    -2.3580 H     1 <1>   0.1500 
 26 H        3.3130     0.5640     0.7070 H     1 <1>   0.1500 
 27 H        3.0370    -1.2130     2.4220 H     1 <1>   0.1500 
 28 H        3.3820    -4.9980     3.1690 H     1 <1>   0.0800 
 29 H        4.2640    -3.5020     2.8760 H     1 <1>   0.0800 
 30 H        4.1770    -4.7390     1.6170 H     1 <1>   0.0800 
 31 H       -0.2430    -6.1530    -2.2380 H     1 <1>   0.0800 
 32 H        1.4200    -6.6000    -1.9790 H     1 <1>   0.0800 
 33 H       -0.0900    -3.0710    -0.2300 H     1 <1>   0.0800 
 34 H       -1.1350    -4.0460    -1.2190 H     1 <1>   0.0800 
 35 H        0.9960    -6.8460     0.4160 H     1 <1>   0.0800 
 36 H        0.0270    -4.7710     1.4720 H     1 <1>   0.0800 
 37 H       -1.6250    -4.3760     1.1830 H     1 <1>   0.0800 
 38 H        1.0410    -8.8090    -0.4330 H     1 <1>   0.4500 
 39 H       -1.7260    -9.3060     0.2900 H     1 <1>   0.0800 
 40 H       -0.2910   -10.2210     0.6690 H     1 <1>   0.0800 
 41 H       -1.4380    -8.5370    -2.0110 H     1 <1>   0.0800 
 42 H       -0.4260    -9.9640    -1.9480 H     1 <1>   0.0800 
 43 H        0.2010    -8.4820    -2.6270 H     1 <1>   0.0800 
 44 H       -0.8190    -6.5120     2.6480 H     1 <1>   0.0800 
 45 H       -2.2950    -7.1850     2.0810 H     1 <1>   0.0800 
 46 H       -2.6430    -7.5480    -0.4760 H     1 <1>   0.0800 
 47 H       -2.1920    -6.1270    -1.3790 H     1 <1>   0.0800 
 48 H       -1.0960    -9.0780     2.6620 H     1 <1>   0.0800 
 49 H        0.4320    -8.4110     2.1980 H     1 <1>   0.0800 
 50 H       -3.6550    -6.1360     1.0360 H     1 <1>   0.4000 
@<TRIPOS>BOND
  1   1   2  1   
  2   2   3  ar  
  3   2   4  ar  
  4   3   5  ar  
  5   3  25  1   
  6   4   6  ar  
  7   4  26  1   
  8   5   7  ar  
  9   5   8  1   
 10   6   7  ar  
 11   6  27  1   
 12   7   9  1   
 13   8  10  2   
 14   8  11  am  
 15   9  12  1   
 16  11  13  1   
 17  11  14  1   
 18  12  28  1   
 19  12  29  1   
 20  12  30  1   
 21  13  15  1   
 22  13  31  1   
 23  13  32  1   
 24  14  16  1   
 25  14  33  1   
 26  14  34  1   
 27  15  17  1   
 28  15  18  1   
 29  15  35  1   
 30  16  18  1   
 31  16  36  1   
 32  16  37  1   
 33  17  19  1   
 34  17  20  1   
 35  17  38  1   
 36  18  21  1   
 37  18  22  1   
 38  19  23  1   
 39  19  39  1   
 40  19  40  1   
 41  20  41  1   
 42  20  42  1   
 43  20  43  1   
 44  21  23  1   
 45  21  44  1   
 46  21  45  1   
 47  22  24  1   
 48  22  46  1   
 49  22  47  1   
 50  23  48  1   
 51  23  49  1   
 52  24  50  1   
@<TRIPOS>SUBSTRUCTURE
  1 ****  11 GROUP 4 **** **** 0

# MOE 2024.06 (io_trps.svl 2023.06)
