@<TRIPOS>MOLECULE
NONAME
42 44 1 0 0 
SMALL
USER_CHARGES


@<TRIPOS>ATOM
  1 CL      -1.1200     0.1340     0.3560 Cl    1 <1>  -0.1230 
  2 C       -1.5000    -1.4890    -0.1750 C.2   1 <1>   0.4120 
  3 N       -2.1820    -1.7560    -1.2280 N.2   1 <1>  -0.4100 
  4 C       -1.0950    -2.6310     0.5020 C.2   1 <1>  -0.1500 
  5 O       -2.2380    -3.0590    -1.2680 O.3   1 <1>  -0.0190 
  6 C       -1.6080    -3.6110    -0.2590 C.2   1 <1>  -0.0400 
  7 C       -1.5620    -5.1220    -0.1240 C.3   1 <1>   0.0200 
  8 C       -2.9740    -5.7010     0.0470 C.3   1 <1>  -0.0990 
  9 C       -2.9830    -7.2150     0.1730 C.2   1 <1>   0.5690 
 10 O       -1.9680    -7.7800     0.5040 O.2   1 <1>  -0.5700 
 11 N       -4.1330    -7.9090    -0.0740 N.am  1 <1>  -0.6600 
 12 C       -5.4870    -7.3480    -0.3230 C.3   1 <1>   0.1400 
 13 C       -4.2020    -9.3920    -0.0090 C.3   1 <1>   0.1400 
 14 C       -6.4370    -8.4580     0.1200 C.3   1 <1>   0.2000 
 15 C       -5.6780    -9.7370    -0.2420 C.3   1 <1>  -0.0800 
 16 O       -6.5780    -8.3750     1.4980 O.3   1 <1>  -0.6800 
 17 C       -6.1380   -11.0160     0.4810 C.3   1 <1>   0.0210 
 18 C       -5.3000   -12.2060     0.0550 C.2   1 <1>   0.1080 
 19 N       -5.2150   -12.6040    -1.1770 N.2   1 <1>  -0.7070 
 20 C       -4.5300   -12.9850     0.9130 C.2   1 <1>  -0.1500 
 21 N       -4.3810   -13.6600    -1.1360 N.pl3 1 <1>   0.3000 
 22 C       -3.9510   -13.9090     0.1190 C.2   1 <1>  -0.3320 
 23 C       -2.9990   -15.0320     0.4870 C.3   1 <1>  -0.0600 
 24 H       -0.5170    -2.6660     1.4060 H     1 <1>   0.1500 
 25 H       -1.1020    -5.5420    -1.0020 H     1 <1>   0.0800 
 26 H       -0.9560    -5.3830     0.7260 H     1 <1>   0.0800 
 27 H       -3.5660    -5.4200    -0.8040 H     1 <1>   0.0800 
 28 H       -3.4250    -5.2850     0.9280 H     1 <1>   0.0800 
 29 H       -5.6610    -6.4370     0.2240 H     1 <1>   0.0800 
 30 H       -5.6020    -7.1680    -1.3770 H     1 <1>   0.0800 
 31 H       -3.5740    -9.8380    -0.7620 H     1 <1>   0.0800 
 32 H       -3.8750    -9.7190     0.9630 H     1 <1>   0.0800 
 33 H       -7.4120    -8.3930    -0.3320 H     1 <1>   0.0800 
 34 H       -5.7990    -9.8970    -1.3000 H     1 <1>   0.0800 
 35 H       -5.6850    -8.3320     1.8980 H     1 <1>   0.4000 
 36 H       -7.1660   -11.2160     0.2390 H     1 <1>   0.0800 
 37 H       -6.0630   -10.8990     1.5460 H     1 <1>   0.0800 
 38 H       -4.4350   -12.8540     1.9760 H     1 <1>   0.1500 
 39 H       -4.1250   -14.1860    -1.9800 H     1 <1>   0.2700 
 40 H       -2.8090   -15.0230     1.5460 H     1 <1>   0.0800 
 41 H       -2.0630   -14.9100    -0.0290 H     1 <1>   0.0800 
 42 H       -3.4250   -15.9830     0.2240 H     1 <1>   0.0800 
@<TRIPOS>BOND
  1   1   2  1   
  2   2   3  2   
  3   2   4  1   
  4   3   5  1   
  5   4   6  2   
  6   4  24  1   
  7   5   6  1   
  8   6   7  1   
  9   7   8  1   
 10   7  25  1   
 11   7  26  1   
 12   8   9  1   
 13   8  27  1   
 14   8  28  1   
 15   9  10  2   
 16   9  11  am  
 17  11  12  1   
 18  11  13  1   
 19  12  14  1   
 20  12  29  1   
 21  12  30  1   
 22  13  15  1   
 23  13  31  1   
 24  13  32  1   
 25  14  15  1   
 26  14  16  1   
 27  14  33  1   
 28  15  17  1   
 29  15  34  1   
 30  16  35  1   
 31  17  18  1   
 32  17  36  1   
 33  17  37  1   
 34  18  19  2   
 35  18  20  1   
 36  19  21  1   
 37  20  22  2   
 38  20  38  1   
 39  21  22  1   
 40  21  39  1   
 41  22  23  1   
 42  23  40  1   
 43  23  41  1   
 44  23  42  1   
@<TRIPOS>SUBSTRUCTURE
  1 ****  11 GROUP 4 **** **** 0

# MOE 2024.06 (io_trps.svl 2023.06)
