@<TRIPOS>MOLECULE
NONAME
47 50 1 0 0 
SMALL
USER_CHARGES


@<TRIPOS>ATOM
  1 O        0.8220    -0.5300     1.8660 O.2   1 <1>  -0.5700 
  2 C        1.3860    -0.9100     0.8590 C.2   1 <1>   0.5440 
  3 N        2.1200    -0.0570     0.0880 N.am  1 <1>  -0.4930 
  4 C        1.2710    -2.2910     0.4630 C.ar  1 <1>   0.0860 
  5 C        2.3700     1.3270     0.2470 C.2   1 <1>   0.0630 
  6 C        0.1080    -2.7830    -0.1470 C.ar  1 <1>  -0.0230 
  7 C        2.3330    -3.1680     0.6790 C.ar  1 <1>  -0.1500 
  8 C        3.6180     1.9130     0.0080 C.2   1 <1>   0.3720 
  9 C        1.5660     2.3520     0.6030 C.2   1 <1>  -0.3320 
 10 N       -1.0010    -1.9330    -0.3980 N.pl3 1 <1>   0.5930 
 11 C        0.0470    -4.1200    -0.5300 C.ar  1 <1>  -0.1500 
 12 C        2.2590    -4.4950     0.2990 C.ar  1 <1>  -0.1500 
 13 N        3.6160     3.1910     0.2210 N.2   1 <1>  -0.7070 
 14 N        4.7560     1.1950    -0.4110 N.pl3 1 <1>  -0.8210 
 15 N        2.3460     3.4620     0.5980 N.pl3 1 <1>   0.3140 
 16 C        0.0800     2.3510     0.9390 C.3   1 <1>  -0.0600 
 17 N       -1.5150    -1.7490    -1.6180 N.2   1 <1>  -0.7070 
 18 C       -1.7590    -1.2250     0.4590 C.2   1 <1>   0.0360 
 19 C        1.1120    -4.9720    -0.3080 C.ar  1 <1>  -0.1500 
 20 C        5.7640     1.1040     0.6790 C.3   1 <1>   0.2090 
 21 C        5.4150     1.8130    -1.5970 C.3   1 <1>   0.2090 
 22 C        1.9390     4.8310     0.9380 C.3   1 <1>   0.0160 
 23 C       -2.5070    -0.9550    -1.4030 C.2   1 <1>   0.3660 
 24 N       -2.7110    -0.5960    -0.1300 N.2   1 <1>  -0.5650 
 25 C        7.1160     1.3470     0.0260 C.3   1 <1>  -0.1600 
 26 C        6.7920     2.2690    -1.1360 C.3   1 <1>  -0.1600 
 27 H        2.7860    -0.4780    -0.5630 H     1 <1>   0.3700 
 28 H        3.2270    -2.8010     1.1540 H     1 <1>   0.1500 
 29 H       -0.8410    -4.4940    -1.0120 H     1 <1>   0.1500 
 30 H        3.0900    -5.1570     0.4750 H     1 <1>   0.1500 
 31 H       -0.3720     1.4250     0.6360 H     1 <1>   0.0800 
 32 H       -0.4250     3.1480     0.4250 H     1 <1>   0.0800 
 33 H       -0.0580     2.4670     1.9990 H     1 <1>   0.0800 
 34 H       -1.5610    -1.2080     1.5160 H     1 <1>   0.1500 
 35 H        1.0510    -6.0050    -0.6090 H     1 <1>   0.1500 
 36 H        5.7230     0.1360     1.1470 H     1 <1>   0.0800 
 37 H        5.5770     1.8620     1.4230 H     1 <1>   0.0800 
 38 H        4.8450     2.6380    -1.9920 H     1 <1>   0.0800 
 39 H        5.5120     1.0620    -2.3610 H     1 <1>   0.0800 
 40 H        1.4500     4.8260     1.8940 H     1 <1>   0.0800 
 41 H        1.2700     5.1960     0.1830 H     1 <1>   0.0800 
 42 H        2.8110     5.4570     0.9810 H     1 <1>   0.0800 
 43 H       -3.1540    -0.5870    -2.1860 H     1 <1>   0.1500 
 44 H        7.5030     0.4120    -0.3380 H     1 <1>   0.0800 
 45 H        7.8190     1.7820     0.7140 H     1 <1>   0.0800 
 46 H        6.7170     3.2850    -0.7880 H     1 <1>   0.0800 
 47 H        7.5190     2.2160    -1.9260 H     1 <1>   0.0800 
@<TRIPOS>BOND
  1   1   2  2   
  2   2   3  am  
  3   2   4  1   
  4   3   5  1   
  5   3  27  1   
  6   4   6  ar  
  7   4   7  ar  
  8   5   8  1   
  9   5   9  2   
 10   6  10  1   
 11   6  11  ar  
 12   7  12  ar  
 13   7  28  1   
 14   8  13  2   
 15   8  14  1   
 16   9  15  1   
 17   9  16  1   
 18  10  17  1   
 19  10  18  1   
 20  11  19  ar  
 21  11  29  1   
 22  12  19  ar  
 23  12  30  1   
 24  13  15  1   
 25  14  20  1   
 26  14  21  1   
 27  15  22  1   
 28  16  31  1   
 29  16  32  1   
 30  16  33  1   
 31  17  23  2   
 32  18  24  2   
 33  18  34  1   
 34  19  35  1   
 35  20  25  1   
 36  20  36  1   
 37  20  37  1   
 38  21  26  1   
 39  21  38  1   
 40  21  39  1   
 41  22  40  1   
 42  22  41  1   
 43  22  42  1   
 44  23  24  1   
 45  23  43  1   
 46  25  26  1   
 47  25  44  1   
 48  25  45  1   
 49  26  46  1   
 50  26  47  1   
@<TRIPOS>SUBSTRUCTURE
  1 ****   3 GROUP 4 **** **** 0

# MOE 2024.06 (io_trps.svl 2023.06)
