@<TRIPOS>MOLECULE
NONAME
42 43 1 0 0 
SMALL
USER_CHARGES


@<TRIPOS>ATOM
  1 CL      -2.2580    -0.0680    -1.4730 Cl    1 <1>  -0.1770 
  2 C       -2.7870    -1.1560    -0.2150 C.ar  1 <1>   0.1770 
  3 C       -2.5950    -2.5160    -0.3720 C.ar  1 <1>  -0.1500 
  4 C       -3.3910    -0.6410     0.9160 C.ar  1 <1>  -0.1500 
  5 C       -3.0160    -3.3860     0.6220 C.ar  1 <1>  -0.1440 
  6 C       -3.8090    -1.5080     1.9110 C.ar  1 <1>  -0.1500 
  7 C       -3.6220    -2.8730     1.7620 C.ar  1 <1>  -0.1500 
  8 C       -2.8240    -4.8850     0.4630 C.3   1 <1>  -0.0160 
  9 C       -4.0360    -5.5000    -0.2520 C.3   1 <1>  -0.0990 
 10 C       -3.9590    -7.0140    -0.4110 C.2   1 <1>   0.5690 
 11 O       -2.9180    -7.5620    -0.1350 O.2   1 <1>  -0.5700 
 12 N       -5.0450    -7.7190    -0.8690 N.am  1 <1>  -0.6600 
 13 C       -4.9520    -9.2000    -1.0320 C.3   1 <1>   0.3200 
 14 C       -6.3060    -7.0860    -1.3640 C.3   1 <1>   0.1400 
 15 C       -6.0270    -9.8900    -0.2180 C.2   1 <1>  -0.3320 
 16 C       -7.3210    -6.8620    -0.2340 C.3   1 <1>   0.1200 
 17 N       -7.2460   -10.2330    -0.6770 N.pl3 1 <1>   0.0330 
 18 C       -5.9870   -10.2850     1.0730 C.2   1 <1>   0.0770 
 19 O       -8.4950    -6.3610    -0.7820 O.3   1 <1>  -0.6800 
 20 C       -7.8730   -10.8060     0.3720 C.2   1 <1>   0.0060 
 21 N       -7.1480   -10.8590     1.4400 N.2   1 <1>  -0.5650 
 22 C       -9.2910   -11.3280     0.2940 C.3   1 <1>  -0.0600 
 23 H       -2.1200    -2.8810    -1.2650 H     1 <1>   0.1500 
 24 H       -3.5280     0.4210     1.0130 H     1 <1>   0.1500 
 25 H       -4.2790    -1.1220     2.7990 H     1 <1>   0.1500 
 26 H       -3.9510    -3.5380     2.5420 H     1 <1>   0.1500 
 27 H       -2.7020    -5.3420     1.4300 H     1 <1>   0.0800 
 28 H       -1.9280    -5.0810    -0.1020 H     1 <1>   0.0800 
 29 H       -4.1200    -5.0590    -1.2270 H     1 <1>   0.0800 
 30 H       -4.9140    -5.2540     0.3110 H     1 <1>   0.0800 
 31 H       -3.9930    -9.5600    -0.6990 H     1 <1>   0.0800 
 32 H       -5.0460    -9.4570    -2.0730 H     1 <1>   0.0800 
 33 H       -6.7490    -7.7220    -2.1100 H     1 <1>   0.0800 
 34 H       -6.0790    -6.1450    -1.8320 H     1 <1>   0.0800 
 35 H       -6.9610    -6.1590     0.4950 H     1 <1>   0.0800 
 36 H       -7.5640    -7.7840     0.2610 H     1 <1>   0.0800 
 37 H       -7.6390   -10.0840    -1.6100 H     1 <1>   0.2700 
 38 H       -5.1710   -10.1800     1.7700 H     1 <1>   0.1500 
 39 H       -8.4170    -5.4050    -0.9710 H     1 <1>   0.4000 
 40 H       -9.3600   -12.1030    -0.4470 H     1 <1>   0.0800 
 41 H       -9.9640   -10.5290     0.0430 H     1 <1>   0.0800 
 42 H       -9.5790   -11.7350     1.2470 H     1 <1>   0.0800 
@<TRIPOS>BOND
  1   1   2  1   
  2   2   3  ar  
  3   2   4  ar  
  4   3   5  ar  
  5   3  23  1   
  6   4   6  ar  
  7   4  24  1   
  8   5   7  ar  
  9   5   8  1   
 10   6   7  ar  
 11   6  25  1   
 12   7  26  1   
 13   8   9  1   
 14   8  27  1   
 15   8  28  1   
 16   9  10  1   
 17   9  29  1   
 18   9  30  1   
 19  10  11  2   
 20  10  12  am  
 21  12  13  1   
 22  12  14  1   
 23  13  15  1   
 24  13  31  1   
 25  13  32  1   
 26  14  16  1   
 27  14  33  1   
 28  14  34  1   
 29  15  17  1   
 30  15  18  2   
 31  16  19  1   
 32  16  35  1   
 33  16  36  1   
 34  17  20  1   
 35  17  37  1   
 36  18  21  1   
 37  18  38  1   
 38  19  39  1   
 39  20  21  2   
 40  20  22  1   
 41  22  40  1   
 42  22  41  1   
 43  22  42  1   
@<TRIPOS>SUBSTRUCTURE
  1 ****   9 GROUP 4 **** **** 0

# MOE 2024.06 (io_trps.svl 2023.06)
