@<TRIPOS>MOLECULE
NONAME
52 56 1 0 0 
SMALL
USER_CHARGES


@<TRIPOS>ATOM
  1 O        0.6550     0.4570     2.2150 O.2   1 <1>  -0.5700 
  2 C        1.3780     0.7610     1.2830 C.2   1 <1>   0.5440 
  3 N        0.9700     1.7680     0.4380 N.am  1 <1>  -0.6600 
  4 C        2.6420     0.1020     1.0830 C.ar  1 <1>   0.0860 
  5 C       -0.3350     2.4490     0.5740 C.3   1 <1>   0.1400 
  6 C        1.6820     2.2080    -0.7800 C.3   1 <1>   0.1400 
  7 C        2.7550    -1.2060     0.5630 C.ar  1 <1>   0.4100 
  8 C        3.8090     0.7800     1.4100 C.ar  1 <1>  -0.1500 
  9 C       -0.3600     3.4750    -0.5550 C.3   1 <1>  -0.1600 
 10 C        0.6210     2.9380    -1.5950 C.3   1 <1>  -0.1600 
 11 N        3.9330    -1.8070     0.3690 N.ar  1 <1>  -0.6200 
 12 N        1.6650    -1.9900     0.2070 N.pl3 1 <1>  -0.8380 
 13 C        5.0130     0.1490     1.2090 C.ar  1 <1>  -0.1500 
 14 C        5.0160    -1.1310     0.6910 C.ar  1 <1>   0.1600 
 15 C        1.7140    -3.4620     0.4760 C.3   1 <1>   0.2090 
 16 C        0.4790    -1.4540    -0.5190 C.3   1 <1>   0.2090 
 17 C        0.3160    -4.1010     0.4750 C.3   1 <1>   0.1000 
 18 C       -0.0470    -2.4980    -1.5050 C.3   1 <1>  -0.1600 
 19 C        0.3970    -5.6000     0.7410 C.2   1 <1>   0.0070 
 20 C       -0.4950    -3.7930    -0.8040 C.3   1 <1>  -0.1600 
 21 N       -0.1390    -6.1660     1.7730 N.2   1 <1>  -0.3380 
 22 N        1.0250    -6.4870    -0.0450 N.pl3 1 <1>   0.3340 
 23 N        0.1250    -7.4640     1.7040 N.2   1 <1>  -0.3380 
 24 C        0.8240    -7.6530     0.6160 C.2   1 <1>   0.1410 
 25 C        1.7390    -6.4570    -1.2450 C.2   1 <1>  -0.1810 
 26 C        1.3580    -8.8550     0.0860 C.2   1 <1>  -0.1050 
 27 C        2.2540    -7.6030    -1.7620 C.2   1 <1>  -0.1500 
 28 C        2.0620    -8.8340    -1.0810 C.2   1 <1>  -0.1500 
 29 H       -0.4220     2.9150     1.5410 H     1 <1>   0.0800 
 30 H       -1.1230     1.7260     0.4520 H     1 <1>   0.0800 
 31 H        2.0950     1.3740    -1.3210 H     1 <1>   0.0800 
 32 H        2.4700     2.8870    -0.5000 H     1 <1>   0.0800 
 33 H        3.7600     1.7760     1.8170 H     1 <1>   0.1500 
 34 H       -0.0080     4.4180    -0.1740 H     1 <1>   0.0800 
 35 H       -1.3500     3.6070    -0.9520 H     1 <1>   0.0800 
 36 H        0.1240     2.2300    -2.2350 H     1 <1>   0.0800 
 37 H        1.0470     3.7190    -2.2000 H     1 <1>   0.0800 
 38 H        5.9400     0.6380     1.4520 H     1 <1>   0.1500 
 39 H        5.9610    -1.6240     0.5350 H     1 <1>   0.1500 
 40 H        2.1770    -3.6280     1.4350 H     1 <1>   0.0800 
 41 H        2.3350    -3.9190    -0.2720 H     1 <1>   0.0800 
 42 H        0.7540    -0.5650    -1.0580 H     1 <1>   0.0800 
 43 H       -0.2890    -1.2000     0.1940 H     1 <1>   0.0800 
 44 H       -0.2070    -3.6590     1.3060 H     1 <1>   0.0800 
 45 H        0.7400    -2.7170    -2.2060 H     1 <1>   0.0800 
 46 H       -0.8700    -2.0850    -2.0610 H     1 <1>   0.0800 
 47 H       -1.5310    -3.7060    -0.5230 H     1 <1>   0.0800 
 48 H       -0.4290    -4.6020    -1.5090 H     1 <1>   0.0800 
 49 H        1.8510    -5.5010    -1.7220 H     1 <1>   0.1500 
 50 H        1.1840    -9.7610     0.6390 H     1 <1>   0.1500 
 51 H        2.8110    -7.6110    -2.6850 H     1 <1>   0.1500 
 52 H        2.4790    -9.7310    -1.5060 H     1 <1>   0.1500 
@<TRIPOS>BOND
  1   1   2  2   
  2   2   3  am  
  3   2   4  1   
  4   3   5  1   
  5   3   6  1   
  6   4   7  ar  
  7   4   8  ar  
  8   5   9  1   
  9   5  29  1   
 10   5  30  1   
 11   6  10  1   
 12   6  31  1   
 13   6  32  1   
 14   7  11  ar  
 15   7  12  1   
 16   8  13  ar  
 17   8  33  1   
 18   9  10  1   
 19   9  34  1   
 20   9  35  1   
 21  10  36  1   
 22  10  37  1   
 23  11  14  ar  
 24  12  15  1   
 25  12  16  1   
 26  13  14  ar  
 27  13  38  1   
 28  14  39  1   
 29  15  17  1   
 30  15  40  1   
 31  15  41  1   
 32  16  18  1   
 33  16  42  1   
 34  16  43  1   
 35  17  19  1   
 36  17  20  1   
 37  17  44  1   
 38  18  20  1   
 39  18  45  1   
 40  18  46  1   
 41  19  21  2   
 42  19  22  1   
 43  20  47  1   
 44  20  48  1   
 45  21  23  1   
 46  22  24  1   
 47  22  25  1   
 48  23  24  2   
 49  24  26  1   
 50  25  27  2   
 51  25  49  1   
 52  26  28  2   
 53  26  50  1   
 54  27  28  1   
 55  27  51  1   
 56  28  52  1   
@<TRIPOS>SUBSTRUCTURE
  1 ****  12 GROUP 4 **** **** 0

# MOE 2024.06 (io_trps.svl 2023.06)
