@<TRIPOS>MOLECULE
NONAME
44 46 1 0 0 
SMALL
USER_CHARGES


@<TRIPOS>ATOM
  1 O        0.2330    -0.0500    -1.1350 O.2   1 <1>  -0.5700 
  2 C        1.0320    -0.6050    -0.4080 C.2   1 <1>   0.7160 
  3 N        1.9400     0.1190     0.3240 N.am  1 <1>  -0.4940 
  4 C        1.0540    -2.0410    -0.2890 C.2   1 <1>  -0.0860 
  5 C        2.3090     1.4860     0.2990 C.2   1 <1>  -0.0880 
  6 C        0.0610    -2.9710    -0.1930 C.2   1 <1>  -0.3320 
  7 C        2.2180    -2.8100    -0.2500 C.2   1 <1>   0.1390 
  8 N        1.5130     2.5740     0.0850 N.pl3 1 <1>   0.3140 
  9 C        3.5580     1.9680     0.5060 C.2   1 <1>  -0.1810 
 10 N        0.6290    -4.2080    -0.0820 N.pl3 1 <1>   0.5930 
 11 C       -1.4430    -2.7170    -0.2060 C.3   1 <1>  -0.0600 
 12 N        1.9890    -4.0720    -0.1270 N.2   1 <1>  -0.7070 
 13 N        2.2230     3.7210     0.1480 N.2   1 <1>  -0.7070 
 14 C        0.0560     2.6390    -0.0880 C.3   1 <1>   0.0160 
 15 C        3.4380     3.3500     0.3910 C.2   1 <1>   0.1080 
 16 C        4.8300     1.1870     0.7930 C.3   1 <1>   0.0210 
 17 C       -0.0080    -5.4940     0.0270 C.ar  1 <1>   0.2870 
 18 C        4.5610     4.3530     0.5270 C.3   1 <1>  -0.0590 
 19 C        5.4880     0.7440    -0.5140 C.3   1 <1>  -0.2400 
 20 N       -1.1220    -5.6160     0.7630 N.ar  1 <1>  -0.6200 
 21 C        0.5620    -6.5820    -0.6350 C.ar  1 <1>  -0.1500 
 22 C       -1.6590    -6.8220     0.8310 C.ar  1 <1>   0.1600 
 23 C       -0.0100    -7.8320    -0.5580 C.ar  1 <1>  -0.1500 
 24 C       -1.1550    -7.9450     0.2010 C.ar  1 <1>  -0.1500 
 25 H        2.5300    -0.4570     0.9200 H     1 <1>   0.3700 
 26 H        3.2120    -2.4010    -0.3250 H     1 <1>   0.1500 
 27 H       -1.6600    -1.6840    -0.4070 H     1 <1>   0.0800 
 28 H       -1.8710    -2.9740     0.7460 H     1 <1>   0.0800 
 29 H       -1.9130    -3.3140    -0.9680 H     1 <1>   0.0800 
 30 H       -0.4100     1.8820     0.5130 H     1 <1>   0.0800 
 31 H       -0.1790     2.4820    -1.1240 H     1 <1>   0.0800 
 32 H       -0.2920     3.6080     0.2160 H     1 <1>   0.0800 
 33 H        4.5970     0.3240     1.3900 H     1 <1>   0.0800 
 34 H        5.5130     1.7970     1.3580 H     1 <1>   0.0800 
 35 H        5.4200     4.0230    -0.0270 H     1 <1>   0.0800 
 36 H        4.8220     4.4650     1.5630 H     1 <1>   0.0800 
 37 H        4.2460     5.3050     0.1420 H     1 <1>   0.0800 
 38 H        4.8140     0.1220    -1.0770 H     1 <1>   0.0800 
 39 H        6.3870     0.1900    -0.3110 H     1 <1>   0.0800 
 40 H        5.7380     1.6030    -1.1110 H     1 <1>   0.0800 
 41 H        1.4600    -6.4400    -1.2100 H     1 <1>   0.1500 
 42 H       -2.5530    -6.9230     1.4230 H     1 <1>   0.1500 
 43 H        0.4180    -8.6810    -1.0630 H     1 <1>   0.1500 
 44 H       -1.6510    -8.8930     0.3050 H     1 <1>   0.1500 
@<TRIPOS>BOND
  1   1   2  2   
  2   2   3  am  
  3   2   4  1   
  4   3   5  1   
  5   3  25  1   
  6   4   6  2   
  7   4   7  1   
  8   5   8  1   
  9   5   9  2   
 10   6  10  1   
 11   6  11  1   
 12   7  12  2   
 13   7  26  1   
 14   8  13  1   
 15   8  14  1   
 16   9  15  1   
 17   9  16  1   
 18  10  12  1   
 19  10  17  1   
 20  11  27  1   
 21  11  28  1   
 22  11  29  1   
 23  13  15  2   
 24  14  30  1   
 25  14  31  1   
 26  14  32  1   
 27  15  18  1   
 28  16  19  1   
 29  16  33  1   
 30  16  34  1   
 31  17  20  ar  
 32  17  21  ar  
 33  18  35  1   
 34  18  36  1   
 35  18  37  1   
 36  19  38  1   
 37  19  39  1   
 38  19  40  1   
 39  20  22  ar  
 40  21  23  ar  
 41  21  41  1   
 42  22  24  ar  
 43  22  42  1   
 44  23  24  ar  
 45  23  43  1   
 46  24  44  1   
@<TRIPOS>SUBSTRUCTURE
  1 ****   4 GROUP 4 **** **** 0

# MOE 2024.06 (io_trps.svl 2023.06)
