@<TRIPOS>MOLECULE
NONAME
44 46 1 0 0 
SMALL
USER_CHARGES


@<TRIPOS>ATOM
  1 CL      -0.0470     0.2340     2.0320 Cl    1 <1>  -0.1770 
  2 C       -1.3870     1.1100     1.3350 C.ar  1 <1>   0.1770 
  3 C       -2.4540     0.4030     0.8190 C.ar  1 <1>  -0.1500 
  4 C       -1.3540     2.4890     1.3070 C.ar  1 <1>  -0.1500 
  5 C       -3.5260     1.0910     0.2600 C.ar  1 <1>   0.0830 
  6 C       -2.4150     3.1940     0.7550 C.ar  1 <1>  -0.1440 
  7 O       -4.5840     0.4300    -0.2940 O.3   1 <1>  -0.3620 
  8 C       -3.5100     2.4960     0.2480 C.ar  1 <1>   0.0830 
  9 C       -2.3730     4.7210     0.7230 C.3   1 <1>   0.2540 
 10 C       -4.5730    -0.9680    -0.4850 C.3   1 <1>   0.0400 
 11 O       -4.5370     3.2360    -0.2570 O.3   1 <1>  -0.3630 
 12 N       -1.0150     5.2160     0.4350 N.3   1 <1>  -0.8100 
 13 C       -5.8500     2.9770     0.1920 C.3   1 <1>   0.0400 
 14 C       -0.8360     6.6200     0.8660 C.3   1 <1>   0.1100 
 15 C       -0.6000     4.8960    -0.9480 C.3   1 <1>   0.1100 
 16 C        0.6070     7.1860     0.7950 C.3   1 <1>   0.2200 
 17 C        0.8830     5.1600    -1.2760 C.3   1 <1>  -0.0190 
 18 N        0.9680     7.5270    -0.5970 N.am  1 <1>  -0.7300 
 19 C        1.7040     6.3040     1.4440 C.3   1 <1>   0.1200 
 20 C        1.1140     6.6210    -1.5750 C.2   1 <1>   0.5690 
 21 C        1.9330     4.6270    -0.2770 C.3   1 <1>   0.1200 
 22 O        1.7000     4.9550     1.0630 O.3   1 <1>  -0.5600 
 23 O        1.4310     6.9710    -2.6840 O.2   1 <1>  -0.5700 
 24 H       -2.4180    -0.6670     0.8680 H     1 <1>   0.1500 
 25 H       -0.5000     3.0080     1.7090 H     1 <1>   0.1500 
 26 H       -2.6890     5.0760     1.6880 H     1 <1>   0.0800 
 27 H       -3.0530     5.1140    -0.0140 H     1 <1>   0.0800 
 28 H       -5.4740    -1.2410    -1.0050 H     1 <1>   0.0800 
 29 H       -4.5450    -1.4530     0.4740 H     1 <1>   0.0800 
 30 H       -3.7160    -1.2330    -1.0790 H     1 <1>   0.0800 
 31 H       -6.4270     3.8770     0.0800 H     1 <1>   0.0800 
 32 H       -5.8200     2.6820     1.2260 H     1 <1>   0.0800 
 33 H       -6.2770     2.1970    -0.4120 H     1 <1>   0.0800 
 34 H       -1.4890     7.2570     0.2960 H     1 <1>   0.0800 
 35 H       -1.1410     6.6840     1.8960 H     1 <1>   0.0800 
 36 H       -0.7770     3.8490    -1.1220 H     1 <1>   0.0800 
 37 H       -1.2190     5.4420    -1.6400 H     1 <1>   0.0800 
 38 H        0.6000     8.1140     1.3380 H     1 <1>   0.0800 
 39 H        1.0740     4.6500    -2.2030 H     1 <1>   0.0800 
 40 H        1.1250     8.5060    -0.8390 H     1 <1>   0.3700 
 41 H        1.5570     6.3090     2.5090 H     1 <1>   0.0800 
 42 H        2.6790     6.7100     1.2410 H     1 <1>   0.0800 
 43 H        2.9150     4.9780    -0.5430 H     1 <1>   0.0800 
 44 H        1.9380     3.5520    -0.3250 H     1 <1>   0.0800 
@<TRIPOS>BOND
  1   1   2  1   
  2   2   3  ar  
  3   2   4  ar  
  4   3   5  ar  
  5   3  24  1   
  6   4   6  ar  
  7   4  25  1   
  8   5   7  1   
  9   5   8  ar  
 10   6   8  ar  
 11   6   9  1   
 12   7  10  1   
 13   8  11  1   
 14   9  12  1   
 15   9  26  1   
 16   9  27  1   
 17  10  28  1   
 18  10  29  1   
 19  10  30  1   
 20  11  13  1   
 21  12  14  1   
 22  12  15  1   
 23  13  31  1   
 24  13  32  1   
 25  13  33  1   
 26  14  16  1   
 27  14  34  1   
 28  14  35  1   
 29  15  17  1   
 30  15  36  1   
 31  15  37  1   
 32  16  18  1   
 33  16  19  1   
 34  16  38  1   
 35  17  20  1   
 36  17  21  1   
 37  17  39  1   
 38  18  20  am  
 39  18  40  1   
 40  19  22  1   
 41  19  41  1   
 42  19  42  1   
 43  20  23  2   
 44  21  22  1   
 45  21  43  1   
 46  21  44  1   
@<TRIPOS>SUBSTRUCTURE
  1 ****   6 GROUP 4 **** **** 0

# MOE 2024.06 (io_trps.svl 2023.06)
