@<TRIPOS>MOLECULE
NONAME
48 50 1 0 0 
SMALL
USER_CHARGES


@<TRIPOS>ATOM
  1 O       -0.4480    -3.9950    -1.3190 O.2   1 <1>  -0.5700 
  2 C        0.0460    -3.4530    -0.3600 C.2   1 <1>   0.5690 
  3 N        0.5580    -4.0860     0.7270 N.am  1 <1>  -0.6600 
  4 C        0.1370    -1.9600    -0.2240 C.3   1 <1>  -0.0990 
  5 C        1.0940    -3.1190     1.7110 C.3   1 <1>   0.1400 
  6 C        0.9030    -5.5350     0.9150 C.3   1 <1>   0.1400 
  7 C        0.5710    -1.7580     1.2340 C.3   1 <1>  -0.1600 
  8 C        0.1560    -6.5420     0.0080 C.3   1 <1>   0.3430 
  9 N       -1.3120    -6.2780    -0.0950 N.4   1 <1>  -0.9590 
 10 C       -2.0310    -6.2580     1.2080 C.3   1 <1>   0.3430 
 11 C       -1.9600    -7.1440    -1.1150 C.3   1 <1>   0.3430 
 12 C       -3.4620    -5.7800     0.9940 C.3   1 <1>  -0.1600 
 13 C       -3.3890    -6.6730    -1.3570 C.3   1 <1>  -0.1600 
 14 C       -4.1740    -6.6460    -0.0410 C.3   1 <1>   0.2000 
 15 O       -5.4320    -6.0820    -0.2300 O.3   1 <1>  -0.5600 
 16 C       -6.3580    -6.8060    -1.0070 C.3   1 <1>   0.2630 
 17 C       -6.5710    -8.2280    -0.4900 C.ar  1 <1>   0.1660 
 18 N       -5.8860    -9.1980    -1.0880 N.ar  1 <1>  -0.6200 
 19 C       -7.4500    -8.4370     0.5630 C.ar  1 <1>  -0.1500 
 20 C       -6.1040   -10.4200    -0.6260 C.ar  1 <1>   0.1600 
 21 C       -7.6580    -9.7140     1.0370 C.ar  1 <1>  -0.1500 
 22 C       -6.9620   -10.7270     0.4160 C.ar  1 <1>  -0.1500 
 23 H       -0.8100    -1.4950    -0.4300 H     1 <1>   0.0800 
 24 H        0.8820    -1.5910    -0.9050 H     1 <1>   0.0800 
 25 H        2.1710    -3.1390     1.6870 H     1 <1>   0.0800 
 26 H        0.7460    -3.3430     2.7050 H     1 <1>   0.0800 
 27 H        0.7140    -5.8000     1.9410 H     1 <1>   0.0800 
 28 H        1.9610    -5.6560     0.7520 H     1 <1>   0.0800 
 29 H       -0.2810    -1.4810     1.8320 H     1 <1>   0.0800 
 30 H        1.3200    -0.9920     1.3310 H     1 <1>   0.0800 
 31 H        0.3240    -7.5410     0.3730 H     1 <1>   0.0800 
 32 H        0.5870    -6.4760    -0.9780 H     1 <1>   0.0800 
 33 H       -1.3480    -5.3100    -0.4840 H     1 <1>   0.4500 
 34 H       -1.5350    -5.5890     1.8930 H     1 <1>   0.0800 
 35 H       -2.0390    -7.2470     1.6370 H     1 <1>   0.0800 
 36 H       -1.9700    -8.1670    -0.7760 H     1 <1>   0.0800 
 37 H       -1.4090    -7.0940    -2.0410 H     1 <1>   0.0800 
 38 H       -3.4510    -4.7540     0.6710 H     1 <1>   0.0800 
 39 H       -3.9940    -5.8350     1.9270 H     1 <1>   0.0800 
 40 H       -3.8470    -7.3580    -2.0470 H     1 <1>   0.0800 
 41 H       -3.3740    -5.6930    -1.8020 H     1 <1>   0.0800 
 42 H       -4.2870    -7.6420     0.3560 H     1 <1>   0.0800 
 43 H       -6.0240    -6.8220    -2.0280 H     1 <1>   0.0800 
 44 H       -7.2880    -6.2680    -0.9730 H     1 <1>   0.0800 
 45 H       -7.9650    -7.6050     1.0090 H     1 <1>   0.1500 
 46 H       -5.5710   -11.2240    -1.1050 H     1 <1>   0.1500 
 47 H       -8.3340    -9.9100     1.8520 H     1 <1>   0.1500 
 48 H       -7.0830   -11.7470     0.7330 H     1 <1>   0.1500 
@<TRIPOS>BOND
  1   1   2  2   
  2   2   3  am  
  3   2   4  1   
  4   3   5  1   
  5   3   6  1   
  6   4   7  1   
  7   4  23  1   
  8   4  24  1   
  9   5   7  1   
 10   5  25  1   
 11   5  26  1   
 12   6   8  1   
 13   6  27  1   
 14   6  28  1   
 15   7  29  1   
 16   7  30  1   
 17   8   9  1   
 18   8  31  1   
 19   8  32  1   
 20   9  10  1   
 21   9  11  1   
 22   9  33  1   
 23  10  12  1   
 24  10  34  1   
 25  10  35  1   
 26  11  13  1   
 27  11  36  1   
 28  11  37  1   
 29  12  14  1   
 30  12  38  1   
 31  12  39  1   
 32  13  14  1   
 33  13  40  1   
 34  13  41  1   
 35  14  15  1   
 36  14  42  1   
 37  15  16  1   
 38  16  17  1   
 39  16  43  1   
 40  16  44  1   
 41  17  18  ar  
 42  17  19  ar  
 43  18  20  ar  
 44  19  21  ar  
 45  19  45  1   
 46  20  22  ar  
 47  20  46  1   
 48  21  22  ar  
 49  21  47  1   
 50  22  48  1   
@<TRIPOS>SUBSTRUCTURE
  1 ****  12 GROUP 4 **** **** 0

# MOE 2024.06 (io_trps.svl 2023.06)
