@<TRIPOS>MOLECULE
NONAME
52 56 1 0 0 
SMALL
USER_CHARGES


@<TRIPOS>ATOM
  1 O       -0.1330    -1.2290    -1.0690 O.2   1 <1>  -0.5700 
  2 C       -0.5360    -1.9210    -0.1480 C.2   1 <1>   0.5440 
  3 N       -0.1590    -1.6320     1.1440 N.am  1 <1>  -0.4200 
  4 C       -1.4130    -3.0370    -0.3610 C.ar  1 <1>   0.0860 
  5 C       -0.6480    -2.3930     2.1780 C.2   1 <1>   0.4500 
  6 C        0.7680    -0.5010     1.4130 C.3   1 <1>   0.0600 
  7 C       -1.8490    -3.7410     0.7670 C.ar  1 <1>   0.1790 
  8 C       -1.8540    -3.4540    -1.6200 C.ar  1 <1>  -0.1500 
  9 N       -1.4430    -3.3850     2.0370 N.2   1 <1>  -0.6290 
 10 C       -2.7120    -4.8160     0.6140 C.ar  1 <1>  -0.1500 
 11 C       -2.7140    -4.5230    -1.7500 C.ar  1 <1>  -0.1500 
 12 C       -3.1780    -5.2190    -0.6310 C.ar  1 <1>   0.0860 
 13 C       -4.1210    -6.3080    -0.7810 C.2   1 <1>   0.5440 
 14 O       -3.8050    -7.2770    -1.4440 O.2   1 <1>  -0.5700 
 15 N       -5.3790    -6.2610    -0.2170 N.am  1 <1>  -0.6600 
 16 C       -5.9620    -5.0390     0.4220 C.3   1 <1>   0.1400 
 17 C       -6.3270    -7.4090    -0.3670 C.3   1 <1>   0.1400 
 18 C       -7.1550    -4.5050    -0.3980 C.3   1 <1>   0.1440 
 19 C       -7.7940    -6.9820    -0.1770 C.3   1 <1>  -0.1600 
 20 C       -7.8700    -3.4870     0.4740 C.ar  1 <1>   0.1670 
 21 C       -8.0820    -5.6500    -0.8900 C.3   1 <1>  -0.1600 
 22 C       -6.6700    -3.6240    -1.5810 C.3   1 <1>  -0.1600 
 23 N       -8.6620    -3.7680     1.4860 N.ar  1 <1>  -0.6200 
 24 C       -7.5720    -2.2100     0.1020 C.ar  1 <1>  -0.1430 
 25 C       -6.6270    -2.1730    -1.0720 C.3   1 <1>  -0.0170 
 26 C       -9.1570    -2.7060     2.1060 C.ar  1 <1>   0.4770 
 27 C       -8.1400    -1.1850     0.8160 C.ar  1 <1>   0.1600 
 28 N       -8.9440    -1.4260     1.8300 N.ar  1 <1>  -0.6200 
 29 C      -10.0810    -2.9850     3.2670 C.3   1 <1>  -0.0970 
 30 H       -0.3270    -2.1160     3.1680 H     1 <1>   0.0600 
 31 H        1.6900    -0.6600     0.8810 H     1 <1>   0.0800 
 32 H        0.9770    -0.4190     2.4650 H     1 <1>   0.0800 
 33 H        0.3230     0.4170     1.0680 H     1 <1>   0.0800 
 34 H       -1.5080    -2.9250    -2.4930 H     1 <1>   0.1500 
 35 H       -3.0310    -5.3470     1.4930 H     1 <1>   0.1500 
 36 H       -3.0430    -4.8400    -2.7250 H     1 <1>   0.1500 
 37 H       -5.2330    -4.2590     0.5370 H     1 <1>   0.0800 
 38 H       -6.3000    -5.3040     1.4100 H     1 <1>   0.0800 
 39 H       -6.0720    -8.1750     0.3460 H     1 <1>   0.0800 
 40 H       -6.2130    -7.8260    -1.3540 H     1 <1>   0.0800 
 41 H       -8.0080    -6.8850     0.8730 H     1 <1>   0.0800 
 42 H       -8.4380    -7.7520    -0.5640 H     1 <1>   0.0800 
 43 H       -7.9320    -5.8140    -1.9430 H     1 <1>   0.0800 
 44 H       -9.1130    -5.3760    -0.7510 H     1 <1>   0.0800 
 45 H       -7.3920    -3.6650    -2.3770 H     1 <1>   0.0800 
 46 H       -5.7200    -3.9460    -1.9700 H     1 <1>   0.0800 
 47 H       -6.9510    -1.4780    -1.8270 H     1 <1>   0.0800 
 48 H       -5.6380    -1.9160    -0.7350 H     1 <1>   0.0800 
 49 H       -7.9360    -0.1600     0.5580 H     1 <1>   0.1500 
 50 H       -9.9130    -3.9750     3.6470 H     1 <1>   0.0800 
 51 H      -11.0990    -2.9000     2.9370 H     1 <1>   0.0800 
 52 H       -9.9030    -2.2750     4.0520 H     1 <1>   0.0800 
@<TRIPOS>BOND
  1   1   2  2   
  2   2   3  am  
  3   2   4  1   
  4   3   5  1   
  5   3   6  1   
  6   4   7  ar  
  7   4   8  ar  
  8   5   9  2   
  9   5  30  1   
 10   6  31  1   
 11   6  32  1   
 12   6  33  1   
 13   7   9  1   
 14   7  10  ar  
 15   8  11  ar  
 16   8  34  1   
 17  10  12  ar  
 18  10  35  1   
 19  11  12  ar  
 20  11  36  1   
 21  12  13  1   
 22  13  14  2   
 23  13  15  am  
 24  15  16  1   
 25  15  17  1   
 26  16  18  1   
 27  16  37  1   
 28  16  38  1   
 29  17  19  1   
 30  17  39  1   
 31  17  40  1   
 32  18  20  1   
 33  18  21  1   
 34  18  22  1   
 35  19  21  1   
 36  19  41  1   
 37  19  42  1   
 38  20  23  ar  
 39  20  24  ar  
 40  21  43  1   
 41  21  44  1   
 42  22  25  1   
 43  22  45  1   
 44  22  46  1   
 45  23  26  ar  
 46  24  25  1   
 47  24  27  ar  
 48  25  47  1   
 49  25  48  1   
 50  26  28  ar  
 51  26  29  1   
 52  27  28  ar  
 53  27  49  1   
 54  29  50  1   
 55  29  51  1   
 56  29  52  1   
@<TRIPOS>SUBSTRUCTURE
  1 ****  16 GROUP 4 **** **** 0

# MOE 2024.06 (io_trps.svl 2023.06)
