@<TRIPOS>MOLECULE
NONAME
56 58 1 0 0 
SMALL
USER_CHARGES


@<TRIPOS>ATOM
  1 O       -3.6300     1.2890    -2.3980 O.2   1 <1>  -0.5700 
  2 C       -3.3060     0.9250    -1.2810 C.2   1 <1>   0.5440 
  3 N       -4.0090    -0.1300    -0.7360 N.am  1 <1>  -0.6600 
  4 C       -2.2290     1.6070    -0.5930 C.ar  1 <1>   0.0860 
  5 C       -3.3900    -1.4530    -0.3440 C.3   1 <1>   0.3640 
  6 C       -5.4690    -0.2250    -1.0130 C.3   1 <1>   0.1400 
  7 C       -1.2480     2.2890    -1.3120 C.ar  1 <1>   0.1600 
  8 C       -2.0930     1.6210     0.7910 C.ar  1 <1>  -0.1500 
  9 C       -1.8600    -1.3670    -0.3520 C.ar  1 <1>  -0.1440 
 10 C       -3.9000    -2.6330    -1.2330 C.3   1 <1>   0.2000 
 11 C       -5.7340    -1.3530    -2.0100 C.3   1 <1>   0.1200 
 12 N       -0.2070     2.9270    -0.8080 N.ar  1 <1>  -0.6200 
 13 C       -1.0090     2.2670     1.3330 C.ar  1 <1>  -0.1500 
 14 C       -1.1740    -1.4020     0.8550 C.ar  1 <1>  -0.1500 
 15 C       -1.1390    -1.2260    -1.5330 C.ar  1 <1>  -0.1500 
 16 O       -5.2840    -2.5590    -1.4710 O.3   1 <1>  -0.5600 
 17 C       -3.6760    -4.0330    -0.6260 C.3   1 <1>   0.1200 
 18 C       -0.0820     2.9180     0.5160 C.ar  1 <1>   0.4100 
 19 C        0.2010    -1.2540     0.9020 C.ar  1 <1>   0.0830 
 20 C        0.2350    -1.0690    -1.5000 C.ar  1 <1>  -0.1500 
 21 O       -2.3970    -4.2200    -0.1120 O.3   1 <1>  -0.6800 
 22 N        1.0110     3.5870     1.0530 N.pl3 1 <1>  -0.8380 
 23 O        0.7760    -1.3050     2.1320 O.3   1 <1>  -0.3630 
 24 C        0.9060    -1.0480    -0.2890 C.ar  1 <1>   0.0830 
 25 C        0.9960     4.1150     2.4450 C.3   1 <1>   0.1290 
 26 C        2.0490     4.1970     0.1710 C.3   1 <1>   0.1290 
 27 C        1.9210    -2.1130     2.3010 C.3   1 <1>   0.0400 
 28 O        2.2300    -0.7800    -0.3120 O.3   1 <1>  -0.3630 
 29 C        2.5480     0.5630    -0.0170 C.3   1 <1>   0.0400 
 30 H       -3.7050    -1.6650     0.6630 H     1 <1>   0.0800 
 31 H       -6.0000    -0.4180    -0.0970 H     1 <1>   0.0800 
 32 H       -5.8320     0.7040    -1.4180 H     1 <1>   0.0800 
 33 H       -1.3390     2.2980    -2.3840 H     1 <1>   0.1500 
 34 H       -2.8140     1.1230     1.4140 H     1 <1>   0.1500 
 35 H       -3.4170    -2.5930    -2.1920 H     1 <1>   0.0800 
 36 H       -5.2270    -1.1680    -2.9430 H     1 <1>   0.0800 
 37 H       -6.7890    -1.4480    -2.1960 H     1 <1>   0.0800 
 38 H       -0.8670     2.2600     2.3950 H     1 <1>   0.1500 
 39 H       -1.7000    -1.5380     1.7820 H     1 <1>   0.1500 
 40 H       -1.6430    -1.2040    -2.4850 H     1 <1>   0.1500 
 41 H       -3.8430    -4.7860    -1.3770 H     1 <1>   0.0800 
 42 H       -4.3660    -4.1920     0.1850 H     1 <1>   0.0800 
 43 H        0.7920    -0.9340    -2.4090 H     1 <1>   0.1500 
 44 H       -1.7060    -3.9260    -0.7400 H     1 <1>   0.4000 
 45 H        1.6300     4.9810     2.5280 H     1 <1>   0.0800 
 46 H        1.3500     3.3570     3.1210 H     1 <1>   0.0800 
 47 H       -0.0030     4.4020     2.7220 H     1 <1>   0.0800 
 48 H        2.9800     4.2890     0.7010 H     1 <1>   0.0800 
 49 H        1.7210     5.1710    -0.1500 H     1 <1>   0.0800 
 50 H        2.2140     3.5850    -0.6990 H     1 <1>   0.0800 
 51 H        2.0170    -2.3420     3.3460 H     1 <1>   0.0800 
 52 H        2.7860    -1.5710     1.9670 H     1 <1>   0.0800 
 53 H        1.7990    -3.0190     1.7340 H     1 <1>   0.0800 
 54 H        3.6150     0.6770    -0.0530 H     1 <1>   0.0800 
 55 H        2.1800     0.8070     0.9640 H     1 <1>   0.0800 
 56 H        2.0810     1.1980    -0.7500 H     1 <1>   0.0800 
@<TRIPOS>BOND
  1   1   2  2   
  2   2   3  am  
  3   2   4  1   
  4   3   5  1   
  5   3   6  1   
  6   4   7  ar  
  7   4   8  ar  
  8   5   9  1   
  9   5  10  1   
 10   5  30  1   
 11   6  11  1   
 12   6  31  1   
 13   6  32  1   
 14   7  12  ar  
 15   7  33  1   
 16   8  13  ar  
 17   8  34  1   
 18   9  14  ar  
 19   9  15  ar  
 20  10  16  1   
 21  10  17  1   
 22  10  35  1   
 23  11  16  1   
 24  11  36  1   
 25  11  37  1   
 26  12  18  ar  
 27  13  18  ar  
 28  13  38  1   
 29  14  19  ar  
 30  14  39  1   
 31  15  20  ar  
 32  15  40  1   
 33  17  21  1   
 34  17  41  1   
 35  17  42  1   
 36  18  22  1   
 37  19  23  1   
 38  19  24  ar  
 39  20  24  ar  
 40  20  43  1   
 41  21  44  1   
 42  22  25  1   
 43  22  26  1   
 44  23  27  1   
 45  24  28  1   
 46  25  45  1   
 47  25  46  1   
 48  25  47  1   
 49  26  48  1   
 50  26  49  1   
 51  26  50  1   
 52  27  51  1   
 53  27  52  1   
 54  27  53  1   
 55  28  29  1   
 56  29  54  1   
 57  29  55  1   
 58  29  56  1   
@<TRIPOS>SUBSTRUCTURE
  1 ****   9 GROUP 4 **** **** 0

# MOE 2024.06 (io_trps.svl 2023.06)
