@<TRIPOS>MOLECULE
NONAME
53 56 1 0 0 
SMALL
USER_CHARGES


@<TRIPOS>ATOM
  1 S        0.0130    -0.8960     0.8860 S.o2  1 <1>   1.2040 
  2 O        1.3220    -0.8780     1.4950 O.2   1 <1>  -0.6500 
  3 O       -1.0800    -1.5850     1.5420 O.2   1 <1>  -0.6500 
  4 C       -0.4940     0.8010     0.5150 C.ar  1 <1>  -0.0090 
  5 C        0.2000    -1.5770    -0.7650 C.3   1 <1>  -0.0550 
  6 C       -1.8170     1.2090     0.6530 C.ar  1 <1>  -0.1500 
  7 C        0.4280     1.7330     0.0530 C.ar  1 <1>  -0.1500 
  8 C       -1.1170    -1.9930    -1.4510 C.3   1 <1>  -0.0990 
  9 C       -2.2090     2.4960     0.3290 C.ar  1 <1>  -0.1500 
 10 C        0.0440     3.0220    -0.2740 C.ar  1 <1>  -0.1500 
 11 C       -1.4050    -3.4700    -1.2200 C.2   1 <1>   0.5690 
 12 C       -1.2770     3.4040    -0.1380 C.ar  1 <1>  -0.1500 
 13 O       -0.7650    -4.2340    -1.8980 O.2   1 <1>  -0.5700 
 14 N       -2.3190    -3.9490    -0.3120 N.am  1 <1>  -0.6600 
 15 C       -3.3180    -3.1580     0.4720 C.3   1 <1>   0.1400 
 16 C       -2.3320    -5.4050     0.0400 C.3   1 <1>   0.1400 
 17 C       -4.7420    -3.7420     0.3330 C.3   1 <1>   0.4230 
 18 C       -3.7420    -5.9970    -0.1190 C.3   1 <1>   0.3430 
 19 N       -4.7860    -5.2240     0.6550 N.4   1 <1>  -0.9590 
 20 C       -5.3050    -3.4690    -1.0810 C.3   1 <1>   0.1200 
 21 C       -6.1790    -5.7440     0.4340 C.3   1 <1>   0.5180 
 22 O       -6.5970    -3.9930    -1.1970 O.3   1 <1>  -0.5600 
 23 C       -6.2200    -7.2520     0.7570 C.3   1 <1>  -0.1950 
 24 C       -6.7000    -5.3740    -0.9780 C.3   1 <1>   0.1200 
 25 C       -5.9200    -8.3490    -0.2240 C.3   1 <1>  -0.2000 
 26 C       -7.3200    -8.1550     0.2840 C.3   1 <1>  -0.2000 
 27 H        0.6950    -0.8500    -1.3810 H     1 <1>   0.0800 
 28 H        0.8490    -2.4320    -0.7210 H     1 <1>   0.0800 
 29 H       -2.5520     0.5170     1.0260 H     1 <1>   0.1500 
 30 H        1.4640     1.4520    -0.0470 H     1 <1>   0.1500 
 31 H       -1.9270    -1.3570    -1.1580 H     1 <1>   0.0800 
 32 H       -0.9920    -1.8660    -2.5120 H     1 <1>   0.0800 
 33 H       -3.2370     2.7960     0.4440 H     1 <1>   0.1500 
 34 H        0.7750     3.7290    -0.6300 H     1 <1>   0.1500 
 35 H       -1.5770     4.4070    -0.3910 H     1 <1>   0.1500 
 36 H       -3.0350    -3.1740     1.5110 H     1 <1>   0.0800 
 37 H       -3.3310    -2.1300     0.1650 H     1 <1>   0.0800 
 38 H       -1.6540    -5.9610    -0.5850 H     1 <1>   0.0800 
 39 H       -1.9980    -5.5260     1.0560 H     1 <1>   0.0800 
 40 H       -5.3760    -3.2150     1.0270 H     1 <1>   0.0800 
 41 H       -3.7240    -7.0220     0.2120 H     1 <1>   0.0800 
 42 H       -3.9910    -5.9970    -1.1680 H     1 <1>   0.0800 
 43 H       -4.5740    -5.3350     1.6520 H     1 <1>   0.4500 
 44 H       -4.6830    -3.9020    -1.8460 H     1 <1>   0.0800 
 45 H       -5.3710    -2.4090    -1.2570 H     1 <1>   0.0800 
 46 H       -6.8380    -5.2570     1.1350 H     1 <1>   0.0800 
 47 H       -5.9290    -7.4220     1.7800 H     1 <1>   0.1000 
 48 H       -7.7390    -5.6330    -1.0680 H     1 <1>   0.0800 
 49 H       -6.1540    -5.8860    -1.7500 H     1 <1>   0.0800 
 50 H       -5.7470    -8.1470    -1.2680 H     1 <1>   0.1000 
 51 H       -5.3840    -9.2230     0.1090 H     1 <1>   0.1000 
 52 H       -7.7190    -8.8910     0.9650 H     1 <1>   0.1000 
 53 H       -8.0650    -7.8220    -0.4180 H     1 <1>   0.1000 
@<TRIPOS>BOND
  1   1   2  2   
  2   1   3  2   
  3   1   4  1   
  4   1   5  1   
  5   4   6  ar  
  6   4   7  ar  
  7   5   8  1   
  8   5  27  1   
  9   5  28  1   
 10   6   9  ar  
 11   6  29  1   
 12   7  10  ar  
 13   7  30  1   
 14   8  11  1   
 15   8  31  1   
 16   8  32  1   
 17   9  12  ar  
 18   9  33  1   
 19  10  12  ar  
 20  10  34  1   
 21  11  13  2   
 22  11  14  am  
 23  12  35  1   
 24  14  15  1   
 25  14  16  1   
 26  15  17  1   
 27  15  36  1   
 28  15  37  1   
 29  16  18  1   
 30  16  38  1   
 31  16  39  1   
 32  17  19  1   
 33  17  20  1   
 34  17  40  1   
 35  18  19  1   
 36  18  41  1   
 37  18  42  1   
 38  19  21  1   
 39  19  43  1   
 40  20  22  1   
 41  20  44  1   
 42  20  45  1   
 43  21  23  1   
 44  21  24  1   
 45  21  46  1   
 46  22  24  1   
 47  23  25  1   
 48  23  26  1   
 49  23  47  1   
 50  24  48  1   
 51  24  49  1   
 52  25  26  1   
 53  25  50  1   
 54  25  51  1   
 55  26  52  1   
 56  26  53  1   
@<TRIPOS>SUBSTRUCTURE
  1 ****  15 GROUP 4 **** **** 0

# MOE 2024.06 (io_trps.svl 2023.06)
