@<TRIPOS>MOLECULE
NONAME
51 54 1 0 0 
SMALL
USER_CHARGES


@<TRIPOS>ATOM
  1 O       -2.4600     0.9790    -2.5940 O.2   1 <1>  -0.5700 
  2 C       -2.1260     1.1980    -1.4440 C.2   1 <1>   0.5440 
  3 N       -2.1710     0.1270    -0.5760 N.am  1 <1>  -0.6600 
  4 C       -1.8200     2.5560    -1.0260 C.ar  1 <1>   0.0860 
  5 C       -2.6460     0.2610     0.8290 C.3   1 <1>   0.1400 
  6 C       -2.1950    -1.2720    -1.0850 C.3   1 <1>   0.1400 
  7 C       -0.7860     2.8750    -0.1310 C.ar  1 <1>   0.0830 
  8 C       -2.5850     3.6090    -1.5330 C.ar  1 <1>  -0.1500 
  9 C       -4.0760    -0.3110     0.9720 C.3   1 <1>   0.4230 
 10 C       -3.6260    -1.8230    -0.9930 C.3   1 <1>   0.3430 
 11 O       -0.0180     1.8660     0.3500 O.3   1 <1>  -0.3630 
 12 C       -0.5640     4.1980     0.2450 C.ar  1 <1>  -0.1500 
 13 C       -2.3590     4.9190    -1.1600 C.ar  1 <1>  -0.1500 
 14 N       -4.1910    -1.7200     0.4100 N.4   1 <1>  -0.9590 
 15 C       -5.1050     0.6340     0.3030 C.3   1 <1>   0.1200 
 16 C        1.2380     2.0910     0.9490 C.3   1 <1>   0.1200 
 17 C       -1.3470     5.2140    -0.2650 C.ar  1 <1>  -0.1500 
 18 C       -5.6180    -2.1720     0.4990 C.3   1 <1>   0.5180 
 19 O       -6.4000     0.1180     0.4380 O.3   1 <1>  -0.5600 
 20 C        1.8970     0.7340     1.1780 C.3   1 <1>  -0.2400 
 21 C       -5.7650    -3.5680    -0.1160 C.3   1 <1>  -0.1950 
 22 C       -6.5900    -1.1480    -0.1310 C.3   1 <1>   0.1200 
 23 C       -6.6700    -4.5770     0.5200 C.3   1 <1>  -0.2000 
 24 C       -5.1830    -4.7840     0.5400 C.3   1 <1>  -0.2000 
 25 H       -1.9720    -0.2680     1.4800 H     1 <1>   0.0800 
 26 H       -2.6400     1.2930     1.1340 H     1 <1>   0.0800 
 27 H       -1.8600    -1.3040    -2.1090 H     1 <1>   0.0800 
 28 H       -1.5210    -1.8780    -0.5060 H     1 <1>   0.0800 
 29 H       -3.3680     3.3930    -2.2390 H     1 <1>   0.1500 
 30 H       -4.3120    -0.3320     2.0230 H     1 <1>   0.0800 
 31 H       -3.6230    -2.8510    -1.3160 H     1 <1>   0.0800 
 32 H       -4.2410    -1.2630    -1.6780 H     1 <1>   0.0800 
 33 H        0.2160     4.4600     0.9350 H     1 <1>   0.1500 
 34 H       -2.9650     5.7120    -1.5670 H     1 <1>   0.1500 
 35 H       -3.6450    -2.3500     1.0050 H     1 <1>   0.4500 
 36 H       -4.8940     0.7710    -0.7440 H     1 <1>   0.0800 
 37 H       -5.0890     1.5980     0.7800 H     1 <1>   0.0800 
 38 H        1.8310     2.6950     0.2840 H     1 <1>   0.0800 
 39 H        1.0880     2.6020     1.8840 H     1 <1>   0.0800 
 40 H       -1.1700     6.2350     0.0280 H     1 <1>   0.1500 
 41 H       -5.8810    -2.2510     1.5420 H     1 <1>   0.0800 
 42 H        2.0240     0.2240     0.2400 H     1 <1>   0.0800 
 43 H        1.2960     0.1350     1.8370 H     1 <1>   0.0800 
 44 H        2.8640     0.8720     1.6260 H     1 <1>   0.0800 
 45 H       -5.8040    -3.5460    -1.1930 H     1 <1>   0.1000 
 46 H       -7.6070    -1.4420     0.0610 H     1 <1>   0.0800 
 47 H       -6.4500    -1.0750    -1.1950 H     1 <1>   0.0800 
 48 H       -7.1630    -4.3570     1.4530 H     1 <1>   0.1000 
 49 H       -7.2640    -5.2220    -0.1080 H     1 <1>   0.1000 
 50 H       -4.7780    -5.5730    -0.0730 H     1 <1>   0.1000 
 51 H       -4.6900    -4.7190     1.4950 H     1 <1>   0.1000 
@<TRIPOS>BOND
  1   1   2  2   
  2   2   3  am  
  3   2   4  1   
  4   3   5  1   
  5   3   6  1   
  6   4   7  ar  
  7   4   8  ar  
  8   5   9  1   
  9   5  25  1   
 10   5  26  1   
 11   6  10  1   
 12   6  27  1   
 13   6  28  1   
 14   7  11  1   
 15   7  12  ar  
 16   8  13  ar  
 17   8  29  1   
 18   9  14  1   
 19   9  15  1   
 20   9  30  1   
 21  10  14  1   
 22  10  31  1   
 23  10  32  1   
 24  11  16  1   
 25  12  17  ar  
 26  12  33  1   
 27  13  17  ar  
 28  13  34  1   
 29  14  18  1   
 30  14  35  1   
 31  15  19  1   
 32  15  36  1   
 33  15  37  1   
 34  16  20  1   
 35  16  38  1   
 36  16  39  1   
 37  17  40  1   
 38  18  21  1   
 39  18  22  1   
 40  18  41  1   
 41  19  22  1   
 42  20  42  1   
 43  20  43  1   
 44  20  44  1   
 45  21  23  1   
 46  21  24  1   
 47  21  45  1   
 48  22  46  1   
 49  22  47  1   
 50  23  24  1   
 51  23  48  1   
 52  23  49  1   
 53  24  50  1   
 54  24  51  1   
@<TRIPOS>SUBSTRUCTURE
  1 ****   3 GROUP 4 **** **** 0

# MOE 2024.06 (io_trps.svl 2023.06)
