@<TRIPOS>MOLECULE
NONAME
53 55 1 0 0 
SMALL
USER_CHARGES


@<TRIPOS>ATOM
  1 O       -0.3600     0.1010     2.9230 O.2   1 <1>  -0.5700 
  2 C       -0.9270     0.8210     2.1340 C.2   1 <1>   0.5690 
  3 N       -1.6590     0.3010     1.0940 N.am  1 <1>  -0.6600 
  4 C       -0.7970     2.3260     2.3530 C.3   1 <1>   0.0440 
  5 C       -2.3630     1.1040     0.0450 C.3   1 <1>   0.1400 
  6 C       -1.7020    -1.1720     0.8350 C.3   1 <1>   0.1400 
  7 C       -0.1750     3.0700     1.1730 C.ar  1 <1>  -0.1440 
  8 C       -3.7340     0.4980    -0.3090 C.3   1 <1>   0.2950 
  9 C       -3.1190    -1.6400     0.4370 C.3   1 <1>   0.2000 
 10 C        0.9600     2.5770     0.5510 C.ar  1 <1>  -0.1500 
 11 C       -0.7430     4.2470     0.7090 C.ar  1 <1>  -0.1500 
 12 O       -3.6050    -0.8580    -0.6150 O.3   1 <1>  -0.5600 
 13 C       -4.3540     1.1910    -1.5270 C.3   1 <1>  -0.1950 
 14 C       -3.1590    -3.0970    -0.0430 C.3   1 <1>  -0.1600 
 15 C        1.5140     3.2420    -0.5300 C.ar  1 <1>  -0.1500 
 16 C       -0.1900     4.9120    -0.3720 C.ar  1 <1>  -0.1500 
 17 C       -5.1550     2.4470    -1.3790 C.3   1 <1>  -0.2000 
 18 C       -5.8300     1.1620    -1.7690 C.3   1 <1>  -0.2000 
 19 C       -2.7880    -4.1050     1.0570 C.3   1 <1>  -0.1600 
 20 C        0.9400     4.4120    -1.0000 C.ar  1 <1>  -0.1430 
 21 C       -2.9350    -5.5460     0.5530 C.3   1 <1>  -0.1600 
 22 C        1.5410     5.1450    -2.1860 C.3   1 <1>   0.2640 
 23 C       -2.5630    -6.5520     1.6460 C.3   1 <1>  -0.2400 
 24 O        2.0560     6.3400    -1.7260 O.3   1 <1>  -0.6800 
 25 H       -1.7720     2.7160     2.5730 H     1 <1>   0.0800 
 26 H       -0.1830     2.4930     3.2190 H     1 <1>   0.0800 
 27 H       -2.5200     2.1130     0.3750 H     1 <1>   0.0800 
 28 H       -1.7510     1.1360    -0.8400 H     1 <1>   0.0800 
 29 H       -1.0150    -1.4070     0.0420 H     1 <1>   0.0800 
 30 H       -1.3870    -1.7090     1.7120 H     1 <1>   0.0800 
 31 H       -4.3990     0.5890     0.5330 H     1 <1>   0.0800 
 32 H       -3.7850    -1.5260     1.2750 H     1 <1>   0.0800 
 33 H        1.4200     1.6680     0.9030 H     1 <1>   0.1500 
 34 H       -1.6180     4.6560     1.1830 H     1 <1>   0.1500 
 35 H       -3.7180     1.1180    -2.3930 H     1 <1>   0.1000 
 36 H       -4.1580    -3.3080    -0.3830 H     1 <1>   0.0800 
 37 H       -2.4900    -3.2120    -0.8780 H     1 <1>   0.0800 
 38 H        2.3940     2.8390    -1.0000 H     1 <1>   0.1500 
 39 H       -0.6370     5.8260    -0.7240 H     1 <1>   0.1500 
 40 H       -5.3500     2.8450    -0.3980 H     1 <1>   0.1000 
 41 H       -5.0510     3.2180    -2.1230 H     1 <1>   0.1000 
 42 H       -6.1780     1.0360    -2.7790 H     1 <1>   0.1000 
 43 H       -6.4580     0.6590    -1.0530 H     1 <1>   0.1000 
 44 H       -1.7700    -3.9490     1.3720 H     1 <1>   0.0800 
 45 H       -3.4290    -3.9590     1.9090 H     1 <1>   0.0800 
 46 H       -3.9530    -5.7190     0.2450 H     1 <1>   0.0800 
 47 H       -2.2980    -5.6980    -0.3010 H     1 <1>   0.0800 
 48 H        0.7970     5.3620    -2.9330 H     1 <1>   0.0800 
 49 H        2.3430     4.5810    -2.6300 H     1 <1>   0.0800 
 50 H       -3.2030    -6.4320     2.5020 H     1 <1>   0.0800 
 51 H       -1.5420    -6.4130     1.9540 H     1 <1>   0.0800 
 52 H       -2.6740    -7.5550     1.2740 H     1 <1>   0.0800 
 53 H        2.4120     6.1970    -0.8280 H     1 <1>   0.4000 
@<TRIPOS>BOND
  1   1   2  2   
  2   2   3  am  
  3   2   4  1   
  4   3   5  1   
  5   3   6  1   
  6   4   7  1   
  7   4  25  1   
  8   4  26  1   
  9   5   8  1   
 10   5  27  1   
 11   5  28  1   
 12   6   9  1   
 13   6  29  1   
 14   6  30  1   
 15   7  10  ar  
 16   7  11  ar  
 17   8  12  1   
 18   8  13  1   
 19   8  31  1   
 20   9  12  1   
 21   9  14  1   
 22   9  32  1   
 23  10  15  ar  
 24  10  33  1   
 25  11  16  ar  
 26  11  34  1   
 27  13  17  1   
 28  13  18  1   
 29  13  35  1   
 30  14  19  1   
 31  14  36  1   
 32  14  37  1   
 33  15  20  ar  
 34  15  38  1   
 35  16  20  ar  
 36  16  39  1   
 37  17  18  1   
 38  17  40  1   
 39  17  41  1   
 40  18  42  1   
 41  18  43  1   
 42  19  21  1   
 43  19  44  1   
 44  19  45  1   
 45  20  22  1   
 46  21  23  1   
 47  21  46  1   
 48  21  47  1   
 49  22  24  1   
 50  22  48  1   
 51  22  49  1   
 52  23  50  1   
 53  23  51  1   
 54  23  52  1   
 55  24  53  1   
@<TRIPOS>SUBSTRUCTURE
  1 ****   5 GROUP 4 **** **** 0

# MOE 2024.06 (io_trps.svl 2023.06)
