@<TRIPOS>MOLECULE
NONAME
47 51 1 0 0 
SMALL
USER_CHARGES


@<TRIPOS>ATOM
  1 S       -0.4880    -0.0500    -0.7450 S.3   1 <1>  -0.0800 
  2 C        0.2910     1.5260    -0.5840 C.ar  1 <1>   0.0400 
  3 C        1.0260    -0.9240    -0.4200 C.2   1 <1>  -0.0450 
  4 C        1.6380     1.3570    -0.3060 C.ar  1 <1>   0.0000 
  5 C       -0.3100     2.7650    -0.7070 C.ar  1 <1>  -0.1500 
  6 C        1.0370    -2.3660    -0.4400 C.2   1 <1>   0.7150 
  7 C        2.0190    -0.0210    -0.2310 C.2   1 <1>  -0.1500 
  8 C        2.4190     2.4990    -0.1440 C.ar  1 <1>  -0.1500 
  9 C        0.4820     3.8880    -0.5410 C.ar  1 <1>  -0.1500 
 10 O        1.9910    -2.9450    -0.9210 O.2   1 <1>  -0.5700 
 11 N        0.0140    -3.1400     0.0790 N.am  1 <1>  -0.6600 
 12 C        1.8400     3.7510    -0.2610 C.ar  1 <1>  -0.1500 
 13 C       -0.8160    -2.7300     1.2540 C.3   1 <1>   0.1400 
 14 C       -0.0670    -4.5970    -0.2470 C.3   1 <1>   0.1400 
 15 C       -2.2850    -3.1930     1.1130 C.3   1 <1>   0.4230 
 16 C       -1.5290    -5.0560    -0.3880 C.3   1 <1>   0.3430 
 17 N       -2.3820    -4.6760     0.8010 N.4   1 <1>  -0.9590 
 18 C       -3.0360    -2.3560     0.0530 C.3   1 <1>   0.1200 
 19 C       -3.8260    -5.0560     0.6250 C.3   1 <1>   0.5180 
 20 O       -4.3630    -2.7870    -0.0540 O.3   1 <1>  -0.5600 
 21 C       -3.9240    -6.5620     0.3080 C.3   1 <1>  -0.1950 
 22 C       -4.5260    -4.1340    -0.4060 C.3   1 <1>   0.1200 
 23 C       -3.8620    -7.1560    -1.0700 C.3   1 <1>  -0.2000 
 24 C       -5.1470    -7.1880    -0.2930 C.3   1 <1>  -0.2000 
 25 H       -1.3590     2.8490    -0.9260 H     1 <1>   0.1500 
 26 H        3.0450    -0.2840    -0.0420 H     1 <1>   0.1500 
 27 H        3.4680     2.4000     0.0700 H     1 <1>   0.1500 
 28 H        0.0510     4.8700    -0.6290 H     1 <1>   0.1500 
 29 H        2.4440     4.6330    -0.1350 H     1 <1>   0.1500 
 30 H       -0.3960    -3.1740     2.1400 H     1 <1>   0.0800 
 31 H       -0.7840    -1.6650     1.3980 H     1 <1>   0.0800 
 32 H        0.4460    -4.7980    -1.1730 H     1 <1>   0.0800 
 33 H        0.4250    -5.1630     0.5250 H     1 <1>   0.0800 
 34 H       -2.7720    -3.0030     2.0560 H     1 <1>   0.0800 
 35 H       -1.5410    -6.1250    -0.5230 H     1 <1>   0.0800 
 36 H       -1.9350    -4.6120    -1.2820 H     1 <1>   0.0800 
 37 H       -2.0320    -5.1970     1.6120 H     1 <1>   0.4500 
 38 H       -2.5670    -2.4250    -0.9130 H     1 <1>   0.0800 
 39 H       -3.0580    -1.3200     0.3460 H     1 <1>   0.0800 
 40 H       -4.3350    -4.9000     1.5620 H     1 <1>   0.0800 
 41 H       -3.4900    -7.1400     1.1060 H     1 <1>   0.1000 
 42 H       -5.5830    -4.3320    -0.4210 H     1 <1>   0.0800 
 43 H       -4.1390    -4.2800    -1.3980 H     1 <1>   0.0800 
 44 H       -3.8450    -6.5440    -1.9560 H     1 <1>   0.1000 
 45 H       -3.3480    -8.0920    -1.2200 H     1 <1>   0.1000 
 46 H       -5.4860    -8.1390     0.0870 H     1 <1>   0.1000 
 47 H       -5.9670    -6.5930    -0.6580 H     1 <1>   0.1000 
@<TRIPOS>BOND
  1   1   2  1   
  2   1   3  1   
  3   2   4  ar  
  4   2   5  ar  
  5   3   6  1   
  6   3   7  2   
  7   4   7  1   
  8   4   8  ar  
  9   5   9  ar  
 10   5  25  1   
 11   6  10  2   
 12   6  11  am  
 13   7  26  1   
 14   8  12  ar  
 15   8  27  1   
 16   9  12  ar  
 17   9  28  1   
 18  11  13  1   
 19  11  14  1   
 20  12  29  1   
 21  13  15  1   
 22  13  30  1   
 23  13  31  1   
 24  14  16  1   
 25  14  32  1   
 26  14  33  1   
 27  15  17  1   
 28  15  18  1   
 29  15  34  1   
 30  16  17  1   
 31  16  35  1   
 32  16  36  1   
 33  17  19  1   
 34  17  37  1   
 35  18  20  1   
 36  18  38  1   
 37  18  39  1   
 38  19  21  1   
 39  19  22  1   
 40  19  40  1   
 41  20  22  1   
 42  21  23  1   
 43  21  24  1   
 44  21  41  1   
 45  22  42  1   
 46  22  43  1   
 47  23  24  1   
 48  23  44  1   
 49  23  45  1   
 50  24  46  1   
 51  24  47  1   
@<TRIPOS>SUBSTRUCTURE
  1 ****  11 GROUP 4 **** **** 0

# MOE 2024.06 (io_trps.svl 2023.06)
