@<TRIPOS>MOLECULE
NONAME
43 45 1 0 0 
SMALL
USER_CHARGES


@<TRIPOS>ATOM
  1 O       -0.5190     0.1240     1.2570 O.2   1 <1>  -0.5700 
  2 C       -1.4820     0.7890     0.9180 C.2   1 <1>   0.7160 
  3 N       -2.6610     0.1330     0.6390 N.am  1 <1>  -0.6600 
  4 C       -1.3820     2.2280     0.7960 C.2   1 <1>  -0.0860 
  5 C       -3.8000     0.7370    -0.0990 C.3   1 <1>   0.1400 
  6 C       -2.7700    -1.3470     0.6300 C.3   1 <1>   0.1400 
  7 C       -0.4780     2.9920     0.0940 C.2   1 <1>  -0.3320 
  8 C       -2.2410     3.1570     1.4160 C.2   1 <1>  -0.1500 
  9 C       -4.8400    -0.3790    -0.1680 C.3   1 <1>   0.2000 
 10 C       -3.9960    -1.6560    -0.2380 C.3   1 <1>  -0.0800 
 11 N       -0.7530     4.3100     0.2530 N.pl3 1 <1>   0.0480 
 12 C        0.6850     2.4880    -0.7470 C.3   1 <1>  -0.0600 
 13 C       -1.8370     4.4010     1.0650 C.2   1 <1>  -0.3020 
 14 O       -5.5620    -0.3660     1.0160 O.3   1 <1>  -0.6800 
 15 C       -4.7270    -2.9530     0.1550 C.3   1 <1>  -0.0170 
 16 C       -0.0200     5.4510    -0.3200 C.3   1 <1>   0.0160 
 17 C       -3.8240    -4.1630    -0.0330 C.ar  1 <1>  -0.1430 
 18 C       -3.6740    -4.7730    -1.2620 C.ar  1 <1>  -0.1500 
 19 C       -3.1060    -4.7110     1.0110 C.ar  1 <1>  -0.1500 
 20 C       -2.8350    -5.8680    -1.3850 C.ar  1 <1>   0.1600 
 21 C       -2.2930    -5.8080     0.7810 C.ar  1 <1>   0.1600 
 22 N       -2.1390    -6.3990    -0.3920 N.ar  1 <1>  -0.6200 
 23 H       -4.1900     1.6080     0.3960 H     1 <1>   0.0800 
 24 H       -3.4730     1.0020    -1.0890 H     1 <1>   0.0800 
 25 H       -1.8800    -1.8000     0.2240 H     1 <1>   0.0800 
 26 H       -2.9130    -1.6900     1.6400 H     1 <1>   0.0800 
 27 H       -3.0610     2.8920     2.0600 H     1 <1>   0.1500 
 28 H       -5.5260    -0.2710    -0.9910 H     1 <1>   0.0800 
 29 H       -3.6490    -1.7590    -1.2510 H     1 <1>   0.0800 
 30 H        0.7150     1.4130    -0.7500 H     1 <1>   0.0800 
 31 H        1.6150     2.8470    -0.3440 H     1 <1>   0.0800 
 32 H        0.5860     2.8270    -1.7620 H     1 <1>   0.0800 
 33 H       -2.2610     5.3460     1.3550 H     1 <1>   0.1500 
 34 H       -4.9330    -0.2860     1.7620 H     1 <1>   0.4000 
 35 H       -5.6050    -3.0660    -0.4560 H     1 <1>   0.0800 
 36 H       -5.0530    -2.9060     1.1790 H     1 <1>   0.0800 
 37 H       -0.4830     6.3700    -0.0100 H     1 <1>   0.0800 
 38 H       -0.0390     5.3820    -1.3910 H     1 <1>   0.0800 
 39 H        0.9970     5.4270     0.0280 H     1 <1>   0.0800 
 40 H       -4.2000    -4.4080    -2.1240 H     1 <1>   0.1500 
 41 H       -3.1690    -4.2970     2.0010 H     1 <1>   0.1500 
 42 H       -2.7300    -6.3320    -2.3510 H     1 <1>   0.1500 
 43 H       -1.7390    -6.2220     1.6070 H     1 <1>   0.1500 
@<TRIPOS>BOND
  1   1   2  2   
  2   2   3  am  
  3   2   4  1   
  4   3   5  1   
  5   3   6  1   
  6   4   7  2   
  7   4   8  1   
  8   5   9  1   
  9   5  23  1   
 10   5  24  1   
 11   6  10  1   
 12   6  25  1   
 13   6  26  1   
 14   7  11  1   
 15   7  12  1   
 16   8  13  2   
 17   8  27  1   
 18   9  10  1   
 19   9  14  1   
 20   9  28  1   
 21  10  15  1   
 22  10  29  1   
 23  11  13  1   
 24  11  16  1   
 25  12  30  1   
 26  12  31  1   
 27  12  32  1   
 28  13  33  1   
 29  14  34  1   
 30  15  17  1   
 31  15  35  1   
 32  15  36  1   
 33  16  37  1   
 34  16  38  1   
 35  16  39  1   
 36  17  18  ar  
 37  17  19  ar  
 38  18  20  ar  
 39  18  40  1   
 40  19  21  ar  
 41  19  41  1   
 42  20  22  ar  
 43  20  42  1   
 44  21  22  ar  
 45  21  43  1   
@<TRIPOS>SUBSTRUCTURE
  1 ****   3 GROUP 4 **** **** 0

# MOE 2024.06 (io_trps.svl 2023.06)
