@<TRIPOS>MOLECULE
NONAME
54 55 1 0 0 
SMALL
USER_CHARGES


@<TRIPOS>ATOM
  1 S        0.2980     0.5100    -1.3060 S.o2  1 <1>   1.3330 
  2 O       -0.8010    -0.3070    -1.7680 O.2   1 <1>  -0.6500 
  3 O        1.6120     0.3340    -1.8820 O.2   1 <1>  -0.6500 
  4 N        0.4250     0.2880     0.3740 N.am  1 <1>  -0.8490 
  5 C       -0.1470     2.2400    -1.4730 C.3   1 <1>  -0.0550 
  6 C        1.3860    -0.7600     0.7310 C.3   1 <1>   0.1160 
  7 C       -0.8610     0.0340     1.0310 C.3   1 <1>   0.1160 
  8 C        0.9530     3.2290    -1.0290 C.3   1 <1>  -0.0800 
  9 C        0.6560     4.6910    -1.3740 C.3   1 <1>   0.2000 
 10 C        1.2310     3.2440     0.4810 C.3   1 <1>   0.1400 
 11 O       -0.6590     4.9770    -1.0360 O.3   1 <1>  -0.6800 
 12 C        1.5670     5.4730    -0.4320 C.3   1 <1>   0.1400 
 13 N        1.6070     4.6430     0.7980 N.am  1 <1>  -0.6600 
 14 C        2.0240     5.0320     2.0440 C.2   1 <1>   0.5690 
 15 O        2.0030     4.2610     2.9740 O.2   1 <1>  -0.5700 
 16 C        2.4770     6.4630     2.3240 C.3   1 <1>   0.1310 
 17 S        3.9010     6.9580     1.2890 S.3   1 <1>  -0.4600 
 18 C        4.3730     8.5750     1.9650 C.3   1 <1>   0.2140 
 19 C        5.2950     9.2650     0.9750 C.ar  1 <1>  -0.1440 
 20 C        6.5710     8.7720     0.7490 C.ar  1 <1>  -0.1500 
 21 C        4.8750    10.3980     0.2960 C.ar  1 <1>  -0.1500 
 22 C        7.4230     9.4030    -0.1420 C.ar  1 <1>  -0.1440 
 23 C        5.7190    11.0380    -0.5980 C.ar  1 <1>  -0.1440 
 24 C        6.9920    10.5370    -0.8090 C.ar  1 <1>  -0.1500 
 25 C        8.8200     8.8590    -0.3850 C.3   1 <1>  -0.0970 
 26 C        5.2520    12.2800    -1.3350 C.3   1 <1>  -0.0970 
 27 H       -0.3640     2.4290    -2.5070 H     1 <1>   0.0800 
 28 H       -1.0480     2.4290    -0.9230 H     1 <1>   0.0800 
 29 H        1.4530    -0.8560     1.8010 H     1 <1>   0.0800 
 30 H        2.3630    -0.5080     0.3550 H     1 <1>   0.0800 
 31 H        1.0850    -1.7040     0.3070 H     1 <1>   0.0800 
 32 H       -0.7310     0.0030     2.0990 H     1 <1>   0.0800 
 33 H       -1.2740    -0.9060     0.7000 H     1 <1>   0.0800 
 34 H       -1.5600     0.8180     0.7970 H     1 <1>   0.0800 
 35 H        1.8730     2.9620    -1.5220 H     1 <1>   0.0800 
 36 H        0.8090     4.9310    -2.4120 H     1 <1>   0.0800 
 37 H        2.0290     2.5680     0.7420 H     1 <1>   0.0800 
 38 H        0.3510     2.9830     1.0440 H     1 <1>   0.0800 
 39 H       -0.7440     4.9330    -0.0620 H     1 <1>   0.4000 
 40 H        1.1950     6.4660    -0.2450 H     1 <1>   0.0800 
 41 H        2.5580     5.5310    -0.8490 H     1 <1>   0.0800 
 42 H        2.7890     6.5500     3.3480 H     1 <1>   0.0800 
 43 H        1.6790     7.1520     2.1250 H     1 <1>   0.0800 
 44 H        3.4700     9.1370     2.1200 H     1 <1>   0.0800 
 45 H        4.8680     8.4010     2.9040 H     1 <1>   0.0800 
 46 H        6.8970     7.8880     1.2680 H     1 <1>   0.1500 
 47 H        3.8870    10.7880     0.4610 H     1 <1>   0.1500 
 48 H        7.6530    11.0320    -1.4980 H     1 <1>   0.1500 
 49 H        9.0980     8.9940    -1.4140 H     1 <1>   0.0800 
 50 H        8.8610     7.8100    -0.1570 H     1 <1>   0.0800 
 51 H        9.5250     9.3790     0.2380 H     1 <1>   0.0800 
 52 H        5.7730    12.3820    -2.2690 H     1 <1>   0.0800 
 53 H        5.4420    13.1510    -0.7340 H     1 <1>   0.0800 
 54 H        4.1980    12.2200    -1.5400 H     1 <1>   0.0800 
@<TRIPOS>BOND
  1   1   2  2   
  2   1   3  2   
  3   1   4  am  
  4   1   5  1   
  5   4   6  1   
  6   4   7  1   
  7   5   8  1   
  8   5  27  1   
  9   5  28  1   
 10   6  29  1   
 11   6  30  1   
 12   6  31  1   
 13   7  32  1   
 14   7  33  1   
 15   7  34  1   
 16   8   9  1   
 17   8  10  1   
 18   8  35  1   
 19   9  11  1   
 20   9  12  1   
 21   9  36  1   
 22  10  13  1   
 23  10  37  1   
 24  10  38  1   
 25  11  39  1   
 26  12  13  1   
 27  12  40  1   
 28  12  41  1   
 29  13  14  am  
 30  14  15  2   
 31  14  16  1   
 32  16  17  1   
 33  16  42  1   
 34  16  43  1   
 35  17  18  1   
 36  18  19  1   
 37  18  44  1   
 38  18  45  1   
 39  19  20  ar  
 40  19  21  ar  
 41  20  22  ar  
 42  20  46  1   
 43  21  23  ar  
 44  21  47  1   
 45  22  24  ar  
 46  22  25  1   
 47  23  24  ar  
 48  23  26  1   
 49  24  48  1   
 50  25  49  1   
 51  25  50  1   
 52  25  51  1   
 53  26  52  1   
 54  26  53  1   
 55  26  54  1   
@<TRIPOS>SUBSTRUCTURE
  1 ****  12 GROUP 4 **** **** 0

# MOE 2024.06 (io_trps.svl 2023.06)
