@<TRIPOS>MOLECULE
NONAME
43 45 1 0 0 
SMALL
USER_CHARGES


@<TRIPOS>ATOM
  1 CL       2.1570     0.7240    -1.5240 Cl    1 <1>  -0.1770 
  2 C        1.2180     2.1370    -1.0940 C.ar  1 <1>   0.1770 
  3 C        1.4580     2.8440     0.0810 C.ar  1 <1>  -0.1440 
  4 C        0.2250     2.5190    -1.9780 C.ar  1 <1>  -0.1500 
  5 C        0.6700     3.9580     0.3430 C.ar  1 <1>  -0.1500 
  6 C        2.5390     2.4540     1.0890 C.3   1 <1>   0.3640 
  7 C       -0.5520     3.6290    -1.6990 C.ar  1 <1>  -0.1500 
  8 C       -0.3260     4.3470    -0.5380 C.ar  1 <1>  -0.1500 
  9 N        2.2250     1.1080     1.6220 N.am  1 <1>  -0.7300 
 10 C        3.9820     2.5640     0.5210 C.3   1 <1>   0.2610 
 11 C        3.1290     0.1090     1.7140 C.2   1 <1>   0.5690 
 12 O        4.8930     1.7340     1.2360 O.3   1 <1>  -0.5600 
 13 C        4.4400     4.0250     0.5690 C.2   1 <1>   0.5690 
 14 O        2.8190    -0.9660     2.1610 O.2   1 <1>  -0.5700 
 15 C        4.5570     0.3610     1.2260 C.3   1 <1>   0.1810 
 16 O        3.8410     4.8640    -0.0630 O.2   1 <1>  -0.5700 
 17 N        5.5220     4.3620     1.3220 N.am  1 <1>  -0.7300 
 18 C        6.0470     5.7370     1.4840 C.3   1 <1>   0.1400 
 19 C        6.8850     6.1330     0.2660 C.3   1 <1>   0.0200 
 20 C        6.8920     7.6410     0.1130 C.2   1 <1>   0.0060 
 21 N        7.8470     8.4020     0.5070 N.2   1 <1>  -0.5650 
 22 N        5.8960     8.3520    -0.4410 N.pl3 1 <1>   0.3140 
 23 C        7.3830     9.6100     0.1640 C.2   1 <1>   0.3660 
 24 N        6.2220     9.6340    -0.4020 N.2   1 <1>  -0.7070 
 25 C        4.6180     7.8870    -1.0050 C.3   1 <1>   0.0160 
 26 H        0.0630     1.9510    -2.8760 H     1 <1>   0.1500 
 27 H        0.8240     4.5400     1.2360 H     1 <1>   0.1500 
 28 H        2.4800     3.1350     1.9210 H     1 <1>   0.0800 
 29 H       -1.3270     3.9330    -2.3810 H     1 <1>   0.1500 
 30 H       -0.9270     5.2140    -0.3200 H     1 <1>   0.1500 
 31 H        1.2600     0.9160     1.8970 H     1 <1>   0.3700 
 32 H        4.0050     2.2550    -0.5060 H     1 <1>   0.0800 
 33 H        4.6660    -0.0130     0.2240 H     1 <1>   0.0800 
 34 H        5.2490    -0.1530     1.8680 H     1 <1>   0.0800 
 35 H        6.0240     3.6000     1.7960 H     1 <1>   0.3700 
 36 H        5.2120     6.4100     1.5840 H     1 <1>   0.0800 
 37 H        6.6390     5.8090     2.3810 H     1 <1>   0.0800 
 38 H        6.4840     5.6950    -0.6290 H     1 <1>   0.0800 
 39 H        7.8930     5.7810     0.3940 H     1 <1>   0.0800 
 40 H        7.9620    10.4980     0.3600 H     1 <1>   0.1500 
 41 H        4.7950     7.0600    -1.6670 H     1 <1>   0.0800 
 42 H        4.1590     8.6910    -1.5490 H     1 <1>   0.0800 
 43 H        3.9700     7.5780    -0.2060 H     1 <1>   0.0800 
@<TRIPOS>BOND
  1   1   2  1   
  2   2   3  ar  
  3   2   4  ar  
  4   3   5  ar  
  5   3   6  1   
  6   4   7  ar  
  7   4  26  1   
  8   5   8  ar  
  9   5  27  1   
 10   6   9  1   
 11   6  10  1   
 12   6  28  1   
 13   7   8  ar  
 14   7  29  1   
 15   8  30  1   
 16   9  11  am  
 17   9  31  1   
 18  10  12  1   
 19  10  13  1   
 20  10  32  1   
 21  11  14  2   
 22  11  15  1   
 23  12  15  1   
 24  13  16  2   
 25  13  17  am  
 26  15  33  1   
 27  15  34  1   
 28  17  18  1   
 29  17  35  1   
 30  18  19  1   
 31  18  36  1   
 32  18  37  1   
 33  19  20  1   
 34  19  38  1   
 35  19  39  1   
 36  20  21  2   
 37  20  22  1   
 38  21  23  1   
 39  22  24  1   
 40  22  25  1   
 41  23  24  2   
 42  23  40  1   
 43  25  41  1   
 44  25  42  1   
 45  25  43  1   
@<TRIPOS>SUBSTRUCTURE
  1 ****  13 GROUP 4 **** **** 0

# MOE 2024.06 (io_trps.svl 2023.06)
