@<TRIPOS>MOLECULE
NONAME
53 55 1 0 0 
SMALL
USER_CHARGES


@<TRIPOS>ATOM
  1 O       -0.1420     0.5930     0.3980 O.2   1 <1>  -0.5700 
  2 C       -0.0650     1.7870     0.5360 C.2   1 <1>   0.5690 
  3 N       -1.1510     2.5110     0.8820 N.am  1 <1>  -0.7300 
  4 C        1.2650     2.5040     0.2800 C.3   1 <1>   0.1810 
  5 C       -1.1300     3.9820     1.0770 C.3   1 <1>   0.3640 
  6 O        1.3090     3.8090     0.8180 O.3   1 <1>  -0.5600 
  7 C       -2.3430     4.5940     0.3760 C.ar  1 <1>  -0.1440 
  8 C        0.1750     4.6130     0.5290 C.3   1 <1>   0.2610 
  9 C       -3.0600     5.6040     1.0020 C.ar  1 <1>  -0.1500 
 10 C       -2.7370     4.1760    -0.8900 C.ar  1 <1>  -0.1500 
 11 C        0.3720     6.0480     1.0470 C.2   1 <1>   0.5690 
 12 C       -4.1480     6.1870     0.3770 C.ar  1 <1>  -0.1500 
 13 C       -3.8260     4.7580    -1.5160 C.ar  1 <1>  -0.1500 
 14 O       -0.1520     6.3540     2.0980 O.2   1 <1>  -0.5700 
 15 N        1.1000     6.9700     0.3270 N.am  1 <1>  -0.6600 
 16 C       -4.5320     5.7650    -0.8830 C.ar  1 <1>  -0.1500 
 17 C        2.0080     6.6190    -0.8050 C.3   1 <1>   0.2840 
 18 C        1.1070     8.4130     0.7220 C.3   1 <1>   0.1400 
 19 C        3.4590     6.8790    -0.4330 C.ar  1 <1>  -0.1430 
 20 C        0.2340     9.2640    -0.2200 C.3   1 <1>  -0.0800 
 21 C        4.0450     6.1830     0.6140 C.ar  1 <1>  -0.1500 
 22 C        4.2120     7.8100    -1.1340 C.ar  1 <1>  -0.1500 
 23 C        0.2910    10.7350     0.2080 C.3   1 <1>  -0.2400 
 24 C       -1.2300     8.7940    -0.2390 C.3   1 <1>  -0.2400 
 25 C        5.3660     6.4110     0.9550 C.ar  1 <1>  -0.1500 
 26 C        5.5340     8.0400    -0.7930 C.ar  1 <1>  -0.1500 
 27 C        6.1120     7.3400     0.2510 C.ar  1 <1>  -0.1500 
 28 H       -2.0360     2.0320     1.0530 H     1 <1>   0.3700 
 29 H        1.4370     2.5690    -0.7780 H     1 <1>   0.0800 
 30 H        2.0630     1.9400     0.7270 H     1 <1>   0.0800 
 31 H       -1.1990     4.1700     2.1350 H     1 <1>   0.0800 
 32 H        0.0810     4.6610    -0.5390 H     1 <1>   0.0800 
 33 H       -2.7700     5.9500     1.9800 H     1 <1>   0.1500 
 34 H       -2.2010     3.3940    -1.4000 H     1 <1>   0.1500 
 35 H       -4.6940     6.9710     0.8720 H     1 <1>   0.1500 
 36 H       -4.1250     4.4270    -2.4950 H     1 <1>   0.1500 
 37 H       -5.3780     6.2180    -1.3680 H     1 <1>   0.1500 
 38 H        1.9180     5.5830    -1.0730 H     1 <1>   0.0800 
 39 H        1.7370     7.2010    -1.6670 H     1 <1>   0.0800 
 40 H        0.7440     8.5210     1.7300 H     1 <1>   0.0800 
 41 H        2.1180     8.7830     0.7150 H     1 <1>   0.0800 
 42 H        0.6330     9.1980    -1.2170 H     1 <1>   0.0800 
 43 H        3.4680     5.4620     1.1700 H     1 <1>   0.1500 
 44 H        3.7750     8.3630    -1.9470 H     1 <1>   0.1500 
 45 H       -0.1070    10.8560     1.2010 H     1 <1>   0.0800 
 46 H       -0.2830    11.3450    -0.4680 H     1 <1>   0.0800 
 47 H        1.3080    11.0880     0.2000 H     1 <1>   0.0800 
 48 H       -1.6380     8.7930     0.7570 H     1 <1>   0.0800 
 49 H       -1.3060     7.7970    -0.6350 H     1 <1>   0.0800 
 50 H       -1.8270     9.4420    -0.8560 H     1 <1>   0.0800 
 51 H        5.8110     5.8680     1.7700 H     1 <1>   0.1500 
 52 H        6.1140     8.7630    -1.3400 H     1 <1>   0.1500 
 53 H        7.1390     7.5180     0.5170 H     1 <1>   0.1500 
@<TRIPOS>BOND
  1   1   2  2   
  2   2   3  am  
  3   2   4  1   
  4   3   5  1   
  5   3  28  1   
  6   4   6  1   
  7   4  29  1   
  8   4  30  1   
  9   5   7  1   
 10   5   8  1   
 11   5  31  1   
 12   6   8  1   
 13   7   9  ar  
 14   7  10  ar  
 15   8  11  1   
 16   8  32  1   
 17   9  12  ar  
 18   9  33  1   
 19  10  13  ar  
 20  10  34  1   
 21  11  14  2   
 22  11  15  am  
 23  12  16  ar  
 24  12  35  1   
 25  13  16  ar  
 26  13  36  1   
 27  15  17  1   
 28  15  18  1   
 29  16  37  1   
 30  17  19  1   
 31  17  38  1   
 32  17  39  1   
 33  18  20  1   
 34  18  40  1   
 35  18  41  1   
 36  19  21  ar  
 37  19  22  ar  
 38  20  23  1   
 39  20  24  1   
 40  20  42  1   
 41  21  25  ar  
 42  21  43  1   
 43  22  26  ar  
 44  22  44  1   
 45  23  45  1   
 46  23  46  1   
 47  23  47  1   
 48  24  48  1   
 49  24  49  1   
 50  24  50  1   
 51  25  27  ar  
 52  25  51  1   
 53  26  27  ar  
 54  26  52  1   
 55  27  53  1   
@<TRIPOS>SUBSTRUCTURE
  1 ****  11 GROUP 4 **** **** 0

# MOE 2024.06 (io_trps.svl 2023.06)
