@<TRIPOS>MOLECULE
NONAME
49 51 1 0 0 
SMALL
USER_CHARGES


@<TRIPOS>ATOM
  1 CL       0.4730     0.2600    -0.5530 Cl    1 <1>  -0.1770 
  2 C        0.4330     1.9720    -0.2470 C.ar  1 <1>   0.1770 
  3 C        1.4000     2.7790    -0.7870 C.ar  1 <1>  -0.1500 
  4 C       -0.5830     2.4930     0.5430 C.ar  1 <1>  -0.1500 
  5 C        1.3700     4.1550    -0.5430 C.ar  1 <1>   0.3610 
  6 C       -0.6230     3.8440     0.7890 C.ar  1 <1>  -0.1500 
  7 N        2.3370     4.9920    -1.0780 N.ar  1 <1>  -0.1790 
  8 C        0.3490     4.7110     0.2550 C.ar  1 <1>   0.0000 
  9 C        2.3730     6.3170    -0.8940 C.ar  1 <1>   0.4610 
 10 C        0.3670     6.1230     0.4710 C.ar  1 <1>  -0.1430 
 11 N        3.3570     7.0430    -1.4660 N.pl3 1 <1>  -0.8690 
 12 C        1.3510     6.8810    -0.0900 C.ar  1 <1>  -0.1500 
 13 C       -0.7130     6.7780     1.3270 C.3   1 <1>  -0.0970 
 14 C        3.4940     8.5370    -1.5190 C.3   1 <1>   0.2090 
 15 C        4.4630     9.0730    -0.4350 C.3   1 <1>   0.3430 
 16 N        4.8120    10.5350    -0.5840 N.4   1 <1>  -0.9590 
 17 C        5.8670    10.9850     0.4060 C.3   1 <1>   0.4230 
 18 C        3.5910    11.4000    -0.4700 C.3   1 <1>   0.3430 
 19 C        6.2350    12.4530     0.1140 C.3   1 <1>  -0.1600 
 20 C        7.1440    10.1050     0.3900 C.3   1 <1>   0.1200 
 21 C        3.9340    12.8490    -0.8040 C.3   1 <1>  -0.1600 
 22 C        5.0200    13.3850     0.1280 C.3   1 <1>  -0.1600 
 23 O        7.9870    10.4990     1.4180 O.3   1 <1>  -0.6800 
 24 H        2.1690     2.3340    -1.3920 H     1 <1>   0.1500 
 25 H       -1.3260     1.8270     0.9500 H     1 <1>   0.1500 
 26 H       -1.4170     4.2330     1.4030 H     1 <1>   0.1500 
 27 H        3.0490     4.5590    -1.6590 H     1 <1>   0.4570 
 28 H        4.0810     6.5810    -2.0360 H     1 <1>   0.4000 
 29 H        1.3610     7.9400     0.0780 H     1 <1>   0.1500 
 30 H       -0.6970     6.3720     2.3240 H     1 <1>   0.0800 
 31 H       -1.6840     6.6050     0.8980 H     1 <1>   0.0800 
 32 H       -0.5670     7.8410     1.3990 H     1 <1>   0.0800 
 33 H        2.5260     8.9940    -1.4080 H     1 <1>   0.0800 
 34 H        3.8700     8.8050    -2.4920 H     1 <1>   0.0800 
 35 H        5.3640     8.4880    -0.4970 H     1 <1>   0.0800 
 36 H        4.0260     8.9080     0.5360 H     1 <1>   0.0800 
 37 H        5.2160    10.7100    -1.5140 H     1 <1>   0.4500 
 38 H        5.4500    10.9300     1.3990 H     1 <1>   0.0800 
 39 H        3.1990    11.3500     0.5340 H     1 <1>   0.0800 
 40 H        2.8260    11.0640    -1.1500 H     1 <1>   0.0800 
 41 H        6.7350    12.5200    -0.8370 H     1 <1>   0.0800 
 42 H        6.9310    12.7990     0.8600 H     1 <1>   0.0800 
 43 H        7.6780    10.2190    -0.5380 H     1 <1>   0.0800 
 44 H        6.9180     9.0690     0.5620 H     1 <1>   0.0800 
 45 H        3.0490    13.4540    -0.6980 H     1 <1>   0.0800 
 46 H        4.2530    12.9230    -1.8300 H     1 <1>   0.0800 
 47 H        5.3150    14.3760    -0.1800 H     1 <1>   0.0800 
 48 H        4.6350    13.4580     1.1320 H     1 <1>   0.0800 
 49 H        8.8380    10.0080     1.4110 H     1 <1>   0.4000 
@<TRIPOS>BOND
  1   1   2  1   
  2   2   3  ar  
  3   2   4  ar  
  4   3   5  ar  
  5   3  24  1   
  6   4   6  ar  
  7   4  25  1   
  8   5   7  ar  
  9   5   8  ar  
 10   6   8  ar  
 11   6  26  1   
 12   7   9  ar  
 13   7  27  1   
 14   8  10  ar  
 15   9  11  1   
 16   9  12  ar  
 17  10  12  ar  
 18  10  13  1   
 19  11  14  1   
 20  11  28  1   
 21  12  29  1   
 22  13  30  1   
 23  13  31  1   
 24  13  32  1   
 25  14  15  1   
 26  14  33  1   
 27  14  34  1   
 28  15  16  1   
 29  15  35  1   
 30  15  36  1   
 31  16  17  1   
 32  16  18  1   
 33  16  37  1   
 34  17  19  1   
 35  17  20  1   
 36  17  38  1   
 37  18  21  1   
 38  18  39  1   
 39  18  40  1   
 40  19  22  1   
 41  19  41  1   
 42  19  42  1   
 43  20  23  1   
 44  20  43  1   
 45  20  44  1   
 46  21  22  1   
 47  21  45  1   
 48  21  46  1   
 49  22  47  1   
 50  22  48  1   
 51  23  49  1   
@<TRIPOS>SUBSTRUCTURE
  1 ****   9 GROUP 4 **** **** 0

# MOE 2024.06 (io_trps.svl 2023.06)
