@<TRIPOS>MOLECULE
NONAME
42 44 1 0 0 
SMALL
USER_CHARGES


@<TRIPOS>ATOM
  1 S       -0.3480    -0.2000     1.8320 S.3   1 <1>  -0.0800 
  2 C       -1.6440     0.4980     0.8710 C.2   1 <1>  -0.1400 
  3 C        0.8260     0.8960     1.1300 C.2   1 <1>  -0.1100 
  4 C       -1.1700     1.4890     0.0880 C.2   1 <1>  -0.1810 
  5 C       -3.0320    -0.0960     1.0720 C.3   1 <1>   0.3200 
  6 C        0.2370     1.7130     0.2390 C.2   1 <1>  -0.1500 
  7 C       -1.9620     2.3410    -0.8880 C.3   1 <1>  -0.0590 
  8 N       -3.1490    -1.4690     0.4950 N.am  1 <1>  -0.6600 
  9 C       -3.9110    -2.4330     1.1330 C.2   1 <1>   0.5440 
 10 C       -2.3910    -1.7320    -0.7640 C.3   1 <1>   0.0600 
 11 O       -4.6380    -2.0690     2.0450 O.2   1 <1>  -0.5700 
 12 C       -3.9000    -3.8440     0.7330 C.ar  1 <1>   0.3960 
 13 N       -2.7380    -4.4910     0.7080 N.ar  1 <1>  -0.6200 
 14 C       -5.0760    -4.5050     0.3780 C.ar  1 <1>  -0.1430 
 15 C       -2.7870    -5.7480     0.3440 C.ar  1 <1>   0.7200 
 16 C       -4.9810    -5.8380     0.0300 C.ar  1 <1>   0.1670 
 17 C       -6.4280    -3.7830     0.3840 C.3   1 <1>  -0.0160 
 18 N       -3.8350    -6.4680     0.0110 N.ar  1 <1>  -0.6200 
 19 N       -1.6190    -6.3900     0.3300 N.pl3 1 <1>  -0.9000 
 20 C       -6.1930    -6.6670    -0.3720 C.3   1 <1>  -0.0170 
 21 C       -7.5140    -4.5300    -0.3970 C.3   1 <1>  -0.1600 
 22 C       -7.5290    -6.0090    -0.0060 C.3   1 <1>  -0.1600 
 23 H        1.8440     0.8110     1.4650 H     1 <1>   0.1500 
 24 H       -3.7690     0.5330     0.6070 H     1 <1>   0.0800 
 25 H       -3.2410    -0.1170     2.1280 H     1 <1>   0.0800 
 26 H        0.7410     2.4760    -0.3270 H     1 <1>   0.1500 
 27 H       -2.9900     2.0320    -0.9250 H     1 <1>   0.0800 
 28 H       -1.5420     2.2500    -1.8740 H     1 <1>   0.0800 
 29 H       -1.9220     3.3720    -0.5870 H     1 <1>   0.0800 
 30 H       -2.4450    -0.8760    -1.4130 H     1 <1>   0.0800 
 31 H       -2.7940    -2.5810    -1.2860 H     1 <1>   0.0800 
 32 H       -1.3590    -1.9280    -0.5270 H     1 <1>   0.0800 
 33 H       -6.3270    -2.7960    -0.0330 H     1 <1>   0.0800 
 34 H       -6.7470    -3.6720     1.4070 H     1 <1>   0.0800 
 35 H       -1.6880    -7.4030     0.3570 H     1 <1>   0.4000 
 36 H       -0.8860    -5.9660     0.8910 H     1 <1>   0.4000 
 37 H       -6.1350    -7.6330     0.0980 H     1 <1>   0.0800 
 38 H       -6.1500    -6.8200    -1.4360 H     1 <1>   0.0800 
 39 H       -7.3240    -4.4390    -1.4540 H     1 <1>   0.0800 
 40 H       -8.4730    -4.0870    -0.1920 H     1 <1>   0.0800 
 41 H       -7.6910    -6.0970     1.0550 H     1 <1>   0.0800 
 42 H       -8.3320    -6.5180    -0.5100 H     1 <1>   0.0800 
@<TRIPOS>BOND
  1   1   2  1   
  2   1   3  1   
  3   2   4  2   
  4   2   5  1   
  5   3   6  2   
  6   3  23  1   
  7   4   6  1   
  8   4   7  1   
  9   5   8  1   
 10   5  24  1   
 11   5  25  1   
 12   6  26  1   
 13   7  27  1   
 14   7  28  1   
 15   7  29  1   
 16   8   9  am  
 17   8  10  1   
 18   9  11  2   
 19   9  12  1   
 20  10  30  1   
 21  10  31  1   
 22  10  32  1   
 23  12  13  ar  
 24  12  14  ar  
 25  13  15  ar  
 26  14  16  ar  
 27  14  17  1   
 28  15  18  ar  
 29  15  19  1   
 30  16  18  ar  
 31  16  20  1   
 32  17  21  1   
 33  17  33  1   
 34  17  34  1   
 35  19  35  1   
 36  19  36  1   
 37  20  22  1   
 38  20  37  1   
 39  20  38  1   
 40  21  22  1   
 41  21  39  1   
 42  21  40  1   
 43  22  41  1   
 44  22  42  1   
@<TRIPOS>SUBSTRUCTURE
  1 ****   9 GROUP 4 **** **** 0

# MOE 2024.06 (io_trps.svl 2023.06)
