@<TRIPOS>MOLECULE
NONAME
56 58 1 0 0 
SMALL
USER_CHARGES


@<TRIPOS>ATOM
  1 O       -0.6920    -1.0910     1.4900 O.2   1 <1>  -0.5700 
  2 C       -1.2100    -0.1200     0.9840 C.2   1 <1>   0.5690 
  3 N       -2.0640    -0.2560    -0.0880 N.am  1 <1>  -0.6600 
  4 C       -0.9040     1.2550     1.6120 C.3   1 <1>   0.1710 
  5 C       -2.3230    -1.6060    -0.6830 C.3   1 <1>   0.3210 
  6 C       -2.8270     0.8750    -0.7160 C.3   1 <1>   0.1400 
  7 N        0.3850     1.8860     1.2060 N.3   1 <1>  -0.8100 
  8 C       -3.7800    -2.0150    -0.4990 C.2   1 <1>   0.0460 
  9 C       -4.1950     1.1400    -0.0560 C.3   1 <1>   0.1200 
 10 C        0.5810     3.1780     1.8990 C.3   1 <1>   0.1100 
 11 C        0.5070     2.0720    -0.2580 C.3   1 <1>   0.1100 
 12 N       -4.6680    -1.8820    -1.5070 N.2   1 <1>  -0.5650 
 13 C       -4.3770    -2.5200     0.6070 C.2   1 <1>  -0.3320 
 14 O       -4.1470     0.8740     1.3050 O.3   1 <1>  -0.6800 
 15 C        1.9250     3.8390     1.5330 C.3   1 <1>   0.2090 
 16 C        1.8570     2.7010    -0.6470 C.3   1 <1>   0.2090 
 17 C       -5.7780    -2.3080    -1.0000 C.2   1 <1>   0.0360 
 18 N       -5.6690    -2.7100     0.2830 N.pl3 1 <1>   0.0330 
 19 C       -3.8120    -2.8470     1.9790 C.3   1 <1>  -0.0600 
 20 N        2.0580     4.0010     0.0560 N.pl3 1 <1>  -0.8380 
 21 C        3.1330     4.7680    -0.3770 C.ar  1 <1>   0.1000 
 22 C        4.4480     4.3440    -0.2140 C.ar  1 <1>  -0.1500 
 23 C        2.8970     5.9910    -0.9880 C.ar  1 <1>  -0.1500 
 24 C        5.5070     5.1210    -0.6510 C.ar  1 <1>  -0.1440 
 25 C        3.9470     6.7740    -1.4280 C.ar  1 <1>  -0.1500 
 26 C        5.2510     6.3400    -1.2600 C.ar  1 <1>  -0.1500 
 27 C        6.9410     4.6550    -0.4720 C.3   1 <1>  -0.0970 
 28 H       -0.8780     1.1040     2.6760 H     1 <1>   0.0800 
 29 H       -1.7130     1.9330     1.4180 H     1 <1>   0.0800 
 30 H       -1.6970    -2.3520    -0.2290 H     1 <1>   0.0800 
 31 H       -2.0910    -1.5850    -1.7320 H     1 <1>   0.0800 
 32 H       -2.9830     0.6670    -1.7610 H     1 <1>   0.0800 
 33 H       -2.2480     1.7770    -0.6670 H     1 <1>   0.0800 
 34 H       -4.9510     0.5100    -0.4890 H     1 <1>   0.0800 
 35 H       -4.4900     2.1650    -0.1920 H     1 <1>   0.0800 
 36 H        0.5550     3.0190     2.9630 H     1 <1>   0.0800 
 37 H       -0.2150     3.8560     1.6410 H     1 <1>   0.0800 
 38 H       -0.2770     2.7170    -0.6120 H     1 <1>   0.0800 
 39 H        0.4200     1.1200    -0.7520 H     1 <1>   0.0800 
 40 H       -3.8830    -0.0670     1.4090 H     1 <1>   0.4000 
 41 H        2.7290     3.2290     1.9040 H     1 <1>   0.0800 
 42 H        1.9910     4.8050     2.0020 H     1 <1>   0.0800 
 43 H        1.8850     2.8660    -1.7100 H     1 <1>   0.0800 
 44 H        2.6500     2.0210    -0.3890 H     1 <1>   0.0800 
 45 H       -6.7110    -2.3480    -1.5330 H     1 <1>   0.1500 
 46 H       -6.4140    -3.0800     0.8800 H     1 <1>   0.2700 
 47 H       -2.7570    -2.6440     2.0140 H     1 <1>   0.0800 
 48 H       -3.9620    -3.8880     2.2040 H     1 <1>   0.0800 
 49 H       -4.2970    -2.2530     2.7340 H     1 <1>   0.0800 
 50 H        4.6280     3.3990     0.2600 H     1 <1>   0.1500 
 51 H        1.8810     6.3150    -1.1110 H     1 <1>   0.1500 
 52 H        3.7510     7.7200    -1.9010 H     1 <1>   0.1500 
 53 H        6.0650     6.9530    -1.6050 H     1 <1>   0.1500 
 54 H        6.9750     3.6910     0.0020 H     1 <1>   0.0800 
 55 H        7.4790     5.3570     0.1390 H     1 <1>   0.0800 
 56 H        7.4240     4.5840    -1.4300 H     1 <1>   0.0800 
@<TRIPOS>BOND
  1   1   2  2   
  2   2   3  am  
  3   2   4  1   
  4   3   5  1   
  5   3   6  1   
  6   4   7  1   
  7   4  28  1   
  8   4  29  1   
  9   5   8  1   
 10   5  30  1   
 11   5  31  1   
 12   6   9  1   
 13   6  32  1   
 14   6  33  1   
 15   7  10  1   
 16   7  11  1   
 17   8  12  1   
 18   8  13  2   
 19   9  14  1   
 20   9  34  1   
 21   9  35  1   
 22  10  15  1   
 23  10  36  1   
 24  10  37  1   
 25  11  16  1   
 26  11  38  1   
 27  11  39  1   
 28  12  17  2   
 29  13  18  1   
 30  13  19  1   
 31  14  40  1   
 32  15  20  1   
 33  15  41  1   
 34  15  42  1   
 35  16  20  1   
 36  16  43  1   
 37  16  44  1   
 38  17  18  1   
 39  17  45  1   
 40  18  46  1   
 41  19  47  1   
 42  19  48  1   
 43  19  49  1   
 44  20  21  1   
 45  21  22  ar  
 46  21  23  ar  
 47  22  24  ar  
 48  22  50  1   
 49  23  25  ar  
 50  23  51  1   
 51  24  26  ar  
 52  24  27  1   
 53  25  26  ar  
 54  25  52  1   
 55  26  53  1   
 56  27  54  1   
 57  27  55  1   
 58  27  56  1   
@<TRIPOS>SUBSTRUCTURE
  1 ****  11 GROUP 4 **** **** 0

# MOE 2024.06 (io_trps.svl 2023.06)
