@<TRIPOS>MOLECULE
NONAME
60 64 1 0 0 
SMALL
USER_CHARGES


@<TRIPOS>ATOM
  1 O        0.3360    -0.8880     0.5320 O.2   1 <1>  -0.5700 
  2 C        0.7970    -1.8280    -0.0860 C.2   1 <1>   0.5440 
  3 N        2.0500    -1.7130    -0.6410 N.am  1 <1>  -0.6600 
  4 C        0.0120    -3.0390    -0.2110 C.ar  1 <1>   0.0860 
  5 C        2.9090    -2.8480    -1.0470 C.3   1 <1>   0.1400 
  6 C        2.8430    -0.4690    -0.5240 C.3   1 <1>   0.1400 
  7 C       -0.6120    -3.6160     0.8770 C.ar  1 <1>  -0.1500 
  8 C       -0.1910    -3.6960    -1.4170 C.ar  1 <1>  -0.1500 
  9 C        4.3340    -2.3330    -0.8820 C.3   1 <1>  -0.1600 
 10 C        4.2190    -0.8240    -1.0760 C.3   1 <1>  -0.1600 
 11 C       -1.3750    -4.7650     0.7370 C.ar  1 <1>   0.4100 
 12 C       -0.9660    -4.8360    -1.4640 C.ar  1 <1>   0.1600 
 13 N       -1.5690    -5.3860    -0.4210 N.ar  1 <1>  -0.6200 
 14 N       -2.0180    -5.3090     1.8300 N.pl3 1 <1>  -0.8380 
 15 C       -1.9730    -6.7880     2.0770 C.3   1 <1>   0.2090 
 16 C       -3.0910    -4.5330     2.5020 C.3   1 <1>   0.2090 
 17 C       -3.2810    -7.4950     1.6650 C.3   1 <1>   0.3430 
 18 C       -4.3120    -4.4240     1.5810 C.3   1 <1>  -0.1600 
 19 N       -4.0030    -6.7020     0.6110 N.4   1 <1>  -0.9590 
 20 C       -4.9770    -5.7540     1.2130 C.3   1 <1>   0.3430 
 21 C       -4.5680    -7.4980    -0.5300 C.3   1 <1>   0.4230 
 22 C       -5.5680    -8.5690    -0.0400 C.3   1 <1>  -0.0170 
 23 C       -3.4590    -8.2830    -1.2620 C.3   1 <1>  -0.0170 
 24 C       -4.7330    -9.8250     0.0220 C.ar  1 <1>  -0.1430 
 25 C       -3.5550    -9.6660    -0.6660 C.ar  1 <1>  -0.1430 
 26 C       -5.0260   -11.0160     0.6600 C.ar  1 <1>  -0.1500 
 27 C       -2.6320   -10.6930    -0.7360 C.ar  1 <1>  -0.1500 
 28 C       -4.1060   -12.0500     0.5980 C.ar  1 <1>  -0.1500 
 29 C       -2.9150   -11.8900    -0.0970 C.ar  1 <1>  -0.1500 
 30 H        2.7190    -3.0810    -2.0810 H     1 <1>   0.0800 
 31 H        2.7320    -3.7160    -0.4350 H     1 <1>   0.0800 
 32 H        2.9120    -0.1910     0.5150 H     1 <1>   0.0800 
 33 H        2.3820     0.3300    -1.0790 H     1 <1>   0.0800 
 34 H       -0.5040    -3.1670     1.8470 H     1 <1>   0.1500 
 35 H        0.2530    -3.3030    -2.3140 H     1 <1>   0.1500 
 36 H        5.0090    -2.7880    -1.5850 H     1 <1>   0.0800 
 37 H        4.6690    -2.5480     0.1180 H     1 <1>   0.0800 
 38 H        5.0020    -0.2840    -0.5730 H     1 <1>   0.0800 
 39 H        4.2460    -0.5850    -2.1250 H     1 <1>   0.0800 
 40 H       -1.1000    -5.3210    -2.4180 H     1 <1>   0.1500 
 41 H       -1.7680    -6.9790     3.1160 H     1 <1>   0.0800 
 42 H       -1.1610    -7.2130     1.5110 H     1 <1>   0.0800 
 43 H       -2.7250    -3.5440     2.7270 H     1 <1>   0.0800 
 44 H       -3.3570    -5.0020     3.4340 H     1 <1>   0.0800 
 45 H       -3.9120    -7.6160     2.5290 H     1 <1>   0.0800 
 46 H       -3.0300    -8.4790     1.3100 H     1 <1>   0.0800 
 47 H       -4.0350    -3.9010     0.6830 H     1 <1>   0.0800 
 48 H       -5.0460    -3.8140     2.0760 H     1 <1>   0.0800 
 49 H       -3.2330    -6.1010     0.2320 H     1 <1>   0.4500 
 50 H       -5.7670    -5.5520     0.5090 H     1 <1>   0.0800 
 51 H       -5.4210    -6.1970     2.0900 H     1 <1>   0.0800 
 52 H       -5.0500    -6.8260    -1.2210 H     1 <1>   0.0800 
 53 H       -6.3390    -8.7100    -0.7770 H     1 <1>   0.0800 
 54 H       -6.0170    -8.3340     0.9070 H     1 <1>   0.0800 
 55 H       -2.4840    -7.8500    -1.1340 H     1 <1>   0.0800 
 56 H       -3.6880    -8.3450    -2.3100 H     1 <1>   0.0800 
 57 H       -5.9510   -11.1460     1.1950 H     1 <1>   0.1500 
 58 H       -1.7090   -10.5720    -1.2770 H     1 <1>   0.1500 
 59 H       -4.3170   -12.9860     1.0870 H     1 <1>   0.1500 
 60 H       -2.2090   -12.7010    -0.1420 H     1 <1>   0.1500 
@<TRIPOS>BOND
  1   1   2  2   
  2   2   3  am  
  3   2   4  1   
  4   3   5  1   
  5   3   6  1   
  6   4   7  ar  
  7   4   8  ar  
  8   5   9  1   
  9   5  30  1   
 10   5  31  1   
 11   6  10  1   
 12   6  32  1   
 13   6  33  1   
 14   7  11  ar  
 15   7  34  1   
 16   8  12  ar  
 17   8  35  1   
 18   9  10  1   
 19   9  36  1   
 20   9  37  1   
 21  10  38  1   
 22  10  39  1   
 23  11  13  ar  
 24  11  14  1   
 25  12  13  ar  
 26  12  40  1   
 27  14  15  1   
 28  14  16  1   
 29  15  17  1   
 30  15  41  1   
 31  15  42  1   
 32  16  18  1   
 33  16  43  1   
 34  16  44  1   
 35  17  19  1   
 36  17  45  1   
 37  17  46  1   
 38  18  20  1   
 39  18  47  1   
 40  18  48  1   
 41  19  20  1   
 42  19  21  1   
 43  19  49  1   
 44  20  50  1   
 45  20  51  1   
 46  21  22  1   
 47  21  23  1   
 48  21  52  1   
 49  22  24  1   
 50  22  53  1   
 51  22  54  1   
 52  23  25  1   
 53  23  55  1   
 54  23  56  1   
 55  24  25  ar  
 56  24  26  ar  
 57  25  27  ar  
 58  26  28  ar  
 59  26  57  1   
 60  27  29  ar  
 61  27  58  1   
 62  28  29  ar  
 63  28  59  1   
 64  29  60  1   
@<TRIPOS>SUBSTRUCTURE
  1 ****  13 GROUP 4 **** **** 0

# MOE 2024.06 (io_trps.svl 2023.06)
