@<TRIPOS>MOLECULE
NONAME
34 34 1 0 0 
SMALL
USER_CHARGES


@<TRIPOS>ATOM
  1 S       -0.4730    -0.6810    -0.9330 S.3   1 <1>  -0.0800 
  2 C       -1.9150     0.0220    -0.2300 C.2   1 <1>   0.1980 
  3 C        0.4820     0.1900     0.2300 C.2   1 <1>  -0.1100 
  4 N       -1.6940     0.8050     0.7480 N.2   1 <1>  -0.5650 
  5 C       -3.2520    -0.3550    -0.8360 C.3   1 <1>   0.0200 
  6 C       -0.3390     0.9050     1.0140 C.2   1 <1>   0.0460 
  7 C       -3.6630    -1.7820    -0.4480 C.3   1 <1>  -0.1600 
  8 C        0.0670     1.8080     2.1570 C.3   1 <1>  -0.0590 
  9 C       -5.0440    -2.1270    -1.0020 C.3   1 <1>   0.1400 
 10 N       -5.3710    -3.5210    -0.6450 N.am  1 <1>  -0.7300 
 11 C       -5.6470    -4.5190    -1.5230 C.2   1 <1>   0.5690 
 12 O       -5.6610    -4.3400    -2.7170 O.2   1 <1>  -0.5700 
 13 C       -5.9610    -5.9060    -0.9820 C.3   1 <1>   0.0390 
 14 C       -5.2900    -6.1980     0.3600 C.2   1 <1>  -0.2880 
 15 C       -5.9360    -6.4310     1.5050 C.2   1 <1>  -0.2880 
 16 C       -5.2560    -6.7200     2.8310 C.3   1 <1>  -0.1020 
 17 H        1.5490     0.0730     0.2000 H     1 <1>   0.1500 
 18 H       -3.9900     0.3430    -0.4820 H     1 <1>   0.0800 
 19 H       -3.1900    -0.2630    -1.9060 H     1 <1>   0.0800 
 20 H       -3.6740    -1.8630     0.6250 H     1 <1>   0.0800 
 21 H       -2.9410    -2.4770    -0.8400 H     1 <1>   0.0800 
 22 H        1.1350     1.8120     2.2730 H     1 <1>   0.0800 
 23 H       -0.3850     1.4620     3.0680 H     1 <1>   0.0800 
 24 H       -0.2690     2.8100     1.9610 H     1 <1>   0.0800 
 25 H       -5.0510    -2.0150    -2.0740 H     1 <1>   0.0800 
 26 H       -5.7910    -1.4710    -0.5860 H     1 <1>   0.0800 
 27 H       -5.3570    -3.7550     0.3520 H     1 <1>   0.3700 
 28 H       -7.0270    -5.9890    -0.8850 H     1 <1>   0.0800 
 29 H       -5.6390    -6.6350    -1.7030 H     1 <1>   0.0800 
 30 H       -4.2140    -6.1970     0.2860 H     1 <1>   0.1500 
 31 H       -7.0110    -6.4350     1.5820 H     1 <1>   0.1500 
 32 H       -5.5340    -5.9770     3.5570 H     1 <1>   0.0800 
 33 H       -4.1860    -6.7110     2.7210 H     1 <1>   0.0800 
 34 H       -5.5550    -7.6880     3.1930 H     1 <1>   0.0800 
@<TRIPOS>BOND
  1   1   2  1   
  2   1   3  1   
  3   2   4  2   
  4   2   5  1   
  5   3   6  2   
  6   3  17  1   
  7   4   6  1   
  8   5   7  1   
  9   5  18  1   
 10   5  19  1   
 11   6   8  1   
 12   7   9  1   
 13   7  20  1   
 14   7  21  1   
 15   8  22  1   
 16   8  23  1   
 17   8  24  1   
 18   9  10  1   
 19   9  25  1   
 20   9  26  1   
 21  10  11  am  
 22  10  27  1   
 23  11  12  2   
 24  11  13  1   
 25  13  14  1   
 26  13  28  1   
 27  13  29  1   
 28  14  15  2   
 29  14  30  1   
 30  15  16  1   
 31  15  31  1   
 32  16  32  1   
 33  16  33  1   
 34  16  34  1   
@<TRIPOS>SUBSTRUCTURE
  1 ****   7 GROUP 4 **** **** 0

# MOE 2024.06 (io_trps.svl 2023.06)
