@<TRIPOS>MOLECULE
NONAME
42 44 1 0 0 
SMALL
USER_CHARGES


@<TRIPOS>ATOM
  1 CL       0.2250    -0.9890     3.4000 Cl    1 <1>  -0.1770 
  2 C        1.3960    -1.4930     2.1940 C.ar  1 <1>   0.1770 
  3 C        1.3260    -2.7520     1.6100 C.ar  1 <1>   0.4100 
  4 C        2.3990    -0.6500     1.8020 C.ar  1 <1>   0.1600 
  5 N        2.2100    -3.1140     0.6980 N.ar  1 <1>  -0.6200 
  6 N        0.3390    -3.6530     1.9480 N.pl3 1 <1>  -0.8690 
  7 N        3.2900    -1.0050     0.8910 N.ar  1 <1>  -0.6200 
  8 C        3.1380    -2.2230     0.3960 C.ar  1 <1>   0.4770 
  9 C        0.1100    -4.9770     1.2930 C.3   1 <1>   0.2090 
 10 C        4.1450    -2.6430    -0.6470 C.3   1 <1>  -0.0970 
 11 C       -1.0370    -4.9770     0.2500 C.3   1 <1>   0.1430 
 12 C       -1.0870    -6.4130    -0.3390 C.ar  1 <1>  -0.1430 
 13 C       -2.3680    -4.5430     0.9180 C.3   1 <1>  -0.1600 
 14 C       -0.7800    -3.9380    -0.8690 C.3   1 <1>  -0.1600 
 15 C       -2.1030    -7.3230    -0.0480 C.ar  1 <1>  -0.1500 
 16 C       -0.0590    -6.8500    -1.1760 C.ar  1 <1>  -0.1500 
 17 C       -3.4980    -4.3760    -0.1100 C.3   1 <1>   0.1200 
 18 C       -1.9770    -3.8450    -1.8190 C.3   1 <1>   0.1200 
 19 C       -2.0770    -8.5870    -0.6050 C.ar  1 <1>   0.1900 
 20 C       -0.0460    -8.1230    -1.7270 C.ar  1 <1>  -0.1500 
 21 O       -3.1020    -3.4660    -1.0880 O.3   1 <1>  -0.5600 
 22 F       -3.0460    -9.4170    -0.3230 F     1 <1>  -0.1900 
 23 C       -1.0690    -9.0090    -1.4450 C.ar  1 <1>  -0.1500 
 24 H        2.4770     0.3300     2.2370 H     1 <1>   0.1500 
 25 H       -0.3950    -3.3330     2.5860 H     1 <1>   0.4000 
 26 H       -0.1150    -5.7000     2.0580 H     1 <1>   0.0800 
 27 H        1.0200    -5.3010     0.8180 H     1 <1>   0.0800 
 28 H        4.3080    -3.7040    -0.5970 H     1 <1>   0.0800 
 29 H        5.0800    -2.1410    -0.4840 H     1 <1>   0.0800 
 30 H        3.7730    -2.3880    -1.6210 H     1 <1>   0.0800 
 31 H       -2.2410    -3.5890     1.3950 H     1 <1>   0.0800 
 32 H       -2.6580    -5.2340     1.6870 H     1 <1>   0.0800 
 33 H        0.1090    -4.1600    -1.4250 H     1 <1>   0.0800 
 34 H       -0.6340    -2.9620    -0.4410 H     1 <1>   0.0800 
 35 H       -2.9240    -7.0940     0.6020 H     1 <1>   0.1500 
 36 H        0.7670    -6.2030    -1.4120 H     1 <1>   0.1500 
 37 H       -4.3800    -3.9800     0.3620 H     1 <1>   0.0800 
 38 H       -3.7520    -5.3020    -0.5950 H     1 <1>   0.0800 
 39 H       -2.1760    -4.7860    -2.3040 H     1 <1>   0.0800 
 40 H       -1.8060    -3.0920    -2.5680 H     1 <1>   0.0800 
 41 H        0.7610    -8.4220    -2.3730 H     1 <1>   0.1500 
 42 H       -1.0850   -10.0000    -1.8600 H     1 <1>   0.1500 
@<TRIPOS>BOND
  1   1   2  1   
  2   2   3  ar  
  3   2   4  ar  
  4   3   5  ar  
  5   3   6  1   
  6   4   7  ar  
  7   4  24  1   
  8   5   8  ar  
  9   6   9  1   
 10   6  25  1   
 11   7   8  ar  
 12   8  10  1   
 13   9  11  1   
 14   9  26  1   
 15   9  27  1   
 16  10  28  1   
 17  10  29  1   
 18  10  30  1   
 19  11  12  1   
 20  11  13  1   
 21  11  14  1   
 22  12  15  ar  
 23  12  16  ar  
 24  13  17  1   
 25  13  31  1   
 26  13  32  1   
 27  14  18  1   
 28  14  33  1   
 29  14  34  1   
 30  15  19  ar  
 31  15  35  1   
 32  16  20  ar  
 33  16  36  1   
 34  17  21  1   
 35  17  37  1   
 36  17  38  1   
 37  18  21  1   
 38  18  39  1   
 39  18  40  1   
 40  19  22  1   
 41  19  23  ar  
 42  20  23  ar  
 43  20  41  1   
 44  23  42  1   
@<TRIPOS>SUBSTRUCTURE
  1 ****  11 GROUP 4 **** **** 0

# MOE 2024.06 (io_trps.svl 2023.06)
