@<TRIPOS>MOLECULE
NONAME
38 39 1 0 0 
SMALL
USER_CHARGES


@<TRIPOS>ATOM
  1 CL      -3.7060     1.1500    -2.4290 Cl    1 <1>  -0.1230 
  2 C       -2.8690     0.7370    -0.9410 C.2   1 <1>   0.1230 
  3 C       -2.9510    -0.4620    -0.2220 C.2   1 <1>   0.2030 
  4 C       -2.0180     1.5440    -0.2870 C.2   1 <1>  -0.3020 
  5 N       -2.1650    -0.3770     0.8460 N.2   1 <1>  -0.7070 
  6 C       -3.7610    -1.6170    -0.5730 C.2   1 <1>   0.7160 
  7 N       -1.6060     0.8470     0.7890 N.pl3 1 <1>   0.3000 
  8 O       -4.5030    -1.6420    -1.5390 O.2   1 <1>  -0.5700 
  9 N       -3.7190    -2.7270     0.2210 N.am  1 <1>  -0.7300 
 10 C       -4.4880    -3.9730     0.0110 C.3   1 <1>   0.2200 
 11 C       -5.8950    -3.8100     0.5940 C.3   1 <1>  -0.0800 
 12 C       -3.8990    -5.1190     0.8300 C.3   1 <1>   0.1200 
 13 C       -5.9510    -4.8540     1.7160 C.3   1 <1>   0.1200 
 14 C       -7.0150    -3.8670    -0.4700 C.3   1 <1>  -0.0550 
 15 O       -4.6240    -5.1280     2.0180 O.3   1 <1>  -0.5600 
 16 S       -7.3070    -5.4420    -1.2930 S.o2  1 <1>   1.3330 
 17 O       -6.0500    -6.1410    -1.4400 O.2   1 <1>  -0.6500 
 18 O       -8.1380    -5.2200    -2.4550 O.2   1 <1>  -0.6500 
 19 N       -8.2540    -6.3040    -0.1740 N.am  1 <1>  -0.8490 
 20 C       -9.6830    -5.9730    -0.2400 C.3   1 <1>   0.1160 
 21 C       -8.0790    -7.7540    -0.3000 C.3   1 <1>   0.1160 
 22 H       -1.6950     2.5420    -0.5190 H     1 <1>   0.1500 
 23 H       -0.9440     1.1830     1.5020 H     1 <1>   0.2700 
 24 H       -3.1860    -2.6530     1.0930 H     1 <1>   0.3700 
 25 H       -4.4870    -4.2190    -1.0380 H     1 <1>   0.0800 
 26 H       -5.9660    -2.8470     1.0680 H     1 <1>   0.0800 
 27 H       -2.8530    -4.9930     1.0420 H     1 <1>   0.0800 
 28 H       -4.0650    -6.0610     0.3360 H     1 <1>   0.0800 
 29 H       -6.4010    -5.7790     1.4080 H     1 <1>   0.0800 
 30 H       -6.4430    -4.4850     2.5990 H     1 <1>   0.0800 
 31 H       -6.7700    -3.1410    -1.2230 H     1 <1>   0.0800 
 32 H       -7.9300    -3.5410    -0.0190 H     1 <1>   0.0800 
 33 H      -10.2150    -6.4730     0.5510 H     1 <1>   0.0800 
 34 H      -10.0970    -6.2770    -1.1880 H     1 <1>   0.0800 
 35 H       -9.8260    -4.9120    -0.1280 H     1 <1>   0.0800 
 36 H       -8.6850    -8.2690     0.4250 H     1 <1>   0.0800 
 37 H       -7.0490    -8.0190    -0.1240 H     1 <1>   0.0800 
 38 H       -8.3550    -8.0800    -1.2900 H     1 <1>   0.0800 
@<TRIPOS>BOND
  1   1   2  1   
  2   2   3  1   
  3   2   4  2   
  4   3   5  2   
  5   3   6  1   
  6   4   7  1   
  7   4  22  1   
  8   5   7  1   
  9   6   8  2   
 10   6   9  am  
 11   7  23  1   
 12   9  10  1   
 13   9  24  1   
 14  10  11  1   
 15  10  12  1   
 16  10  25  1   
 17  11  13  1   
 18  11  14  1   
 19  11  26  1   
 20  12  15  1   
 21  12  27  1   
 22  12  28  1   
 23  13  15  1   
 24  13  29  1   
 25  13  30  1   
 26  14  16  1   
 27  14  31  1   
 28  14  32  1   
 29  16  17  2   
 30  16  18  2   
 31  16  19  am  
 32  19  20  1   
 33  19  21  1   
 34  20  33  1   
 35  20  34  1   
 36  20  35  1   
 37  21  36  1   
 38  21  37  1   
 39  21  38  1   
@<TRIPOS>SUBSTRUCTURE
  1 ****  10 GROUP 4 **** **** 0

# MOE 2024.06 (io_trps.svl 2023.06)
