@<TRIPOS>MOLECULE
NONAME
47 48 1 0 0 
SMALL
USER_CHARGES


@<TRIPOS>ATOM
  1 F       -4.5880    -0.7660     1.5820 F     1 <1>  -0.1900 
  2 C       -3.9240     0.0390     0.7910 C.ar  1 <1>   0.1900 
  3 C       -3.3440    -0.4640    -0.3660 C.ar  1 <1>  -0.1440 
  4 C       -3.8430     1.3720     1.1470 C.ar  1 <1>  -0.1500 
  5 C       -2.6640     0.4240    -1.1870 C.ar  1 <1>  -0.1500 
  6 C       -3.4420    -1.9370    -0.7400 C.3   1 <1>  -0.0160 
  7 C       -3.1600     2.2410     0.3150 C.ar  1 <1>  -0.1500 
  8 C       -2.5740     1.7660    -0.8480 C.ar  1 <1>  -0.1500 
  9 C       -4.8460    -2.2520    -1.2720 C.3   1 <1>  -0.0990 
 10 C       -5.1120    -3.7450    -1.3550 C.2   1 <1>   0.5690 
 11 O       -5.1060    -4.2370    -2.4540 O.2   1 <1>  -0.5700 
 12 N       -5.3880    -4.4950    -0.2380 N.am  1 <1>  -0.6600 
 13 C       -5.3090    -5.9860    -0.3290 C.3   1 <1>   0.3200 
 14 C       -5.6580    -3.9280     1.1300 C.3   1 <1>   0.1400 
 15 C       -6.6800    -6.5480    -0.0280 C.2   1 <1>  -0.3320 
 16 C       -7.0040    -3.1710     1.2510 C.3   1 <1>   0.3430 
 17 N       -7.0380    -7.1560     1.1220 N.pl3 1 <1>   0.0330 
 18 C       -7.7740    -6.5480    -0.8200 C.2   1 <1>   0.0770 
 19 N       -8.1190    -3.8510     0.5140 N.4   1 <1>  -0.9590 
 20 C       -8.3500    -7.4320     0.9730 C.2   1 <1>   0.0360 
 21 N       -8.8340    -7.0530    -0.1650 N.2   1 <1>  -0.5650 
 22 C       -8.4410    -3.1880    -0.7860 C.3   1 <1>   0.2630 
 23 C       -9.3530    -4.0220     1.3340 C.3   1 <1>   0.2630 
 24 H       -4.3030     1.7230     2.0530 H     1 <1>   0.1500 
 25 H       -2.1990     0.0800    -2.0960 H     1 <1>   0.1500 
 26 H       -3.2130    -2.5330     0.1240 H     1 <1>   0.0800 
 27 H       -2.7140    -2.1820    -1.4940 H     1 <1>   0.0800 
 28 H       -3.0820     3.2850     0.5690 H     1 <1>   0.1500 
 29 H       -2.0430     2.4440    -1.4940 H     1 <1>   0.1500 
 30 H       -4.9380    -1.8300    -2.2570 H     1 <1>   0.0800 
 31 H       -5.5920    -1.7820    -0.6660 H     1 <1>   0.0800 
 32 H       -4.5770    -6.3570     0.3680 H     1 <1>   0.0800 
 33 H       -5.0050    -6.2990    -1.3150 H     1 <1>   0.0800 
 34 H       -4.8580    -3.2700     1.4150 H     1 <1>   0.0800 
 35 H       -5.6580    -4.7270     1.8500 H     1 <1>   0.0800 
 36 H       -6.8850    -2.1670     0.8820 H     1 <1>   0.0800 
 37 H       -7.2530    -3.0930     2.2960 H     1 <1>   0.0800 
 38 H       -6.4500    -7.4050     1.9270 H     1 <1>   0.2700 
 39 H       -7.8560    -6.1880    -1.8350 H     1 <1>   0.1500 
 40 H       -7.7810    -4.8060     0.2720 H     1 <1>   0.4500 
 41 H       -8.9230    -7.9280     1.7400 H     1 <1>   0.1500 
 42 H       -8.7760    -2.1770    -0.6220 H     1 <1>   0.0800 
 43 H       -9.2200    -3.7340    -1.2940 H     1 <1>   0.0800 
 44 H       -7.5730    -3.1700    -1.4230 H     1 <1>   0.0800 
 45 H       -9.7820    -3.0640     1.5770 H     1 <1>   0.0800 
 46 H       -9.1250    -4.5460     2.2480 H     1 <1>   0.0800 
 47 H      -10.0790    -4.6030     0.7870 H     1 <1>   0.0800 
@<TRIPOS>BOND
  1   1   2  1   
  2   2   3  ar  
  3   2   4  ar  
  4   3   5  ar  
  5   3   6  1   
  6   4   7  ar  
  7   4  24  1   
  8   5   8  ar  
  9   5  25  1   
 10   6   9  1   
 11   6  26  1   
 12   6  27  1   
 13   7   8  ar  
 14   7  28  1   
 15   8  29  1   
 16   9  10  1   
 17   9  30  1   
 18   9  31  1   
 19  10  11  2   
 20  10  12  am  
 21  12  13  1   
 22  12  14  1   
 23  13  15  1   
 24  13  32  1   
 25  13  33  1   
 26  14  16  1   
 27  14  34  1   
 28  14  35  1   
 29  15  17  1   
 30  15  18  2   
 31  16  19  1   
 32  16  36  1   
 33  16  37  1   
 34  17  20  1   
 35  17  38  1   
 36  18  21  1   
 37  18  39  1   
 38  19  22  1   
 39  19  23  1   
 40  19  40  1   
 41  20  21  2   
 42  20  41  1   
 43  22  42  1   
 44  22  43  1   
 45  22  44  1   
 46  23  45  1   
 47  23  46  1   
 48  23  47  1   
@<TRIPOS>SUBSTRUCTURE
  1 ****  14 GROUP 4 **** **** 0

# MOE 2024.06 (io_trps.svl 2023.06)
