@<TRIPOS>MOLECULE
NONAME
60 62 1 0 0 
SMALL
USER_CHARGES


@<TRIPOS>ATOM
  1 O       -0.9560     0.6280     1.1920 O.2   1 <1>  -0.5700 
  2 C       -1.8120     1.4490     0.9200 C.2   1 <1>   0.5440 
  3 N       -3.1400     1.0600     0.9450 N.am  1 <1>  -0.6600 
  4 C       -1.4050     2.7950     0.5710 C.ar  1 <1>   0.0860 
  5 C       -4.2010     1.8220     0.2180 C.3   1 <1>   0.2200 
  6 C       -3.4970    -0.2540     1.5640 C.3   1 <1>   0.0600 
  7 C       -0.4880     3.0250    -0.4500 C.ar  1 <1>  -0.1500 
  8 C       -1.9170     3.9060     1.2370 C.ar  1 <1>  -0.1500 
  9 C       -5.2600     2.4080     1.1500 C.3   1 <1>  -0.1600 
 10 C       -4.9920     0.9810    -0.7850 C.3   1 <1>  -0.1600 
 11 C       -0.1110     4.3060    -0.8060 C.ar  1 <1>   0.0820 
 12 C       -1.5620     5.2000     0.9010 C.ar  1 <1>   0.0820 
 13 C       -6.4790     2.6470     0.2480 C.3   1 <1>  -0.0800 
 14 C       -6.2980     1.7610    -0.9900 C.3   1 <1>  -0.0800 
 15 O        0.7730     4.4260    -1.8280 O.3   1 <1>  -0.3630 
 16 C       -0.6230     5.4130    -0.1190 C.ar  1 <1>   0.0820 
 17 O       -2.1840     6.1690     1.6320 O.3   1 <1>  -0.3630 
 18 C       -7.8330     2.2490     0.8520 C.3   1 <1>  -0.1600 
 19 C       -7.5700     0.9020    -1.0820 C.3   1 <1>  -0.1600 
 20 C        0.2930     5.0230    -3.0130 C.3   1 <1>   0.0400 
 21 O       -0.1850     6.6610    -0.4280 O.3   1 <1>  -0.3630 
 22 C       -2.3810     7.4710     1.1240 C.3   1 <1>   0.0400 
 23 C       -8.6470     1.6760    -0.3140 C.3   1 <1>   0.4230 
 24 C        1.1190     6.9790     0.0060 C.3   1 <1>   0.0400 
 25 N       -9.2190     2.7750    -1.1590 N.4   1 <1>  -0.9590 
 26 C      -10.1720     3.6520    -0.4030 C.3   1 <1>   0.2630 
 27 C       -9.9210     2.2590    -2.3790 C.3   1 <1>   0.2630 
 28 H       -3.7580     2.6340    -0.3330 H     1 <1>   0.0800 
 29 H       -4.5100    -0.2540     1.9200 H     1 <1>   0.0800 
 30 H       -2.8450    -0.4570     2.3970 H     1 <1>   0.0800 
 31 H       -3.3730    -1.0380     0.8370 H     1 <1>   0.0800 
 32 H       -0.0630     2.1860    -0.9720 H     1 <1>   0.1500 
 33 H       -2.6100     3.7540     2.0440 H     1 <1>   0.1500 
 34 H       -5.4930     1.7090     1.9310 H     1 <1>   0.0800 
 35 H       -4.9200     3.3270     1.5940 H     1 <1>   0.0800 
 36 H       -4.4490     0.8690    -1.7070 H     1 <1>   0.0800 
 37 H       -5.2020     0.0090    -0.3810 H     1 <1>   0.0800 
 38 H       -6.4970     3.6790    -0.0620 H     1 <1>   0.0800 
 39 H       -6.2060     2.3910    -1.8590 H     1 <1>   0.0800 
 40 H       -8.3010     3.0580     1.3800 H     1 <1>   0.0800 
 41 H       -7.6880     1.4500     1.5590 H     1 <1>   0.0800 
 42 H       -7.4160    -0.0260    -0.5590 H     1 <1>   0.0800 
 43 H       -7.8230     0.6560    -2.0960 H     1 <1>   0.0800 
 44 H        1.0570     4.9390    -3.7640 H     1 <1>   0.0800 
 45 H        0.0750     6.0590    -2.8290 H     1 <1>   0.0800 
 46 H       -0.5940     4.5030    -3.3300 H     1 <1>   0.0800 
 47 H       -3.1460     7.9470     1.7100 H     1 <1>   0.0800 
 48 H       -2.6900     7.4060     0.0960 H     1 <1>   0.0800 
 49 H       -1.4630     8.0210     1.2130 H     1 <1>   0.0800 
 50 H       -9.4310     1.0220     0.0350 H     1 <1>   0.0800 
 51 H        1.3190     8.0030    -0.2490 H     1 <1>   0.0800 
 52 H        1.8240     6.3330    -0.4850 H     1 <1>   0.0800 
 53 H        1.1710     6.8460     1.0730 H     1 <1>   0.0800 
 54 H       -8.4180     3.3480    -1.4600 H     1 <1>   0.4500 
 55 H      -10.9760     3.0640     0.0080 H     1 <1>   0.0800 
 56 H      -10.5920     4.3980    -1.0580 H     1 <1>   0.0800 
 57 H       -9.6690     4.1600     0.4020 H     1 <1>   0.0800 
 58 H      -10.7110     1.5810    -2.0990 H     1 <1>   0.0800 
 59 H       -9.2340     1.7410    -3.0270 H     1 <1>   0.0800 
 60 H      -10.3510     3.0770    -2.9350 H     1 <1>   0.0800 
@<TRIPOS>BOND
  1   1   2  2   
  2   2   3  am  
  3   2   4  1   
  4   3   5  1   
  5   3   6  1   
  6   4   7  ar  
  7   4   8  ar  
  8   5   9  1   
  9   5  10  1   
 10   5  28  1   
 11   6  29  1   
 12   6  30  1   
 13   6  31  1   
 14   7  11  ar  
 15   7  32  1   
 16   8  12  ar  
 17   8  33  1   
 18   9  13  1   
 19   9  34  1   
 20   9  35  1   
 21  10  14  1   
 22  10  36  1   
 23  10  37  1   
 24  11  15  1   
 25  11  16  ar  
 26  12  16  ar  
 27  12  17  1   
 28  13  14  1   
 29  13  18  1   
 30  13  38  1   
 31  14  19  1   
 32  14  39  1   
 33  15  20  1   
 34  16  21  1   
 35  17  22  1   
 36  18  23  1   
 37  18  40  1   
 38  18  41  1   
 39  19  23  1   
 40  19  42  1   
 41  19  43  1   
 42  20  44  1   
 43  20  45  1   
 44  20  46  1   
 45  21  24  1   
 46  22  47  1   
 47  22  48  1   
 48  22  49  1   
 49  23  25  1   
 50  23  50  1   
 51  24  51  1   
 52  24  52  1   
 53  24  53  1   
 54  25  26  1   
 55  25  27  1   
 56  25  54  1   
 57  26  55  1   
 58  26  56  1   
 59  26  57  1   
 60  27  58  1   
 61  27  59  1   
 62  27  60  1   
@<TRIPOS>SUBSTRUCTURE
  1 ****   5 GROUP 4 **** **** 0

# MOE 2024.06 (io_trps.svl 2023.06)
