@<TRIPOS>MOLECULE
NONAME
46 49 1 0 0 
SMALL
USER_CHARGES


@<TRIPOS>ATOM
  1 O        2.6600    -3.0540     1.0950 O.3   1 <1>  -0.0190 
  2 N        2.0950    -4.1750     0.7580 N.2   1 <1>  -0.4100 
  3 C        2.0640    -2.1570     0.3480 C.2   1 <1>   0.3930 
  4 C        1.2350    -3.9030    -0.1380 C.2   1 <1>   0.3350 
  5 N        1.1680    -2.6130    -0.4370 N.2   1 <1>  -0.5650 
  6 C        2.4820    -0.7020     0.4890 C.3   1 <1>  -0.0150 
  7 C        0.3300    -4.9390    -0.8070 C.3   1 <1>   0.5240 
  8 C        1.9410     0.1360     1.6070 C.3   1 <1>  -0.2000 
  9 C        1.5350     0.4220     0.1920 C.3   1 <1>  -0.2000 
 10 N       -1.0530    -4.9610    -0.2150 N.4   1 <1>  -0.9590 
 11 C       -1.8210    -6.1520    -0.7070 C.3   1 <1>   0.3430 
 12 C       -1.7880    -3.6820    -0.4630 C.3   1 <1>   0.3430 
 13 C       -3.2110    -6.2420    -0.0500 C.3   1 <1>   0.2000 
 14 C       -3.1660    -3.7320     0.2040 C.3   1 <1>  -0.1600 
 15 O       -3.9290    -7.2690    -0.6570 O.3   1 <1>  -0.5600 
 16 C       -3.9950    -4.9430    -0.2570 C.3   1 <1>  -0.1600 
 17 C       -3.9560    -8.4880     0.0460 C.3   1 <1>   0.2630 
 18 C       -2.5770    -9.1500     0.0960 C.ar  1 <1>   0.1670 
 19 N       -1.7460    -8.7640     1.0610 N.ar  1 <1>  -0.6200 
 20 C       -2.2610   -10.1100    -0.8540 C.ar  1 <1>  -0.1500 
 21 C       -0.5780    -9.3890     1.0970 C.ar  1 <1>   0.1600 
 22 C       -1.0330   -10.7340    -0.8150 C.ar  1 <1>  -0.1500 
 23 C       -0.1770   -10.3590     0.1970 C.ar  1 <1>  -0.1500 
 24 H        3.5130    -0.5570     0.2190 H     1 <1>   0.1000 
 25 H        0.7880    -5.9050    -0.6840 H     1 <1>   0.0800 
 26 H        0.2780    -4.7230    -1.8610 H     1 <1>   0.0800 
 27 H        2.6040     0.8210     2.1060 H     1 <1>   0.1000 
 28 H        1.2120    -0.2910     2.2750 H     1 <1>   0.1000 
 29 H        0.5300     0.1910    -0.1150 H     1 <1>   0.1000 
 30 H        1.9190     1.3060    -0.2880 H     1 <1>   0.1000 
 31 H       -0.9360    -5.0630     0.8030 H     1 <1>   0.4500 
 32 H       -1.2700    -7.0520    -0.4940 H     1 <1>   0.0800 
 33 H       -1.9570    -6.0780    -1.7730 H     1 <1>   0.0800 
 34 H       -1.9090    -3.5300    -1.5230 H     1 <1>   0.0800 
 35 H       -1.2320    -2.8480    -0.0650 H     1 <1>   0.0800 
 36 H       -3.1140    -6.4420     1.0040 H     1 <1>   0.0800 
 37 H       -3.7000    -2.8280    -0.0340 H     1 <1>   0.0800 
 38 H       -3.0440    -3.7560     1.2730 H     1 <1>   0.0800 
 39 H       -4.9150    -4.9860     0.3000 H     1 <1>   0.0800 
 40 H       -4.2360    -4.8340    -1.3010 H     1 <1>   0.0800 
 41 H       -4.6530    -9.1320    -0.4600 H     1 <1>   0.0800 
 42 H       -4.3270    -8.3120     1.0420 H     1 <1>   0.0800 
 43 H       -2.9700   -10.3740    -1.6190 H     1 <1>   0.1500 
 44 H        0.0990    -9.1160     1.8900 H     1 <1>   0.1500 
 45 H       -0.7590   -11.4860    -1.5370 H     1 <1>   0.1500 
 46 H        0.7910   -10.8200     0.2910 H     1 <1>   0.1500 
@<TRIPOS>BOND
  1   1   2  1   
  2   1   3  1   
  3   2   4  2   
  4   3   5  2   
  5   3   6  1   
  6   4   5  1   
  7   4   7  1   
  8   6   8  1   
  9   6   9  1   
 10   6  24  1   
 11   7  10  1   
 12   7  25  1   
 13   7  26  1   
 14   8   9  1   
 15   8  27  1   
 16   8  28  1   
 17   9  29  1   
 18   9  30  1   
 19  10  11  1   
 20  10  12  1   
 21  10  31  1   
 22  11  13  1   
 23  11  32  1   
 24  11  33  1   
 25  12  14  1   
 26  12  34  1   
 27  12  35  1   
 28  13  15  1   
 29  13  16  1   
 30  13  36  1   
 31  14  16  1   
 32  14  37  1   
 33  14  38  1   
 34  15  17  1   
 35  16  39  1   
 36  16  40  1   
 37  17  18  1   
 38  17  41  1   
 39  17  42  1   
 40  18  19  ar  
 41  18  20  ar  
 42  19  21  ar  
 43  20  22  ar  
 44  20  43  1   
 45  21  23  ar  
 46  21  44  1   
 47  22  23  ar  
 48  22  45  1   
 49  23  46  1   
@<TRIPOS>SUBSTRUCTURE
  1 ****  10 GROUP 4 **** **** 0

# MOE 2024.06 (io_trps.svl 2023.06)
