@<TRIPOS>MOLECULE
NONAME
55 57 1 0 0 
SMALL
USER_CHARGES


@<TRIPOS>ATOM
  1 O        0.7310     0.5400     0.4600 O.2   1 <1>  -0.5700 
  2 C        1.3640     1.4040    -0.1120 C.2   1 <1>   0.7800 
  3 O        0.8650     2.6270    -0.3070 O.3   1 <1>  -0.4300 
  4 N        2.6260     1.1730    -0.5800 N.am  1 <1>  -0.6600 
  5 C       -0.4130     3.0960     0.0690 C.3   1 <1>   0.2800 
  6 C        3.5210     2.1970    -1.1330 C.3   1 <1>   0.1400 
  7 C        3.3290    -0.1040    -0.3840 C.3   1 <1>   0.1400 
  8 C       -0.5660     3.0570     1.5940 C.3   1 <1>  -0.2400 
  9 C       -0.4590     4.5490    -0.4050 C.3   1 <1>  -0.2400 
 10 C       -1.5040     2.2950    -0.6500 C.3   1 <1>  -0.2400 
 11 C        4.9190     1.7350    -0.7170 C.3   1 <1>  -0.0800 
 12 C        4.8090     0.1940    -0.6720 C.3   1 <1>  -0.0800 
 13 C        5.3160     2.3780     0.6360 C.3   1 <1>  -0.1600 
 14 C        5.7190    -0.5410     0.3360 C.3   1 <1>  -0.1600 
 15 C        6.7010     2.0220     1.2000 C.3   1 <1>   0.3430 
 16 C        7.2170    -0.2280     0.2280 C.3   1 <1>   0.3430 
 17 N        7.5030     1.2370     0.2160 N.4   1 <1>  -0.9590 
 18 C        8.9590     1.5090     0.3420 C.3   1 <1>   0.4860 
 19 C        9.2050     2.9440    -0.0790 C.ar  1 <1>  -0.1440 
 20 C        9.5180     3.9080     0.8680 C.ar  1 <1>  -0.1500 
 21 C        9.1110     3.3060    -1.4170 C.ar  1 <1>  -0.1500 
 22 C        9.7190     5.2220     0.4850 C.ar  1 <1>  -0.1500 
 23 C        9.3120     4.6210    -1.7970 C.ar  1 <1>  -0.1500 
 24 C        9.6130     5.5790    -0.8470 C.ar  1 <1>  -0.1500 
 25 H        3.4240     2.1960    -2.2060 H     1 <1>   0.0800 
 26 H        3.2810     3.1780    -0.7560 H     1 <1>   0.0800 
 27 H        3.1760    -0.4340     0.6300 H     1 <1>   0.0800 
 28 H        2.9380    -0.8470    -1.0580 H     1 <1>   0.0800 
 29 H       -1.4820     3.5390     1.8820 H     1 <1>   0.0800 
 30 H        0.2520     3.5700     2.0660 H     1 <1>   0.0800 
 31 H       -0.6060     2.0460     1.9550 H     1 <1>   0.0800 
 32 H       -1.4080     4.9920    -0.1610 H     1 <1>   0.0800 
 33 H       -0.3270     4.5970    -1.4710 H     1 <1>   0.0800 
 34 H        0.3150     5.1230     0.0710 H     1 <1>   0.0800 
 35 H       -2.4650     2.7420    -0.4710 H     1 <1>   0.0800 
 36 H       -1.5470     1.2840    -0.2880 H     1 <1>   0.0800 
 37 H       -1.3250     2.2850    -1.7090 H     1 <1>   0.0800 
 38 H        5.6080     2.0520    -1.4800 H     1 <1>   0.0800 
 39 H        5.0170    -0.1820    -1.6600 H     1 <1>   0.0800 
 40 H        4.5760     2.1340     1.3790 H     1 <1>   0.0800 
 41 H        5.2830     3.4490     0.5250 H     1 <1>   0.0800 
 42 H        5.5960    -1.6000     0.1920 H     1 <1>   0.0800 
 43 H        5.3910    -0.3420     1.3420 H     1 <1>   0.0800 
 44 H        6.5900     1.4590     2.1130 H     1 <1>   0.0800 
 45 H        7.2080     2.9420     1.4420 H     1 <1>   0.0800 
 46 H        7.6030    -0.6720    -0.6760 H     1 <1>   0.0800 
 47 H        7.7220    -0.6880     1.0620 H     1 <1>   0.0800 
 48 H        7.2340     1.6060    -0.7030 H     1 <1>   0.4500 
 49 H        9.2860     1.3550     1.3570 H     1 <1>   0.0800 
 50 H        9.5200     0.8530    -0.3040 H     1 <1>   0.0800 
 51 H        9.6130     3.6550     1.9110 H     1 <1>   0.1500 
 52 H        8.8880     2.5780    -2.1780 H     1 <1>   0.1500 
 53 H        9.9610     5.9710     1.2200 H     1 <1>   0.1500 
 54 H        9.2390     4.9040    -2.8350 H     1 <1>   0.1500 
 55 H        9.7700     6.6020    -1.1450 H     1 <1>   0.1500 
@<TRIPOS>BOND
  1   1   2  2   
  2   2   3  1   
  3   2   4  am  
  4   3   5  1   
  5   4   6  1   
  6   4   7  1   
  7   5   8  1   
  8   5   9  1   
  9   5  10  1   
 10   6  11  1   
 11   6  25  1   
 12   6  26  1   
 13   7  12  1   
 14   7  27  1   
 15   7  28  1   
 16   8  29  1   
 17   8  30  1   
 18   8  31  1   
 19   9  32  1   
 20   9  33  1   
 21   9  34  1   
 22  10  35  1   
 23  10  36  1   
 24  10  37  1   
 25  11  12  1   
 26  11  13  1   
 27  11  38  1   
 28  12  14  1   
 29  12  39  1   
 30  13  15  1   
 31  13  40  1   
 32  13  41  1   
 33  14  16  1   
 34  14  42  1   
 35  14  43  1   
 36  15  17  1   
 37  15  44  1   
 38  15  45  1   
 39  16  17  1   
 40  16  46  1   
 41  16  47  1   
 42  17  18  1   
 43  17  48  1   
 44  18  19  1   
 45  18  49  1   
 46  18  50  1   
 47  19  20  ar  
 48  19  21  ar  
 49  20  22  ar  
 50  20  51  1   
 51  21  23  ar  
 52  21  52  1   
 53  22  24  ar  
 54  22  53  1   
 55  23  24  ar  
 56  23  54  1   
 57  24  55  1   
@<TRIPOS>SUBSTRUCTURE
  1 ****  11 GROUP 4 **** **** 0

# MOE 2024.06 (io_trps.svl 2023.06)
