@<TRIPOS>MOLECULE
NONAME
52 54 1 0 0 
SMALL
USER_CHARGES


@<TRIPOS>ATOM
  1 CL      -0.5920    -0.0810     1.1840 Cl    1 <1>  -0.1770 
  2 C        0.8850    -0.9810     0.9630 C.ar  1 <1>   0.1770 
  3 C        0.8830    -2.3450     1.1660 C.ar  1 <1>  -0.1500 
  4 C        2.0330    -0.3130     0.5840 C.ar  1 <1>  -0.1500 
  5 C        2.0490    -3.0870     0.9860 C.ar  1 <1>   0.0860 
  6 C        3.2010    -1.0340     0.4110 C.ar  1 <1>  -0.1500 
  7 C        3.2160    -2.4070     0.6110 C.ar  1 <1>  -0.1440 
  8 C        2.0210    -4.5230     1.1790 C.2   1 <1>   0.5440 
  9 C        4.5210    -3.1720     0.4290 C.3   1 <1>  -0.0960 
 10 O        2.3750    -4.9880     2.2450 O.2   1 <1>  -0.5700 
 11 N        1.6030    -5.3640     0.1740 N.am  1 <1>  -0.6600 
 12 C        1.6250    -6.8570     0.3590 C.3   1 <1>   0.3640 
 13 C        1.0450    -4.8450    -1.1140 C.3   1 <1>   0.1400 
 14 C        2.9410    -7.4740    -0.1410 C.ar  1 <1>  -0.1430 
 15 C        0.4040    -7.5740    -0.3020 C.3   1 <1>   0.2000 
 16 C        0.5610    -5.9700    -2.0380 C.3   1 <1>   0.1200 
 17 C        3.3010    -8.7190     0.3600 C.ar  1 <1>  -0.1500 
 18 C        3.7850    -6.8640    -1.0630 C.ar  1 <1>  -0.1500 
 19 O       -0.2500    -6.8360    -1.3120 O.3   1 <1>  -0.5600 
 20 C       -0.6650    -7.9340     0.7370 C.3   1 <1>   0.1200 
 21 C        4.4600    -9.3540    -0.0520 C.ar  1 <1>   0.0830 
 22 C        4.9570    -7.4790    -1.4680 C.ar  1 <1>  -0.1500 
 23 O       -0.2080    -8.9550     1.5660 O.3   1 <1>  -0.6800 
 24 O        4.7070   -10.5890     0.4520 O.3   1 <1>  -0.3630 
 25 C        5.3120    -8.7150    -0.9590 C.ar  1 <1>   0.0830 
 26 C        4.7390   -11.6550    -0.4710 C.3   1 <1>   0.0400 
 27 O        6.4920    -9.2440    -1.3640 O.3   1 <1>  -0.3630 
 28 C        7.4910    -9.3630    -0.3750 C.3   1 <1>   0.0400 
 29 H       -0.0230    -2.8380     1.4680 H     1 <1>   0.1500 
 30 H        2.0100     0.7510     0.4330 H     1 <1>   0.1500 
 31 H        4.1000    -0.5140     0.1230 H     1 <1>   0.1500 
 32 H        5.3380    -2.5050     0.2200 H     1 <1>   0.0800 
 33 H        4.4330    -3.8680    -0.3850 H     1 <1>   0.0800 
 34 H        4.7550    -3.7200     1.3250 H     1 <1>   0.0800 
 35 H        1.5850    -7.0690     1.4140 H     1 <1>   0.0800 
 36 H        0.2100    -4.2010    -0.9000 H     1 <1>   0.0800 
 37 H        1.7930    -4.2610    -1.6210 H     1 <1>   0.0800 
 38 H        0.7380    -8.4850    -0.7650 H     1 <1>   0.0800 
 39 H        1.3820    -6.5250    -2.4570 H     1 <1>   0.0800 
 40 H       -0.0260    -5.5630    -2.8420 H     1 <1>   0.0800 
 41 H        2.6770    -9.2160     1.0830 H     1 <1>   0.1500 
 42 H        3.5490    -5.9010    -1.4720 H     1 <1>   0.1500 
 43 H       -1.5640    -8.2750     0.2540 H     1 <1>   0.0800 
 44 H       -0.8870    -7.0790     1.3520 H     1 <1>   0.0800 
 45 H        5.6090    -7.0000    -2.1770 H     1 <1>   0.1500 
 46 H       -0.2460    -9.8180     1.1100 H     1 <1>   0.4000 
 47 H        4.7950   -12.5760     0.0800 H     1 <1>   0.0800 
 48 H        5.6020   -11.5550    -1.1040 H     1 <1>   0.0800 
 49 H        3.8390   -11.6320    -1.0610 H     1 <1>   0.0800 
 50 H        8.3930    -9.7070    -0.8470 H     1 <1>   0.0800 
 51 H        7.1730   -10.0700     0.3700 H     1 <1>   0.0800 
 52 H        7.6520    -8.3980     0.0730 H     1 <1>   0.0800 
@<TRIPOS>BOND
  1   1   2  1   
  2   2   3  ar  
  3   2   4  ar  
  4   3   5  ar  
  5   3  29  1   
  6   4   6  ar  
  7   4  30  1   
  8   5   7  ar  
  9   5   8  1   
 10   6   7  ar  
 11   6  31  1   
 12   7   9  1   
 13   8  10  2   
 14   8  11  am  
 15   9  32  1   
 16   9  33  1   
 17   9  34  1   
 18  11  12  1   
 19  11  13  1   
 20  12  14  1   
 21  12  15  1   
 22  12  35  1   
 23  13  16  1   
 24  13  36  1   
 25  13  37  1   
 26  14  17  ar  
 27  14  18  ar  
 28  15  19  1   
 29  15  20  1   
 30  15  38  1   
 31  16  19  1   
 32  16  39  1   
 33  16  40  1   
 34  17  21  ar  
 35  17  41  1   
 36  18  22  ar  
 37  18  42  1   
 38  20  23  1   
 39  20  43  1   
 40  20  44  1   
 41  21  24  1   
 42  21  25  ar  
 43  22  25  ar  
 44  22  45  1   
 45  23  46  1   
 46  24  26  1   
 47  25  27  1   
 48  26  47  1   
 49  26  48  1   
 50  26  49  1   
 51  27  28  1   
 52  28  50  1   
 53  28  51  1   
 54  28  52  1   
@<TRIPOS>SUBSTRUCTURE
  1 ****  11 GROUP 4 **** **** 0

# MOE 2024.06 (io_trps.svl 2023.06)
