@<TRIPOS>MOLECULE
NONAME
49 52 1 0 0 
SMALL
USER_CHARGES


@<TRIPOS>ATOM
  1 O        0.1990     0.9360     1.8800 O.2   1 <1>  -0.5700 
  2 C        0.1880     2.1310     1.6330 C.2   1 <1>   0.7150 
  3 N       -1.0300     2.7860     1.5980 N.am  1 <1>  -0.6600 
  4 C        1.4320     2.8330     1.4060 C.2   1 <1>   0.0550 
  5 C       -1.2700     4.0360     0.8260 C.3   1 <1>   0.1400 
  6 C       -2.2720     2.1670     2.1430 C.3   1 <1>   0.1400 
  7 O        2.4000     2.2890     0.6660 O.3   1 <1>  -0.2800 
  8 C        1.8610     4.0540     1.8420 C.2   1 <1>  -0.1500 
  9 C       -2.2250     3.7380    -0.3310 C.3   1 <1>  -0.1600 
 10 C       -3.2370     1.8620     0.9960 C.3   1 <1>  -0.1600 
 11 C        3.4180     3.1220     0.6300 C.2   1 <1>   0.2030 
 12 C        3.1470     4.2410     1.3370 C.2   1 <1>  -0.1500 
 13 C       -3.5360     3.1090     0.1610 C.3   1 <1>   0.4180 
 14 O        4.5470     2.8290    -0.0580 O.3   1 <1>  -0.1460 
 15 O       -4.1890     4.0120     1.0210 O.3   1 <1>  -0.5600 
 16 C       -4.4410     2.7370    -1.0100 C.2   1 <1>  -0.2880 
 17 C        4.8410     1.5900    -0.5300 C.ar  1 <1>   0.0820 
 18 C       -4.9510     5.0290     0.4330 C.3   1 <1>   0.1200 
 19 C       -5.6180     3.3150    -1.2620 C.2   1 <1>  -0.2760 
 20 C        5.4640     1.5020    -1.7670 C.ar  1 <1>  -0.1500 
 21 C        4.5680     0.4290     0.1860 C.ar  1 <1>  -0.1500 
 22 C       -6.1160     4.4380    -0.3720 C.3   1 <1>  -0.0220 
 23 C       -6.5430     2.9240    -2.4000 C.3   1 <1>  -0.1020 
 24 C        5.8000     0.2660    -2.2920 C.ar  1 <1>  -0.1500 
 25 C        4.9020    -0.8060    -0.3420 C.ar  1 <1>  -0.1500 
 26 C        5.5170    -0.8880    -1.5800 C.ar  1 <1>  -0.1500 
 27 H       -0.3510     4.4290     0.4280 H     1 <1>   0.0800 
 28 H       -1.7020     4.7760     1.4790 H     1 <1>   0.0800 
 29 H       -2.7320     2.8530     2.8340 H     1 <1>   0.0800 
 30 H       -2.0450     1.2610     2.6800 H     1 <1>   0.0800 
 31 H        1.3270     4.7490     2.4650 H     1 <1>   0.1500 
 32 H       -1.7410     3.0550    -1.0060 H     1 <1>   0.0800 
 33 H       -2.4300     4.6350    -0.8840 H     1 <1>   0.0800 
 34 H       -4.1570     1.4700     1.3880 H     1 <1>   0.0800 
 35 H       -2.7980     1.1040     0.3740 H     1 <1>   0.0800 
 36 H        3.7800     5.0970     1.4880 H     1 <1>   0.1500 
 37 H       -4.0340     1.9470    -1.6150 H     1 <1>   0.1500 
 38 H       -4.3120     5.6140    -0.2040 H     1 <1>   0.0800 
 39 H       -5.3240     5.6590     1.2210 H     1 <1>   0.0800 
 40 H        5.6810     2.4010    -2.3140 H     1 <1>   0.1500 
 41 H        4.0980     0.4840     1.1510 H     1 <1>   0.1500 
 42 H       -6.5530     5.2200    -0.9660 H     1 <1>   0.0800 
 43 H       -6.8700     4.0650     0.2990 H     1 <1>   0.0800 
 44 H       -6.6970     3.7600    -3.0600 H     1 <1>   0.0800 
 45 H       -7.4940     2.6070    -2.0110 H     1 <1>   0.0800 
 46 H       -6.1210     2.1140    -2.9680 H     1 <1>   0.0800 
 47 H        6.2800     0.2010    -3.2530 H     1 <1>   0.1500 
 48 H        4.6820    -1.7020     0.2120 H     1 <1>   0.1500 
 49 H        5.7750    -1.8500    -1.9890 H     1 <1>   0.1500 
@<TRIPOS>BOND
  1   1   2  2   
  2   2   3  am  
  3   2   4  1   
  4   3   5  1   
  5   3   6  1   
  6   4   7  1   
  7   4   8  2   
  8   5   9  1   
  9   5  27  1   
 10   5  28  1   
 11   6  10  1   
 12   6  29  1   
 13   6  30  1   
 14   7  11  1   
 15   8  12  1   
 16   8  31  1   
 17   9  13  1   
 18   9  32  1   
 19   9  33  1   
 20  10  13  1   
 21  10  34  1   
 22  10  35  1   
 23  11  12  2   
 24  11  14  1   
 25  12  36  1   
 26  13  15  1   
 27  13  16  1   
 28  14  17  1   
 29  15  18  1   
 30  16  19  2   
 31  16  37  1   
 32  17  20  ar  
 33  17  21  ar  
 34  18  22  1   
 35  18  38  1   
 36  18  39  1   
 37  19  22  1   
 38  19  23  1   
 39  20  24  ar  
 40  20  40  1   
 41  21  25  ar  
 42  21  41  1   
 43  22  42  1   
 44  22  43  1   
 45  23  44  1   
 46  23  45  1   
 47  23  46  1   
 48  24  26  ar  
 49  24  47  1   
 50  25  26  ar  
 51  25  48  1   
 52  26  49  1   
@<TRIPOS>SUBSTRUCTURE
  1 ****   2 GROUP 4 **** **** 0

# MOE 2024.06 (io_trps.svl 2023.06)
