@<TRIPOS>MOLECULE
NONAME
53 55 1 0 0 
SMALL
USER_CHARGES


@<TRIPOS>ATOM
  1 S       -0.2410    -0.6720     0.5020 S.o2  1 <1>   1.2040 
  2 O       -0.6480     0.4500    -0.3130 O.2   1 <1>  -0.6500 
  3 O       -0.0790    -0.5160     1.9290 O.2   1 <1>  -0.6500 
  4 C       -1.3630    -2.0600     0.1900 C.ar  1 <1>  -0.0090 
  5 C        1.3050    -1.2730    -0.1490 C.3   1 <1>  -0.1350 
  6 C       -2.0690    -2.1600    -1.0020 C.ar  1 <1>  -0.1500 
  7 C       -1.5330    -3.0710     1.1270 C.ar  1 <1>  -0.1500 
  8 C       -2.9240    -3.2210    -1.2470 C.ar  1 <1>  -0.1500 
  9 C       -2.3840    -4.1370     0.8930 C.ar  1 <1>  -0.1500 
 10 C       -3.0950    -4.2140    -0.2960 C.ar  1 <1>  -0.1430 
 11 C       -4.0540    -5.3640    -0.5470 C.3   1 <1>   0.4860 
 12 N       -5.2620    -5.1730     0.3010 N.4   1 <1>  -0.9590 
 13 C       -6.0470    -6.4590     0.3410 C.3   1 <1>   0.3430 
 14 C       -6.0410    -3.9640    -0.1310 C.3   1 <1>   0.3430 
 15 C       -7.3680    -6.3790     1.1240 C.3   1 <1>   0.1400 
 16 C       -6.9510    -3.4650     0.9960 C.3   1 <1>  -0.1600 
 17 N       -8.3420    -5.4700     0.4510 N.am  1 <1>  -0.6600 
 18 C       -8.3590    -4.0770     0.9790 C.3   1 <1>   0.1400 
 19 C       -9.2300    -5.8540    -0.5370 C.2   1 <1>   0.5690 
 20 O      -10.1500    -5.1380    -0.8480 O.2   1 <1>  -0.5700 
 21 C       -9.0660    -7.1390    -1.3640 C.3   1 <1>   0.2010 
 22 N       -9.1460    -8.4260    -0.6090 N.am  1 <1>  -0.6600 
 23 C       -8.1320    -9.3000    -0.4480 C.2   1 <1>   0.7800 
 24 C      -10.4200    -9.0790    -0.2990 C.3   1 <1>   0.1400 
 25 O       -6.9580    -9.0480    -0.6260 O.2   1 <1>  -0.5700 
 26 O       -8.5530   -10.4740    -0.0110 O.3   1 <1>  -0.4300 
 27 C       -9.9620   -10.4800     0.1360 C.3   1 <1>   0.1200 
 28 H        2.0680    -0.5290    -0.0220 H     1 <1>   0.0800 
 29 H        1.2130    -1.4910    -1.1950 H     1 <1>   0.0800 
 30 H        1.6100    -2.1620     0.3670 H     1 <1>   0.0800 
 31 H       -1.9520    -1.3880    -1.7480 H     1 <1>   0.1500 
 32 H       -0.9930    -3.0180     2.0600 H     1 <1>   0.1500 
 33 H       -3.4500    -3.2560    -2.1880 H     1 <1>   0.1500 
 34 H       -2.4790    -4.8990     1.6490 H     1 <1>   0.1500 
 35 H       -3.5650    -6.2910    -0.2920 H     1 <1>   0.0800 
 36 H       -4.3290    -5.4010    -1.5880 H     1 <1>   0.0800 
 37 H       -4.9150    -4.9710     1.2450 H     1 <1>   0.4500 
 38 H       -5.4410    -7.2330     0.7850 H     1 <1>   0.0800 
 39 H       -6.2730    -6.7780    -0.6630 H     1 <1>   0.0800 
 40 H       -6.6240    -4.1810    -1.0120 H     1 <1>   0.0800 
 41 H       -5.3540    -3.1690    -0.3730 H     1 <1>   0.0800 
 42 H       -7.1770    -6.0370     2.1270 H     1 <1>   0.0800 
 43 H       -7.7950    -7.3570     1.2230 H     1 <1>   0.0800 
 44 H       -7.0710    -2.4020     0.8850 H     1 <1>   0.0800 
 45 H       -6.4880    -3.6180     1.9540 H     1 <1>   0.0800 
 46 H       -8.9910    -3.4620     0.3600 H     1 <1>   0.0800 
 47 H       -8.7810    -4.0720     1.9700 H     1 <1>   0.0800 
 48 H       -8.1210    -7.0880    -1.8730 H     1 <1>   0.0800 
 49 H       -9.8280    -7.1450    -2.1240 H     1 <1>   0.0800 
 50 H      -11.0510    -9.1320    -1.1700 H     1 <1>   0.0800 
 51 H      -10.9330    -8.5670     0.4980 H     1 <1>   0.0800 
 52 H      -10.3740   -11.2480    -0.4950 H     1 <1>   0.0800 
 53 H      -10.2030   -10.6760     1.1660 H     1 <1>   0.0800 
@<TRIPOS>BOND
  1   1   2  2   
  2   1   3  2   
  3   1   4  1   
  4   1   5  1   
  5   4   6  ar  
  6   4   7  ar  
  7   5  28  1   
  8   5  29  1   
  9   5  30  1   
 10   6   8  ar  
 11   6  31  1   
 12   7   9  ar  
 13   7  32  1   
 14   8  10  ar  
 15   8  33  1   
 16   9  10  ar  
 17   9  34  1   
 18  10  11  1   
 19  11  12  1   
 20  11  35  1   
 21  11  36  1   
 22  12  13  1   
 23  12  14  1   
 24  12  37  1   
 25  13  15  1   
 26  13  38  1   
 27  13  39  1   
 28  14  16  1   
 29  14  40  1   
 30  14  41  1   
 31  15  17  1   
 32  15  42  1   
 33  15  43  1   
 34  16  18  1   
 35  16  44  1   
 36  16  45  1   
 37  17  18  1   
 38  17  19  am  
 39  18  46  1   
 40  18  47  1   
 41  19  20  2   
 42  19  21  1   
 43  21  22  1   
 44  21  48  1   
 45  21  49  1   
 46  22  23  am  
 47  22  24  1   
 48  23  25  2   
 49  23  26  1   
 50  24  27  1   
 51  24  50  1   
 52  24  51  1   
 53  26  27  1   
 54  27  52  1   
 55  27  53  1   
@<TRIPOS>SUBSTRUCTURE
  1 ****  12 GROUP 4 **** **** 0

# MOE 2024.06 (io_trps.svl 2023.06)
