@<TRIPOS>MOLECULE
NONAME
40 41 1 0 0 
SMALL
USER_CHARGES


@<TRIPOS>ATOM
  1 O       -1.6370     0.1280     1.7460 O.2   1 <1>  -0.5700 
  2 C       -2.1140     0.8190     0.8780 C.2   1 <1>   0.5690 
  3 N       -3.1080     0.3620     0.0730 N.am  1 <1>  -0.7300 
  4 C       -1.5820     2.2360     0.6800 C.3   1 <1>  -0.0190 
  5 C       -3.7290    -0.9780     0.1960 C.3   1 <1>   0.1400 
  6 C       -2.6930     3.2970     0.8090 C.3   1 <1>  -0.1600 
  7 C       -0.8130     2.3820    -0.6560 C.3   1 <1>  -0.1600 
  8 C       -2.8770    -2.0240    -0.5210 C.3   1 <1>   0.0200 
  9 C       -2.1350     4.7350     0.7640 C.3   1 <1>   0.2000 
 10 C       -0.7220     3.8350    -1.1650 C.3   1 <1>  -0.1600 
 11 C       -3.4220    -3.4070    -0.2370 C.2   1 <1>   0.0060 
 12 O       -3.0970     5.5500     0.1420 O.3   1 <1>  -0.5600 
 13 C       -0.7960     4.8410    -0.0140 C.3   1 <1>   0.2000 
 14 N       -4.3070    -3.9960    -0.9720 N.2   1 <1>  -0.5650 
 15 N       -3.0270    -4.1400     0.8270 N.pl3 1 <1>   0.0330 
 16 C       -4.1170     6.0020     0.9780 C.3   1 <1>   0.0400 
 17 O       -0.6800     6.1080    -0.5470 O.3   1 <1>  -0.6800 
 18 C       -4.5010    -5.1790    -0.3580 C.2   1 <1>   0.0770 
 19 C       -3.7280    -5.2840     0.7450 C.2   1 <1>  -0.3020 
 20 H       -3.4690     0.9590    -0.6730 H     1 <1>   0.3700 
 21 H       -0.8820     2.4130     1.4800 H     1 <1>   0.0800 
 22 H       -3.8080    -1.2340     1.2400 H     1 <1>   0.0800 
 23 H       -4.7210    -0.9640    -0.2220 H     1 <1>   0.0800 
 24 H       -3.2180     3.1510     1.7360 H     1 <1>   0.0800 
 25 H       -3.3910     3.1640     0.0000 H     1 <1>   0.0800 
 26 H        0.1800     1.9900    -0.5150 H     1 <1>   0.0800 
 27 H       -1.2790     1.7880    -1.4230 H     1 <1>   0.0800 
 28 H       -1.8580    -1.9650    -0.1840 H     1 <1>   0.0800 
 29 H       -2.9030    -1.8460    -1.5810 H     1 <1>   0.0800 
 30 H       -1.9610     5.0980     1.7630 H     1 <1>   0.0800 
 31 H       -1.5440     4.0240    -1.8340 H     1 <1>   0.0800 
 32 H        0.1960     3.9690    -1.7100 H     1 <1>   0.0800 
 33 H        0.0370     4.6850     0.6510 H     1 <1>   0.0800 
 34 H       -2.3420    -3.8700     1.5400 H     1 <1>   0.2700 
 35 H       -4.7850     6.6100     0.3920 H     1 <1>   0.0800 
 36 H       -3.6920     6.5940     1.7700 H     1 <1>   0.0800 
 37 H       -4.6550     5.1610     1.3790 H     1 <1>   0.0800 
 38 H       -1.6000     6.4090    -0.7240 H     1 <1>   0.4000 
 39 H       -5.1980    -5.9020    -0.7480 H     1 <1>   0.1500 
 40 H       -3.6410    -6.0880     1.4520 H     1 <1>   0.1500 
@<TRIPOS>BOND
  1   1   2  2   
  2   2   3  am  
  3   2   4  1   
  4   3   5  1   
  5   3  20  1   
  6   4   6  1   
  7   4   7  1   
  8   4  21  1   
  9   5   8  1   
 10   5  22  1   
 11   5  23  1   
 12   6   9  1   
 13   6  24  1   
 14   6  25  1   
 15   7  10  1   
 16   7  26  1   
 17   7  27  1   
 18   8  11  1   
 19   8  28  1   
 20   8  29  1   
 21   9  12  1   
 22   9  13  1   
 23   9  30  1   
 24  10  13  1   
 25  10  31  1   
 26  10  32  1   
 27  11  14  2   
 28  11  15  1   
 29  12  16  1   
 30  13  17  1   
 31  13  33  1   
 32  14  18  1   
 33  15  19  1   
 34  15  34  1   
 35  16  35  1   
 36  16  36  1   
 37  16  37  1   
 38  17  38  1   
 39  18  19  2   
 40  18  39  1   
 41  19  40  1   
@<TRIPOS>SUBSTRUCTURE
  1 ****   3 GROUP 4 **** **** 0

# MOE 2024.06 (io_trps.svl 2023.06)
