@<TRIPOS>MOLECULE
NONAME
51 53 1 0 0 
SMALL
USER_CHARGES


@<TRIPOS>ATOM
  1 O        3.3920     0.3800    -0.2410 O.2   1 <1>  -0.5700 
  2 C        2.4450    -0.0180     0.4110 C.2   1 <1>   0.5440 
  3 N        1.8370     0.8580     1.2690 N.am  1 <1>  -0.7300 
  4 C        1.9680    -1.3840     0.2790 C.ar  1 <1>   0.0860 
  5 C        2.2150     2.2820     1.4130 C.3   1 <1>   0.1400 
  6 C        2.1070    -2.0740    -0.9240 C.ar  1 <1>  -0.1500 
  7 C        1.3580    -2.0610     1.3380 C.ar  1 <1>  -0.1500 
  8 C        3.4270     2.4010     2.3340 C.3   1 <1>  -0.0990 
  9 C        1.6520    -3.3710    -1.0810 C.ar  1 <1>   0.0820 
 10 C        0.8980    -3.3580     1.1960 C.ar  1 <1>  -0.1500 
 11 C        4.0630     3.7630     2.1720 C.2   1 <1>   0.5690 
 12 O        1.8370    -3.9390    -2.2980 O.3   1 <1>  -0.3630 
 13 C        1.0410    -4.0170    -0.0120 C.ar  1 <1>  -0.1500 
 14 O        3.7550     4.6290     2.9530 O.2   1 <1>  -0.5700 
 15 N        4.9490     3.9940     1.1580 N.am  1 <1>  -0.6600 
 16 C        1.4370    -5.2660    -2.5590 C.3   1 <1>   0.0400 
 17 C        5.6290     5.3000     0.9590 C.3   1 <1>   0.1400 
 18 C        5.3830     3.0370     0.1070 C.3   1 <1>   0.1400 
 19 C        6.8600     4.9780     0.1020 C.3   1 <1>   0.4240 
 20 C        6.3580     3.8270    -0.7690 C.3   1 <1>  -0.1600 
 21 O        7.8230     4.4490     0.9430 O.3   1 <1>  -0.6800 
 22 C        7.4850     6.1330    -0.6950 C.ar  1 <1>  -0.1440 
 23 C        7.0570     7.4510    -0.5670 C.ar  1 <1>  -0.1500 
 24 C        8.5220     5.8610    -1.5800 C.ar  1 <1>  -0.1500 
 25 C        7.6370     8.4610    -1.3150 C.ar  1 <1>  -0.1500 
 26 C        9.1040     6.8680    -2.3290 C.ar  1 <1>  -0.1500 
 27 C        8.6600     8.1710    -2.2000 C.ar  1 <1>  -0.1500 
 28 H        0.9880     0.5680     1.7570 H     1 <1>   0.3700 
 29 H        1.3890     2.8480     1.8110 H     1 <1>   0.0800 
 30 H        2.4520     2.6780     0.4400 H     1 <1>   0.0800 
 31 H        2.5810    -1.5870    -1.7580 H     1 <1>   0.1500 
 32 H        1.2490    -1.5720     2.2890 H     1 <1>   0.1500 
 33 H        4.1520     1.6440     2.1030 H     1 <1>   0.0800 
 34 H        3.1190     2.2740     3.3550 H     1 <1>   0.0800 
 35 H        0.4300    -3.8590     2.0260 H     1 <1>   0.1500 
 36 H        0.6750    -5.0220    -0.1000 H     1 <1>   0.1500 
 37 H        1.6950    -5.4970    -3.5770 H     1 <1>   0.0800 
 38 H        0.3730    -5.3430    -2.4250 H     1 <1>   0.0800 
 39 H        1.9610    -5.9260    -1.8910 H     1 <1>   0.0800 
 40 H        5.9000     5.7610     1.8930 H     1 <1>   0.0800 
 41 H        4.9590     5.9450     0.4200 H     1 <1>   0.0800 
 42 H        4.5440     2.6860    -0.4700 H     1 <1>   0.0800 
 43 H        5.8800     2.1970     0.5620 H     1 <1>   0.0800 
 44 H        5.8170     4.2300    -1.6060 H     1 <1>   0.0800 
 45 H        7.1560     3.2120    -1.1440 H     1 <1>   0.0800 
 46 H        7.3680     3.8630     1.5760 H     1 <1>   0.4000 
 47 H        6.2720     7.7200     0.1170 H     1 <1>   0.1500 
 48 H        8.8870     4.8550    -1.6820 H     1 <1>   0.1500 
 49 H        7.2950     9.4750    -1.2070 H     1 <1>   0.1500 
 50 H        9.9050     6.6380    -3.0100 H     1 <1>   0.1500 
 51 H        9.1110     8.9560    -2.7810 H     1 <1>   0.1500 
@<TRIPOS>BOND
  1   1   2  2   
  2   2   3  am  
  3   2   4  1   
  4   3   5  1   
  5   3  28  1   
  6   4   6  ar  
  7   4   7  ar  
  8   5   8  1   
  9   5  29  1   
 10   5  30  1   
 11   6   9  ar  
 12   6  31  1   
 13   7  10  ar  
 14   7  32  1   
 15   8  11  1   
 16   8  33  1   
 17   8  34  1   
 18   9  12  1   
 19   9  13  ar  
 20  10  13  ar  
 21  10  35  1   
 22  11  14  2   
 23  11  15  am  
 24  12  16  1   
 25  13  36  1   
 26  15  17  1   
 27  15  18  1   
 28  16  37  1   
 29  16  38  1   
 30  16  39  1   
 31  17  19  1   
 32  17  40  1   
 33  17  41  1   
 34  18  20  1   
 35  18  42  1   
 36  18  43  1   
 37  19  20  1   
 38  19  21  1   
 39  19  22  1   
 40  20  44  1   
 41  20  45  1   
 42  21  46  1   
 43  22  23  ar  
 44  22  24  ar  
 45  23  25  ar  
 46  23  47  1   
 47  24  26  ar  
 48  24  48  1   
 49  25  27  ar  
 50  25  49  1   
 51  26  27  ar  
 52  26  50  1   
 53  27  51  1   
@<TRIPOS>SUBSTRUCTURE
  1 ****  18 GROUP 4 **** **** 0

# MOE 2024.06 (io_trps.svl 2023.06)
