@<TRIPOS>MOLECULE
NONAME
58 60 1 0 0 
SMALL
USER_CHARGES


@<TRIPOS>ATOM
  1 S        0.4440     0.3010    -0.3670 S.o2  1 <1>   1.3330 
  2 O        0.3770    -0.3000    -1.6780 O.2   1 <1>  -0.6500 
  3 O        0.2160    -0.4870     0.8210 O.2   1 <1>  -0.6500 
  4 N       -0.5310     1.6880    -0.3240 N.am  1 <1>  -0.8490 
  5 C        2.0860     1.0050    -0.2310 C.3   1 <1>  -0.0550 
  6 C       -1.1130     1.9540     0.9980 C.3   1 <1>   0.1160 
  7 C       -1.5940     1.6690    -1.3370 C.3   1 <1>   0.1160 
  8 C        3.1940    -0.0660    -0.3330 C.3   1 <1>  -0.0800 
  9 C        4.6300     0.4380    -0.4710 C.3   1 <1>   0.4230 
 10 C        3.2690    -1.0140     0.8770 C.3   1 <1>   0.1200 
 11 N        4.8610     1.5810     0.4580 N.4   1 <1>  -0.9060 
 12 C        5.3750    -0.7730     0.0800 C.3   1 <1>   0.1200 
 13 O        4.6260    -1.0920     1.2050 O.3   1 <1>  -0.5600 
 14 C        6.1800     2.2370     0.3560 C.3   1 <1>   0.4230 
 15 C        6.3540     3.1240     1.5910 C.3   1 <1>  -0.1600 
 16 C        6.2590     3.0280    -0.9570 C.3   1 <1>  -0.1600 
 17 C        7.6350     3.9450     1.4850 C.3   1 <1>   0.2090 
 18 C        7.5400     3.8560    -1.0050 C.3   1 <1>   0.2090 
 19 N        7.5730     4.6880     0.2110 N.pl3 1 <1>  -0.8380 
 20 C        8.3430     5.8430     0.1380 C.ar  1 <1>   0.1000 
 21 C        7.7220     7.0830     0.0760 C.ar  1 <1>  -0.1500 
 22 C        9.7320     5.7890     0.1240 C.ar  1 <1>  -0.1500 
 23 C        8.4620     8.2510     0.0010 C.ar  1 <1>  -0.1440 
 24 C       10.4800     6.9490     0.0500 C.ar  1 <1>  -0.1500 
 25 C        9.8460     8.1780    -0.0110 C.ar  1 <1>  -0.1500 
 26 C        7.7770     9.6040    -0.0660 C.3   1 <1>  -0.0970 
 27 H        2.2060     1.7130    -1.0290 H     1 <1>   0.0800 
 28 H        2.1570     1.5310     0.7010 H     1 <1>   0.0800 
 29 H       -1.6510     2.8870     0.9870 H     1 <1>   0.0800 
 30 H       -0.3370     2.0180     1.7410 H     1 <1>   0.0800 
 31 H       -1.7910     1.1630     1.2770 H     1 <1>   0.0800 
 32 H       -2.1740     2.5750    -1.2900 H     1 <1>   0.0800 
 33 H       -2.2460     0.8240    -1.1810 H     1 <1>   0.0800 
 34 H       -1.1660     1.5950    -2.3230 H     1 <1>   0.0800 
 35 H        2.9840    -0.6750    -1.1980 H     1 <1>   0.0800 
 36 H        4.8950     0.6780    -1.4880 H     1 <1>   0.0800 
 37 H        2.9130    -2.0030     0.6320 H     1 <1>   0.0800 
 38 H        2.7350    -0.6470     1.7390 H     1 <1>   0.0800 
 39 H        4.1370     2.2970     0.3580 H     1 <1>   0.4500 
 40 H        4.7730     1.1720     1.4010 H     1 <1>   0.4500 
 41 H        6.3930    -0.5750     0.3620 H     1 <1>   0.0800 
 42 H        5.3390    -1.6070    -0.6020 H     1 <1>   0.0800 
 43 H        6.9640     1.4960     0.3620 H     1 <1>   0.0800 
 44 H        5.5320     3.8120     1.6840 H     1 <1>   0.0800 
 45 H        6.4060     2.5220     2.4800 H     1 <1>   0.0800 
 46 H        6.2560     2.3680    -1.8040 H     1 <1>   0.0800 
 47 H        5.4290     3.7060    -1.0400 H     1 <1>   0.0800 
 48 H        8.5070     3.3130     1.4990 H     1 <1>   0.0800 
 49 H        7.7030     4.6410     2.3060 H     1 <1>   0.0800 
 50 H        7.5430     4.4910    -1.8770 H     1 <1>   0.0800 
 51 H        8.4130     3.2250    -1.0390 H     1 <1>   0.0800 
 52 H        6.6490     7.1160     0.0880 H     1 <1>   0.1500 
 53 H       10.2250     4.8370     0.1710 H     1 <1>   0.1500 
 54 H       11.5540     6.8990     0.0400 H     1 <1>   0.1500 
 55 H       10.4330     9.0780    -0.0690 H     1 <1>   0.1500 
 56 H        8.1250    10.1480    -0.9260 H     1 <1>   0.0800 
 57 H        8.0020    10.1700     0.8200 H     1 <1>   0.0800 
 58 H        6.7110     9.4910    -0.1410 H     1 <1>   0.0800 
@<TRIPOS>BOND
  1   1   2  2   
  2   1   3  2   
  3   1   4  am  
  4   1   5  1   
  5   4   6  1   
  6   4   7  1   
  7   5   8  1   
  8   5  27  1   
  9   5  28  1   
 10   6  29  1   
 11   6  30  1   
 12   6  31  1   
 13   7  32  1   
 14   7  33  1   
 15   7  34  1   
 16   8   9  1   
 17   8  10  1   
 18   8  35  1   
 19   9  11  1   
 20   9  12  1   
 21   9  36  1   
 22  10  13  1   
 23  10  37  1   
 24  10  38  1   
 25  11  14  1   
 26  11  39  1   
 27  11  40  1   
 28  12  13  1   
 29  12  41  1   
 30  12  42  1   
 31  14  15  1   
 32  14  16  1   
 33  14  43  1   
 34  15  17  1   
 35  15  44  1   
 36  15  45  1   
 37  16  18  1   
 38  16  46  1   
 39  16  47  1   
 40  17  19  1   
 41  17  48  1   
 42  17  49  1   
 43  18  19  1   
 44  18  50  1   
 45  18  51  1   
 46  19  20  1   
 47  20  21  ar  
 48  20  22  ar  
 49  21  23  ar  
 50  21  52  1   
 51  22  24  ar  
 52  22  53  1   
 53  23  25  ar  
 54  23  26  1   
 55  24  25  ar  
 56  24  54  1   
 57  25  55  1   
 58  26  56  1   
 59  26  57  1   
 60  26  58  1   
@<TRIPOS>SUBSTRUCTURE
  1 ****  14 GROUP 4 **** **** 0

# MOE 2024.06 (io_trps.svl 2023.06)
