@<TRIPOS>MOLECULE
NONAME
45 47 1 0 0 
SMALL
USER_CHARGES


@<TRIPOS>ATOM
  1 S        0.4020     3.1970    -1.0320 S.3   1 <1>  -0.0800 
  2 C       -0.9680     2.1540    -0.6880 C.2   1 <1>  -0.1400 
  3 C        0.6860     3.4660     0.6780 C.2   1 <1>  -0.1100 
  4 C       -1.1530     2.0460     0.6420 C.2   1 <1>  -0.1500 
  5 C       -1.6980     1.5620    -1.8860 C.3   1 <1>   0.0810 
  6 C       -0.2130     2.7940     1.4200 C.2   1 <1>  -0.1500 
  7 C       -3.0090     0.8760    -1.5240 C.2   1 <1>   0.5690 
  8 O       -3.0640    -0.3230    -1.6810 O.2   1 <1>  -0.5700 
  9 N       -4.0870     1.5910    -1.0520 N.am  1 <1>  -0.6600 
 10 C       -5.3380     0.8850    -0.6430 C.3   1 <1>   0.1400 
 11 C       -4.0710     3.0750    -0.8550 C.3   1 <1>   0.1400 
 12 C       -5.9490     1.5650     0.5840 C.3   1 <1>  -0.1600 
 13 C       -5.4950     3.6300    -0.8420 C.3   1 <1>  -0.1600 
 14 C       -6.3240     3.0440     0.3230 C.3   1 <1>   0.2800 
 15 O       -5.8950     3.7510     1.4690 O.3   1 <1>  -0.5600 
 16 C       -7.8630     3.1920     0.1020 C.3   1 <1>   0.2000 
 17 C       -6.8170     4.4980     2.2110 C.3   1 <1>   0.1200 
 18 O       -8.2940     2.5860    -1.0850 O.3   1 <1>  -0.6800 
 19 C       -8.3760     4.6590     0.2210 C.3   1 <1>   0.2800 
 20 C       -7.5690     5.4430     1.2710 C.3   1 <1>  -0.1600 
 21 O       -9.6810     4.5850     0.6720 O.3   1 <1>  -0.6800 
 22 C       -8.4550     5.4440    -1.0970 C.3   1 <1>  -0.2400 
 23 H        1.5070     4.1050     0.9500 H     1 <1>   0.1500 
 24 H       -1.9240     1.4650     1.1200 H     1 <1>   0.1500 
 25 H       -1.8980     2.3310    -2.6070 H     1 <1>   0.0800 
 26 H       -1.0520     0.8440    -2.3570 H     1 <1>   0.0800 
 27 H       -0.2600     2.7870     2.4950 H     1 <1>   0.1500 
 28 H       -6.0390     0.9040    -1.4610 H     1 <1>   0.0800 
 29 H       -5.1250    -0.1440    -0.4100 H     1 <1>   0.0800 
 30 H       -3.5920     3.3030     0.0820 H     1 <1>   0.0800 
 31 H       -3.5170     3.5490    -1.6450 H     1 <1>   0.0800 
 32 H       -5.2320     1.4990     1.3830 H     1 <1>   0.0800 
 33 H       -6.8150     1.0050     0.8850 H     1 <1>   0.0800 
 34 H       -5.9510     3.3940    -1.7860 H     1 <1>   0.0800 
 35 H       -5.4550     4.6990    -0.7600 H     1 <1>   0.0800 
 36 H       -8.3330     2.6350     0.8930 H     1 <1>   0.0800 
 37 H       -7.4870     3.8230     2.7170 H     1 <1>   0.0800 
 38 H       -6.2650     5.0560     2.9470 H     1 <1>   0.0800 
 39 H       -9.2640     2.6970    -1.1470 H     1 <1>   0.4000 
 40 H       -6.8330     6.0600     0.7880 H     1 <1>   0.0800 
 41 H       -8.2080     6.0940     1.8400 H     1 <1>   0.0800 
 42 H      -10.0740     5.4780     0.6850 H     1 <1>   0.4000 
 43 H       -7.4890     5.4990    -1.5600 H     1 <1>   0.0800 
 44 H       -8.7960     6.4480    -0.9220 H     1 <1>   0.0800 
 45 H       -9.1240     4.9650    -1.7900 H     1 <1>   0.0800 
@<TRIPOS>BOND
  1   1   2  1   
  2   1   3  1   
  3   2   4  2   
  4   2   5  1   
  5   3   6  2   
  6   3  23  1   
  7   4   6  1   
  8   4  24  1   
  9   5   7  1   
 10   5  25  1   
 11   5  26  1   
 12   6  27  1   
 13   7   8  2   
 14   7   9  am  
 15   9  10  1   
 16   9  11  1   
 17  10  12  1   
 18  10  28  1   
 19  10  29  1   
 20  11  13  1   
 21  11  30  1   
 22  11  31  1   
 23  12  14  1   
 24  12  32  1   
 25  12  33  1   
 26  13  14  1   
 27  13  34  1   
 28  13  35  1   
 29  14  15  1   
 30  14  16  1   
 31  15  17  1   
 32  16  18  1   
 33  16  19  1   
 34  16  36  1   
 35  17  20  1   
 36  17  37  1   
 37  17  38  1   
 38  18  39  1   
 39  19  20  1   
 40  19  21  1   
 41  19  22  1   
 42  20  40  1   
 43  20  41  1   
 44  21  42  1   
 45  22  43  1   
 46  22  44  1   
 47  22  45  1   
@<TRIPOS>SUBSTRUCTURE
  1 ****  11 GROUP 4 **** **** 0

# MOE 2024.06 (io_trps.svl 2023.06)
