@<TRIPOS>MOLECULE
NONAME
60 63 1 0 0 
SMALL
USER_CHARGES


@<TRIPOS>ATOM
  1 O        1.6280     0.1400     0.9290 O.2   1 <1>  -0.5700 
  2 C        1.7200    -1.0110     0.5550 C.2   1 <1>   0.5440 
  3 N        2.7470    -1.5020    -0.1930 N.am  1 <1>  -0.6600 
  4 C        0.7700    -2.0440     0.8200 C.ar  1 <1>   0.0860 
  5 C        3.9270    -0.7400    -0.6450 C.3   1 <1>   0.2200 
  6 C        2.5290    -2.9520    -0.4750 C.3   1 <1>   0.2840 
  7 C        1.1990    -3.2120     0.2230 C.ar  1 <1>   0.1660 
  8 C       -0.4210    -2.0490     1.5240 C.ar  1 <1>  -0.1500 
  9 C        3.9920    -0.7470    -2.1710 C.3   1 <1>  -0.2400 
 10 C        5.1910    -1.3340    -0.0270 C.3   1 <1>  -0.2400 
 11 N        0.5680    -4.3740     0.2440 N.ar  1 <1>  -0.6200 
 12 C       -1.1070    -3.2470     1.5660 C.ar  1 <1>  -0.1430 
 13 C       -0.5790    -4.3680     0.9210 C.ar  1 <1>   0.3930 
 14 C       -2.4230    -3.3640     2.3010 C.3   1 <1>   0.4860 
 15 O       -1.2960    -5.5070     0.9800 O.3   1 <1>  -0.3630 
 16 N       -3.5040    -2.7710     1.4650 N.4   1 <1>  -0.9590 
 17 C       -0.8120    -6.7120     0.4100 C.3   1 <1>   0.0400 
 18 C       -4.7570    -2.5920     2.2510 C.3   1 <1>   0.3430 
 19 C       -3.7320    -3.5790     0.2280 C.3   1 <1>   0.3430 
 20 C       -5.8020    -1.8790     1.4040 C.3   1 <1>  -0.1600 
 21 C       -4.7670    -2.8920    -0.6520 C.3   1 <1>  -0.1600 
 22 C       -6.0700    -2.6370     0.1020 C.3   1 <1>   0.4180 
 23 O       -6.8160    -1.8100    -0.7400 O.3   1 <1>  -0.5600 
 24 C       -6.8050    -3.9530     0.3610 C.2   1 <1>  -0.2880 
 25 C       -8.2000    -1.7360    -0.5280 C.3   1 <1>   0.1200 
 26 C       -8.0610    -4.1860    -0.0250 C.2   1 <1>  -0.2760 
 27 C       -8.8540    -3.1080    -0.7420 C.3   1 <1>  -0.0220 
 28 C       -8.8000    -5.4970     0.1860 C.3   1 <1>  -0.1020 
 29 H        3.8260     0.2810    -0.3090 H     1 <1>   0.0800 
 30 H        3.3110    -3.5510    -0.0440 H     1 <1>   0.0800 
 31 H        2.4490    -3.1300    -1.5330 H     1 <1>   0.0800 
 32 H       -0.7570    -1.1430     2.0020 H     1 <1>   0.1500 
 33 H        4.1510    -1.7400    -2.5490 H     1 <1>   0.0800 
 34 H        4.8060    -0.1260    -2.5000 H     1 <1>   0.0800 
 35 H        3.0800    -0.3480    -2.5770 H     1 <1>   0.0800 
 36 H        5.3650    -2.3330    -0.3800 H     1 <1>   0.0800 
 37 H        5.1050    -1.3410     1.0450 H     1 <1>   0.0800 
 38 H        6.0400    -0.7290    -0.2900 H     1 <1>   0.0800 
 39 H       -2.3480    -2.8340     3.2370 H     1 <1>   0.0800 
 40 H       -2.6410    -4.3980     2.5160 H     1 <1>   0.0800 
 41 H       -3.1760    -1.8430     1.1630 H     1 <1>   0.4500 
 42 H       -1.5300    -7.4910     0.5920 H     1 <1>   0.0800 
 43 H        0.1270    -6.9640     0.8710 H     1 <1>   0.0800 
 44 H       -0.6790    -6.5720    -0.6490 H     1 <1>   0.0800 
 45 H       -4.5600    -2.0100     3.1370 H     1 <1>   0.0800 
 46 H       -5.1390    -3.5540     2.5560 H     1 <1>   0.0800 
 47 H       -4.0750    -4.5670     0.4910 H     1 <1>   0.0800 
 48 H       -2.8120    -3.6820    -0.3260 H     1 <1>   0.0800 
 49 H       -5.4660    -0.8820     1.1820 H     1 <1>   0.0800 
 50 H       -6.7120    -1.8090     1.9720 H     1 <1>   0.0800 
 51 H       -4.9720    -3.5140    -1.5050 H     1 <1>   0.0800 
 52 H       -4.3640    -1.9620    -1.0100 H     1 <1>   0.0800 
 53 H       -6.2260    -4.6940     0.8780 H     1 <1>   0.1500 
 54 H       -8.6030    -1.0200    -1.2230 H     1 <1>   0.0800 
 55 H       -8.3790    -1.3840     0.4720 H     1 <1>   0.0800 
 56 H       -8.9010    -3.3280    -1.7930 H     1 <1>   0.0800 
 57 H       -9.8600    -3.0690    -0.3640 H     1 <1>   0.0800 
 58 H       -9.1040    -5.9060    -0.7620 H     1 <1>   0.0800 
 59 H       -9.6750    -5.3380     0.7900 H     1 <1>   0.0800 
 60 H       -8.1700    -6.2150     0.6790 H     1 <1>   0.0800 
@<TRIPOS>BOND
  1   1   2  2   
  2   2   3  am  
  3   2   4  1   
  4   3   5  1   
  5   3   6  1   
  6   4   7  ar  
  7   4   8  ar  
  8   5   9  1   
  9   5  10  1   
 10   5  29  1   
 11   6   7  1   
 12   6  30  1   
 13   6  31  1   
 14   7  11  ar  
 15   8  12  ar  
 16   8  32  1   
 17   9  33  1   
 18   9  34  1   
 19   9  35  1   
 20  10  36  1   
 21  10  37  1   
 22  10  38  1   
 23  11  13  ar  
 24  12  13  ar  
 25  12  14  1   
 26  13  15  1   
 27  14  16  1   
 28  14  39  1   
 29  14  40  1   
 30  15  17  1   
 31  16  18  1   
 32  16  19  1   
 33  16  41  1   
 34  17  42  1   
 35  17  43  1   
 36  17  44  1   
 37  18  20  1   
 38  18  45  1   
 39  18  46  1   
 40  19  21  1   
 41  19  47  1   
 42  19  48  1   
 43  20  22  1   
 44  20  49  1   
 45  20  50  1   
 46  21  22  1   
 47  21  51  1   
 48  21  52  1   
 49  22  23  1   
 50  22  24  1   
 51  23  25  1   
 52  24  26  2   
 53  24  53  1   
 54  25  27  1   
 55  25  54  1   
 56  25  55  1   
 57  26  27  1   
 58  26  28  1   
 59  27  56  1   
 60  27  57  1   
 61  28  58  1   
 62  28  59  1   
 63  28  60  1   
@<TRIPOS>SUBSTRUCTURE
  1 ****  12 GROUP 4 **** **** 0

# MOE 2024.06 (io_trps.svl 2023.06)
