@<TRIPOS>MOLECULE
NONAME
54 56 1 0 0 
SMALL
USER_CHARGES


@<TRIPOS>ATOM
  1 O       -0.2340     1.0040    -1.0310 O.2   1 <1>  -0.5700 
  2 C       -0.3930     2.1900    -1.2040 C.2   1 <1>   0.5690 
  3 N       -0.1730     3.1110    -0.2150 N.am  1 <1>  -0.6600 
  4 C       -0.8740     2.6590    -2.5790 C.3   1 <1>   0.1810 
  5 C       -0.3910     4.5750    -0.4570 C.3   1 <1>   0.3640 
  6 C        0.3840     2.7400     1.1180 C.3   1 <1>   0.0600 
  7 O       -0.5250     3.9940    -2.8490 O.3   1 <1>  -0.5600 
  8 C       -1.2320     5.2140     0.6570 C.ar  1 <1>  -0.1440 
  9 C       -0.9630     4.9090    -1.8590 C.3   1 <1>   0.2610 
 10 C       -2.4700     4.7340     1.1000 C.ar  1 <1>  -0.1440 
 11 C       -0.7030     6.3530     1.2540 C.ar  1 <1>  -0.1500 
 12 C       -0.6320     6.3610    -2.2320 C.2   1 <1>   0.5690 
 13 C       -3.1340     5.4020     2.1200 C.ar  1 <1>  -0.1500 
 14 C       -3.1490     3.4910     0.5320 C.3   1 <1>  -0.0960 
 15 C       -1.3740     7.0080     2.2690 C.ar  1 <1>  -0.1500 
 16 O       -1.5690     7.1240    -2.3100 O.2   1 <1>  -0.5700 
 17 N        0.6570     6.8080    -2.4410 N.am  1 <1>  -0.6600 
 18 C       -2.5930     6.5320     2.7030 C.ar  1 <1>  -0.1500 
 19 C        0.9190     8.2680    -2.5700 C.3   1 <1>   0.2840 
 20 C        1.8830     5.9600    -2.5320 C.3   1 <1>   0.0600 
 21 C        1.2660     8.8360    -1.2030 C.ar  1 <1>  -0.1440 
 22 C        2.5830     8.9070    -0.7760 C.ar  1 <1>  -0.1500 
 23 C        0.2580     9.2890    -0.3660 C.ar  1 <1>  -0.1500 
 24 C        2.8980     9.4190     0.4730 C.ar  1 <1>   0.0820 
 25 C        0.5620     9.8090     0.8800 C.ar  1 <1>  -0.1500 
 26 O        4.2120     9.4410     0.8080 O.3   1 <1>  -0.3620 
 27 C        1.8780     9.8740     1.3040 C.ar  1 <1>  -0.1500 
 28 C        4.6460     9.9840     2.0350 C.3   1 <1>   0.0400 
 29 H       -1.9430     2.5640    -2.6410 H     1 <1>   0.0800 
 30 H       -0.4270     2.0450    -3.3390 H     1 <1>   0.0800 
 31 H        0.5850     5.0220    -0.4060 H     1 <1>   0.0800 
 32 H        1.2820     3.3010     1.3080 H     1 <1>   0.0800 
 33 H        0.6210     1.6900     1.1530 H     1 <1>   0.0800 
 34 H       -0.3340     2.9540     1.8900 H     1 <1>   0.0800 
 35 H       -2.0330     4.8400    -1.8240 H     1 <1>   0.0800 
 36 H        0.2440     6.7520     0.9310 H     1 <1>   0.1500 
 37 H       -4.0850     5.0450     2.4730 H     1 <1>   0.1500 
 38 H       -4.1720     3.4320     0.8550 H     1 <1>   0.0800 
 39 H       -2.6420     2.6070     0.8740 H     1 <1>   0.0800 
 40 H       -3.1500     3.5010    -0.5390 H     1 <1>   0.0800 
 41 H       -0.9450     7.8870     2.7160 H     1 <1>   0.1500 
 42 H       -3.1210     7.0380     3.4920 H     1 <1>   0.1500 
 43 H        1.7280     8.4350    -3.2580 H     1 <1>   0.0800 
 44 H        0.0530     8.7720    -2.9630 H     1 <1>   0.0800 
 45 H        2.3980     6.1670    -3.4530 H     1 <1>   0.0800 
 46 H        1.6500     4.9120    -2.5110 H     1 <1>   0.0800 
 47 H        2.5380     6.1800    -1.7070 H     1 <1>   0.0800 
 48 H        3.3830     8.5650    -1.4060 H     1 <1>   0.1500 
 49 H       -0.7710     9.2290    -0.6840 H     1 <1>   0.1500 
 50 H       -0.2300    10.1620     1.5170 H     1 <1>   0.1500 
 51 H        2.0870    10.2790     2.2750 H     1 <1>   0.1500 
 52 H        5.7170     9.9110     2.0730 H     1 <1>   0.0800 
 53 H        4.2110     9.4190     2.8400 H     1 <1>   0.0800 
 54 H        4.3490    11.0170     2.0830 H     1 <1>   0.0800 
@<TRIPOS>BOND
  1   1   2  2   
  2   2   3  am  
  3   2   4  1   
  4   3   5  1   
  5   3   6  1   
  6   4   7  1   
  7   4  29  1   
  8   4  30  1   
  9   5   8  1   
 10   5   9  1   
 11   5  31  1   
 12   6  32  1   
 13   6  33  1   
 14   6  34  1   
 15   7   9  1   
 16   8  10  ar  
 17   8  11  ar  
 18   9  12  1   
 19   9  35  1   
 20  10  13  ar  
 21  10  14  1   
 22  11  15  ar  
 23  11  36  1   
 24  12  16  2   
 25  12  17  am  
 26  13  18  ar  
 27  13  37  1   
 28  14  38  1   
 29  14  39  1   
 30  14  40  1   
 31  15  18  ar  
 32  15  41  1   
 33  17  19  1   
 34  17  20  1   
 35  18  42  1   
 36  19  21  1   
 37  19  43  1   
 38  19  44  1   
 39  20  45  1   
 40  20  46  1   
 41  20  47  1   
 42  21  22  ar  
 43  21  23  ar  
 44  22  24  ar  
 45  22  48  1   
 46  23  25  ar  
 47  23  49  1   
 48  24  26  1   
 49  24  27  ar  
 50  25  27  ar  
 51  25  50  1   
 52  26  28  1   
 53  27  51  1   
 54  28  52  1   
 55  28  53  1   
 56  28  54  1   
@<TRIPOS>SUBSTRUCTURE
  1 ****  11 GROUP 4 **** **** 0

# MOE 2024.06 (io_trps.svl 2023.06)
