@<TRIPOS>MOLECULE
NONAME
47 49 1 0 0 
SMALL
USER_CHARGES


@<TRIPOS>ATOM
  1 S        0.4360    -0.6470     0.9900 S.3   1 <1>  -0.0800 
  2 C        0.1420    -1.5760    -0.4380 C.2   1 <1>   0.1980 
  3 C        1.3140     0.4530    -0.0130 C.2   1 <1>   0.1980 
  4 N        0.6680    -1.0660    -1.4790 N.2   1 <1>  -0.3380 
  5 C       -0.6770    -2.8540    -0.3160 C.3   1 <1>   0.2900 
  6 N        1.3410     0.1010    -1.2340 N.2   1 <1>  -0.3380 
  7 C        1.9330     1.6690     0.6370 C.3   1 <1>  -0.0600 
  8 N       -2.0560    -2.6180     0.1730 N.3   1 <1>  -0.8100 
  9 C       -2.6920    -3.9050     0.5220 C.3   1 <1>   0.1100 
 10 C       -2.8360    -1.8380    -0.8080 C.3   1 <1>   0.1100 
 11 C       -4.0730    -3.7570     1.1810 C.3   1 <1>   0.1400 
 12 C       -4.0220    -1.1560    -0.1210 C.3   1 <1>  -0.1600 
 13 N       -5.1250    -3.4250     0.1750 N.am  1 <1>  -0.6600 
 14 C       -5.3160    -1.9780    -0.1360 C.3   1 <1>   0.1400 
 15 C       -6.0090    -4.3660    -0.3280 C.2   1 <1>   0.7150 
 16 O       -7.0130    -3.9630    -0.8900 O.2   1 <1>  -0.5700 
 17 C       -5.8030    -5.7970    -0.2050 C.2   1 <1>   0.0550 
 18 O       -4.5860    -6.3290    -0.2410 O.3   1 <1>  -0.2800 
 19 C       -6.6990    -6.7980    -0.0670 C.2   1 <1>   0.0460 
 20 C       -4.8370    -7.6160    -0.1210 C.2   1 <1>   0.2980 
 21 N       -6.0660    -7.9630    -0.0080 N.2   1 <1>  -0.5650 
 22 C       -8.2110    -6.7670     0.0240 C.3   1 <1>  -0.0590 
 23 C       -3.6390    -8.5550    -0.1280 C.3   1 <1>   0.0200 
 24 C       -4.0080   -10.0380     0.0340 C.3   1 <1>  -0.2400 
 25 H       -0.1610    -3.5040     0.3680 H     1 <1>   0.0800 
 26 H       -0.7110    -3.3400    -1.2760 H     1 <1>   0.0800 
 27 H        2.6400     1.3620     1.3850 H     1 <1>   0.0800 
 28 H        1.1660     2.2660     1.0950 H     1 <1>   0.0800 
 29 H        2.4400     2.2580    -0.1040 H     1 <1>   0.0800 
 30 H       -2.0570    -4.4130     1.2270 H     1 <1>   0.0800 
 31 H       -2.7740    -4.5250    -0.3530 H     1 <1>   0.0800 
 32 H       -3.1660    -2.4630    -1.6210 H     1 <1>   0.0800 
 33 H       -2.2180    -1.0590    -1.2220 H     1 <1>   0.0800 
 34 H       -4.0320    -3.0000     1.9440 H     1 <1>   0.0800 
 35 H       -4.3250    -4.6810     1.6700 H     1 <1>   0.0800 
 36 H       -4.2260    -0.2370    -0.6400 H     1 <1>   0.0800 
 37 H       -3.7560    -0.8860     0.8860 H     1 <1>   0.0800 
 38 H       -5.7530    -1.8920    -1.1170 H     1 <1>   0.0800 
 39 H       -6.0160    -1.5590     0.5660 H     1 <1>   0.0800 
 40 H       -8.5810    -5.7590     0.0340 H     1 <1>   0.0800 
 41 H       -8.5280    -7.2600     0.9250 H     1 <1>   0.0800 
 42 H       -8.6320    -7.2830    -0.8190 H     1 <1>   0.0800 
 43 H       -2.9800    -8.2670     0.6700 H     1 <1>   0.0800 
 44 H       -3.1150    -8.4230    -1.0570 H     1 <1>   0.0800 
 45 H       -4.5220   -10.1910     0.9660 H     1 <1>   0.0800 
 46 H       -3.1220   -10.6470     0.0200 H     1 <1>   0.0800 
 47 H       -4.6550   -10.3470    -0.7680 H     1 <1>   0.0800 
@<TRIPOS>BOND
  1   1   2  1   
  2   1   3  1   
  3   2   4  2   
  4   2   5  1   
  5   3   6  2   
  6   3   7  1   
  7   4   6  1   
  8   5   8  1   
  9   5  25  1   
 10   5  26  1   
 11   7  27  1   
 12   7  28  1   
 13   7  29  1   
 14   8   9  1   
 15   8  10  1   
 16   9  11  1   
 17   9  30  1   
 18   9  31  1   
 19  10  12  1   
 20  10  32  1   
 21  10  33  1   
 22  11  13  1   
 23  11  34  1   
 24  11  35  1   
 25  12  14  1   
 26  12  36  1   
 27  12  37  1   
 28  13  14  1   
 29  13  15  am  
 30  14  38  1   
 31  14  39  1   
 32  15  16  2   
 33  15  17  1   
 34  17  18  1   
 35  17  19  2   
 36  18  20  1   
 37  19  21  1   
 38  19  22  1   
 39  20  21  2   
 40  20  23  1   
 41  22  40  1   
 42  22  41  1   
 43  22  42  1   
 44  23  24  1   
 45  23  43  1   
 46  23  44  1   
 47  24  45  1   
 48  24  46  1   
 49  24  47  1   
@<TRIPOS>SUBSTRUCTURE
  1 ****   9 GROUP 4 **** **** 0

# MOE 2024.06 (io_trps.svl 2023.06)
