@<TRIPOS>MOLECULE
NONAME
46 48 1 0 0 
SMALL
USER_CHARGES


@<TRIPOS>ATOM
  1 S       -0.3660    -0.2670     0.0330 S.3   1 <1>  -0.0800 
  2 C       -0.7970     1.0180     1.1520 C.2   1 <1>   0.0600 
  3 C       -1.0720    -1.4970     1.0690 C.2   1 <1>  -0.1400 
  4 C       -0.4480     2.3560     0.7980 C.1   1 <1>  -0.0200 
  5 C       -1.4240     0.4880     2.2240 C.2   1 <1>  -0.1500 
  6 C       -1.5780    -0.9330     2.1820 C.2   1 <1>  -0.1500 
  7 C       -0.9980    -2.9320     0.5940 C.3   1 <1>   0.5230 
  8 C       -0.1580     3.4710     0.4970 C.1   1 <1>  -0.2000 
  9 N       -2.2090    -3.2480    -0.2090 N.4   1 <1>  -0.9590 
 10 C        0.2060     4.8620     0.1170 C.3   1 <1>   0.3200 
 11 C       -2.3570    -4.7240    -0.4560 C.3   1 <1>   0.5660 
 12 C       -2.3060    -2.4510    -1.4780 C.3   1 <1>   0.3430 
 13 O        1.1950     4.7830    -0.8390 O.3   1 <1>  -0.6800 
 14 C       -1.0430    -5.3070    -0.9810 C.ar  1 <1>  -0.1430 
 15 C       -3.5820    -5.0530    -1.3630 C.3   1 <1>   0.2000 
 16 C       -3.4690    -2.9170    -2.3850 C.3   1 <1>   0.1200 
 17 C       -0.2860    -6.0900    -0.1190 C.ar  1 <1>  -0.1500 
 18 C       -0.5710    -5.0860    -2.2710 C.ar  1 <1>  -0.1500 
 19 O       -4.2630    -3.8800    -1.7500 O.3   1 <1>  -0.5600 
 20 C       -4.6020    -5.9460    -0.6450 C.3   1 <1>   0.1200 
 21 C        0.9250    -6.6210    -0.5260 C.ar  1 <1>  -0.1500 
 22 C        0.6410    -5.6170    -2.6780 C.ar  1 <1>  -0.1500 
 23 O       -3.9410    -6.9150     0.1020 O.3   1 <1>  -0.6800 
 24 C        1.3910    -6.3810    -1.8050 C.ar  1 <1>  -0.1500 
 25 H       -1.7890     1.0610     3.0590 H     1 <1>   0.1500 
 26 H       -2.0610    -1.4460     2.9970 H     1 <1>   0.1500 
 27 H       -0.9550    -3.5810     1.4530 H     1 <1>   0.0800 
 28 H       -0.1030    -3.0850     0.0110 H     1 <1>   0.0800 
 29 H       -3.0330    -2.9820     0.3420 H     1 <1>   0.4500 
 30 H        0.5910     5.4040     0.9630 H     1 <1>   0.0800 
 31 H       -0.6330     5.3870    -0.3050 H     1 <1>   0.0800 
 32 H       -2.5340    -5.1970     0.4950 H     1 <1>   0.0800 
 33 H       -2.4530    -1.4090    -1.2400 H     1 <1>   0.0800 
 34 H       -1.3820    -2.5210    -2.0290 H     1 <1>   0.0800 
 35 H        1.8300     4.0880    -0.5800 H     1 <1>   0.4000 
 36 H       -3.2600    -5.5610    -2.2550 H     1 <1>   0.0800 
 37 H       -3.0970    -3.3300    -3.3060 H     1 <1>   0.0800 
 38 H       -4.1000    -2.0800    -2.6290 H     1 <1>   0.0800 
 39 H       -0.6300    -6.3070     0.8790 H     1 <1>   0.1500 
 40 H       -1.1280    -4.5100    -2.9860 H     1 <1>   0.1500 
 41 H       -5.2330    -6.4410    -1.3640 H     1 <1>   0.0800 
 42 H       -5.2090    -5.3670     0.0310 H     1 <1>   0.0800 
 43 H        1.5060    -7.2280     0.1490 H     1 <1>   0.1500 
 44 H        1.0040    -5.4420    -3.6770 H     1 <1>   0.1500 
 45 H       -4.5710    -7.5980     0.4210 H     1 <1>   0.4000 
 46 H        2.3330    -6.7960    -2.1220 H     1 <1>   0.1500 
@<TRIPOS>BOND
  1   1   2  1   
  2   1   3  1   
  3   2   4  1   
  4   2   5  2   
  5   3   6  2   
  6   3   7  1   
  7   4   8  3   
  8   5   6  1   
  9   5  25  1   
 10   6  26  1   
 11   7   9  1   
 12   7  27  1   
 13   7  28  1   
 14   8  10  1   
 15   9  11  1   
 16   9  12  1   
 17   9  29  1   
 18  10  13  1   
 19  10  30  1   
 20  10  31  1   
 21  11  14  1   
 22  11  15  1   
 23  11  32  1   
 24  12  16  1   
 25  12  33  1   
 26  12  34  1   
 27  13  35  1   
 28  14  17  ar  
 29  14  18  ar  
 30  15  19  1   
 31  15  20  1   
 32  15  36  1   
 33  16  19  1   
 34  16  37  1   
 35  16  38  1   
 36  17  21  ar  
 37  17  39  1   
 38  18  22  ar  
 39  18  40  1   
 40  20  23  1   
 41  20  41  1   
 42  20  42  1   
 43  21  24  ar  
 44  21  43  1   
 45  22  24  ar  
 46  22  44  1   
 47  23  45  1   
 48  24  46  1   
@<TRIPOS>SUBSTRUCTURE
  1 ****   7 GROUP 4 **** **** 0

# MOE 2024.06 (io_trps.svl 2023.06)
