@<TRIPOS>MOLECULE
NONAME
36 37 1 0 0 
SMALL
USER_CHARGES


@<TRIPOS>ATOM
  1 S       -1.8740    -0.6850    -0.5000 S.3   1 <1>  -0.0800 
  2 C       -1.5880    -1.5360     0.9810 C.2   1 <1>   0.4420 
  3 C       -0.3520     0.1060    -0.2540 C.2   1 <1>   0.1980 
  4 N       -0.4710    -1.2110     1.5210 N.2   1 <1>  -0.3380 
  5 N       -2.5630    -2.4260     1.3750 N.am  1 <1>  -0.4940 
  6 N        0.2290    -0.2740     0.8120 N.2   1 <1>  -0.3380 
  7 C        0.1210     1.1360    -1.2790 C.3   1 <1>   0.3800 
  8 C       -2.6000    -3.2680     2.4510 C.2   1 <1>   0.5690 
  9 O       -0.8470     2.1250    -1.4760 O.3   1 <1>  -0.5600 
 10 C        0.4010     0.5090    -2.6430 C.3   1 <1>  -0.2400 
 11 O       -1.7170    -3.3550     3.2640 O.2   1 <1>  -0.5700 
 12 C       -3.8270    -4.1490     2.6280 C.3   1 <1>   0.0820 
 13 C       -1.0170     3.0040    -0.4050 C.3   1 <1>   0.0400 
 14 C       -4.5690    -4.3890     1.3170 C.2   1 <1>  -0.1810 
 15 C       -5.7950    -3.9210     1.0170 C.2   1 <1>  -0.1100 
 16 C       -3.9810    -5.1510     0.2640 C.2   1 <1>  -0.1500 
 17 S       -6.2560    -4.4020    -0.5980 S.3   1 <1>  -0.0800 
 18 C       -4.7390    -5.2680    -0.8600 C.2   1 <1>  -0.0450 
 19 C       -4.5260    -5.9270    -2.1180 C.2   1 <1>   0.5940 
 20 O       -5.3040    -5.9040    -3.0370 O.2   1 <1>  -0.5700 
 21 C       -3.2400    -6.6980    -2.3180 C.3   1 <1>  -0.1790 
 22 H       -3.3650    -2.4950     0.7490 H     1 <1>   0.3700 
 23 H        1.0190     1.6080    -0.9190 H     1 <1>   0.0800 
 24 H       -0.4970     0.0830    -3.0530 H     1 <1>   0.0800 
 25 H        1.1380    -0.2670    -2.5420 H     1 <1>   0.0800 
 26 H        0.7790     1.2560    -3.3160 H     1 <1>   0.0800 
 27 H       -4.4790    -3.6740     3.3370 H     1 <1>   0.0800 
 28 H       -3.5210    -5.0910     3.0440 H     1 <1>   0.0800 
 29 H       -1.7630     3.7280    -0.6830 H     1 <1>   0.0800 
 30 H       -0.0860     3.5050    -0.2020 H     1 <1>   0.0800 
 31 H       -1.3500     2.4600     0.4620 H     1 <1>   0.0800 
 32 H       -6.5010    -3.3290     1.5740 H     1 <1>   0.1500 
 33 H       -3.0030    -5.5880     0.3850 H     1 <1>   0.1500 
 34 H       -3.1500    -7.4590    -1.5660 H     1 <1>   0.0800 
 35 H       -2.4020    -6.0290    -2.2580 H     1 <1>   0.0800 
 36 H       -3.2410    -7.1660    -3.2860 H     1 <1>   0.0800 
@<TRIPOS>BOND
  1   1   2  1   
  2   1   3  1   
  3   2   4  2   
  4   2   5  1   
  5   3   6  2   
  6   3   7  1   
  7   4   6  1   
  8   5   8  am  
  9   5  22  1   
 10   7   9  1   
 11   7  10  1   
 12   7  23  1   
 13   8  11  2   
 14   8  12  1   
 15   9  13  1   
 16  10  24  1   
 17  10  25  1   
 18  10  26  1   
 19  12  14  1   
 20  12  27  1   
 21  12  28  1   
 22  13  29  1   
 23  13  30  1   
 24  13  31  1   
 25  14  15  2   
 26  14  16  1   
 27  15  17  1   
 28  15  32  1   
 29  16  18  2   
 30  16  33  1   
 31  17  18  1   
 32  18  19  1   
 33  19  20  2   
 34  19  21  1   
 35  21  34  1   
 36  21  35  1   
 37  21  36  1   
@<TRIPOS>SUBSTRUCTURE
  1 ****   5 GROUP 4 **** **** 0

# MOE 2024.06 (io_trps.svl 2023.06)
