@<TRIPOS>MOLECULE
NONAME
41 43 1 0 0 
SMALL
USER_CHARGES


@<TRIPOS>ATOM
  1 O       -0.2590     0.1760    -0.4250 O.2   1 <1>  -0.5700 
  2 C        0.8160    -0.3670    -0.4880 C.2   1 <1>   0.5690 
  3 N        2.0100     0.2740    -0.2960 N.am  1 <1>  -0.4940 
  4 C        0.8460    -1.8500    -0.7930 C.3   1 <1>  -0.0990 
  5 C        2.2480     1.6340     0.0350 C.2   1 <1>  -0.0880 
  6 C        0.3010    -2.6680     0.3840 C.3   1 <1>  -0.0160 
  7 N        3.4760     2.2190     0.1290 N.pl3 1 <1>   0.3140 
  8 C        1.3470     2.6020     0.3250 C.2   1 <1>  -0.1500 
  9 C        0.3640    -4.1540     0.0710 C.ar  1 <1>  -0.1430 
 10 N        3.3710     3.5260     0.4810 N.2   1 <1>  -0.7070 
 11 C        4.7840     1.5400    -0.1090 C.3   1 <1>   0.1760 
 12 C        2.0970     3.7390     0.5900 C.2   1 <1>   0.1390 
 13 C        1.3760    -4.9630     0.5440 C.ar  1 <1>  -0.1500 
 14 C       -0.5950    -4.7700    -0.7080 C.ar  1 <1>  -0.1500 
 15 C        5.2670     0.7590     1.1150 C.3   1 <1>  -0.1600 
 16 C        5.9550     2.4730    -0.4270 C.3   1 <1>  -0.1600 
 17 C        1.3830    -6.3110     0.2220 C.ar  1 <1>   0.1600 
 18 C       -0.4960    -6.1250    -0.9720 C.ar  1 <1>   0.1600 
 19 C        6.7870     0.6320     0.9520 C.3   1 <1>  -0.1600 
 20 C        7.1960     1.6270    -0.1420 C.3   1 <1>  -0.1600 
 21 N        0.4720    -6.9110    -0.5280 N.ar  1 <1>  -0.6200 
 22 H        2.8340    -0.3130    -0.3950 H     1 <1>   0.3700 
 23 H        1.8480    -2.1640    -1.0190 H     1 <1>   0.0800 
 24 H        0.2400    -2.0270    -1.6620 H     1 <1>   0.0800 
 25 H       -0.7200    -2.3850     0.5780 H     1 <1>   0.0800 
 26 H        0.8710    -2.4570     1.2720 H     1 <1>   0.0800 
 27 H        0.2750     2.5310     0.3520 H     1 <1>   0.1500 
 28 H        4.6670     0.8630    -0.9360 H     1 <1>   0.0800 
 29 H        1.6770     4.6940     0.8580 H     1 <1>   0.1500 
 30 H        2.1590    -4.5640     1.1620 H     1 <1>   0.1500 
 31 H       -1.4190    -4.2080    -1.1110 H     1 <1>   0.1500 
 32 H        4.7940    -0.2030     1.1920 H     1 <1>   0.0800 
 33 H        5.0590     1.3330     2.0040 H     1 <1>   0.0800 
 34 H        5.9520     3.3160     0.2440 H     1 <1>   0.0800 
 35 H        5.9280     2.8230    -1.4430 H     1 <1>   0.0800 
 36 H        2.1790    -6.9280     0.6000 H     1 <1>   0.1500 
 37 H       -1.2530    -6.5880    -1.5820 H     1 <1>   0.1500 
 38 H        7.0570    -0.3680     0.6590 H     1 <1>   0.0800 
 39 H        7.2790     0.8640     1.8810 H     1 <1>   0.0800 
 40 H        8.0250     2.2410     0.1680 H     1 <1>   0.0800 
 41 H        7.4780     1.0890    -1.0310 H     1 <1>   0.0800 
@<TRIPOS>BOND
  1   1   2  2   
  2   2   3  am  
  3   2   4  1   
  4   3   5  1   
  5   3  22  1   
  6   4   6  1   
  7   4  23  1   
  8   4  24  1   
  9   5   7  1   
 10   5   8  2   
 11   6   9  1   
 12   6  25  1   
 13   6  26  1   
 14   7  10  1   
 15   7  11  1   
 16   8  12  1   
 17   8  27  1   
 18   9  13  ar  
 19   9  14  ar  
 20  10  12  2   
 21  11  15  1   
 22  11  16  1   
 23  11  28  1   
 24  12  29  1   
 25  13  17  ar  
 26  13  30  1   
 27  14  18  ar  
 28  14  31  1   
 29  15  19  1   
 30  15  32  1   
 31  15  33  1   
 32  16  20  1   
 33  16  34  1   
 34  16  35  1   
 35  17  21  ar  
 36  17  36  1   
 37  18  21  ar  
 38  18  37  1   
 39  19  20  1   
 40  19  38  1   
 41  19  39  1   
 42  20  40  1   
 43  20  41  1   
@<TRIPOS>SUBSTRUCTURE
  1 ****   3 GROUP 4 **** **** 0

# MOE 2024.06 (io_trps.svl 2023.06)
