@<TRIPOS>MOLECULE
NONAME
33 34 1 0 0 
SMALL
USER_CHARGES


@<TRIPOS>ATOM
  1 CL      -0.5220     1.3000    -2.1760 Cl    1 <1>  -0.1770 
  2 C       -1.5650     1.5970    -0.7940 C.ar  1 <1>   0.1770 
  3 C       -1.7230     2.9280    -0.3340 C.ar  1 <1>   0.4100 
  4 C       -2.2170     0.5840    -0.1600 C.ar  1 <1>   0.2170 
  5 N       -2.4970     3.2150     0.6970 N.ar  1 <1>  -0.6200 
  6 N       -1.0760     3.9490    -0.9380 N.pl3 1 <1>  -0.8690 
  7 N       -2.9970     0.9320     0.8990 N.ar  1 <1>  -0.1790 
  8 C       -2.1420    -0.8910    -0.5360 C.3   1 <1>  -0.0970 
  9 C       -3.1150     2.2150     1.2930 C.ar  1 <1>   0.7710 
 10 C       -1.0000     5.3720    -0.4870 C.3   1 <1>   0.3890 
 11 N       -3.8840     2.5300     2.3300 N.pl3 1 <1>  -0.9000 
 12 C        0.4100     5.7170    -0.0350 C.2   1 <1>   0.1980 
 13 S        0.9520     5.0370     1.4840 S.3   1 <1>  -0.0800 
 14 N        1.2760     6.4450    -0.6220 N.2   1 <1>  -0.5650 
 15 C        2.4810     5.8350     1.2610 C.2   1 <1>  -0.1100 
 16 C        2.4540     6.5190     0.1050 C.2   1 <1>   0.0460 
 17 C        3.5630     7.3660    -0.5010 C.3   1 <1>   0.0210 
 18 C        4.8370     7.4100     0.3520 C.3   1 <1>  -0.2400 
 19 H       -0.4230     3.7550    -1.7080 H     1 <1>   0.4000 
 20 H       -3.5160     0.2390     1.4300 H     1 <1>   0.4570 
 21 H       -1.5010    -1.0490    -1.3860 H     1 <1>   0.0800 
 22 H       -3.1190    -1.2640    -0.7900 H     1 <1>   0.0800 
 23 H       -1.7490    -1.4680     0.2820 H     1 <1>   0.0800 
 24 H       -1.6850     5.5610     0.3200 H     1 <1>   0.0800 
 25 H       -1.2670     6.0140    -1.3080 H     1 <1>   0.0800 
 26 H       -4.4440     1.9210     2.9300 H     1 <1>   0.4000 
 27 H       -3.9370     3.5210     2.5930 H     1 <1>   0.4000 
 28 H        3.2320     5.7060     2.0180 H     1 <1>   0.1500 
 29 H        3.1920     8.3660    -0.6360 H     1 <1>   0.0800 
 30 H        3.8000     6.9710    -1.4730 H     1 <1>   0.0800 
 31 H        4.6230     7.8270     1.3210 H     1 <1>   0.0800 
 32 H        5.5790     8.0230    -0.1290 H     1 <1>   0.0800 
 33 H        5.2380     6.4200     0.4750 H     1 <1>   0.0800 
@<TRIPOS>BOND
  1   1   2  1   
  2   2   3  ar  
  3   2   4  ar  
  4   3   5  ar  
  5   3   6  1   
  6   4   7  ar  
  7   4   8  1   
  8   5   9  ar  
  9   6  10  1   
 10   6  19  1   
 11   7   9  ar  
 12   7  20  1   
 13   8  21  1   
 14   8  22  1   
 15   8  23  1   
 16   9  11  1   
 17  10  12  1   
 18  10  24  1   
 19  10  25  1   
 20  11  26  1   
 21  11  27  1   
 22  12  13  1   
 23  12  14  2   
 24  13  15  1   
 25  14  16  1   
 26  15  16  2   
 27  15  28  1   
 28  16  17  1   
 29  17  18  1   
 30  17  29  1   
 31  17  30  1   
 32  18  31  1   
 33  18  32  1   
 34  18  33  1   
@<TRIPOS>SUBSTRUCTURE
  1 ****   6 GROUP 4 **** **** 0

# MOE 2024.06 (io_trps.svl 2023.06)
