@<TRIPOS>MOLECULE
NONAME
57 59 1 0 0 
SMALL
USER_CHARGES


@<TRIPOS>ATOM
  1 O       -2.4360     0.9420    -2.5950 O.2   1 <1>  -0.5700 
  2 C       -1.8120     1.2720    -1.6100 C.2   1 <1>   0.6900 
  3 N       -2.3600     1.8670    -0.5100 N.am  1 <1>  -0.4200 
  4 N       -0.4890     1.0620    -1.4640 N.am  1 <1>  -0.7300 
  5 C       -1.3880     2.0510     0.4250 C.2   1 <1>   0.5690 
  6 C       -3.7890     1.7040    -0.1410 C.3   1 <1>   0.2010 
  7 C       -0.0660     1.4810    -0.1220 C.3   1 <1>   0.3610 
  8 O       -1.5360     2.5700     1.5070 O.2   1 <1>  -0.5700 
  9 C       -4.0800     0.2430     0.2110 C.2   1 <1>   0.5690 
 10 C        1.0410     2.5280    -0.2630 C.3   1 <1>  -0.2400 
 11 C        0.4080     0.2520     0.6550 C.3   1 <1>  -0.2400 
 12 O       -3.7750    -0.1240     1.3230 O.2   1 <1>  -0.5700 
 13 N       -4.6180    -0.6300    -0.7000 N.am  1 <1>  -0.6600 
 14 C       -4.3920    -2.1000    -0.4810 C.3   1 <1>   0.3640 
 15 C       -5.4000    -0.1930    -1.9010 C.3   1 <1>   0.1400 
 16 C       -2.8980    -2.3830    -0.6820 C.ar  1 <1>  -0.1430 
 17 C       -5.2430    -3.0660    -1.3580 C.3   1 <1>   0.2000 
 18 C       -5.8050    -1.3440    -2.8300 C.3   1 <1>   0.1200 
 19 C       -2.1460    -2.8810     0.3710 C.ar  1 <1>  -0.1500 
 20 C       -2.2700    -2.1280    -1.8910 C.ar  1 <1>  -0.1500 
 21 O       -6.2600    -2.4190    -2.0750 O.3   1 <1>  -0.5600 
 22 C       -5.9100    -4.1670    -0.5220 C.3   1 <1>   0.1200 
 23 C       -0.7790    -3.1150     0.2410 C.ar  1 <1>   0.0830 
 24 C       -0.9180    -2.3730    -2.0440 C.ar  1 <1>  -0.1500 
 25 O       -4.9590    -4.8950     0.1890 O.3   1 <1>  -0.6800 
 26 O       -0.0380    -3.5440     1.3030 O.3   1 <1>  -0.3630 
 27 C       -0.1620    -2.8670    -0.9960 C.ar  1 <1>   0.0830 
 28 C       -0.4980    -3.3770     2.6280 C.3   1 <1>   0.0400 
 29 O        1.1600    -3.0450    -1.2780 O.3   1 <1>  -0.3630 
 30 C        1.8990    -4.0790    -0.6650 C.3   1 <1>   0.0400 
 31 H       -0.0580     0.2480    -1.9020 H     1 <1>   0.3700 
 32 H       -4.0020     2.3110     0.7200 H     1 <1>   0.0800 
 33 H       -4.4060     2.0410    -0.9500 H     1 <1>   0.0800 
 34 H        1.3200     2.8920     0.7100 H     1 <1>   0.0800 
 35 H        0.6940     3.3610    -0.8480 H     1 <1>   0.0800 
 36 H        1.9080     2.0990    -0.7320 H     1 <1>   0.0800 
 37 H        0.7220     0.5450     1.6400 H     1 <1>   0.0800 
 38 H        1.2320    -0.2260     0.1570 H     1 <1>   0.0800 
 39 H       -0.4010    -0.4470     0.7620 H     1 <1>   0.0800 
 40 H       -4.6340    -2.3070     0.5480 H     1 <1>   0.0800 
 41 H       -6.2970     0.2940    -1.5630 H     1 <1>   0.0800 
 42 H       -4.8360     0.5190    -2.4760 H     1 <1>   0.0800 
 43 H       -4.6100    -3.5410    -2.0860 H     1 <1>   0.0800 
 44 H       -4.9790    -1.6630    -3.4410 H     1 <1>   0.0800 
 45 H       -6.6050    -1.0300    -3.4770 H     1 <1>   0.0800 
 46 H       -2.6490    -3.0720     1.3010 H     1 <1>   0.1500 
 47 H       -2.8220    -1.7240    -2.7190 H     1 <1>   0.1500 
 48 H       -6.4490    -4.8480    -1.1570 H     1 <1>   0.0800 
 49 H       -6.5870    -3.7290     0.1920 H     1 <1>   0.0800 
 50 H       -0.4410    -2.1760    -2.9870 H     1 <1>   0.1500 
 51 H       -4.3700    -5.3920    -0.4140 H     1 <1>   0.4000 
 52 H        0.3140    -3.6030     3.2950 H     1 <1>   0.0800 
 53 H       -1.3130    -4.0560     2.8040 H     1 <1>   0.0800 
 54 H       -0.8110    -2.3560     2.7650 H     1 <1>   0.0800 
 55 H        2.7640    -4.2770    -1.2710 H     1 <1>   0.0800 
 56 H        1.2850    -4.9600    -0.5990 H     1 <1>   0.0800 
 57 H        2.2070    -3.7540     0.3120 H     1 <1>   0.0800 
@<TRIPOS>BOND
  1   1   2  2   
  2   2   3  am  
  3   2   4  am  
  4   3   5  am  
  5   3   6  1   
  6   4   7  1   
  7   4  31  1   
  8   5   7  1   
  9   5   8  2   
 10   6   9  1   
 11   6  32  1   
 12   6  33  1   
 13   7  10  1   
 14   7  11  1   
 15   9  12  2   
 16   9  13  am  
 17  10  34  1   
 18  10  35  1   
 19  10  36  1   
 20  11  37  1   
 21  11  38  1   
 22  11  39  1   
 23  13  14  1   
 24  13  15  1   
 25  14  16  1   
 26  14  17  1   
 27  14  40  1   
 28  15  18  1   
 29  15  41  1   
 30  15  42  1   
 31  16  19  ar  
 32  16  20  ar  
 33  17  21  1   
 34  17  22  1   
 35  17  43  1   
 36  18  21  1   
 37  18  44  1   
 38  18  45  1   
 39  19  23  ar  
 40  19  46  1   
 41  20  24  ar  
 42  20  47  1   
 43  22  25  1   
 44  22  48  1   
 45  22  49  1   
 46  23  26  1   
 47  23  27  ar  
 48  24  27  ar  
 49  24  50  1   
 50  25  51  1   
 51  26  28  1   
 52  27  29  1   
 53  28  52  1   
 54  28  53  1   
 55  28  54  1   
 56  29  30  1   
 57  30  55  1   
 58  30  56  1   
 59  30  57  1   
@<TRIPOS>SUBSTRUCTURE
  1 ****  16 GROUP 4 **** **** 0

# MOE 2024.06 (io_trps.svl 2023.06)
