@<TRIPOS>MOLECULE
NONAME
47 49 1 0 0 
SMALL
USER_CHARGES


@<TRIPOS>ATOM
  1 S        0.4760     0.1530    -0.9850 S.o2  1 <1>   1.3330 
  2 O        1.7170    -0.5730    -1.1460 O.2   1 <1>  -0.6500 
  3 O       -0.3630     0.3910    -2.1360 O.2   1 <1>  -0.6500 
  4 N       -0.4740    -0.6790     0.1530 N.am  1 <1>  -0.8490 
  5 C        0.8170     1.7270    -0.1780 C.3   1 <1>  -0.0550 
  6 C       -1.8970    -0.3230     0.0980 C.3   1 <1>   0.1160 
  7 C       -0.3260    -2.1340     0.0420 C.3   1 <1>   0.1160 
  8 C        1.9470     1.7670     0.8770 C.3   1 <1>  -0.0800 
  9 C        3.3430     1.5410     0.2890 C.3   1 <1>   0.2200 
 10 C        1.8610     0.7510     2.0220 C.3   1 <1>   0.1200 
 11 N        4.1690     2.7500     0.5060 N.am  1 <1>  -0.7300 
 12 C        3.8810     0.3700     1.1090 C.3   1 <1>   0.1200 
 13 O        3.1780     0.4170     2.3080 O.3   1 <1>  -0.5600 
 14 C        4.2240     3.8340    -0.3200 C.2   1 <1>   0.7160 
 15 O        3.5180     3.8380    -1.3140 O.2   1 <1>  -0.5700 
 16 C        5.0880     4.9590    -0.0050 C.2   1 <1>   0.2030 
 17 N        5.8450     5.0760     1.0440 N.2   1 <1>  -0.4100 
 18 C        5.2410     6.0950    -0.7780 C.2   1 <1>  -0.1500 
 19 O        6.4860     6.2180     1.0070 O.3   1 <1>  -0.0190 
 20 C        6.1250     6.8500    -0.1010 C.2   1 <1>   0.0870 
 21 C        6.6800     8.1510    -0.4080 C.ar  1 <1>   0.0530 
 22 C        6.3320     8.8290    -1.5770 C.ar  1 <1>  -0.1500 
 23 C        7.5840     8.7800     0.4490 C.ar  1 <1>  -0.1500 
 24 C        6.8590    10.0720    -1.8770 C.ar  1 <1>  -0.1500 
 25 C        8.1150    10.0230     0.1560 C.ar  1 <1>  -0.1500 
 26 C        7.7520    10.6730    -1.0100 C.ar  1 <1>  -0.1500 
 27 H        1.0750     2.4380    -0.9410 H     1 <1>   0.0800 
 28 H       -0.0860     2.0810     0.2770 H     1 <1>   0.0800 
 29 H       -2.4300    -0.8050     0.9000 H     1 <1>   0.0800 
 30 H       -2.3270    -0.6300    -0.8420 H     1 <1>   0.0800 
 31 H       -2.0200     0.7410     0.2010 H     1 <1>   0.0800 
 32 H       -0.9330    -2.6300     0.7800 H     1 <1>   0.0800 
 33 H        0.7010    -2.4150     0.2100 H     1 <1>   0.0800 
 34 H       -0.6190    -2.4660    -0.9400 H     1 <1>   0.0800 
 35 H        1.9120     2.7430     1.3290 H     1 <1>   0.0800 
 36 H        3.3320     1.2970    -0.7610 H     1 <1>   0.0800 
 37 H        1.3590    -0.1570     1.7450 H     1 <1>   0.0800 
 38 H        1.4040     1.1630     2.9060 H     1 <1>   0.0800 
 39 H        4.6730     2.7960     1.3970 H     1 <1>   0.3700 
 40 H        4.9370     0.4370     1.3010 H     1 <1>   0.0800 
 41 H        3.6520    -0.5660     0.6280 H     1 <1>   0.0800 
 42 H        4.7380     6.2820    -1.7080 H     1 <1>   0.1500 
 43 H        5.6400     8.3820    -2.2670 H     1 <1>   0.1500 
 44 H        7.8800     8.2920     1.3610 H     1 <1>   0.1500 
 45 H        6.5740    10.5740    -2.7850 H     1 <1>   0.1500 
 46 H        8.8100    10.4860     0.8350 H     1 <1>   0.1500 
 47 H        8.1640    11.6410    -1.2400 H     1 <1>   0.1500 
@<TRIPOS>BOND
  1   1   2  2   
  2   1   3  2   
  3   1   4  am  
  4   1   5  1   
  5   4   6  1   
  6   4   7  1   
  7   5   8  1   
  8   5  27  1   
  9   5  28  1   
 10   6  29  1   
 11   6  30  1   
 12   6  31  1   
 13   7  32  1   
 14   7  33  1   
 15   7  34  1   
 16   8   9  1   
 17   8  10  1   
 18   8  35  1   
 19   9  11  1   
 20   9  12  1   
 21   9  36  1   
 22  10  13  1   
 23  10  37  1   
 24  10  38  1   
 25  11  14  am  
 26  11  39  1   
 27  12  13  1   
 28  12  40  1   
 29  12  41  1   
 30  14  15  2   
 31  14  16  1   
 32  16  17  2   
 33  16  18  1   
 34  17  19  1   
 35  18  20  2   
 36  18  42  1   
 37  19  20  1   
 38  20  21  1   
 39  21  22  ar  
 40  21  23  ar  
 41  22  24  ar  
 42  22  43  1   
 43  23  25  ar  
 44  23  44  1   
 45  24  26  ar  
 46  24  45  1   
 47  25  26  ar  
 48  25  46  1   
 49  26  47  1   
@<TRIPOS>SUBSTRUCTURE
  1 ****  14 GROUP 4 **** **** 0

# MOE 2024.06 (io_trps.svl 2023.06)
