@<TRIPOS>MOLECULE
NONAME
50 53 1 0 0 
SMALL
USER_CHARGES


@<TRIPOS>ATOM
  1 O       -0.8360     1.0310     1.8600 O.3   1 <1>  -0.5600 
  2 C       -0.1340     1.1830     0.6730 C.3   1 <1>   0.1200 
  3 C       -2.2070     1.0460     1.5880 C.3   1 <1>   0.1200 
  4 C       -0.9430     2.2480    -0.0600 C.3   1 <1>   0.4230 
  5 C       -2.3640     1.7810     0.2420 C.3   1 <1>  -0.0800 
  6 N       -0.7290     3.5550     0.6190 N.4   1 <1>  -0.9060 
  7 C       -2.9100     0.8510    -0.8620 C.3   1 <1>  -0.0170 
  8 C        0.5440     4.2300     0.3130 C.3   1 <1>   0.4230 
  9 C       -4.3470     0.4390    -0.5610 C.ar  1 <1>  -0.1440 
 10 C        0.7440     5.3550     1.3330 C.3   1 <1>  -0.1600 
 11 C        0.5130     4.7810    -1.1200 C.3   1 <1>  -0.1600 
 12 C       -5.4450     1.3130    -0.7520 C.ar  1 <1>   0.0000 
 13 C       -4.6140    -0.8100    -0.0790 C.ar  1 <1>  -0.1500 
 14 C        2.0190     6.1560     1.0300 C.3   1 <1>  -0.1600 
 15 C        1.7860     5.5830    -1.4290 C.3   1 <1>  -0.1600 
 16 C       -6.7290     0.8460    -0.3810 C.ar  1 <1>   0.3100 
 17 C       -5.3490     2.6180    -1.2920 C.ar  1 <1>  -0.1500 
 18 C       -5.9260    -1.1800     0.2380 C.ar  1 <1>   0.1600 
 19 C        2.0010     6.7030    -0.4030 C.3   1 <1>  -0.1600 
 20 N       -6.9500    -0.3990     0.1100 N.ar  1 <1>  -0.6200 
 21 C       -7.8340     1.7000    -0.5270 C.ar  1 <1>  -0.1500 
 22 C       -6.4470     3.4240    -1.4270 C.ar  1 <1>  -0.1500 
 23 C       -7.7050     2.9630    -1.0350 C.ar  1 <1>  -0.1500 
 24 H        0.8800     1.4710     0.8840 H     1 <1>   0.0800 
 25 H       -0.1450     0.2430     0.1490 H     1 <1>   0.0800 
 26 H       -2.5530     0.0270     1.5490 H     1 <1>   0.0800 
 27 H       -2.7090     1.5590     2.3910 H     1 <1>   0.0800 
 28 H       -0.7300     2.3010    -1.1150 H     1 <1>   0.0800 
 29 H       -3.0380     2.6110     0.3520 H     1 <1>   0.0800 
 30 H       -1.5040     4.1970     0.4360 H     1 <1>   0.4500 
 31 H       -0.7460     3.3340     1.6270 H     1 <1>   0.4500 
 32 H       -2.2980    -0.0320    -0.9400 H     1 <1>   0.0800 
 33 H       -2.8770     1.3370    -1.8210 H     1 <1>   0.0800 
 34 H        1.3640     3.5360     0.4060 H     1 <1>   0.0800 
 35 H       -0.0950     6.0290     1.3100 H     1 <1>   0.0800 
 36 H        0.8270     4.9420     2.3230 H     1 <1>   0.0800 
 37 H        0.4430     3.9780    -1.8310 H     1 <1>   0.0800 
 38 H       -0.3360     5.4290    -1.2460 H     1 <1>   0.0800 
 39 H       -3.8400    -1.5400     0.0770 H     1 <1>   0.1500 
 40 H        2.1060     6.9760     1.7240 H     1 <1>   0.0800 
 41 H        2.8840     5.5270     1.1610 H     1 <1>   0.0800 
 42 H        2.6410     4.9280    -1.4240 H     1 <1>   0.0800 
 43 H        1.7140     6.0140    -2.4150 H     1 <1>   0.0800 
 44 H       -4.3980     2.9920    -1.6150 H     1 <1>   0.1500 
 45 H       -6.0940    -2.1740     0.6170 H     1 <1>   0.1500 
 46 H        2.9340     7.2020    -0.6070 H     1 <1>   0.0800 
 47 H        1.2170     7.4350    -0.4990 H     1 <1>   0.0800 
 48 H       -8.7930     1.3220    -0.2250 H     1 <1>   0.1500 
 49 H       -6.3640     4.4150    -1.8380 H     1 <1>   0.1500 
 50 H       -8.5630     3.6060    -1.1420 H     1 <1>   0.1500 
@<TRIPOS>BOND
  1   1   2  1   
  2   1   3  1   
  3   2   4  1   
  4   2  24  1   
  5   2  25  1   
  6   3   5  1   
  7   3  26  1   
  8   3  27  1   
  9   4   5  1   
 10   4   6  1   
 11   4  28  1   
 12   5   7  1   
 13   5  29  1   
 14   6   8  1   
 15   6  30  1   
 16   6  31  1   
 17   7   9  1   
 18   7  32  1   
 19   7  33  1   
 20   8  10  1   
 21   8  11  1   
 22   8  34  1   
 23   9  12  ar  
 24   9  13  ar  
 25  10  14  1   
 26  10  35  1   
 27  10  36  1   
 28  11  15  1   
 29  11  37  1   
 30  11  38  1   
 31  12  16  ar  
 32  12  17  ar  
 33  13  18  ar  
 34  13  39  1   
 35  14  19  1   
 36  14  40  1   
 37  14  41  1   
 38  15  19  1   
 39  15  42  1   
 40  15  43  1   
 41  16  20  ar  
 42  16  21  ar  
 43  17  22  ar  
 44  17  44  1   
 45  18  20  ar  
 46  18  45  1   
 47  19  46  1   
 48  19  47  1   
 49  21  23  ar  
 50  21  48  1   
 51  22  23  ar  
 52  22  49  1   
 53  23  50  1   
@<TRIPOS>SUBSTRUCTURE
  1 ****   5 GROUP 4 **** **** 0

# MOE 2024.06 (io_trps.svl 2023.06)
