@<TRIPOS>MOLECULE
NONAME
46 48 1 0 0 
SMALL
USER_CHARGES


@<TRIPOS>ATOM
  1 F        0.5730     1.8120    -1.2880 F     1 <1>  -0.1900 
  2 C        1.5560     1.8720    -0.4260 C.ar  1 <1>   0.1900 
  3 C        2.0270     0.7300     0.2300 C.ar  1 <1>   0.0830 
  4 C        2.1000     3.1220    -0.2070 C.ar  1 <1>  -0.1500 
  5 O        1.5750    -0.5450     0.0940 O.3   1 <1>  -0.3630 
  6 C        3.0720     0.9010     1.1240 C.ar  1 <1>  -0.1500 
  7 C        3.1600     3.2920     0.6850 C.ar  1 <1>   0.0860 
  8 C        0.4890    -0.9010    -0.7330 C.3   1 <1>   0.0400 
  9 C        3.6230     2.1510     1.3480 C.ar  1 <1>  -0.1500 
 10 C        3.7470     4.6010     0.9110 C.2   1 <1>   0.5440 
 11 O        3.1120     5.6200     0.7040 O.2   1 <1>  -0.5700 
 12 N        5.0530     4.7620     1.3080 N.am  1 <1>  -0.6600 
 13 C        5.4230     5.8820     2.2520 C.3   1 <1>   0.1400 
 14 C        6.1640     4.1270     0.5340 C.3   1 <1>   0.1400 
 15 C        5.9870     7.1330     1.5320 C.3   1 <1>   0.4230 
 16 C        7.0030     5.1090    -0.3250 C.3   1 <1>  -0.0800 
 17 N        5.4730     7.1290     0.1140 N.4   1 <1>  -0.9590 
 18 C        7.5270     7.2260     1.7000 C.3   1 <1>   0.1200 
 19 C        8.3370     5.4890     0.3360 C.3   1 <1>   0.1200 
 20 C        6.2950     6.3650    -0.8720 C.3   1 <1>   0.3430 
 21 C        5.2390     8.5480    -0.3860 C.3   1 <1>   0.2370 
 22 O        8.1420     5.9700     1.6200 O.3   1 <1>  -0.5600 
 23 C        6.4870     9.4320    -0.4030 C.2   1 <1>   0.9060 
 24 O        7.2740     9.3060    -1.3460 O.co2 1 <1>  -0.9000 
 25 O        6.7320    10.0960     0.6080 O.co2 1 <1>  -0.9000 
 26 H        1.6990     3.9710    -0.7310 H     1 <1>   0.1500 
 27 H        3.4500     0.0400     1.6490 H     1 <1>   0.1500 
 28 H        0.3280    -1.9590    -0.6360 H     1 <1>   0.0800 
 29 H        0.7310    -0.6620    -1.7530 H     1 <1>   0.0800 
 30 H       -0.3880    -0.3680    -0.4090 H     1 <1>   0.0800 
 31 H        4.4260     2.2460     2.0580 H     1 <1>   0.1500 
 32 H        4.5410     6.1830     2.7910 H     1 <1>   0.0800 
 33 H        6.1220     5.5200     2.9860 H     1 <1>   0.0800 
 34 H        6.8090     3.6030     1.2200 H     1 <1>   0.0800 
 35 H        5.7420     3.3870    -0.1260 H     1 <1>   0.0800 
 36 H        5.5830     8.0030     2.0230 H     1 <1>   0.0800 
 37 H        7.2980     4.5560    -1.1980 H     1 <1>   0.0800 
 38 H        4.5590     6.6390     0.1910 H     1 <1>   0.4500 
 39 H        7.7350     7.6020     2.6860 H     1 <1>   0.0800 
 40 H        7.9850     7.9000     0.9980 H     1 <1>   0.0800 
 41 H        8.8720     6.2290    -0.2380 H     1 <1>   0.0800 
 42 H        8.9630     4.6170     0.4230 H     1 <1>   0.0800 
 43 H        5.6560     6.0740    -1.6880 H     1 <1>   0.0800 
 44 H        7.0500     7.0190    -1.2800 H     1 <1>   0.0800 
 45 H        4.8510     8.5220    -1.3870 H     1 <1>   0.0800 
 46 H        4.5170     9.0370     0.2430 H     1 <1>   0.0800 
@<TRIPOS>BOND
  1   1   2  1   
  2   2   3  ar  
  3   2   4  ar  
  4   3   5  1   
  5   3   6  ar  
  6   4   7  ar  
  7   4  26  1   
  8   5   8  1   
  9   6   9  ar  
 10   6  27  1   
 11   7   9  ar  
 12   7  10  1   
 13   8  28  1   
 14   8  29  1   
 15   8  30  1   
 16   9  31  1   
 17  10  11  2   
 18  10  12  am  
 19  12  13  1   
 20  12  14  1   
 21  13  15  1   
 22  13  32  1   
 23  13  33  1   
 24  14  16  1   
 25  14  34  1   
 26  14  35  1   
 27  15  17  1   
 28  15  18  1   
 29  15  36  1   
 30  16  19  1   
 31  16  20  1   
 32  16  37  1   
 33  17  20  1   
 34  17  21  1   
 35  17  38  1   
 36  18  22  1   
 37  18  39  1   
 38  18  40  1   
 39  19  22  1   
 40  19  41  1   
 41  19  42  1   
 42  20  43  1   
 43  20  44  1   
 44  21  23  1   
 45  21  45  1   
 46  21  46  1   
 47  23  24  ar  
 48  23  25  ar  
@<TRIPOS>SUBSTRUCTURE
  1 ****  12 GROUP 4 **** **** 0

# MOE 2024.06 (io_trps.svl 2023.06)
