@<TRIPOS>MOLECULE
NONAME
37 39 1 0 0 
SMALL
USER_CHARGES


@<TRIPOS>ATOM
  1 CL      -0.2690     1.2720    -0.2180 Cl    1 <1>  -0.1770 
  2 C        1.3680     1.8730    -0.0850 C.ar  1 <1>   0.1770 
  3 C        2.4240     1.1350    -0.5900 C.ar  1 <1>   0.1600 
  4 C        1.6000     3.0860     0.5260 C.ar  1 <1>  -0.1500 
  5 N        3.6950     1.5120    -0.5350 N.ar  1 <1>  -0.6200 
  6 C        2.9160     3.4850     0.5890 C.ar  1 <1>  -0.1500 
  7 C        3.9250     2.6840     0.0530 C.ar  1 <1>   0.4100 
  8 N        5.2330     3.1180     0.1170 N.pl3 1 <1>  -0.8380 
  9 C        5.6120     4.2360    -0.7900 C.3   1 <1>   0.2090 
 10 C        6.3070     2.0990     0.2600 C.3   1 <1>   0.2090 
 11 C        6.8510     4.9550    -0.2370 C.3   1 <1>  -0.0190 
 12 C        7.5720     2.7640     0.8120 C.3   1 <1>  -0.1600 
 13 C        7.2610     6.1190    -1.1440 C.2   1 <1>   0.4230 
 14 C        8.0140     3.9590    -0.0490 C.3   1 <1>  -0.1600 
 15 O        7.0460     6.0050    -2.3280 O.2   1 <1>  -0.5700 
 16 C        7.8930     7.2990    -0.5670 C.ar  1 <1>   0.3960 
 17 N        8.1600     7.3400     0.7500 N.ar  1 <1>  -0.6200 
 18 C        8.2170     8.3760    -1.3980 C.ar  1 <1>  -0.1500 
 19 C        8.7340     8.4320     1.2200 C.ar  1 <1>   0.1600 
 20 C        8.8160     9.5110    -0.8980 C.ar  1 <1>  -0.1500 
 21 C        9.0780     9.5300     0.4530 C.ar  1 <1>  -0.1500 
 22 H        2.2100     0.1930    -1.0600 H     1 <1>   0.1500 
 23 H        0.7950     3.6740     0.9280 H     1 <1>   0.1500 
 24 H        3.1910     4.4130     1.0540 H     1 <1>   0.1500 
 25 H        4.7960     4.9320    -0.8790 H     1 <1>   0.0800 
 26 H        5.8200     3.8370    -1.7700 H     1 <1>   0.0800 
 27 H        6.5070     1.6560    -0.7020 H     1 <1>   0.0800 
 28 H        5.9790     1.3210     0.9290 H     1 <1>   0.0800 
 29 H        6.5710     5.3460     0.7240 H     1 <1>   0.0800 
 30 H        8.3630     2.0370     0.8560 H     1 <1>   0.0800 
 31 H        7.3730     3.0950     1.8160 H     1 <1>   0.0800 
 32 H        8.8460     4.4540     0.4210 H     1 <1>   0.0800 
 33 H        8.3360     3.6040    -1.0130 H     1 <1>   0.0800 
 34 H        7.9930     8.3140    -2.4480 H     1 <1>   0.1500 
 35 H        8.9440     8.4570     2.2760 H     1 <1>   0.1500 
 36 H        9.0670    10.3430    -1.5330 H     1 <1>   0.1500 
 37 H        9.5440    10.3850     0.9100 H     1 <1>   0.1500 
@<TRIPOS>BOND
  1   1   2  1   
  2   2   3  ar  
  3   2   4  ar  
  4   3   5  ar  
  5   3  22  1   
  6   4   6  ar  
  7   4  23  1   
  8   5   7  ar  
  9   6   7  ar  
 10   6  24  1   
 11   7   8  1   
 12   8   9  1   
 13   8  10  1   
 14   9  11  1   
 15   9  25  1   
 16   9  26  1   
 17  10  12  1   
 18  10  27  1   
 19  10  28  1   
 20  11  13  1   
 21  11  14  1   
 22  11  29  1   
 23  12  14  1   
 24  12  30  1   
 25  12  31  1   
 26  13  15  2   
 27  13  16  1   
 28  14  32  1   
 29  14  33  1   
 30  16  17  ar  
 31  16  18  ar  
 32  17  19  ar  
 33  18  20  ar  
 34  18  34  1   
 35  19  21  ar  
 36  19  35  1   
 37  20  21  ar  
 38  20  36  1   
 39  21  37  1   
@<TRIPOS>SUBSTRUCTURE
  1 ****   9 GROUP 4 **** **** 0

# MOE 2024.06 (io_trps.svl 2023.06)
