@<TRIPOS>MOLECULE
NONAME
50 53 1 0 0 
SMALL
USER_CHARGES


@<TRIPOS>ATOM
  1 F        0.4240     0.9230    -1.4440 F     1 <1>  -0.1900 
  2 C        1.6180     1.3750    -1.1210 C.ar  1 <1>   0.1900 
  3 C        2.6540     0.5130    -0.7690 C.ar  1 <1>   0.4100 
  4 C        1.8460     2.7230    -1.1320 C.ar  1 <1>   0.1600 
  5 N        3.8370     1.0070    -0.4530 N.ar  1 <1>  -0.6200 
  6 N        2.5120    -0.8690    -0.7180 N.pl3 1 <1>  -0.8380 
  7 N        3.0250     3.2240    -0.8140 N.ar  1 <1>  -0.6200 
  8 C        3.9510     2.3230    -0.4980 C.ar  1 <1>   0.7200 
  9 C        1.5290    -1.4610     0.2370 C.3   1 <1>   0.2090 
 10 C        3.6890    -1.7630    -0.9430 C.3   1 <1>   0.2090 
 11 N        5.1840     2.7710    -0.1680 N.pl3 1 <1>  -0.8690 
 12 C        2.2370    -1.9620     1.5110 C.3   1 <1>   0.1200 
 13 C        4.2780    -2.2430     0.3960 C.3   1 <1>   0.1200 
 14 C        5.4200     4.1060     0.4460 C.3   1 <1>   0.2090 
 15 O        3.2900    -2.8310     1.1970 O.3   1 <1>  -0.5600 
 16 C        5.6840     5.1640    -0.6300 C.3   1 <1>   0.2090 
 17 N        5.9350     6.4920     0.0110 N.pl3 1 <1>  -0.8380 
 18 C        7.2330     7.0390     0.0190 C.ar  1 <1>   0.1000 
 19 C        4.7410     7.3830    -0.0190 C.3   1 <1>   0.2090 
 20 C        7.4400     8.4220    -0.0360 C.ar  1 <1>  -0.1430 
 21 C        8.3570     6.2180     0.1040 C.ar  1 <1>  -0.1500 
 22 C        5.0510     8.7410     0.6040 C.3   1 <1>  -0.1600 
 23 C        8.7230     8.9440    -0.0370 C.ar  1 <1>  -0.1500 
 24 C        6.2570     9.3730    -0.0910 C.3   1 <1>  -0.0170 
 25 C        9.6360     6.7410     0.1040 C.ar  1 <1>  -0.1500 
 26 C        9.8220     8.1080     0.0290 C.ar  1 <1>  -0.1500 
 27 H        1.0560     3.3990    -1.4040 H     1 <1>   0.1500 
 28 H        1.0250    -2.2850    -0.2380 H     1 <1>   0.0800 
 29 H        0.7870    -0.7320     0.5100 H     1 <1>   0.0800 
 30 H        4.4460    -1.2480    -1.5080 H     1 <1>   0.0800 
 31 H        3.3780    -2.6180    -1.5180 H     1 <1>   0.0800 
 32 H        5.7580     2.0150     0.2020 H     1 <1>   0.4000 
 33 H        1.5430    -2.4970     2.1340 H     1 <1>   0.0800 
 34 H        2.6330    -1.1310     2.0680 H     1 <1>   0.0800 
 35 H        4.7090    -1.4150     0.9300 H     1 <1>   0.0800 
 36 H        5.0420    -2.9790     0.2220 H     1 <1>   0.0800 
 37 H        6.2700     4.0500     1.1020 H     1 <1>   0.0800 
 38 H        4.5610     4.3970     1.0240 H     1 <1>   0.0800 
 39 H        4.8300     5.2260    -1.2820 H     1 <1>   0.0800 
 40 H        6.5300     4.8730    -1.2270 H     1 <1>   0.0800 
 41 H        3.9360     6.9160     0.5230 H     1 <1>   0.0800 
 42 H        4.4300     7.5190    -1.0410 H     1 <1>   0.0800 
 43 H        8.2360     5.1560     0.1780 H     1 <1>   0.1500 
 44 H        5.2650     8.6050     1.6490 H     1 <1>   0.0800 
 45 H        4.1950     9.3850     0.5140 H     1 <1>   0.0800 
 46 H        8.8730    10.0070    -0.0880 H     1 <1>   0.1500 
 47 H        6.0210     9.5750    -1.1210 H     1 <1>   0.0800 
 48 H        6.5030    10.3010     0.3920 H     1 <1>   0.0800 
 49 H       10.4860     6.0840     0.1650 H     1 <1>   0.1500 
 50 H       10.8160     8.5200     0.0270 H     1 <1>   0.1500 
@<TRIPOS>BOND
  1   1   2  1   
  2   2   3  ar  
  3   2   4  ar  
  4   3   5  ar  
  5   3   6  1   
  6   4   7  ar  
  7   4  27  1   
  8   5   8  ar  
  9   6   9  1   
 10   6  10  1   
 11   7   8  ar  
 12   8  11  1   
 13   9  12  1   
 14   9  28  1   
 15   9  29  1   
 16  10  13  1   
 17  10  30  1   
 18  10  31  1   
 19  11  14  1   
 20  11  32  1   
 21  12  15  1   
 22  12  33  1   
 23  12  34  1   
 24  13  15  1   
 25  13  35  1   
 26  13  36  1   
 27  14  16  1   
 28  14  37  1   
 29  14  38  1   
 30  16  17  1   
 31  16  39  1   
 32  16  40  1   
 33  17  18  1   
 34  17  19  1   
 35  18  20  ar  
 36  18  21  ar  
 37  19  22  1   
 38  19  41  1   
 39  19  42  1   
 40  20  23  ar  
 41  20  24  1   
 42  21  25  ar  
 43  21  43  1   
 44  22  24  1   
 45  22  44  1   
 46  22  45  1   
 47  23  26  ar  
 48  23  46  1   
 49  24  47  1   
 50  24  48  1   
 51  25  26  ar  
 52  25  49  1   
 53  26  50  1   
@<TRIPOS>SUBSTRUCTURE
  1 ****  11 GROUP 4 **** **** 0

# MOE 2024.06 (io_trps.svl 2023.06)
