@<TRIPOS>MOLECULE
NONAME
47 50 1 0 0 
SMALL
USER_CHARGES


@<TRIPOS>ATOM
  1 O        0.9700     0.6990     1.8260 O.3   1 <1>  -0.6800 
  2 C        1.2440    -0.0280     0.6730 C.3   1 <1>   0.2000 
  3 C        1.4850    -1.4820     1.0810 C.3   1 <1>  -0.0800 
  4 C        2.6060     0.4330     0.1230 C.3   1 <1>   0.3430 
  5 C        2.9120    -1.3960     1.6340 C.3   1 <1>   0.3430 
  6 C        1.3270    -2.4340    -0.1380 C.3   1 <1>  -0.0160 
  7 N        3.6160    -0.5140     0.6810 N.4   1 <1>  -0.9590 
  8 C        2.4490    -3.4510    -0.2890 C.ar  1 <1>   0.1670 
  9 C        4.8440     0.1430     1.1900 C.3   1 <1>   0.5240 
 10 N        3.5560    -3.0220    -0.8170 N.ar  1 <1>  -0.6200 
 11 C        2.2530    -4.7710     0.1460 C.ar  1 <1>  -0.1500 
 12 C        5.5270     0.8670     0.0350 C.2   1 <1>   0.0460 
 13 C        4.5750    -3.9100    -0.9620 C.ar  1 <1>   0.3100 
 14 C        3.2600    -5.6790     0.0210 C.ar  1 <1>  -0.1500 
 15 N        5.7420     0.2220    -1.1310 N.2   1 <1>  -0.5650 
 16 C        5.9730     2.1440    -0.0300 C.2   1 <1>  -0.3320 
 17 C        4.4730    -5.2560    -0.5480 C.ar  1 <1>   0.0000 
 18 C        5.7810    -3.4740    -1.5340 C.ar  1 <1>  -0.1500 
 19 C        6.3210     1.1080    -1.8740 C.2   1 <1>   0.0360 
 20 N        6.4910     2.2980    -1.2650 N.pl3 1 <1>   0.0330 
 21 C        5.9610     3.2680     0.9930 C.3   1 <1>  -0.0600 
 22 C        5.5810    -6.1100    -0.7190 C.ar  1 <1>  -0.1500 
 23 C        6.8460    -4.3200    -1.6900 C.ar  1 <1>  -0.1500 
 24 C        6.7440    -5.6530    -1.2770 C.ar  1 <1>  -0.1500 
 25 H        0.0360     0.5890     2.1030 H     1 <1>   0.4000 
 26 H        0.4400     0.1190    -0.0290 H     1 <1>   0.0800 
 27 H        0.8090    -1.7980     1.8570 H     1 <1>   0.0800 
 28 H        2.8040     1.4490     0.4220 H     1 <1>   0.0800 
 29 H        2.6190     0.3690    -0.9520 H     1 <1>   0.0800 
 30 H        3.3850    -2.3620     1.7080 H     1 <1>   0.0800 
 31 H        2.8850    -0.9320     2.6070 H     1 <1>   0.0800 
 32 H        1.2930    -1.8700    -1.0550 H     1 <1>   0.0800 
 33 H        0.3840    -2.9470    -0.0670 H     1 <1>   0.0800 
 34 H        3.9350    -1.1140    -0.1110 H     1 <1>   0.4500 
 35 H        4.6000     0.8410     1.9720 H     1 <1>   0.0800 
 36 H        5.5190    -0.6010     1.5790 H     1 <1>   0.0800 
 37 H        1.3080    -5.0580     0.5720 H     1 <1>   0.1500 
 38 H        3.1500    -6.7000     0.3400 H     1 <1>   0.1500 
 39 H        5.8460    -2.4490    -1.8500 H     1 <1>   0.1500 
 40 H        6.6450     0.9340    -2.8870 H     1 <1>   0.1500 
 41 H        6.9290     3.1350    -1.6640 H     1 <1>   0.2700 
 42 H        5.5050     2.9490     1.9130 H     1 <1>   0.0800 
 43 H        5.4090     4.1110     0.6150 H     1 <1>   0.0800 
 44 H        6.9680     3.5850     1.2060 H     1 <1>   0.0800 
 45 H        5.4980    -7.1350    -0.4030 H     1 <1>   0.1500 
 46 H        7.7670    -3.9740    -2.1300 H     1 <1>   0.1500 
 47 H        7.5900    -6.3070    -1.4080 H     1 <1>   0.1500 
@<TRIPOS>BOND
  1   1   2  1   
  2   1  25  1   
  3   2   3  1   
  4   2   4  1   
  5   2  26  1   
  6   3   5  1   
  7   3   6  1   
  8   3  27  1   
  9   4   7  1   
 10   4  28  1   
 11   4  29  1   
 12   5   7  1   
 13   5  30  1   
 14   5  31  1   
 15   6   8  1   
 16   6  32  1   
 17   6  33  1   
 18   7   9  1   
 19   7  34  1   
 20   8  10  ar  
 21   8  11  ar  
 22   9  12  1   
 23   9  35  1   
 24   9  36  1   
 25  10  13  ar  
 26  11  14  ar  
 27  11  37  1   
 28  12  15  1   
 29  12  16  2   
 30  13  17  ar  
 31  13  18  ar  
 32  14  17  ar  
 33  14  38  1   
 34  15  19  2   
 35  16  20  1   
 36  16  21  1   
 37  17  22  ar  
 38  18  23  ar  
 39  18  39  1   
 40  19  20  1   
 41  19  40  1   
 42  20  41  1   
 43  21  42  1   
 44  21  43  1   
 45  21  44  1   
 46  22  24  ar  
 47  22  45  1   
 48  23  24  ar  
 49  23  46  1   
 50  24  47  1   
@<TRIPOS>SUBSTRUCTURE
  1 ****   7 GROUP 4 **** **** 0

# MOE 2024.06 (io_trps.svl 2023.06)
