@<TRIPOS>MOLECULE
NONAME
48 50 1 0 0 
SMALL
USER_CHARGES


@<TRIPOS>ATOM
  1 O       -1.4430     0.2220     2.4720 O.2   1 <1>  -0.5700 
  2 C       -1.5440     0.5770     1.3200 C.2   1 <1>   0.5690 
  3 N       -1.7770    -0.3420     0.3230 N.am  1 <1>  -0.6600 
  4 C       -1.4120     2.0860     1.0690 C.3   1 <1>  -0.0190 
  5 C       -1.9630    -1.7860     0.6700 C.3   1 <1>   0.2840 
  6 C       -2.0310    -0.0560    -1.1200 C.3   1 <1>   0.0600 
  7 C       -2.7130     2.7390     0.5540 C.3   1 <1>  -0.1600 
  8 C       -0.1630     2.4640     0.2340 C.3   1 <1>  -0.1600 
  9 C       -3.4380    -2.1720     0.6320 C.ar  1 <1>   0.1660 
 10 C       -2.6060     4.2730     0.5060 C.3   1 <1>   0.2000 
 11 C       -0.3520     3.7440    -0.6010 C.3   1 <1>  -0.1600 
 12 N       -3.8690    -2.8700    -0.3790 N.ar  1 <1>  -0.6200 
 13 C       -4.2600    -1.7490     1.6890 C.ar  1 <1>  -0.1500 
 14 O       -3.5240     4.7050    -0.4670 O.3   1 <1>  -0.5600 
 15 C       -1.1770     4.7820     0.1640 C.3   1 <1>   0.2000 
 16 C       -5.1860    -3.2030    -0.3990 C.ar  1 <1>   0.3100 
 17 C       -5.5830    -2.0690     1.6930 C.ar  1 <1>  -0.1500 
 18 C       -4.4340     5.6650    -0.0290 C.3   1 <1>   0.0400 
 19 O       -1.2640     5.9120    -0.6240 O.3   1 <1>  -0.6800 
 20 C       -6.0860    -2.8230     0.6200 C.ar  1 <1>   0.0000 
 21 C       -5.6780    -3.9580    -1.4760 C.ar  1 <1>  -0.1500 
 22 C       -7.4380    -3.2100     0.5210 C.ar  1 <1>  -0.1500 
 23 C       -6.9950    -4.3260    -1.5540 C.ar  1 <1>  -0.1500 
 24 C       -7.8840    -3.9470    -0.5440 C.ar  1 <1>  -0.1500 
 25 H       -1.2510     2.5200     2.0420 H     1 <1>   0.0800 
 26 H       -1.4190    -2.3930    -0.0320 H     1 <1>   0.0800 
 27 H       -1.5690    -2.0000     1.6470 H     1 <1>   0.0800 
 28 H       -1.5380    -0.7940    -1.7300 H     1 <1>   0.0800 
 29 H       -1.6690     0.9110    -1.4090 H     1 <1>   0.0800 
 30 H       -3.0900    -0.1050    -1.3150 H     1 <1>   0.0800 
 31 H       -3.5300     2.4650     1.1970 H     1 <1>   0.0800 
 32 H       -2.9370     2.3800    -0.4330 H     1 <1>   0.0800 
 33 H        0.6600     2.6070     0.9130 H     1 <1>   0.0800 
 34 H        0.1230     1.6610    -0.4220 H     1 <1>   0.0800 
 35 H       -2.8830     4.6690     1.4690 H     1 <1>   0.0800 
 36 H       -0.8640     3.4990    -1.5150 H     1 <1>   0.0800 
 37 H        0.6110     4.1550    -0.8510 H     1 <1>   0.0800 
 38 H       -3.8230    -1.1700     2.4850 H     1 <1>   0.1500 
 39 H       -0.6550     5.0490     1.0670 H     1 <1>   0.0800 
 40 H       -6.2400    -1.7610     2.4860 H     1 <1>   0.1500 
 41 H       -5.0640     5.9350    -0.8580 H     1 <1>   0.0800 
 42 H       -3.8970     6.5320     0.3180 H     1 <1>   0.0800 
 43 H       -5.0340     5.2490     0.7620 H     1 <1>   0.0800 
 44 H       -2.0910     5.8090    -1.1460 H     1 <1>   0.4000 
 45 H       -4.9790    -4.2400    -2.2410 H     1 <1>   0.1500 
 46 H       -8.1160    -2.9160     1.3010 H     1 <1>   0.1500 
 47 H       -7.3590    -4.9050    -2.3860 H     1 <1>   0.1500 
 48 H       -8.9170    -4.2420    -0.6170 H     1 <1>   0.1500 
@<TRIPOS>BOND
  1   1   2  2   
  2   2   3  am  
  3   2   4  1   
  4   3   5  1   
  5   3   6  1   
  6   4   7  1   
  7   4   8  1   
  8   4  25  1   
  9   5   9  1   
 10   5  26  1   
 11   5  27  1   
 12   6  28  1   
 13   6  29  1   
 14   6  30  1   
 15   7  10  1   
 16   7  31  1   
 17   7  32  1   
 18   8  11  1   
 19   8  33  1   
 20   8  34  1   
 21   9  12  ar  
 22   9  13  ar  
 23  10  14  1   
 24  10  15  1   
 25  10  35  1   
 26  11  15  1   
 27  11  36  1   
 28  11  37  1   
 29  12  16  ar  
 30  13  17  ar  
 31  13  38  1   
 32  14  18  1   
 33  15  19  1   
 34  15  39  1   
 35  16  20  ar  
 36  16  21  ar  
 37  17  20  ar  
 38  17  40  1   
 39  18  41  1   
 40  18  42  1   
 41  18  43  1   
 42  19  44  1   
 43  20  22  ar  
 44  21  23  ar  
 45  21  45  1   
 46  22  24  ar  
 47  22  46  1   
 48  23  24  ar  
 49  23  47  1   
 50  24  48  1   
@<TRIPOS>SUBSTRUCTURE
  1 ****   3 GROUP 4 **** **** 0

# MOE 2024.06 (io_trps.svl 2023.06)
