@<TRIPOS>MOLECULE
NONAME
27 28 1 0 0 
SMALL
USER_CHARGES


@<TRIPOS>ATOM
  1 S        0.2100    -0.0680    -0.3450 S.3   1 <1>  -0.4600 
  2 C        1.3220    -1.4460    -0.0050 C.3   1 <1>   0.3700 
  3 C        1.4320     1.2540    -0.2690 C.3   1 <1>   0.0700 
  4 N        2.6590    -0.8250     0.0670 N.am  1 <1>  -0.6600 
  5 C        2.7630     0.5520    -0.5290 C.3   1 <1>   0.2810 
  6 C        3.6720    -1.3990     0.7840 C.2   1 <1>   0.5690 
  7 C        3.9440     1.3880    -0.0030 C.2   1 <1>   0.5690 
  8 O        3.5070    -2.4530     1.3540 O.2   1 <1>  -0.5700 
  9 C        5.0440    -0.6920     0.8910 C.3   1 <1>   0.2810 
 10 O        3.9710     2.5790    -0.1970 O.2   1 <1>  -0.5700 
 11 N        4.9550     0.7830     0.6630 N.am  1 <1>  -0.7300 
 12 C        6.0520    -1.2860    -0.1010 C.3   1 <1>  -0.1600 
 13 C        7.4580    -0.6580    -0.0100 C.3   1 <1>  -0.2660 
 14 C        8.4280    -1.3450    -0.9390 C.2   1 <1>   0.9060 
 15 O        9.1750    -2.2060    -0.4710 O.co2 1 <1>  -0.9000 
 16 O        8.4220    -1.0250    -2.1300 O.co2 1 <1>  -0.9000 
 17 H        1.2500    -2.1490    -0.8170 H     1 <1>   0.0800 
 18 H        1.0350    -1.8960     0.9310 H     1 <1>   0.0800 
 19 H        1.3950     1.6780     0.7190 H     1 <1>   0.0800 
 20 H        1.2020     1.9970    -1.0110 H     1 <1>   0.0800 
 21 H        2.8880     0.4450    -1.5910 H     1 <1>   0.0800 
 22 H        5.4100    -0.8560     1.8890 H     1 <1>   0.0800 
 23 H        5.8000     1.3240     0.8520 H     1 <1>   0.3700 
 24 H        5.6820    -1.1800    -1.1060 H     1 <1>   0.0800 
 25 H        6.1430    -2.3420     0.0940 H     1 <1>   0.0800 
 26 H        7.8440    -0.7410     0.9880 H     1 <1>   0.0800 
 27 H        7.4350     0.3780    -0.2900 H     1 <1>   0.0800 
@<TRIPOS>BOND
  1   1   2  1   
  2   1   3  1   
  3   2   4  1   
  4   2  17  1   
  5   2  18  1   
  6   3   5  1   
  7   3  19  1   
  8   3  20  1   
  9   4   5  1   
 10   4   6  am  
 11   5   7  1   
 12   5  21  1   
 13   6   8  2   
 14   6   9  1   
 15   7  10  2   
 16   7  11  am  
 17   9  11  1   
 18   9  12  1   
 19   9  22  1   
 20  11  23  1   
 21  12  13  1   
 22  12  24  1   
 23  12  25  1   
 24  13  14  1   
 25  13  26  1   
 26  13  27  1   
 27  14  15  ar  
 28  14  16  ar  
@<TRIPOS>SUBSTRUCTURE
  1 ****   9 GROUP 4 **** **** 0

# MOE 2024.06 (io_trps.svl 2023.06)
