@<TRIPOS>MOLECULE
NONAME
53 56 1 0 0 
SMALL
USER_CHARGES


@<TRIPOS>ATOM
  1 CL       0.9410     0.0790    -2.2630 Cl    1 <1>  -0.1770 
  2 C        1.9770    -0.9060    -1.2660 C.ar  1 <1>   0.1770 
  3 C        1.6990    -2.2330    -1.0960 C.ar  1 <1>  -0.1500 
  4 C        3.0790    -0.3120    -0.6610 C.ar  1 <1>  -0.1500 
  5 C        2.5050    -3.0480    -0.2750 C.ar  1 <1>   0.0000 
  6 C        3.9320    -1.0780     0.0980 C.ar  1 <1>  -0.1440 
  7 C        3.6710    -2.4560     0.2660 C.ar  1 <1>   0.3610 
  8 C        2.2300    -4.4350    -0.0160 C.ar  1 <1>   0.1000 
  9 C        5.1480    -0.4020     0.7310 C.3   1 <1>  -0.0960 
 10 N        4.5750    -3.2600     0.9220 N.ar  1 <1>  -0.1790 
 11 N        1.0410    -5.0320    -0.3070 N.pl3 1 <1>  -0.8380 
 12 C        3.2400    -5.1730     0.6080 C.ar  1 <1>  -0.1500 
 13 C        4.3870    -4.5830     1.0680 C.ar  1 <1>   0.2110 
 14 C        0.9110    -6.4180    -0.8680 C.3   1 <1>   0.2090 
 15 C       -0.2800    -4.3650    -0.0620 C.3   1 <1>   0.2090 
 16 C       -0.0090    -7.3210     0.0000 C.3   1 <1>   0.4230 
 17 C       -1.1260    -5.2470     0.8600 C.3   1 <1>  -0.1600 
 18 N       -0.1090    -8.7680    -0.4840 N.4   1 <1>  -0.9590 
 19 C       -1.3910    -6.6640     0.2830 C.3   1 <1>   0.0000 
 20 C       -1.2780    -9.5230     0.0800 C.3   1 <1>   0.3430 
 21 C       -0.0720    -8.9580    -1.9740 C.3   1 <1>   0.2630 
 22 C       -2.1470    -7.5000     1.3570 C.3   1 <1>  -0.1600 
 23 C       -2.2280    -6.5740    -1.0250 C.3   1 <1>   0.1200 
 24 C       -1.6850    -8.9670     1.4430 C.3   1 <1>  -0.1600 
 25 O       -3.3490    -5.7780    -0.8610 O.3   1 <1>  -0.6800 
 26 H        0.8560    -2.6470    -1.6150 H     1 <1>   0.1500 
 27 H        3.2370     0.7420    -0.8200 H     1 <1>   0.1500 
 28 H        5.1390     0.6560     0.5340 H     1 <1>   0.0800 
 29 H        6.0610    -0.7980     0.3220 H     1 <1>   0.0800 
 30 H        5.1450    -0.5290     1.7990 H     1 <1>   0.0800 
 31 H        5.4210    -2.8100     1.2780 H     1 <1>   0.4570 
 32 H        3.1030    -6.2250     0.7690 H     1 <1>   0.1500 
 33 H        5.1480    -5.1650     1.5640 H     1 <1>   0.1500 
 34 H        0.5070    -6.3260    -1.8610 H     1 <1>   0.0800 
 35 H        1.8830    -6.8680    -0.9540 H     1 <1>   0.0800 
 36 H       -0.1340    -3.4130     0.4200 H     1 <1>   0.0800 
 37 H       -0.7910    -4.1930    -0.9950 H     1 <1>   0.0800 
 38 H        0.4760    -7.3610     0.9610 H     1 <1>   0.0800 
 39 H       -0.6110    -5.3180     1.8020 H     1 <1>   0.0800 
 40 H       -2.0560    -4.7410     1.0560 H     1 <1>   0.0800 
 41 H        0.7250    -9.2410    -0.1060 H     1 <1>   0.4500 
 42 H       -2.1220    -9.4410    -0.5860 H     1 <1>   0.0800 
 43 H       -1.0310   -10.5690     0.1720 H     1 <1>   0.0800 
 44 H       -0.9100    -8.4680    -2.4400 H     1 <1>   0.0800 
 45 H       -0.1130   -10.0080    -2.2170 H     1 <1>   0.0800 
 46 H        0.8380    -8.5540    -2.3870 H     1 <1>   0.0800 
 47 H       -2.0210    -7.0660     2.3360 H     1 <1>   0.0800 
 48 H       -3.2060    -7.4780     1.1610 H     1 <1>   0.0800 
 49 H       -2.5680    -7.5410    -1.3480 H     1 <1>   0.0800 
 50 H       -1.6610    -6.1320    -1.8240 H     1 <1>   0.0800 
 51 H       -2.4860    -9.5640     1.8450 H     1 <1>   0.0800 
 52 H       -0.8560    -9.0570     2.1240 H     1 <1>   0.0800 
 53 H       -3.9890    -6.1590    -0.2270 H     1 <1>   0.4000 
@<TRIPOS>BOND
  1   1   2  1   
  2   2   3  ar  
  3   2   4  ar  
  4   3   5  ar  
  5   3  26  1   
  6   4   6  ar  
  7   4  27  1   
  8   5   7  ar  
  9   5   8  ar  
 10   6   7  ar  
 11   6   9  1   
 12   7  10  ar  
 13   8  11  1   
 14   8  12  ar  
 15   9  28  1   
 16   9  29  1   
 17   9  30  1   
 18  10  13  ar  
 19  10  31  1   
 20  11  14  1   
 21  11  15  1   
 22  12  13  ar  
 23  12  32  1   
 24  13  33  1   
 25  14  16  1   
 26  14  34  1   
 27  14  35  1   
 28  15  17  1   
 29  15  36  1   
 30  15  37  1   
 31  16  18  1   
 32  16  19  1   
 33  16  38  1   
 34  17  19  1   
 35  17  39  1   
 36  17  40  1   
 37  18  20  1   
 38  18  21  1   
 39  18  41  1   
 40  19  22  1   
 41  19  23  1   
 42  20  24  1   
 43  20  42  1   
 44  20  43  1   
 45  21  44  1   
 46  21  45  1   
 47  21  46  1   
 48  22  24  1   
 49  22  47  1   
 50  22  48  1   
 51  23  25  1   
 52  23  49  1   
 53  23  50  1   
 54  24  51  1   
 55  24  52  1   
 56  25  53  1   
@<TRIPOS>SUBSTRUCTURE
  1 ****  11 GROUP 4 **** **** 0

# MOE 2024.06 (io_trps.svl 2023.06)
