@<TRIPOS>MOLECULE
NONAME
47 49 1 0 0 
SMALL
USER_CHARGES


@<TRIPOS>ATOM
  1 S       -0.0880     0.5690    -0.1120 S.3   1 <1>  -0.3320 
  2 C       -0.0170     2.3400    -0.1470 C.ar  1 <1>   0.7720 
  3 C       -1.7930     0.1420    -0.6980 C.3   1 <1>  -0.0100 
  4 N        1.1590     2.8580     0.2490 N.ar  1 <1>  -0.1790 
  5 N       -1.0490     3.0140    -0.5320 N.ar  1 <1>  -0.6200 
  6 C        1.3540     4.1860     0.2720 C.ar  1 <1>   0.4610 
  7 C       -0.9020     4.3430    -0.5250 C.ar  1 <1>   0.4100 
  8 N        2.5700     4.6440     0.6840 N.pl3 1 <1>  -0.8690 
  9 C        0.2730     4.9530    -0.1340 C.ar  1 <1>  -0.1500 
 10 N       -1.9790     5.0250    -0.9240 N.pl3 1 <1>  -0.9000 
 11 C        3.0590     6.0460     0.8030 C.3   1 <1>   0.2890 
 12 C        2.2570     6.8180     1.8620 C.3   1 <1>  -0.1600 
 13 C        3.1160     6.7250    -0.5740 C.3   1 <1>  -0.1600 
 14 C        2.6780     8.2850     1.9020 C.3   1 <1>   0.2090 
 15 C        3.5060     8.1950    -0.4390 C.3   1 <1>   0.2090 
 16 N        2.5810     8.8240     0.5270 N.pl3 1 <1>  -0.8380 
 17 C        2.3340    10.1840     0.3560 C.ar  1 <1>   0.1000 
 18 C        1.4200    10.5970    -0.6040 C.ar  1 <1>  -0.1500 
 19 C        2.9850    11.1520     1.1140 C.ar  1 <1>  -0.1500 
 20 C        1.1500    11.9400    -0.8100 C.ar  1 <1>  -0.1430 
 21 C        2.7240    12.4950     0.9160 C.ar  1 <1>  -0.1500 
 22 C        1.8080    12.8890    -0.0440 C.ar  1 <1>  -0.1500 
 23 C        0.1480    12.3770    -1.8620 C.3   1 <1>  -0.0970 
 24 H       -1.8860    -0.9300    -0.6940 H     1 <1>   0.0800 
 25 H       -1.9150     0.5320    -1.6930 H     1 <1>   0.0800 
 26 H       -2.5020     0.5880    -0.0220 H     1 <1>   0.0800 
 27 H        1.8850     2.2080     0.5260 H     1 <1>   0.4570 
 28 H        3.3130     3.9970     0.9690 H     1 <1>   0.4000 
 29 H        0.3210     6.0220    -0.1540 H     1 <1>   0.1500 
 30 H       -2.0440     6.0460    -0.9690 H     1 <1>   0.4000 
 31 H       -2.8330     4.5330    -1.2050 H     1 <1>   0.4000 
 32 H        4.0740     6.0050     1.1630 H     1 <1>   0.0800 
 33 H        2.4230     6.3830     2.8310 H     1 <1>   0.0800 
 34 H        1.2050     6.7940     1.6620 H     1 <1>   0.0800 
 35 H        2.1700     6.6900    -1.0750 H     1 <1>   0.0800 
 36 H        3.8410     6.2290    -1.1930 H     1 <1>   0.0800 
 37 H        3.6900     8.3800     2.2590 H     1 <1>   0.0800 
 38 H        2.0270     8.8400     2.5580 H     1 <1>   0.0800 
 39 H        3.4320     8.6900    -1.3940 H     1 <1>   0.0800 
 40 H        4.5180     8.2910    -0.0840 H     1 <1>   0.0800 
 41 H        0.9200     9.8470    -1.1860 H     1 <1>   0.1500 
 42 H        3.7020    10.8530     1.8540 H     1 <1>   0.1500 
 43 H        3.2330    13.2350     1.5070 H     1 <1>   0.1500 
 44 H        1.6100    13.9360    -0.1940 H     1 <1>   0.1500 
 45 H       -0.4430    11.5440    -2.1960 H     1 <1>   0.0800 
 46 H        0.6660    12.7950    -2.7060 H     1 <1>   0.0800 
 47 H       -0.5130    13.1220    -1.4550 H     1 <1>   0.0800 
@<TRIPOS>BOND
  1   1   2  1   
  2   1   3  1   
  3   2   4  ar  
  4   2   5  ar  
  5   3  24  1   
  6   3  25  1   
  7   3  26  1   
  8   4   6  ar  
  9   4  27  1   
 10   5   7  ar  
 11   6   8  1   
 12   6   9  ar  
 13   7   9  ar  
 14   7  10  1   
 15   8  11  1   
 16   8  28  1   
 17   9  29  1   
 18  10  30  1   
 19  10  31  1   
 20  11  12  1   
 21  11  13  1   
 22  11  32  1   
 23  12  14  1   
 24  12  33  1   
 25  12  34  1   
 26  13  15  1   
 27  13  35  1   
 28  13  36  1   
 29  14  16  1   
 30  14  37  1   
 31  14  38  1   
 32  15  16  1   
 33  15  39  1   
 34  15  40  1   
 35  16  17  1   
 36  17  18  ar  
 37  17  19  ar  
 38  18  20  ar  
 39  18  41  1   
 40  19  21  ar  
 41  19  42  1   
 42  20  22  ar  
 43  20  23  1   
 44  21  22  ar  
 45  21  43  1   
 46  22  44  1   
 47  23  45  1   
 48  23  46  1   
 49  23  47  1   
@<TRIPOS>SUBSTRUCTURE
  1 ****  13 GROUP 4 **** **** 0

# MOE 2024.06 (io_trps.svl 2023.06)
