@<TRIPOS>MOLECULE
NONAME
50 51 1 0 0 
SMALL
USER_CHARGES


@<TRIPOS>ATOM
  1 S       -0.0280    -1.2250    -1.6290 S.3   1 <1>  -0.0800 
  2 C        0.2230     0.2770    -0.8230 C.2   1 <1>   0.4340 
  3 C       -0.7610    -1.7740    -0.1530 C.2   1 <1>   0.4420 
  4 S        1.0290     1.5630    -1.7640 S.3   1 <1>  -0.2860 
  5 N       -0.1990     0.3130     0.3750 N.2   1 <1>  -0.3380 
  6 N       -0.7670    -0.8710     0.7630 N.2   1 <1>  -0.3380 
  7 N       -1.2310    -3.0720    -0.1510 N.am  1 <1>  -0.4940 
  8 C        1.1500     2.9680    -0.5740 C.3   1 <1>   0.1500 
  9 C       -1.8410    -3.7660     0.8530 C.2   1 <1>   0.5690 
 10 C        1.2690     4.2500    -1.3950 C.3   1 <1>  -0.2400 
 11 C        2.3740     2.7290     0.3100 C.3   1 <1>  -0.2400 
 12 O       -2.0730    -3.3160     1.9430 O.2   1 <1>  -0.5700 
 13 C       -2.2660    -5.1880     0.5640 C.3   1 <1>  -0.0990 
 14 C       -3.7420    -5.2480     0.1410 C.3   1 <1>  -0.0990 
 15 C       -4.1270    -6.6540    -0.2550 C.2   1 <1>   0.5690 
 16 O       -3.7460    -7.0600    -1.3250 O.2   1 <1>  -0.5700 
 17 N       -4.8620    -7.3930     0.6170 N.am  1 <1>  -0.7300 
 18 C       -5.3230    -8.7900     0.4520 C.3   1 <1>   0.2200 
 19 C       -4.1130    -9.7240     0.2890 C.3   1 <1>  -0.1600 
 20 C       -6.3600    -8.8530    -0.6780 C.3   1 <1>  -0.1600 
 21 C       -4.4700   -11.1960     0.5480 C.3   1 <1>  -0.1600 
 22 C       -6.9360   -10.2530    -0.9460 C.3   1 <1>  -0.1600 
 23 C       -5.0030   -11.9580    -0.6760 C.3   1 <1>  -0.1600 
 24 C       -5.9220   -11.1800    -1.6310 C.3   1 <1>  -0.1600 
 25 H       -1.1070    -3.5740    -1.0250 H     1 <1>   0.3700 
 26 H        0.2440     2.9720     0.0100 H     1 <1>   0.0800 
 27 H        2.1480     4.2190    -2.0150 H     1 <1>   0.0800 
 28 H        1.3360     5.1010    -0.7420 H     1 <1>   0.0800 
 29 H        0.4040     4.3670    -2.0220 H     1 <1>   0.0800 
 30 H        3.2650     2.6650    -0.2890 H     1 <1>   0.0800 
 31 H        2.2580     1.8150     0.8650 H     1 <1>   0.0800 
 32 H        2.4850     3.5380     1.0100 H     1 <1>   0.0800 
 33 H       -2.1230    -5.7780     1.4520 H     1 <1>   0.0800 
 34 H       -1.6460    -5.6050    -0.2090 H     1 <1>   0.0800 
 35 H       -3.9080    -4.6060    -0.7040 H     1 <1>   0.0800 
 36 H       -4.3670    -4.9050     0.9460 H     1 <1>   0.0800 
 37 H       -5.1390    -6.9670     1.5010 H     1 <1>   0.3700 
 38 H       -5.8230    -9.0640     1.3650 H     1 <1>   0.0800 
 39 H       -3.3740    -9.4360     1.0150 H     1 <1>   0.0800 
 40 H       -3.6740    -9.6120    -0.6880 H     1 <1>   0.0800 
 41 H       -5.9250    -8.4780    -1.5880 H     1 <1>   0.0800 
 42 H       -7.1740    -8.2010    -0.4170 H     1 <1>   0.0800 
 43 H       -5.1890   -11.2560     1.3460 H     1 <1>   0.0800 
 44 H       -3.5870   -11.7080     0.8910 H     1 <1>   0.0800 
 45 H       -7.7740   -10.1350    -1.6120 H     1 <1>   0.0800 
 46 H       -7.3090   -10.6980    -0.0390 H     1 <1>   0.0800 
 47 H       -5.5290   -12.8270    -0.3210 H     1 <1>   0.0800 
 48 H       -4.1640   -12.3150    -1.2490 H     1 <1>   0.0800 
 49 H       -5.3200   -10.6070    -2.3160 H     1 <1>   0.0800 
 50 H       -6.4590   -11.8990    -2.2250 H     1 <1>   0.0800 
@<TRIPOS>BOND
  1   1   2  1   
  2   1   3  1   
  3   2   4  1   
  4   2   5  2   
  5   3   6  2   
  6   3   7  1   
  7   4   8  1   
  8   5   6  1   
  9   7   9  am  
 10   7  25  1   
 11   8  10  1   
 12   8  11  1   
 13   8  26  1   
 14   9  12  2   
 15   9  13  1   
 16  10  27  1   
 17  10  28  1   
 18  10  29  1   
 19  11  30  1   
 20  11  31  1   
 21  11  32  1   
 22  13  14  1   
 23  13  33  1   
 24  13  34  1   
 25  14  15  1   
 26  14  35  1   
 27  14  36  1   
 28  15  16  2   
 29  15  17  am  
 30  17  18  1   
 31  17  37  1   
 32  18  19  1   
 33  18  20  1   
 34  18  38  1   
 35  19  21  1   
 36  19  39  1   
 37  19  40  1   
 38  20  22  1   
 39  20  41  1   
 40  20  42  1   
 41  21  23  1   
 42  21  43  1   
 43  21  44  1   
 44  22  24  1   
 45  22  45  1   
 46  22  46  1   
 47  23  24  1   
 48  23  47  1   
 49  23  48  1   
 50  24  49  1   
 51  24  50  1   
@<TRIPOS>SUBSTRUCTURE
  1 ****  13 GROUP 4 **** **** 0

# MOE 2024.06 (io_trps.svl 2023.06)
