@<TRIPOS>MOLECULE
NONAME
49 50 1 0 0 
SMALL
USER_CHARGES


@<TRIPOS>ATOM
  1 S        1.5010    -1.5350     0.6100 S.o2  1 <1>   1.4470 
  2 O        0.7950    -1.7370     1.8540 O.2   1 <1>  -0.6500 
  3 O        2.6810    -2.3240     0.3340 O.2   1 <1>  -0.6500 
  4 N        0.4100    -1.8580    -0.6310 N.am  1 <1>  -0.9140 
  5 C        1.8570     0.2220     0.3830 C.ar  1 <1>  -0.0090 
  6 C       -0.4150    -3.0620    -0.5390 C.3   1 <1>   0.2760 
  7 C        0.8200     1.1460     0.2740 C.ar  1 <1>   0.0830 
  8 C        3.1650     0.6890     0.3310 C.ar  1 <1>  -0.1500 
  9 C       -1.6230    -2.8770     0.3860 C.3   1 <1>  -0.0800 
 10 C        0.2460    -4.3560    -0.0440 C.3   1 <1>   0.1200 
 11 O       -0.4550     0.6760     0.3200 O.3   1 <1>  -0.3630 
 12 C        1.0990     2.5010     0.1170 C.ar  1 <1>  -0.1500 
 13 C        3.4400     2.0360     0.1770 C.ar  1 <1>  -0.1500 
 14 C       -1.4940    -4.0580     1.3520 C.3   1 <1>   0.1200 
 15 C       -2.9410    -2.9260    -0.4100 C.3   1 <1>  -0.0550 
 16 O       -0.7640    -5.0110     0.6530 O.3   1 <1>  -0.5600 
 17 C       -1.5410     1.5200     0.6460 C.3   1 <1>   0.0400 
 18 C        2.4070     2.9490     0.0710 C.ar  1 <1>  -0.1430 
 19 S       -4.3570    -2.3270     0.5120 S.o2  1 <1>   1.3330 
 20 C        2.7160     4.4260    -0.1010 C.3   1 <1>  -0.0960 
 21 O       -4.6070    -3.1830     1.6490 O.2   1 <1>  -0.6500 
 22 O       -4.1710    -0.9070     0.7090 O.2   1 <1>  -0.6500 
 23 N       -5.6340    -2.5410    -0.5860 N.am  1 <1>  -0.8490 
 24 C       -6.7330    -1.6000    -0.3480 C.3   1 <1>   0.1160 
 25 C       -6.1570    -3.9130    -0.6080 C.3   1 <1>   0.1160 
 26 H       -0.2380    -1.0680    -0.5650 H     1 <1>   0.4200 
 27 H       -0.7710    -3.2690    -1.5340 H     1 <1>   0.0800 
 28 H        3.9810    -0.0110     0.4130 H     1 <1>   0.1500 
 29 H       -1.5760    -1.9550     0.9380 H     1 <1>   0.0800 
 30 H        1.0540    -4.1930     0.6450 H     1 <1>   0.0800 
 31 H        0.5720    -4.9810    -0.8560 H     1 <1>   0.0800 
 32 H        0.3050     3.2170     0.0230 H     1 <1>   0.1500 
 33 H        4.4640     2.3680     0.1390 H     1 <1>   0.1500 
 34 H       -2.4350    -4.4840     1.6530 H     1 <1>   0.0800 
 35 H       -0.9270    -3.7800     2.2260 H     1 <1>   0.0800 
 36 H       -3.1160    -3.9320    -0.7380 H     1 <1>   0.0800 
 37 H       -2.8400    -2.3120    -1.2840 H     1 <1>   0.0800 
 38 H       -2.4090     0.9060     0.8080 H     1 <1>   0.0800 
 39 H       -1.7230     2.1940    -0.1720 H     1 <1>   0.0800 
 40 H       -1.3080     2.0600     1.5470 H     1 <1>   0.0800 
 41 H        3.5580     4.7040     0.5060 H     1 <1>   0.0800 
 42 H        1.8740     5.0280     0.1920 H     1 <1>   0.0800 
 43 H        2.9470     4.6320    -1.1310 H     1 <1>   0.0800 
 44 H       -7.5170    -1.7500    -1.0700 H     1 <1>   0.0800 
 45 H       -6.3800    -0.5870    -0.4430 H     1 <1>   0.0800 
 46 H       -7.1340    -1.7350     0.6440 H     1 <1>   0.0800 
 47 H       -6.8990    -4.0130    -1.3820 H     1 <1>   0.0800 
 48 H       -6.6050    -4.1610     0.3410 H     1 <1>   0.0800 
 49 H       -5.3630    -4.6120    -0.8070 H     1 <1>   0.0800 
@<TRIPOS>BOND
  1   1   2  2   
  2   1   3  2   
  3   1   4  am  
  4   1   5  1   
  5   4   6  1   
  6   4  26  1   
  7   5   7  ar  
  8   5   8  ar  
  9   6   9  1   
 10   6  10  1   
 11   6  27  1   
 12   7  11  1   
 13   7  12  ar  
 14   8  13  ar  
 15   8  28  1   
 16   9  14  1   
 17   9  15  1   
 18   9  29  1   
 19  10  16  1   
 20  10  30  1   
 21  10  31  1   
 22  11  17  1   
 23  12  18  ar  
 24  12  32  1   
 25  13  18  ar  
 26  13  33  1   
 27  14  16  1   
 28  14  34  1   
 29  14  35  1   
 30  15  19  1   
 31  15  36  1   
 32  15  37  1   
 33  17  38  1   
 34  17  39  1   
 35  17  40  1   
 36  18  20  1   
 37  19  21  2   
 38  19  22  2   
 39  19  23  am  
 40  20  41  1   
 41  20  42  1   
 42  20  43  1   
 43  23  24  1   
 44  23  25  1   
 45  24  44  1   
 46  24  45  1   
 47  24  46  1   
 48  25  47  1   
 49  25  48  1   
 50  25  49  1   
@<TRIPOS>SUBSTRUCTURE
  1 ****   4 GROUP 4 **** **** 0

# MOE 2024.06 (io_trps.svl 2023.06)
