@<TRIPOS>MOLECULE
NONAME
42 44 1 0 0 
SMALL
USER_CHARGES


@<TRIPOS>ATOM
  1 O        2.1850     0.1810     0.9840 O.2   1 <1>  -0.5700 
  2 C        2.4440    -0.5270     0.0360 C.2   1 <1>   0.5690 
  3 N        2.7080     0.0300    -1.1900 N.am  1 <1>  -0.6600 
  4 C        2.4950    -2.0440     0.2390 C.3   1 <1>  -0.0190 
  5 C        2.5090     1.4950    -1.4000 C.3   1 <1>   0.3200 
  6 C        3.3740    -0.6510    -2.3380 C.3   1 <1>   0.0600 
  7 C        1.4930    -2.8200    -0.6450 C.3   1 <1>  -0.0220 
  8 C        2.2550    -2.5410     1.6860 C.3   1 <1>  -0.0220 
  9 C        3.7440     2.2550    -0.9520 C.2   1 <1>   0.0060 
 10 C        1.1140    -3.9930     0.2230 C.2   1 <1>  -0.2880 
 11 C        1.5260    -3.8450     1.4740 C.2   1 <1>  -0.2880 
 12 N        4.5170     2.9480    -1.7160 N.2   1 <1>  -0.5650 
 13 N        4.1240     2.2390     0.3490 N.pl3 1 <1>   0.0330 
 14 C        5.4790     3.4220    -0.8710 C.ar  1 <1>   0.2270 
 15 C        5.2500     2.9890     0.4190 C.ar  1 <1>  -0.1520 
 16 C        6.5820     4.2270    -1.1420 C.ar  1 <1>  -0.1500 
 17 C        6.1060     3.3400     1.4620 C.ar  1 <1>  -0.1500 
 18 C        7.4400     4.5860    -0.1210 C.ar  1 <1>  -0.1440 
 19 C        7.1990     4.1380     1.1920 C.ar  1 <1>  -0.1440 
 20 C        8.6390     5.4660    -0.4420 C.3   1 <1>  -0.0970 
 21 C        8.1330     4.5220     2.3310 C.3   1 <1>  -0.0970 
 22 H        3.4820    -2.3770    -0.0230 H     1 <1>   0.0800 
 23 H        1.6560     1.8340    -0.8380 H     1 <1>   0.0800 
 24 H        2.3220     1.6950    -2.4400 H     1 <1>   0.0800 
 25 H        3.7920    -1.5970    -2.0480 H     1 <1>   0.0800 
 26 H        4.1770    -0.0340    -2.7070 H     1 <1>   0.0800 
 27 H        2.6630    -0.8070    -3.1300 H     1 <1>   0.0800 
 28 H        1.9490    -3.1440    -1.5630 H     1 <1>   0.0800 
 29 H        0.6180    -2.2290    -0.8580 H     1 <1>   0.0800 
 30 H        1.6220    -1.8770     2.2500 H     1 <1>   0.0800 
 31 H        3.1860    -2.6830     2.2050 H     1 <1>   0.0800 
 32 H        0.5580    -4.8070    -0.2130 H     1 <1>   0.1500 
 33 H        1.3920    -4.5080     2.3140 H     1 <1>   0.1500 
 34 H        3.6530     1.7100     1.0940 H     1 <1>   0.2700 
 35 H        6.7300     4.5480    -2.1550 H     1 <1>   0.1500 
 36 H        5.8990     2.9850     2.4560 H     1 <1>   0.1500 
 37 H        8.6660     5.7130    -1.4880 H     1 <1>   0.0800 
 38 H        9.5500     4.9530    -0.1940 H     1 <1>   0.0800 
 39 H        8.5850     6.3820     0.1190 H     1 <1>   0.0800 
 40 H        7.8020     4.0950     3.2600 H     1 <1>   0.0800 
 41 H        8.1590     5.5900     2.4410 H     1 <1>   0.0800 
 42 H        9.1260     4.1630     2.1300 H     1 <1>   0.0800 
@<TRIPOS>BOND
  1   1   2  2   
  2   2   3  am  
  3   2   4  1   
  4   3   5  1   
  5   3   6  1   
  6   4   7  1   
  7   4   8  1   
  8   4  22  1   
  9   5   9  1   
 10   5  23  1   
 11   5  24  1   
 12   6  25  1   
 13   6  26  1   
 14   6  27  1   
 15   7  10  1   
 16   7  28  1   
 17   7  29  1   
 18   8  11  1   
 19   8  30  1   
 20   8  31  1   
 21   9  12  2   
 22   9  13  1   
 23  10  11  2   
 24  10  32  1   
 25  11  33  1   
 26  12  14  1   
 27  13  15  1   
 28  13  34  1   
 29  14  15  ar  
 30  14  16  ar  
 31  15  17  ar  
 32  16  18  ar  
 33  16  35  1   
 34  17  19  ar  
 35  17  36  1   
 36  18  19  ar  
 37  18  20  1   
 38  19  21  1   
 39  20  37  1   
 40  20  38  1   
 41  20  39  1   
 42  21  40  1   
 43  21  41  1   
 44  21  42  1   
@<TRIPOS>SUBSTRUCTURE
  1 ****  13 GROUP 4 **** **** 0

# MOE 2024.06 (io_trps.svl 2023.06)
