@<TRIPOS>MOLECULE
NONAME
47 50 1 0 0 
SMALL
USER_CHARGES


@<TRIPOS>ATOM
  1 O       -2.8540     0.6370    -2.9720 O.2   1 <1>  -0.5700 
  2 C       -2.2700     0.7730    -1.9100 C.2   1 <1>   0.6300 
  3 N       -1.9430    -0.3640    -1.2210 N.am  1 <1>  -0.7300 
  4 C       -1.9460     2.0940    -1.3700 C.2   1 <1>   0.4360 
  5 C       -2.2350    -1.7600    -1.6250 C.3   1 <1>   0.2200 
  6 N       -1.3800     2.2080    -0.1890 N.2   1 <1>  -0.5760 
  7 C       -2.2590     3.2640    -2.1430 C.2   1 <1>  -0.1360 
  8 C       -3.3790    -2.3430    -0.8080 C.3   1 <1>  -0.0800 
  9 C       -1.0870    -2.6570    -1.1820 C.3   1 <1>   0.1200 
 10 C       -1.1080     3.4750     0.2630 C.2   1 <1>  -0.0260 
 11 C       -1.9880     4.5160    -1.6890 C.2   1 <1>  -0.1690 
 12 C       -2.6790    -2.8340     0.4640 C.3   1 <1>   0.1200 
 13 C       -4.5730    -1.4040    -0.5500 C.3   1 <1>  -0.0160 
 14 O       -1.3130    -2.9080     0.1720 O.3   1 <1>  -0.5600 
 15 N       -1.3920     4.6230    -0.4420 N.pl3 1 <1>   0.6010 
 16 C       -0.5360     3.8900     1.4230 C.2   1 <1>  -0.1500 
 17 C       -2.2950     5.7930    -2.4600 C.3   1 <1>  -0.1020 
 18 C       -5.6740    -2.1210     0.2150 C.ar  1 <1>  -0.1440 
 19 N       -1.0220     5.7290     0.2390 N.2   1 <1>  -0.7070 
 20 C       -0.5130     5.2710     1.3470 C.2   1 <1>   0.1080 
 21 C       -6.5660    -2.9640    -0.4160 C.ar  1 <1>  -0.1500 
 22 C       -5.8380    -1.9680     1.5770 C.ar  1 <1>  -0.1500 
 23 C        0.0330     6.1950     2.4100 C.3   1 <1>  -0.0590 
 24 C       -7.5480    -3.6000     0.3260 C.ar  1 <1>   0.1600 
 25 C       -6.8540    -2.6510     2.2250 C.ar  1 <1>   0.1600 
 26 N       -7.7120    -3.4660     1.6320 N.ar  1 <1>  -0.6200 
 27 H       -1.4680    -0.2600    -0.3170 H     1 <1>   0.3700 
 28 H       -2.4100    -1.8190    -2.6870 H     1 <1>   0.0800 
 29 H       -2.7190     3.1120    -3.1030 H     1 <1>   0.1500 
 30 H       -3.7430    -3.2130    -1.3270 H     1 <1>   0.0800 
 31 H       -0.1230    -2.1980    -1.3110 H     1 <1>   0.0800 
 32 H       -1.1190    -3.6000    -1.7000 H     1 <1>   0.0800 
 33 H       -3.0290    -3.8070     0.7640 H     1 <1>   0.0800 
 34 H       -2.7980    -2.1380     1.2760 H     1 <1>   0.0800 
 35 H       -4.9620    -1.0540    -1.4910 H     1 <1>   0.0800 
 36 H       -4.2590    -0.5410     0.0100 H     1 <1>   0.0800 
 37 H       -0.1790     3.2740     2.2260 H     1 <1>   0.1500 
 38 H       -2.9640     6.4130    -1.8890 H     1 <1>   0.0800 
 39 H       -2.7540     5.5710    -3.4070 H     1 <1>   0.0800 
 40 H       -1.3870     6.3430    -2.6360 H     1 <1>   0.0800 
 41 H       -6.5070    -3.1320    -1.4750 H     1 <1>   0.1500 
 42 H       -5.1880    -1.3250     2.1410 H     1 <1>   0.1500 
 43 H        0.4090     5.6320     3.2430 H     1 <1>   0.0800 
 44 H       -0.7460     6.8510     2.7500 H     1 <1>   0.0800 
 45 H        0.8290     6.7860     1.9960 H     1 <1>   0.0800 
 46 H       -8.2350    -4.2550    -0.1830 H     1 <1>   0.1500 
 47 H       -6.9670    -2.5200     3.2870 H     1 <1>   0.1500 
@<TRIPOS>BOND
  1   1   2  2   
  2   2   3  am  
  3   2   4  1   
  4   3   5  1   
  5   3  27  1   
  6   4   6  2   
  7   4   7  1   
  8   5   8  1   
  9   5   9  1   
 10   5  28  1   
 11   6  10  1   
 12   7  11  2   
 13   7  29  1   
 14   8  12  1   
 15   8  13  1   
 16   8  30  1   
 17   9  14  1   
 18   9  31  1   
 19   9  32  1   
 20  10  15  1   
 21  10  16  2   
 22  11  15  1   
 23  11  17  1   
 24  12  14  1   
 25  12  33  1   
 26  12  34  1   
 27  13  18  1   
 28  13  35  1   
 29  13  36  1   
 30  15  19  1   
 31  16  20  1   
 32  16  37  1   
 33  17  38  1   
 34  17  39  1   
 35  17  40  1   
 36  18  21  ar  
 37  18  22  ar  
 38  19  20  2   
 39  20  23  1   
 40  21  24  ar  
 41  21  41  1   
 42  22  25  ar  
 43  22  42  1   
 44  23  43  1   
 45  23  44  1   
 46  23  45  1   
 47  24  26  ar  
 48  24  46  1   
 49  25  26  ar  
 50  25  47  1   
@<TRIPOS>SUBSTRUCTURE
  1 ****   3 GROUP 4 **** **** 0

# MOE 2024.06 (io_trps.svl 2023.06)
