@<TRIPOS>MOLECULE
NONAME
54 56 1 0 0 
SMALL
USER_CHARGES


@<TRIPOS>ATOM
  1 O        0.6530     0.6420     1.5660 O.2   1 <1>  -0.5700 
  2 C        1.6690     0.3520     0.9750 C.2   1 <1>   0.7150 
  3 N        1.9470    -0.9770     0.9410 N.am  1 <1>  -0.7300 
  4 C        2.4690     1.3830     0.3810 C.2   1 <1>  -0.2370 
  5 C        3.1760    -1.7660     0.6520 C.3   1 <1>   0.1400 
  6 N        3.4680     1.2200    -0.5150 N.pl3 1 <1>   0.3140 
  7 C        2.3850     2.7260     0.5660 C.2   1 <1>  -0.1500 
  8 C        4.3630    -0.9740     0.0830 C.3   1 <1>   0.2000 
  9 N        4.0160     2.3780    -0.8890 N.2   1 <1>  -0.7070 
 10 C        3.9790    -0.0420    -1.0630 C.3   1 <1>   0.0960 
 11 C        3.3620     3.3230    -0.2280 C.2   1 <1>   0.2030 
 12 O        5.3020    -1.8860    -0.3840 O.3   1 <1>  -0.6800 
 13 C        3.5650     4.7740    -0.2750 C.2   1 <1>   0.7160 
 14 O        2.6400     5.4980     0.0630 O.2   1 <1>  -0.5700 
 15 N        4.7510     5.3950    -0.6540 N.am  1 <1>  -0.6600 
 16 C        4.7950     6.8690    -0.8910 C.3   1 <1>   0.1400 
 17 C        6.0340     4.6740    -0.8840 C.3   1 <1>   0.1400 
 18 C        5.2610     7.6100     0.3660 C.3   1 <1>  -0.0220 
 19 C        6.6190     4.1750     0.4420 C.3   1 <1>  -0.1600 
 20 C        5.2810     9.1170     0.1480 C.2   1 <1>  -0.2760 
 21 C        7.9450     3.4400     0.2210 C.3   1 <1>  -0.2400 
 22 C        6.4130     9.8050    -0.0400 C.2   1 <1>  -0.2880 
 23 C        3.9080     9.7850     0.1810 C.3   1 <1>  -0.0220 
 24 C        6.4820    11.3120    -0.2260 C.3   1 <1>  -0.0220 
 25 C        3.9570    11.2150    -0.3780 C.3   1 <1>  -0.1600 
 26 C        5.1620    11.9870     0.1750 C.3   1 <1>  -0.1600 
 27 H        1.2100    -1.5150     1.4030 H     1 <1>   0.3700 
 28 H        2.9060    -2.5370    -0.0490 H     1 <1>   0.0800 
 29 H        3.4950    -2.2430     1.5640 H     1 <1>   0.0800 
 30 H        1.6960     3.2560     1.2020 H     1 <1>   0.1500 
 31 H        4.8450    -0.4140     0.8670 H     1 <1>   0.0800 
 32 H        4.8480     0.1870    -1.6540 H     1 <1>   0.0800 
 33 H        3.2240    -0.4800    -1.6880 H     1 <1>   0.0800 
 34 H        4.9660    -2.4010    -1.1430 H     1 <1>   0.4000 
 35 H        3.8170     7.2160    -1.1750 H     1 <1>   0.0800 
 36 H        5.4600     7.0900    -1.7080 H     1 <1>   0.0800 
 37 H        6.7420     5.3360    -1.3520 H     1 <1>   0.0800 
 38 H        5.8770     3.8530    -1.5600 H     1 <1>   0.0800 
 39 H        6.2530     7.2810     0.6130 H     1 <1>   0.0800 
 40 H        4.6110     7.3730     1.1900 H     1 <1>   0.0800 
 41 H        5.9260     3.5010     0.9140 H     1 <1>   0.0800 
 42 H        6.7830     5.0080     1.1020 H     1 <1>   0.0800 
 43 H        7.7960     2.5860    -0.4170 H     1 <1>   0.0800 
 44 H        8.3360     3.0970     1.1630 H     1 <1>   0.0800 
 45 H        8.6680     4.0930    -0.2330 H     1 <1>   0.0800 
 46 H        7.3830     9.3380    -0.0750 H     1 <1>   0.1500 
 47 H        3.5640     9.8090     1.2000 H     1 <1>   0.0800 
 48 H        3.1960     9.2200    -0.3920 H     1 <1>   0.0800 
 49 H        6.7010    11.5230    -1.2570 H     1 <1>   0.0800 
 50 H        7.2780    11.7150     0.3760 H     1 <1>   0.0800 
 51 H        3.0450    11.7290    -0.1300 H     1 <1>   0.0800 
 52 H        4.0330    11.1700    -1.4510 H     1 <1>   0.0800 
 53 H        5.1510    13.0000    -0.1870 H     1 <1>   0.0800 
 54 H        5.0950    12.0160     1.2490 H     1 <1>   0.0800 
@<TRIPOS>BOND
  1   1   2  2   
  2   2   3  am  
  3   2   4  1   
  4   3   5  1   
  5   3  27  1   
  6   4   6  1   
  7   4   7  2   
  8   5   8  1   
  9   5  28  1   
 10   5  29  1   
 11   6   9  1   
 12   6  10  1   
 13   7  11  1   
 14   7  30  1   
 15   8  10  1   
 16   8  12  1   
 17   8  31  1   
 18   9  11  2   
 19  10  32  1   
 20  10  33  1   
 21  11  13  1   
 22  12  34  1   
 23  13  14  2   
 24  13  15  am  
 25  15  16  1   
 26  15  17  1   
 27  16  18  1   
 28  16  35  1   
 29  16  36  1   
 30  17  19  1   
 31  17  37  1   
 32  17  38  1   
 33  18  20  1   
 34  18  39  1   
 35  18  40  1   
 36  19  21  1   
 37  19  41  1   
 38  19  42  1   
 39  20  22  2   
 40  20  23  1   
 41  21  43  1   
 42  21  44  1   
 43  21  45  1   
 44  22  24  1   
 45  22  46  1   
 46  23  25  1   
 47  23  47  1   
 48  23  48  1   
 49  24  26  1   
 50  24  49  1   
 51  24  50  1   
 52  25  26  1   
 53  25  51  1   
 54  25  52  1   
 55  26  53  1   
 56  26  54  1   
@<TRIPOS>SUBSTRUCTURE
  1 ****  13 GROUP 4 **** **** 0

# MOE 2024.06 (io_trps.svl 2023.06)
