@<TRIPOS>MOLECULE
NONAME
49 51 1 0 0 
SMALL
USER_CHARGES


@<TRIPOS>ATOM
  1 O       -2.6030     1.7520    -1.0860 O.2   1 <1>  -0.5700 
  2 C       -2.1110     1.2850    -0.0860 C.2   1 <1>   0.5690 
  3 N       -1.8730    -0.0480     0.0260 N.am  1 <1>  -0.7300 
  4 C       -1.7580     2.2130     1.0860 C.3   1 <1>   0.1710 
  5 C       -2.1120    -1.0510    -1.0380 C.3   1 <1>   0.2200 
  6 N       -0.3860     2.7920     1.0700 N.3   1 <1>  -0.8100 
  7 C       -3.2970    -1.9460    -0.6980 C.3   1 <1>  -0.0800 
  8 C       -0.9800    -2.0670    -1.0090 C.3   1 <1>   0.1200 
  9 C       -0.1880     3.6440    -0.1190 C.3   1 <1>   0.2530 
 10 C        0.6580     1.7620     1.1870 C.3   1 <1>   0.0300 
 11 C       -2.6720    -3.0240     0.1970 C.3   1 <1>   0.1200 
 12 C       -4.5190    -1.2390    -0.0830 C.3   1 <1>  -0.0160 
 13 O       -1.2850    -2.9080     0.0610 O.3   1 <1>  -0.5600 
 14 C        1.0990     4.4510    -0.0130 C.ar  1 <1>  -0.1440 
 15 C       -5.6690    -2.2150     0.1110 C.ar  1 <1>  -0.1440 
 16 C        2.0200     4.5010    -1.0410 C.ar  1 <1>  -0.1500 
 17 C        1.4120     5.1780     1.1170 C.ar  1 <1>  -0.1500 
 18 C       -5.9330    -2.8080     1.3290 C.ar  1 <1>  -0.1500 
 19 C       -6.5090    -2.5570    -0.9290 C.ar  1 <1>  -0.1500 
 20 C        3.1730     5.2540    -0.8910 C.ar  1 <1>   0.1600 
 21 C        2.5930     5.8980     1.1670 C.ar  1 <1>   0.1600 
 22 C       -6.9910    -3.6950     1.4430 C.ar  1 <1>   0.1600 
 23 C       -7.5400    -3.4560    -0.7090 C.ar  1 <1>   0.1600 
 24 N        3.4830     5.9540     0.1880 N.ar  1 <1>  -0.6200 
 25 N       -7.7990    -4.0350     0.4520 N.ar  1 <1>  -0.6200 
 26 H       -1.4470    -0.4370     0.8700 H     1 <1>   0.3700 
 27 H       -1.8930     1.6710     2.0040 H     1 <1>   0.0800 
 28 H       -2.4700     3.0190     1.0910 H     1 <1>   0.0800 
 29 H       -2.2120    -0.5740    -1.9990 H     1 <1>   0.0800 
 30 H       -3.6130    -2.4280    -1.6060 H     1 <1>   0.0800 
 31 H       -0.0150    -1.6170    -0.8570 H     1 <1>   0.0800 
 32 H       -0.9730    -2.6610    -1.9070 H     1 <1>   0.0800 
 33 H       -0.1710     3.0360    -1.0080 H     1 <1>   0.0800 
 34 H       -1.0120     4.3330    -0.2060 H     1 <1>   0.0800 
 35 H        1.6230     2.2270     1.3050 H     1 <1>   0.0800 
 36 H        0.6800     1.1390     0.3090 H     1 <1>   0.0800 
 37 H        0.4770     1.1500     2.0530 H     1 <1>   0.0800 
 38 H       -2.9720    -4.0140    -0.1060 H     1 <1>   0.0800 
 39 H       -2.9120    -2.8740     1.2350 H     1 <1>   0.0800 
 40 H       -4.8340    -0.4410    -0.7340 H     1 <1>   0.0800 
 41 H       -4.2630    -0.7990     0.8650 H     1 <1>   0.0800 
 42 H        1.8510     3.9640    -1.9560 H     1 <1>   0.1500 
 43 H        0.7420     5.1790     1.9580 H     1 <1>   0.1500 
 44 H       -5.3290    -2.5920     2.1900 H     1 <1>   0.1500 
 45 H       -6.3730    -2.1340    -1.9070 H     1 <1>   0.1500 
 46 H        3.8780     5.2820    -1.7040 H     1 <1>   0.1500 
 47 H        2.8180     6.4560     2.0590 H     1 <1>   0.1500 
 48 H       -7.1820    -4.1500     2.4000 H     1 <1>   0.1500 
 49 H       -8.1860    -3.7110    -1.5320 H     1 <1>   0.1500 
@<TRIPOS>BOND
  1   1   2  2   
  2   2   3  am  
  3   2   4  1   
  4   3   5  1   
  5   3  26  1   
  6   4   6  1   
  7   4  27  1   
  8   4  28  1   
  9   5   7  1   
 10   5   8  1   
 11   5  29  1   
 12   6   9  1   
 13   6  10  1   
 14   7  11  1   
 15   7  12  1   
 16   7  30  1   
 17   8  13  1   
 18   8  31  1   
 19   8  32  1   
 20   9  14  1   
 21   9  33  1   
 22   9  34  1   
 23  10  35  1   
 24  10  36  1   
 25  10  37  1   
 26  11  13  1   
 27  11  38  1   
 28  11  39  1   
 29  12  15  1   
 30  12  40  1   
 31  12  41  1   
 32  14  16  ar  
 33  14  17  ar  
 34  15  18  ar  
 35  15  19  ar  
 36  16  20  ar  
 37  16  42  1   
 38  17  21  ar  
 39  17  43  1   
 40  18  22  ar  
 41  18  44  1   
 42  19  23  ar  
 43  19  45  1   
 44  20  24  ar  
 45  20  46  1   
 46  21  24  ar  
 47  21  47  1   
 48  22  25  ar  
 49  22  48  1   
 50  23  25  ar  
 51  23  49  1   
@<TRIPOS>SUBSTRUCTURE
  1 ****   3 GROUP 4 **** **** 0

# MOE 2024.06 (io_trps.svl 2023.06)
