@<TRIPOS>MOLECULE
NONAME
60 64 1 0 0 
SMALL
USER_CHARGES


@<TRIPOS>ATOM
  1 O       -1.5210    -5.9080     0.1790 O.2   1 <1>  -0.5700 
  2 C       -0.3560    -5.6790     0.4030 C.2   1 <1>   0.5690 
  3 N        0.4030    -6.4150     1.2710 N.am  1 <1>  -0.6600 
  4 C        0.3170    -4.5180    -0.3010 C.3   1 <1>  -0.0990 
  5 C        1.8300    -6.0670     1.4890 C.3   1 <1>   0.1400 
  6 C       -0.1470    -7.5440     2.0660 C.3   1 <1>   0.0600 
  7 C        1.6950    -4.9370    -0.8470 C.3   1 <1>  -0.0800 
  8 C        2.5160    -5.8080     0.1340 C.3   1 <1>  -0.0800 
  9 C        2.5780    -3.7410    -1.2240 C.3   1 <1>  -0.1600 
 10 C        3.8800    -5.1210     0.2900 C.3   1 <1>  -0.1600 
 11 C        3.9990    -4.2060    -0.9280 C.3   1 <1>   0.2200 
 12 N        4.9690    -3.0810    -0.7610 N.am  1 <1>  -0.6600 
 13 C        4.9650    -2.1810     0.2940 C.2   1 <1>   0.5440 
 14 C        5.9260    -2.9540    -1.9000 C.3   1 <1>   0.0600 
 15 O        4.0040    -2.1130     1.0370 O.2   1 <1>  -0.5700 
 16 C        6.0690    -1.2780     0.5310 C.ar  1 <1>   0.0860 
 17 C        7.3800    -1.7310     0.8150 C.ar  1 <1>   0.0000 
 18 C        5.8830     0.0770     0.4830 C.ar  1 <1>  -0.1500 
 19 C        8.3920    -0.7580     0.9550 C.ar  1 <1>   0.3100 
 20 C        7.7280    -3.0900     0.9730 C.ar  1 <1>  -0.1500 
 21 C        6.9390     0.9820     0.6670 C.ar  1 <1>   0.3100 
 22 N        8.1620     0.5710     0.8710 N.ar  1 <1>  -0.6200 
 23 C        9.7050    -1.1870     1.2020 C.ar  1 <1>  -0.1500 
 24 C        9.0180    -3.4810     1.2190 C.ar  1 <1>  -0.1440 
 25 C        6.6780     2.4050     0.6150 C.ar  1 <1>   0.0000 
 26 C       10.0190    -2.5130     1.3290 C.ar  1 <1>  -0.1500 
 27 C        9.3890    -4.9450     1.3810 C.3   1 <1>  -0.0970 
 28 C        7.5620     3.2700    -0.0310 C.ar  1 <1>   0.1600 
 29 C        5.5520     2.9770     1.1960 C.ar  1 <1>  -0.1500 
 30 N        7.4160     4.5800    -0.1580 N.ar  1 <1>  -0.6200 
 31 C        5.3820     4.3390     1.0800 C.ar  1 <1>  -0.1500 
 32 C        6.3290     5.0850     0.4000 C.ar  1 <1>   0.1600 
 33 H       -0.3090    -4.1680    -1.1020 H     1 <1>   0.0800 
 34 H        0.4220    -3.7230     0.4140 H     1 <1>   0.0800 
 35 H        1.8730    -5.1810     2.1010 H     1 <1>   0.0800 
 36 H        2.3340    -6.8640     2.0070 H     1 <1>   0.0800 
 37 H        0.3800    -8.4500     1.8230 H     1 <1>   0.0800 
 38 H       -1.1920    -7.6840     1.8480 H     1 <1>   0.0800 
 39 H       -0.0380    -7.3360     3.1150 H     1 <1>   0.0800 
 40 H        1.5290    -5.5290    -1.7330 H     1 <1>   0.0800 
 41 H        2.6760    -6.7650    -0.3340 H     1 <1>   0.0800 
 42 H        2.3290    -2.8960    -0.6090 H     1 <1>   0.0800 
 43 H        2.4590    -3.4730    -2.2580 H     1 <1>   0.0800 
 44 H        4.6810    -5.8370     0.3180 H     1 <1>   0.0800 
 45 H        3.8910    -4.5480     1.1980 H     1 <1>   0.0800 
 46 H        4.3150    -4.8230    -1.7530 H     1 <1>   0.0800 
 47 H        5.3930    -3.0240    -2.8330 H     1 <1>   0.0800 
 48 H        6.6550    -3.7430    -1.8510 H     1 <1>   0.0800 
 49 H        6.4360    -2.0070    -1.8810 H     1 <1>   0.0800 
 50 H        4.8990     0.4630     0.2900 H     1 <1>   0.1500 
 51 H        6.9540    -3.8330     0.8990 H     1 <1>   0.1500 
 52 H       10.4640    -0.4310     1.2930 H     1 <1>   0.1500 
 53 H       11.0340    -2.8180     1.5200 H     1 <1>   0.1500 
 54 H       10.1160    -5.2230     0.6390 H     1 <1>   0.0800 
 55 H        8.5260    -5.5760     1.2690 H     1 <1>   0.0800 
 56 H        9.8090    -5.1100     2.3570 H     1 <1>   0.0800 
 57 H        8.4470     2.8410    -0.4710 H     1 <1>   0.1500 
 58 H        4.8350     2.3780     1.7300 H     1 <1>   0.1500 
 59 H        4.5260     4.8230     1.5130 H     1 <1>   0.1500 
 60 H        6.1870     6.1490     0.3130 H     1 <1>   0.1500 
@<TRIPOS>BOND
  1   1   2  2   
  2   2   3  am  
  3   2   4  1   
  4   3   5  1   
  5   3   6  1   
  6   4   7  1   
  7   4  33  1   
  8   4  34  1   
  9   5   8  1   
 10   5  35  1   
 11   5  36  1   
 12   6  37  1   
 13   6  38  1   
 14   6  39  1   
 15   7   8  1   
 16   7   9  1   
 17   7  40  1   
 18   8  10  1   
 19   8  41  1   
 20   9  11  1   
 21   9  42  1   
 22   9  43  1   
 23  10  11  1   
 24  10  44  1   
 25  10  45  1   
 26  11  12  1   
 27  11  46  1   
 28  12  13  am  
 29  12  14  1   
 30  13  15  2   
 31  13  16  1   
 32  14  47  1   
 33  14  48  1   
 34  14  49  1   
 35  16  17  ar  
 36  16  18  ar  
 37  17  19  ar  
 38  17  20  ar  
 39  18  21  ar  
 40  18  50  1   
 41  19  22  ar  
 42  19  23  ar  
 43  20  24  ar  
 44  20  51  1   
 45  21  22  ar  
 46  21  25  1   
 47  23  26  ar  
 48  23  52  1   
 49  24  26  ar  
 50  24  27  1   
 51  25  28  ar  
 52  25  29  ar  
 53  26  53  1   
 54  27  54  1   
 55  27  55  1   
 56  27  56  1   
 57  28  30  ar  
 58  28  57  1   
 59  29  31  ar  
 60  29  58  1   
 61  30  32  ar  
 62  31  32  ar  
 63  31  59  1   
 64  32  60  1   
@<TRIPOS>SUBSTRUCTURE
  1 ****  13 GROUP 4 **** **** 0

# MOE 2024.06 (io_trps.svl 2023.06)
