@<TRIPOS>MOLECULE
NONAME
46 48 1 0 0 
SMALL
USER_CHARGES


@<TRIPOS>ATOM
  1 S       -0.8310     0.5770     0.6320 S.o2  1 <1>   1.0900 
  2 O        0.5690     0.2710     0.8100 O.2   1 <1>  -0.6500 
  3 O       -1.4080     1.8150     1.0970 O.2   1 <1>  -0.6500 
  4 C       -1.7560    -0.8080     1.2280 C.3   1 <1>  -0.0550 
  5 C       -1.2410     0.2950    -1.0840 C.3   1 <1>  -0.0550 
  6 C       -1.6080    -1.8540     0.1260 C.3   1 <1>   0.1760 
  7 C       -1.8090    -1.1300    -1.2220 C.3   1 <1>  -0.1600 
  8 N       -2.5730    -2.9700     0.2930 N.pl3 1 <1>   0.3140 
  9 N       -3.8740    -2.7290     0.5350 N.2   1 <1>  -0.7070 
 10 C       -2.3260    -4.3010     0.1840 C.2   1 <1>  -0.3320 
 11 C       -4.4330    -3.8990     0.5670 C.2   1 <1>   0.1080 
 12 C       -3.5110    -4.9280     0.3520 C.2   1 <1>   0.0630 
 13 C       -0.9540    -4.9010    -0.0970 C.3   1 <1>  -0.0600 
 14 C       -5.9150    -4.0570     0.8240 C.3   1 <1>  -0.0590 
 15 N       -3.7160    -6.3310     0.3270 N.am  1 <1>  -0.4930 
 16 C       -4.7060    -7.0390    -0.2880 C.2   1 <1>   0.5690 
 17 O       -5.5870    -6.5160    -0.9290 O.2   1 <1>  -0.5700 
 18 C       -4.6840    -8.5610    -0.1550 C.3   1 <1>  -0.0190 
 19 C       -4.6490    -9.2620    -1.5240 C.3   1 <1>  -0.1600 
 20 C       -5.8910    -9.0800     0.6450 C.3   1 <1>  -0.1600 
 21 C       -4.7330   -10.7840    -1.3590 C.3   1 <1>   0.1200 
 22 C       -5.9010   -10.6120     0.6820 C.3   1 <1>   0.1200 
 23 O       -5.8700   -11.1100    -0.6200 O.3   1 <1>  -0.5600 
 24 H       -2.7880    -0.5300     1.3350 H     1 <1>   0.0800 
 25 H       -1.3750    -1.1640     2.1650 H     1 <1>   0.0800 
 26 H       -0.3640     0.4120    -1.6930 H     1 <1>   0.0800 
 27 H       -1.9770     1.0060    -1.4100 H     1 <1>   0.0800 
 28 H       -0.6090    -2.2480     0.1670 H     1 <1>   0.0800 
 29 H       -1.3240    -1.6650    -2.0190 H     1 <1>   0.0800 
 30 H       -2.8620    -1.0600    -1.4390 H     1 <1>   0.0800 
 31 H       -0.5610    -4.5110    -1.0190 H     1 <1>   0.0800 
 32 H       -1.0190    -5.9700    -0.1880 H     1 <1>   0.0800 
 33 H       -0.2740    -4.6680     0.7030 H     1 <1>   0.0800 
 34 H       -6.2760    -3.2310     1.4080 H     1 <1>   0.0800 
 35 H       -6.1060    -4.9700     1.3560 H     1 <1>   0.0800 
 36 H       -6.4390    -4.0790    -0.1130 H     1 <1>   0.0800 
 37 H       -2.9780    -6.8650     0.7750 H     1 <1>   0.3700 
 38 H       -3.7930    -8.8430     0.3770 H     1 <1>   0.0800 
 39 H       -3.7460    -9.0040    -2.0490 H     1 <1>   0.0800 
 40 H       -5.4810    -8.9360    -2.1250 H     1 <1>   0.0800 
 41 H       -6.8050    -8.7410     0.1880 H     1 <1>   0.0800 
 42 H       -5.8620    -8.6950     1.6480 H     1 <1>   0.0800 
 43 H       -3.8690   -11.1740    -0.8500 H     1 <1>   0.0800 
 44 H       -4.8190   -11.2620    -2.3200 H     1 <1>   0.0800 
 45 H       -6.8030   -10.9720     1.1470 H     1 <1>   0.0800 
 46 H       -5.0510   -11.0000     1.2180 H     1 <1>   0.0800 
@<TRIPOS>BOND
  1   1   2  2   
  2   1   3  2   
  3   1   4  1   
  4   1   5  1   
  5   4   6  1   
  6   4  24  1   
  7   4  25  1   
  8   5   7  1   
  9   5  26  1   
 10   5  27  1   
 11   6   7  1   
 12   6   8  1   
 13   6  28  1   
 14   7  29  1   
 15   7  30  1   
 16   8   9  1   
 17   8  10  1   
 18   9  11  2   
 19  10  12  2   
 20  10  13  1   
 21  11  12  1   
 22  11  14  1   
 23  12  15  1   
 24  13  31  1   
 25  13  32  1   
 26  13  33  1   
 27  14  34  1   
 28  14  35  1   
 29  14  36  1   
 30  15  16  am  
 31  15  37  1   
 32  16  17  2   
 33  16  18  1   
 34  18  19  1   
 35  18  20  1   
 36  18  38  1   
 37  19  21  1   
 38  19  39  1   
 39  19  40  1   
 40  20  22  1   
 41  20  41  1   
 42  20  42  1   
 43  21  23  1   
 44  21  43  1   
 45  21  44  1   
 46  22  23  1   
 47  22  45  1   
 48  22  46  1   
@<TRIPOS>SUBSTRUCTURE
  1 ****  12 GROUP 4 **** **** 0

# MOE 2024.06 (io_trps.svl 2023.06)
