@<TRIPOS>MOLECULE
NONAME
47 49 1 0 0 
SMALL
USER_CHARGES


@<TRIPOS>ATOM
  1 O        1.9480    -0.9570     1.1790 O.3   1 <1>  -0.0190 
  2 N        2.1070    -2.1920     0.8070 N.2   1 <1>  -0.4100 
  3 C        1.1280    -0.4570     0.2870 C.2   1 <1>   0.2980 
  4 C        1.4110    -2.3570    -0.2430 C.2   1 <1>   0.3350 
  5 N        0.7590    -1.2690    -0.6280 N.2   1 <1>  -0.5650 
  6 C        0.7090     1.0000     0.4280 C.3   1 <1>   0.3000 
  7 C        1.2680    -3.6850    -0.9820 C.3   1 <1>   0.5240 
  8 O       -0.1940     1.1300     1.4880 O.3   1 <1>  -0.5600 
  9 N        0.1660    -4.5340    -0.3990 N.4   1 <1>  -0.9590 
 10 C       -0.6170     2.4350     1.7220 C.3   1 <1>   0.0400 
 11 C        0.1360    -5.8900    -1.0140 C.3   1 <1>   0.3430 
 12 C       -1.1550    -3.8360    -0.4730 C.3   1 <1>   0.3430 
 13 C       -0.9050    -6.7520    -0.3080 C.3   1 <1>  -0.1600 
 14 C       -2.2140    -4.6670     0.2430 C.3   1 <1>  -0.1600 
 15 C       -2.2850    -6.0840    -0.3250 C.3   1 <1>   0.2000 
 16 O       -3.1530    -6.8140     0.5070 O.3   1 <1>  -0.3630 
 17 C       -3.5900    -8.0600     0.1930 C.ar  1 <1>   0.0820 
 18 C       -3.9790    -8.8670     1.2490 C.ar  1 <1>  -0.1500 
 19 C       -3.6620    -8.5510    -1.1080 C.ar  1 <1>  -0.1500 
 20 C       -4.4210   -10.1610     1.0270 C.ar  1 <1>  -0.1430 
 21 C       -4.1040    -9.8420    -1.3330 C.ar  1 <1>  -0.1500 
 22 C       -4.4800   -10.6440    -0.2700 C.ar  1 <1>  -0.1500 
 23 C       -4.8440   -11.0430     2.1880 C.3   1 <1>  -0.0970 
 24 H        0.2260     1.3300    -0.4750 H     1 <1>   0.0800 
 25 H        1.5710     1.6120     0.6260 H     1 <1>   0.0800 
 26 H        2.2060    -4.2080    -0.9110 H     1 <1>   0.0800 
 27 H        1.0700    -3.4810    -2.0210 H     1 <1>   0.0800 
 28 H        0.3880    -4.6360     0.6030 H     1 <1>   0.4500 
 29 H       -1.3050     2.4200     2.5490 H     1 <1>   0.0800 
 30 H       -1.1140     2.8150     0.8460 H     1 <1>   0.0800 
 31 H        0.2330     3.0480     1.9730 H     1 <1>   0.0800 
 32 H        1.1030    -6.3590    -0.9280 H     1 <1>   0.0800 
 33 H       -0.1130    -5.8120    -2.0600 H     1 <1>   0.0800 
 34 H       -1.4390    -3.6930    -1.5030 H     1 <1>   0.0800 
 35 H       -1.0930    -2.8660    -0.0040 H     1 <1>   0.0800 
 36 H       -0.5960    -6.9260     0.7080 H     1 <1>   0.0800 
 37 H       -0.9570    -7.7050    -0.8050 H     1 <1>   0.0800 
 38 H       -3.1710    -4.1900     0.1250 H     1 <1>   0.0800 
 39 H       -1.9870    -4.7010     1.2940 H     1 <1>   0.0800 
 40 H       -2.6980    -6.0500    -1.3180 H     1 <1>   0.0800 
 41 H       -3.9320    -8.4740     2.2480 H     1 <1>   0.1500 
 42 H       -3.3910    -7.9500    -1.9530 H     1 <1>   0.1500 
 43 H       -4.1620   -10.2270    -2.3370 H     1 <1>   0.1500 
 44 H       -4.8240   -11.6470    -0.4560 H     1 <1>   0.1500 
 45 H       -4.4280   -10.6820     3.1110 H     1 <1>   0.0800 
 46 H       -4.5020   -12.0510     2.0330 H     1 <1>   0.0800 
 47 H       -5.9160   -11.0470     2.2690 H     1 <1>   0.0800 
@<TRIPOS>BOND
  1   1   2  1   
  2   1   3  1   
  3   2   4  2   
  4   3   5  2   
  5   3   6  1   
  6   4   5  1   
  7   4   7  1   
  8   6   8  1   
  9   6  24  1   
 10   6  25  1   
 11   7   9  1   
 12   7  26  1   
 13   7  27  1   
 14   8  10  1   
 15   9  11  1   
 16   9  12  1   
 17   9  28  1   
 18  10  29  1   
 19  10  30  1   
 20  10  31  1   
 21  11  13  1   
 22  11  32  1   
 23  11  33  1   
 24  12  14  1   
 25  12  34  1   
 26  12  35  1   
 27  13  15  1   
 28  13  36  1   
 29  13  37  1   
 30  14  15  1   
 31  14  38  1   
 32  14  39  1   
 33  15  16  1   
 34  15  40  1   
 35  16  17  1   
 36  17  18  ar  
 37  17  19  ar  
 38  18  20  ar  
 39  18  41  1   
 40  19  21  ar  
 41  19  42  1   
 42  20  22  ar  
 43  20  23  1   
 44  21  22  ar  
 45  21  43  1   
 46  22  44  1   
 47  23  45  1   
 48  23  46  1   
 49  23  47  1   
@<TRIPOS>SUBSTRUCTURE
  1 ****  14 GROUP 4 **** **** 0

# MOE 2024.06 (io_trps.svl 2023.06)
