@<TRIPOS>MOLECULE
NONAME
52 56 1 0 0 
SMALL
USER_CHARGES


@<TRIPOS>ATOM
  1 O       -3.9500     2.8430     1.4500 O.2   1 <1>  -0.5700 
  2 C       -3.0300     2.7080     0.6830 C.2   1 <1>   0.5690 
  3 N       -3.1810     2.0840    -0.5120 N.am  1 <1>  -0.7300 
  4 C       -1.6640     3.2350     1.0750 C.3   1 <1>   0.1570 
  5 C       -4.3930     1.3740    -0.9770 C.3   1 <1>   0.2200 
  6 N       -0.6550     2.1700     0.9060 N.pl3 1 <1>   0.0480 
  7 C       -4.1590    -0.1320    -0.9970 C.3   1 <1>  -0.0800 
  8 C       -4.5660     1.6420    -2.4650 C.3   1 <1>   0.1200 
  9 C       -0.5560     1.0550     1.6770 C.ar  1 <1>  -0.1520 
 10 C        0.1960     1.9660    -0.1400 C.2   1 <1>   0.1010 
 11 C       -3.4270    -0.3450    -2.3270 C.3   1 <1>   0.1200 
 12 C       -3.4250    -0.7180     0.2230 C.3   1 <1>  -0.0170 
 13 O       -3.6420     0.8070    -3.0940 O.3   1 <1>  -0.5600 
 14 C        0.3690     0.2470     1.0450 C.ar  1 <1>   0.2270 
 15 C       -1.1970     0.6390     2.8480 C.ar  1 <1>  -0.1500 
 16 N        0.8220     0.8410    -0.0900 N.2   1 <1>  -0.5650 
 17 C        0.3720     2.9840    -1.2590 C.3   1 <1>  -0.0150 
 18 C       -3.2510    -2.2230     0.1000 C.ar  1 <1>  -0.1440 
 19 C        0.6910    -0.9980     1.5810 C.ar  1 <1>  -0.1500 
 20 C       -0.8800    -0.5970     3.3660 C.ar  1 <1>  -0.1500 
 21 C       -0.5130     2.9380    -2.4690 C.3   1 <1>  -0.2000 
 22 C        0.9380     2.5900    -2.5880 C.3   1 <1>  -0.2000 
 23 C       -4.2900    -3.1030     0.3220 C.ar  1 <1>  -0.1500 
 24 C       -2.0370    -2.7840    -0.2370 C.ar  1 <1>  -0.1500 
 25 C        0.0650    -1.4160     2.7350 C.ar  1 <1>  -0.1500 
 26 C       -4.0720    -4.4640     0.1940 C.ar  1 <1>   0.1600 
 27 C       -1.9240    -4.1610    -0.3390 C.ar  1 <1>   0.1600 
 28 N       -2.9140    -5.0160    -0.1340 N.ar  1 <1>  -0.6200 
 29 H       -2.3720     1.9260    -1.1210 H     1 <1>   0.3700 
 30 H       -1.6790     3.5410     2.1030 H     1 <1>   0.0800 
 31 H       -1.4160     4.0790     0.4630 H     1 <1>   0.0800 
 32 H       -5.2560     1.6610    -0.3990 H     1 <1>   0.0800 
 33 H       -5.1170    -0.6150    -1.0760 H     1 <1>   0.0800 
 34 H       -4.3720     2.6660    -2.7310 H     1 <1>   0.0800 
 35 H       -5.5500     1.3550    -2.7940 H     1 <1>   0.0800 
 36 H       -3.8070    -1.2000    -2.8610 H     1 <1>   0.0800 
 37 H       -2.3650    -0.4480    -2.1850 H     1 <1>   0.0800 
 38 H       -3.9730    -0.4910     1.1210 H     1 <1>   0.0800 
 39 H       -2.4530    -0.2730     0.3170 H     1 <1>   0.0800 
 40 H       -1.9250     1.2700     3.3280 H     1 <1>   0.1500 
 41 H        0.6900     3.9420    -0.8880 H     1 <1>   0.1000 
 42 H        1.4190    -1.6040     1.0760 H     1 <1>   0.1500 
 43 H       -1.3580    -0.9470     4.2650 H     1 <1>   0.1500 
 44 H       -1.2050     2.1290    -2.6250 H     1 <1>   0.1000 
 45 H       -0.8550     3.8620    -2.9020 H     1 <1>   0.1000 
 46 H        1.6010     3.2740    -3.0880 H     1 <1>   0.1000 
 47 H        1.2190     1.5610    -2.7360 H     1 <1>   0.1000 
 48 H       -5.2650    -2.7430     0.5950 H     1 <1>   0.1500 
 49 H       -1.1760    -2.1650    -0.4200 H     1 <1>   0.1500 
 50 H        0.2950    -2.3770     3.1610 H     1 <1>   0.1500 
 51 H       -4.8940    -5.1370     0.3710 H     1 <1>   0.1500 
 52 H       -0.9690    -4.5800    -0.6030 H     1 <1>   0.1500 
@<TRIPOS>BOND
  1   1   2  2   
  2   2   3  am  
  3   2   4  1   
  4   3   5  1   
  5   3  29  1   
  6   4   6  1   
  7   4  30  1   
  8   4  31  1   
  9   5   7  1   
 10   5   8  1   
 11   5  32  1   
 12   6   9  1   
 13   6  10  1   
 14   7  11  1   
 15   7  12  1   
 16   7  33  1   
 17   8  13  1   
 18   8  34  1   
 19   8  35  1   
 20   9  14  ar  
 21   9  15  ar  
 22  10  16  2   
 23  10  17  1   
 24  11  13  1   
 25  11  36  1   
 26  11  37  1   
 27  12  18  1   
 28  12  38  1   
 29  12  39  1   
 30  14  16  1   
 31  14  19  ar  
 32  15  20  ar  
 33  15  40  1   
 34  17  21  1   
 35  17  22  1   
 36  17  41  1   
 37  18  23  ar  
 38  18  24  ar  
 39  19  25  ar  
 40  19  42  1   
 41  20  25  ar  
 42  20  43  1   
 43  21  22  1   
 44  21  44  1   
 45  21  45  1   
 46  22  46  1   
 47  22  47  1   
 48  23  26  ar  
 49  23  48  1   
 50  24  27  ar  
 51  24  49  1   
 52  25  50  1   
 53  26  28  ar  
 54  26  51  1   
 55  27  28  ar  
 56  27  52  1   
@<TRIPOS>SUBSTRUCTURE
  1 ****  12 GROUP 4 **** **** 0

# MOE 2024.06 (io_trps.svl 2023.06)
