@<TRIPOS>MOLECULE
NONAME
56 58 1 0 0 
SMALL
USER_CHARGES


@<TRIPOS>ATOM
  1 CL      -2.9090    -3.4450     3.8880 Cl    1 <1>  -0.1770 
  2 C       -3.4900    -3.3280     2.2370 C.ar  1 <1>   0.1770 
  3 C       -4.3690    -2.3080     1.8980 C.ar  1 <1>  -0.1440 
  4 C       -3.0590    -4.2570     1.3000 C.ar  1 <1>  -0.1440 
  5 C       -4.8220    -2.2320     0.5920 C.ar  1 <1>  -0.1500 
  6 C       -4.8390    -1.2950     2.9310 C.3   1 <1>  -0.0960 
  7 C       -3.5210    -4.1580    -0.0020 C.ar  1 <1>  -0.1500 
  8 C       -2.0960    -5.3720     1.6820 C.3   1 <1>  -0.0960 
  9 C       -4.4160    -3.1520    -0.3620 C.ar  1 <1>   0.0830 
 10 O       -4.9640    -3.0000    -1.5990 O.3   1 <1>  -0.3630 
 11 C       -4.9420    -3.9600    -2.6530 C.3   1 <1>   0.3410 
 12 C       -5.2230    -5.4150    -2.1520 C.2   1 <1>   0.5690 
 13 C       -6.0370    -3.5170    -3.6370 C.3   1 <1>  -0.2400 
 14 C       -3.5860    -3.7940    -3.3710 C.3   1 <1>  -0.2400 
 15 O       -4.4640    -6.2920    -2.5070 O.2   1 <1>  -0.5700 
 16 N       -6.2720    -5.7360    -1.3170 N.am  1 <1>  -0.6600 
 17 C       -7.3320    -4.8490    -0.7630 C.3   1 <1>   0.1400 
 18 C       -6.3440    -7.0620    -0.6480 C.3   1 <1>   0.1400 
 19 C       -7.6310    -5.4330     0.6150 C.3   1 <1>   0.2000 
 20 C       -7.4450    -6.9380     0.4110 C.3   1 <1>  -0.0800 
 21 O       -6.6840    -4.9510     1.5080 O.3   1 <1>  -0.6800 
 22 C       -7.1680    -7.7500     1.6890 C.3   1 <1>   0.0210 
 23 C       -7.0200    -9.2260     1.3710 C.2   1 <1>   0.1080 
 24 N       -7.9870    -9.9430     0.8860 N.2   1 <1>  -0.7070 
 25 C       -5.8550    -9.9640     1.5460 C.2   1 <1>  -0.1500 
 26 N       -7.4580   -11.1730     0.7410 N.pl3 1 <1>   0.3000 
 27 C       -6.1670   -11.2100     1.1330 C.2   1 <1>  -0.3320 
 28 C       -5.2980   -12.4540     1.0860 C.3   1 <1>  -0.0600 
 29 H       -5.5060    -1.4560     0.2980 H     1 <1>   0.1500 
 30 H       -5.4950    -0.5680     2.4890 H     1 <1>   0.0800 
 31 H       -3.9950    -0.7800     3.3530 H     1 <1>   0.0800 
 32 H       -5.3700    -1.7980     3.7200 H     1 <1>   0.0800 
 33 H       -3.1710    -4.8730    -0.7200 H     1 <1>   0.1500 
 34 H       -1.8850    -6.0090     0.8410 H     1 <1>   0.0800 
 35 H       -2.5220    -5.9730     2.4650 H     1 <1>   0.0800 
 36 H       -1.1700    -4.9520     2.0320 H     1 <1>   0.0800 
 37 H       -6.0600    -4.1850    -4.4790 H     1 <1>   0.0800 
 38 H       -5.8430    -2.5220    -3.9940 H     1 <1>   0.0800 
 39 H       -7.0020    -3.5360    -3.1680 H     1 <1>   0.0800 
 40 H       -3.5560    -4.4220    -4.2440 H     1 <1>   0.0800 
 41 H       -2.7710    -4.0820    -2.7370 H     1 <1>   0.0800 
 42 H       -3.4440    -2.7740    -3.6790 H     1 <1>   0.0800 
 43 H       -7.0410    -3.8180    -0.6940 H     1 <1>   0.0800 
 44 H       -8.2070    -4.9310    -1.3840 H     1 <1>   0.0800 
 45 H       -6.5760    -7.8360    -1.3610 H     1 <1>   0.0800 
 46 H       -5.3930    -7.2780    -0.1910 H     1 <1>   0.0800 
 47 H       -8.6090    -5.1740     0.9830 H     1 <1>   0.0800 
 48 H       -8.3500    -7.3190    -0.0300 H     1 <1>   0.0800 
 49 H       -5.8090    -4.9220     1.0660 H     1 <1>   0.4000 
 50 H       -7.9840    -7.6270     2.3780 H     1 <1>   0.0800 
 51 H       -6.2720    -7.4040     2.1710 H     1 <1>   0.0800 
 52 H       -4.9220    -9.5940     1.9310 H     1 <1>   0.1500 
 53 H       -8.0030   -11.9620     0.3740 H     1 <1>   0.2700 
 54 H       -4.3120   -12.2290     1.4520 H     1 <1>   0.0800 
 55 H       -5.2150   -12.8120     0.0760 H     1 <1>   0.0800 
 56 H       -5.7230   -13.2280     1.7010 H     1 <1>   0.0800 
@<TRIPOS>BOND
  1   1   2  1   
  2   2   3  ar  
  3   2   4  ar  
  4   3   5  ar  
  5   3   6  1   
  6   4   7  ar  
  7   4   8  1   
  8   5   9  ar  
  9   5  29  1   
 10   6  30  1   
 11   6  31  1   
 12   6  32  1   
 13   7   9  ar  
 14   7  33  1   
 15   8  34  1   
 16   8  35  1   
 17   8  36  1   
 18   9  10  1   
 19  10  11  1   
 20  11  12  1   
 21  11  13  1   
 22  11  14  1   
 23  12  15  2   
 24  12  16  am  
 25  13  37  1   
 26  13  38  1   
 27  13  39  1   
 28  14  40  1   
 29  14  41  1   
 30  14  42  1   
 31  16  17  1   
 32  16  18  1   
 33  17  19  1   
 34  17  43  1   
 35  17  44  1   
 36  18  20  1   
 37  18  45  1   
 38  18  46  1   
 39  19  20  1   
 40  19  21  1   
 41  19  47  1   
 42  20  22  1   
 43  20  48  1   
 44  21  49  1   
 45  22  23  1   
 46  22  50  1   
 47  22  51  1   
 48  23  24  2   
 49  23  25  1   
 50  24  26  1   
 51  25  27  2   
 52  25  52  1   
 53  26  27  1   
 54  26  53  1   
 55  27  28  1   
 56  28  54  1   
 57  28  55  1   
 58  28  56  1   
@<TRIPOS>SUBSTRUCTURE
  1 ****  16 GROUP 4 **** **** 0

# MOE 2024.06 (io_trps.svl 2023.06)
