@<TRIPOS>MOLECULE
NONAME
40 41 1 0 0 
SMALL
USER_CHARGES


@<TRIPOS>ATOM
  1 CL       1.2800    -0.3170     2.7640 Cl    1 <1>  -0.1770 
  2 C        2.2120     0.6670     1.6660 C.ar  1 <1>   0.1770 
  3 C        1.5670     1.6020     0.8800 C.ar  1 <1>  -0.1500 
  4 C        3.5820     0.4960     1.5990 C.ar  1 <1>  -0.1500 
  5 C        2.3100     2.3830     0.0100 C.ar  1 <1>  -0.1500 
  6 C        4.3200     1.2790     0.7270 C.ar  1 <1>  -0.1500 
  7 C        3.6870     2.2240    -0.0710 C.ar  1 <1>  -0.1430 
  8 C        4.4950     3.0880    -1.0220 C.3   1 <1>   0.2840 
  9 N        4.7690     4.3650    -0.3470 N.am  1 <1>  -0.7300 
 10 C        5.1450     5.4970    -0.9880 C.2   1 <1>   0.5690 
 11 O        5.3050     5.5150    -2.1840 O.2   1 <1>  -0.5700 
 12 C        5.3680     6.7610    -0.1560 C.3   1 <1>  -0.0190 
 13 C        5.2180     8.0600    -0.9760 C.3   1 <1>  -0.1600 
 14 C        6.7410     6.7210     0.5550 C.3   1 <1>  -0.1600 
 15 C        5.2940     9.3230    -0.0910 C.3   1 <1>   0.2000 
 16 C        7.2480     8.1050     1.0110 C.3   1 <1>  -0.1600 
 17 O        5.9070    10.3510    -0.8300 O.3   1 <1>  -0.5600 
 18 C        6.0950     9.0910     1.2170 C.3   1 <1>   0.2000 
 19 C        5.0940    10.9680    -1.7800 C.3   1 <1>   0.0400 
 20 O        6.6280    10.2900     1.6420 O.3   1 <1>  -0.6800 
 21 H        0.5000     1.7150     0.9500 H     1 <1>   0.1500 
 22 H        4.0590    -0.2390     2.2210 H     1 <1>   0.1500 
 23 H        1.8140     3.1160    -0.6040 H     1 <1>   0.1500 
 24 H        5.3870     1.1490     0.6730 H     1 <1>   0.1500 
 25 H        3.9450     3.2660    -1.9320 H     1 <1>   0.0800 
 26 H        5.4250     2.6090    -1.2750 H     1 <1>   0.0800 
 27 H        4.6360     4.3460     0.6640 H     1 <1>   0.3700 
 28 H        4.6000     6.7740     0.5970 H     1 <1>   0.0800 
 29 H        4.2790     8.0480    -1.4990 H     1 <1>   0.0800 
 30 H        6.0080     8.0870    -1.7080 H     1 <1>   0.0800 
 31 H        6.6690     6.0680     1.4070 H     1 <1>   0.0800 
 32 H        7.4760     6.2980    -0.1110 H     1 <1>   0.0800 
 33 H        4.3030     9.6420     0.1850 H     1 <1>   0.0800 
 34 H        7.9010     8.5020     0.2530 H     1 <1>   0.0800 
 35 H        7.8120     8.0030     1.9220 H     1 <1>   0.0800 
 36 H        5.4470     8.7250     1.9950 H     1 <1>   0.0800 
 37 H        5.6660    11.7470    -2.2530 H     1 <1>   0.0800 
 38 H        4.2360    11.3960    -1.2920 H     1 <1>   0.0800 
 39 H        4.7910    10.2470    -2.5190 H     1 <1>   0.0800 
 40 H        6.8010    10.8090     0.8240 H     1 <1>   0.4000 
@<TRIPOS>BOND
  1   1   2  1   
  2   2   3  ar  
  3   2   4  ar  
  4   3   5  ar  
  5   3  21  1   
  6   4   6  ar  
  7   4  22  1   
  8   5   7  ar  
  9   5  23  1   
 10   6   7  ar  
 11   6  24  1   
 12   7   8  1   
 13   8   9  1   
 14   8  25  1   
 15   8  26  1   
 16   9  10  am  
 17   9  27  1   
 18  10  11  2   
 19  10  12  1   
 20  12  13  1   
 21  12  14  1   
 22  12  28  1   
 23  13  15  1   
 24  13  29  1   
 25  13  30  1   
 26  14  16  1   
 27  14  31  1   
 28  14  32  1   
 29  15  17  1   
 30  15  18  1   
 31  15  33  1   
 32  16  18  1   
 33  16  34  1   
 34  16  35  1   
 35  17  19  1   
 36  18  20  1   
 37  18  36  1   
 38  19  37  1   
 39  19  38  1   
 40  19  39  1   
 41  20  40  1   
@<TRIPOS>SUBSTRUCTURE
  1 ****   9 GROUP 4 **** **** 0

# MOE 2024.06 (io_trps.svl 2023.06)
