@<TRIPOS>MOLECULE
NONAME
51 55 1 0 0 
SMALL
USER_CHARGES


@<TRIPOS>ATOM
  1 S       -0.6210     1.6110    -2.2090 S.3   1 <1>  -0.0800 
  2 C       -0.2150     2.8060    -0.9950 C.2   1 <1>  -0.1400 
  3 C        1.0540     1.5520    -2.7380 C.2   1 <1>  -0.1100 
  4 C        1.0900     3.1060    -1.0050 C.2   1 <1>  -0.1810 
  5 C       -1.2410     3.4060    -0.0720 C.3   1 <1>   0.0200 
  6 C        1.8200     2.3900    -2.0130 C.2   1 <1>  -0.1500 
  7 C        1.6720     4.1180    -0.0160 C.3   1 <1>   0.4610 
  8 C       -0.6280     4.6850     0.5210 C.3   1 <1>   0.1200 
  9 O        0.6950     4.4630     0.9510 O.3   1 <1>  -0.5600 
 10 C        2.1380     5.3920    -0.7370 C.3   1 <1>  -0.1600 
 11 C        2.8340     3.4940     0.7670 C.3   1 <1>  -0.1600 
 12 C        2.7880     6.3780     0.2340 C.3   1 <1>   0.1400 
 13 C        3.4880     4.5040     1.7120 C.3   1 <1>   0.1400 
 14 N        3.9190     5.6970     0.9300 N.am  1 <1>  -0.6600 
 15 C        5.2380     6.0800     0.8870 C.2   1 <1>   0.5690 
 16 O        6.0960     5.5000     1.5100 O.2   1 <1>  -0.5700 
 17 C        5.6840     7.2660     0.0620 C.3   1 <1>  -0.0990 
 18 C        5.4000     8.5580     0.8250 C.3   1 <1>   0.1400 
 19 N        5.5510     9.7130    -0.0800 N.am  1 <1>  -0.4770 
 20 C        4.5680    10.2150    -0.8840 C.2   1 <1>   0.6900 
 21 C        6.6870    10.4950    -0.2740 C.ar  1 <1>   0.1170 
 22 O        3.4380     9.7680    -0.9960 O.2   1 <1>  -0.5700 
 23 N        5.0430    11.2850    -1.5630 N.am  1 <1>  -0.5470 
 24 C        6.3660    11.4760    -1.1980 C.ar  1 <1>   0.1170 
 25 C        7.9610    10.4300     0.2720 C.ar  1 <1>  -0.1500 
 26 C        7.3030    12.4160    -1.5980 C.ar  1 <1>  -0.1500 
 27 C        8.9020    11.3670    -0.1240 C.ar  1 <1>  -0.1500 
 28 C        8.5750    12.3540    -1.0520 C.ar  1 <1>  -0.1500 
 29 H        1.2910     0.8860    -3.5490 H     1 <1>   0.1500 
 30 H       -1.4820     2.7100     0.7100 H     1 <1>   0.0800 
 31 H       -2.1380     3.6480    -0.6120 H     1 <1>   0.0800 
 32 H        2.8780     2.5350    -2.1460 H     1 <1>   0.1500 
 33 H       -1.1990     5.0100     1.3720 H     1 <1>   0.0800 
 34 H       -0.6220     5.4720    -0.2110 H     1 <1>   0.0800 
 35 H        1.3130     5.8570    -1.2400 H     1 <1>   0.0800 
 36 H        2.8580     5.1290    -1.4890 H     1 <1>   0.0800 
 37 H        3.5840     3.1360     0.0870 H     1 <1>   0.0800 
 38 H        2.4720     2.6510     1.3250 H     1 <1>   0.0800 
 39 H        2.0660     6.6970     0.9670 H     1 <1>   0.0800 
 40 H        3.1110     7.2500    -0.3040 H     1 <1>   0.0800 
 41 H        4.3260     4.0450     2.2070 H     1 <1>   0.0800 
 42 H        2.7840     4.8120     2.4670 H     1 <1>   0.0800 
 43 H        5.1820     7.2560    -0.8860 H     1 <1>   0.0800 
 44 H        6.7400     7.1870    -0.1220 H     1 <1>   0.0800 
 45 H        6.0730     8.6540     1.6590 H     1 <1>   0.0800 
 46 H        4.3930     8.5510     1.2050 H     1 <1>   0.0800 
 47 H        4.4790    11.8170    -2.2210 H     1 <1>   0.3700 
 48 H        8.2070     9.6660     0.9860 H     1 <1>   0.1500 
 49 H        7.0400    13.1720    -2.3150 H     1 <1>   0.1500 
 50 H        9.8960    11.3340     0.2880 H     1 <1>   0.1500 
 51 H        9.3210    13.0730    -1.3460 H     1 <1>   0.1500 
@<TRIPOS>BOND
  1   1   2  1   
  2   1   3  1   
  3   2   4  2   
  4   2   5  1   
  5   3   6  2   
  6   3  29  1   
  7   4   6  1   
  8   4   7  1   
  9   5   8  1   
 10   5  30  1   
 11   5  31  1   
 12   6  32  1   
 13   7   9  1   
 14   7  10  1   
 15   7  11  1   
 16   8   9  1   
 17   8  33  1   
 18   8  34  1   
 19  10  12  1   
 20  10  35  1   
 21  10  36  1   
 22  11  13  1   
 23  11  37  1   
 24  11  38  1   
 25  12  14  1   
 26  12  39  1   
 27  12  40  1   
 28  13  14  1   
 29  13  41  1   
 30  13  42  1   
 31  14  15  am  
 32  15  16  2   
 33  15  17  1   
 34  17  18  1   
 35  17  43  1   
 36  17  44  1   
 37  18  19  1   
 38  18  45  1   
 39  18  46  1   
 40  19  20  am  
 41  19  21  1   
 42  20  22  2   
 43  20  23  am  
 44  21  24  ar  
 45  21  25  ar  
 46  23  24  1   
 47  23  47  1   
 48  24  26  ar  
 49  25  27  ar  
 50  25  48  1   
 51  26  28  ar  
 52  26  49  1   
 53  27  28  ar  
 54  27  50  1   
 55  28  51  1   
@<TRIPOS>SUBSTRUCTURE
  1 ****  12 GROUP 4 **** **** 0

# MOE 2024.06 (io_trps.svl 2023.06)
