@<TRIPOS>MOLECULE
NONAME
51 52 1 0 0 
SMALL
USER_CHARGES


@<TRIPOS>ATOM
  1 S        0.4750     0.4470    -1.3570 S.o2  1 <1>   1.3330 
  2 O       -0.7150     1.2530    -1.5070 O.2   1 <1>  -0.6500 
  3 O        0.8040    -0.5440    -2.3570 O.2   1 <1>  -0.6500 
  4 N        0.3600    -0.3460     0.1430 N.am  1 <1>  -0.8490 
  5 C        1.8930     1.5290    -1.1610 C.3   1 <1>  -0.0550 
  6 C       -0.3400     0.4420     1.1640 C.3   1 <1>   0.1160 
  7 C       -0.2670    -1.6660     0.0230 C.3   1 <1>   0.1160 
  8 C        3.2430     0.7900    -1.0290 C.3   1 <1>  -0.0800 
  9 C        4.4690     1.6900    -1.0740 C.3   1 <1>   0.2200 
 10 C        3.4400     0.0100     0.2780 C.3   1 <1>   0.1200 
 11 N        4.2590     2.9090    -0.2590 N.am  1 <1>  -0.7300 
 12 C        5.4840     0.8070    -0.3650 C.3   1 <1>   0.1200 
 13 O        4.7670     0.2160     0.6730 O.3   1 <1>  -0.5600 
 14 C        4.1230     4.1680    -0.7500 C.2   1 <1>   0.5690 
 15 O        4.0480     4.3700    -1.9390 O.2   1 <1>  -0.5700 
 16 C        4.0590     5.3550     0.2230 C.3   1 <1>   0.1710 
 17 N        5.3700     5.9440     0.6190 N.3   1 <1>  -0.8100 
 18 C        6.0780     6.4860    -0.5570 C.3   1 <1>   0.2530 
 19 C        6.2040     5.0000     1.3800 C.3   1 <1>   0.0300 
 20 C        7.2940     7.3020    -0.1460 C.ar  1 <1>  -0.1440 
 21 C        7.1950     8.2530     0.8600 C.ar  1 <1>   0.1600 
 22 C        8.5140     7.1180    -0.7670 C.ar  1 <1>  -0.1500 
 23 N        8.1900     9.0180     1.2850 N.ar  1 <1>  -0.6200 
 24 C        9.5610     7.9040    -0.3370 C.ar  1 <1>  -0.1500 
 25 C        9.3480     8.8240     0.6760 C.ar  1 <1>   0.1600 
 26 H        1.9490     2.1650    -2.0230 H     1 <1>   0.0800 
 27 H        1.7410     2.1620    -0.3090 H     1 <1>   0.0800 
 28 H       -0.3030    -0.0660     2.1130 H     1 <1>   0.0800 
 29 H       -1.3710     0.5900     0.8850 H     1 <1>   0.0800 
 30 H        0.1270     1.4050     1.2760 H     1 <1>   0.0800 
 31 H       -0.3160    -2.1460     0.9850 H     1 <1>   0.0800 
 32 H        0.3120    -2.2920    -0.6350 H     1 <1>   0.0800 
 33 H       -1.2630    -1.5720    -0.3780 H     1 <1>   0.0800 
 34 H        3.3240     0.0870    -1.8410 H     1 <1>   0.0800 
 35 H        4.7690     1.9420    -2.0780 H     1 <1>   0.0800 
 36 H        3.2740    -1.0450     0.1410 H     1 <1>   0.0800 
 37 H        2.8070     0.3770     1.0670 H     1 <1>   0.0800 
 38 H        4.3470     2.7470     0.7480 H     1 <1>   0.3700 
 39 H        6.3170     1.3600     0.0340 H     1 <1>   0.0800 
 40 H        5.8370     0.0250    -1.0150 H     1 <1>   0.0800 
 41 H        3.5390     5.0430     1.1100 H     1 <1>   0.0800 
 42 H        3.4630     6.1240    -0.2350 H     1 <1>   0.0800 
 43 H        6.3780     5.6810    -1.2070 H     1 <1>   0.0800 
 44 H        5.4130     7.1270    -1.1110 H     1 <1>   0.0800 
 45 H        7.0710     5.5050     1.7720 H     1 <1>   0.0800 
 46 H        6.5320     4.1880     0.7540 H     1 <1>   0.0800 
 47 H        5.6480     4.6040     2.2130 H     1 <1>   0.0800 
 48 H        6.2410     8.3860     1.3420 H     1 <1>   0.1500 
 49 H        8.6470     6.3950    -1.5520 H     1 <1>   0.1500 
 50 H       10.5350     7.8090    -0.7810 H     1 <1>   0.1500 
 51 H       10.1740     9.4330     1.0020 H     1 <1>   0.1500 
@<TRIPOS>BOND
  1   1   2  2   
  2   1   3  2   
  3   1   4  am  
  4   1   5  1   
  5   4   6  1   
  6   4   7  1   
  7   5   8  1   
  8   5  26  1   
  9   5  27  1   
 10   6  28  1   
 11   6  29  1   
 12   6  30  1   
 13   7  31  1   
 14   7  32  1   
 15   7  33  1   
 16   8   9  1   
 17   8  10  1   
 18   8  34  1   
 19   9  11  1   
 20   9  12  1   
 21   9  35  1   
 22  10  13  1   
 23  10  36  1   
 24  10  37  1   
 25  11  14  am  
 26  11  38  1   
 27  12  13  1   
 28  12  39  1   
 29  12  40  1   
 30  14  15  2   
 31  14  16  1   
 32  16  17  1   
 33  16  41  1   
 34  16  42  1   
 35  17  18  1   
 36  17  19  1   
 37  18  20  1   
 38  18  43  1   
 39  18  44  1   
 40  19  45  1   
 41  19  46  1   
 42  19  47  1   
 43  20  21  ar  
 44  20  22  ar  
 45  21  23  ar  
 46  21  48  1   
 47  22  24  ar  
 48  22  49  1   
 49  23  25  ar  
 50  24  25  ar  
 51  24  50  1   
 52  25  51  1   
@<TRIPOS>SUBSTRUCTURE
  1 ****  11 GROUP 4 **** **** 0

# MOE 2024.06 (io_trps.svl 2023.06)
