@<TRIPOS>MOLECULE
NONAME
49 53 1 0 0 
SMALL
USER_CHARGES


@<TRIPOS>ATOM
  1 O       -0.6320     0.1790     0.4000 O.2   1 <1>  -0.5700 
  2 C       -1.5900     0.8410     0.0270 C.2   1 <1>   0.7160 
  3 N       -2.7820     0.1560    -0.1420 N.am  1 <1>  -0.6600 
  4 C       -1.4360     2.2770    -0.2180 C.2   1 <1>   0.2030 
  5 C       -4.0720     0.7460    -0.5820 C.3   1 <1>   0.1400 
  6 C       -2.8820    -1.3220    -0.0880 C.3   1 <1>   0.1400 
  7 N       -2.3200     3.1220    -0.7440 N.2   1 <1>  -0.7070 
  8 C       -0.2640     2.9870     0.0820 C.2   1 <1>  -0.1810 
  9 C       -5.0810    -0.3930    -0.4470 C.3   1 <1>   0.2000 
 10 C       -4.2450    -1.6510    -0.7120 C.3   1 <1>  -0.0800 
 11 N       -1.7160     4.3260    -0.7700 N.pl3 1 <1>   0.3000 
 12 C       -0.4730     4.2470    -0.2710 C.2   1 <1>  -0.3320 
 13 C        1.1100     2.7750     0.6530 C.3   1 <1>   0.0210 
 14 O       -5.5440    -0.4080     0.8620 O.3   1 <1>  -0.6800 
 15 C       -4.8730    -2.9630    -0.1970 C.3   1 <1>  -0.0170 
 16 C        0.6910     5.1620    -0.0220 C.3   1 <1>   0.0200 
 17 C        1.7060     4.2070     0.6550 C.3   1 <1>  -0.1600 
 18 C       -4.1420    -4.2630    -0.5590 C.ar  1 <1>  -0.1440 
 19 C       -4.5330    -5.4810     0.0520 C.ar  1 <1>   0.0000 
 20 C       -3.1180    -4.3270    -1.4630 C.ar  1 <1>  -0.1500 
 21 C       -3.8230    -6.6570    -0.2930 C.ar  1 <1>   0.3100 
 22 C       -5.5940    -5.6030     0.9820 C.ar  1 <1>  -0.1500 
 23 C       -2.4850    -5.5450    -1.7360 C.ar  1 <1>   0.1600 
 24 N       -2.8030    -6.6720    -1.1860 N.ar  1 <1>  -0.6200 
 25 C       -4.1860    -7.8750     0.3060 C.ar  1 <1>  -0.1500 
 26 C       -5.9240    -6.8060     1.5460 C.ar  1 <1>  -0.1500 
 27 C       -5.2110    -7.9580     1.2070 C.ar  1 <1>  -0.1500 
 28 H       -4.3480     1.5980     0.0160 H     1 <1>   0.0800 
 29 H       -3.9850     1.0460    -1.6120 H     1 <1>   0.0800 
 30 H       -2.0690    -1.7770    -0.6270 H     1 <1>   0.0800 
 31 H       -2.8430    -1.6370     0.9410 H     1 <1>   0.0800 
 32 H       -5.9250    -0.2910    -1.1070 H     1 <1>   0.0800 
 33 H       -4.1190    -1.7180    -1.7770 H     1 <1>   0.0800 
 34 H       -2.1700     5.1740    -1.1300 H     1 <1>   0.2700 
 35 H        1.0500     2.3670     1.6470 H     1 <1>   0.0800 
 36 H        1.6750     2.1140     0.0190 H     1 <1>   0.0800 
 37 H       -4.7830    -0.2710     1.4630 H     1 <1>   0.4000 
 38 H       -5.8790    -3.0300    -0.5740 H     1 <1>   0.0800 
 39 H       -4.9340    -2.9020     0.8750 H     1 <1>   0.0800 
 40 H        1.0780     5.5450    -0.9510 H     1 <1>   0.0800 
 41 H        0.4180     5.9720     0.6320 H     1 <1>   0.0800 
 42 H        2.6450     4.2220     0.1310 H     1 <1>   0.0800 
 43 H        1.8720     4.5220     1.6700 H     1 <1>   0.0800 
 44 H       -2.7550    -3.4710    -1.9970 H     1 <1>   0.1500 
 45 H       -6.1640    -4.7350     1.2560 H     1 <1>   0.1500 
 46 H       -1.6810    -5.5430    -2.4520 H     1 <1>   0.1500 
 47 H       -3.6240    -8.7470     0.0270 H     1 <1>   0.1500 
 48 H       -6.7320    -6.8800     2.2530 H     1 <1>   0.1500 
 49 H       -5.4780    -8.8980     1.6590 H     1 <1>   0.1500 
@<TRIPOS>BOND
  1   1   2  2   
  2   2   3  am  
  3   2   4  1   
  4   3   5  1   
  5   3   6  1   
  6   4   7  2   
  7   4   8  1   
  8   5   9  1   
  9   5  28  1   
 10   5  29  1   
 11   6  10  1   
 12   6  30  1   
 13   6  31  1   
 14   7  11  1   
 15   8  12  2   
 16   8  13  1   
 17   9  10  1   
 18   9  14  1   
 19   9  32  1   
 20  10  15  1   
 21  10  33  1   
 22  11  12  1   
 23  11  34  1   
 24  12  16  1   
 25  13  17  1   
 26  13  35  1   
 27  13  36  1   
 28  14  37  1   
 29  15  18  1   
 30  15  38  1   
 31  15  39  1   
 32  16  17  1   
 33  16  40  1   
 34  16  41  1   
 35  17  42  1   
 36  17  43  1   
 37  18  19  ar  
 38  18  20  ar  
 39  19  21  ar  
 40  19  22  ar  
 41  20  23  ar  
 42  20  44  1   
 43  21  24  ar  
 44  21  25  ar  
 45  22  26  ar  
 46  22  45  1   
 47  23  24  ar  
 48  23  46  1   
 49  25  27  ar  
 50  25  47  1   
 51  26  27  ar  
 52  26  48  1   
 53  27  49  1   
@<TRIPOS>SUBSTRUCTURE
  1 ****   6 GROUP 4 **** **** 0

# MOE 2024.06 (io_trps.svl 2023.06)
