@<TRIPOS>MOLECULE
NONAME
25 25 1 0 0 
SMALL
USER_CHARGES


@<TRIPOS>ATOM
  1 O        0.4910    -0.0110     0.7710 O.2   1 <1>  -0.5700 
  2 C        1.3600    -0.6950     0.2690 C.2   1 <1>   0.6340 
  3 O        2.5100    -0.1110    -0.0850 O.3   1 <1>  -0.4300 
  4 C        1.2140    -2.1200     0.0290 C.ar  1 <1>   0.0860 
  5 C        2.7380     1.2700     0.1120 C.3   1 <1>   0.0400 
  6 C        0.0400    -2.7910     0.3820 C.ar  1 <1>  -0.1500 
  7 C        2.2270    -2.8820    -0.5580 C.ar  1 <1>  -0.1500 
  8 C       -0.1250    -4.1490     0.1650 C.ar  1 <1>  -0.1440 
  9 C        2.0750    -4.2380    -0.7810 C.ar  1 <1>  -0.1500 
 10 C        0.9010    -4.8720    -0.4200 C.ar  1 <1>  -0.1500 
 11 C       -1.4220    -4.8370     0.5610 C.3   1 <1>  -0.0170 
 12 C       -2.4280    -4.7710    -0.5880 C.3   1 <1>   0.1200 
 13 O       -3.5870    -5.4330    -0.2170 O.3   1 <1>  -0.6800 
 14 H        3.7230     1.5090    -0.2470 H     1 <1>   0.0800 
 15 H        2.6630     1.4880     1.1640 H     1 <1>   0.0800 
 16 H        1.9980     1.8260    -0.4360 H     1 <1>   0.0800 
 17 H       -0.7580    -2.2260     0.8350 H     1 <1>   0.1500 
 18 H        3.1490    -2.4070    -0.8450 H     1 <1>   0.1500 
 19 H        2.8720    -4.8020    -1.2350 H     1 <1>   0.1500 
 20 H        0.7920    -5.9280    -0.5980 H     1 <1>   0.1500 
 21 H       -1.8370    -4.3510     1.4260 H     1 <1>   0.0800 
 22 H       -1.2190    -5.8630     0.8120 H     1 <1>   0.0800 
 23 H       -2.0360    -5.2390    -1.4750 H     1 <1>   0.0800 
 24 H       -2.6830    -3.7490    -0.8090 H     1 <1>   0.0800 
 25 H       -3.4190    -6.3860    -0.0890 H     1 <1>   0.4000 
@<TRIPOS>BOND
  1   1   2  2   
  2   2   3  1   
  3   2   4  1   
  4   3   5  1   
  5   4   6  ar  
  6   4   7  ar  
  7   5  14  1   
  8   5  15  1   
  9   5  16  1   
 10   6   8  ar  
 11   6  17  1   
 12   7   9  ar  
 13   7  18  1   
 14   8  10  ar  
 15   8  11  1   
 16   9  10  ar  
 17   9  19  1   
 18  10  20  1   
 19  11  12  1   
 20  11  21  1   
 21  11  22  1   
 22  12  13  1   
 23  12  23  1   
 24  12  24  1   
 25  13  25  1   
@<TRIPOS>SUBSTRUCTURE
  1 ****   6 GROUP 4 **** **** 0

# MOE 2024.06 (io_trps.svl 2023.06)
