@<TRIPOS>MOLECULE
NONAME
48 49 1 0 0 
SMALL
USER_CHARGES


@<TRIPOS>ATOM
  1 O        0.4720    -0.7250     2.3880 O.2   1 <1>  -0.5700 
  2 C        1.3970    -1.0160     1.6650 C.2   1 <1>   0.5690 
  3 N        2.2090    -0.0910     1.0630 N.am  1 <1>  -0.4940 
  4 C        1.6780    -2.5000     1.3960 C.3   1 <1>   0.1710 
  5 C        2.1800     1.3240     1.1370 C.2   1 <1>  -0.0880 
  6 N        1.0260    -3.0800     0.1880 N.3   1 <1>  -0.8100 
  7 N        2.9710     2.1760     0.4210 N.pl3 1 <1>   0.3140 
  8 C        1.3900     2.1080     1.9080 C.2   1 <1>  -0.1500 
  9 C       -0.4460    -3.0290     0.3150 C.3   1 <1>   0.2530 
 10 C        1.4880    -2.4690    -1.0680 C.3   1 <1>   0.0300 
 11 N        2.6970     3.4680     0.7220 N.2   1 <1>  -0.7070 
 12 C        4.0160     1.8610    -0.5960 C.3   1 <1>   0.1760 
 13 C        1.7560     3.4120     1.6070 C.2   1 <1>   0.1080 
 14 C       -1.1210    -3.8350    -0.7860 C.ar  1 <1>  -0.1430 
 15 C        3.3880     1.1670    -1.8240 C.3   1 <1>  -0.1600 
 16 C        5.1720     1.0620     0.0310 C.3   1 <1>  -0.2400 
 17 C        1.1480     4.6500     2.2230 C.3   1 <1>  -0.0590 
 18 C       -2.1090    -3.2970    -1.5870 C.ar  1 <1>  -0.1500 
 19 C       -0.7810    -5.1480    -1.0410 C.ar  1 <1>  -0.1500 
 20 C        4.3630     1.0100    -3.0000 C.3   1 <1>  -0.2400 
 21 C       -2.6900    -4.0760    -2.5740 C.ar  1 <1>   0.1600 
 22 C       -1.4240    -5.8400    -2.0530 C.ar  1 <1>   0.1600 
 23 N       -2.3720    -5.3350    -2.8270 N.ar  1 <1>  -0.6200 
 24 H        2.9250    -0.4840     0.4550 H     1 <1>   0.3700 
 25 H        1.3530    -3.0550     2.2590 H     1 <1>   0.0800 
 26 H        2.7400    -2.6430     1.3180 H     1 <1>   0.0800 
 27 H        0.6340     1.8050     2.6100 H     1 <1>   0.1500 
 28 H       -0.7830    -2.0070     0.2840 H     1 <1>   0.0800 
 29 H       -0.7370    -3.4440     1.2650 H     1 <1>   0.0800 
 30 H        2.5620    -2.4920    -1.1180 H     1 <1>   0.0800 
 31 H        1.1430    -1.4520    -1.1480 H     1 <1>   0.0800 
 32 H        1.1070    -3.0260    -1.9080 H     1 <1>   0.0800 
 33 H        4.4120     2.8080    -0.9210 H     1 <1>   0.0800 
 34 H        2.5550     1.7630    -2.1570 H     1 <1>   0.0800 
 35 H        3.0140     0.1970    -1.5540 H     1 <1>   0.0800 
 36 H        4.8740     0.0610     0.2750 H     1 <1>   0.0800 
 37 H        5.5120     1.5580     0.9240 H     1 <1>   0.0800 
 38 H        6.0010     1.0140    -0.6510 H     1 <1>   0.0800 
 39 H        0.3830     4.3830     2.9270 H     1 <1>   0.0800 
 40 H        0.7210     5.2610     1.4490 H     1 <1>   0.0800 
 41 H        1.9130     5.2100     2.7270 H     1 <1>   0.0800 
 42 H       -2.4320    -2.2810    -1.4530 H     1 <1>   0.1500 
 43 H       -0.0160    -5.6290    -0.4580 H     1 <1>   0.1500 
 44 H        4.7740     1.9660    -3.2780 H     1 <1>   0.0800 
 45 H        3.8450     0.6060    -3.8520 H     1 <1>   0.0800 
 46 H        5.1700     0.3440    -2.7510 H     1 <1>   0.0800 
 47 H       -3.4590    -3.6390    -3.1880 H     1 <1>   0.1500 
 48 H       -1.1420    -6.8630    -2.2360 H     1 <1>   0.1500 
@<TRIPOS>BOND
  1   1   2  2   
  2   2   3  am  
  3   2   4  1   
  4   3   5  1   
  5   3  24  1   
  6   4   6  1   
  7   4  25  1   
  8   4  26  1   
  9   5   7  1   
 10   5   8  2   
 11   6   9  1   
 12   6  10  1   
 13   7  11  1   
 14   7  12  1   
 15   8  13  1   
 16   8  27  1   
 17   9  14  1   
 18   9  28  1   
 19   9  29  1   
 20  10  30  1   
 21  10  31  1   
 22  10  32  1   
 23  11  13  2   
 24  12  15  1   
 25  12  16  1   
 26  12  33  1   
 27  13  17  1   
 28  14  18  ar  
 29  14  19  ar  
 30  15  20  1   
 31  15  34  1   
 32  15  35  1   
 33  16  36  1   
 34  16  37  1   
 35  16  38  1   
 36  17  39  1   
 37  17  40  1   
 38  17  41  1   
 39  18  21  ar  
 40  18  42  1   
 41  19  22  ar  
 42  19  43  1   
 43  20  44  1   
 44  20  45  1   
 45  20  46  1   
 46  21  23  ar  
 47  21  47  1   
 48  22  23  ar  
 49  22  48  1   
@<TRIPOS>SUBSTRUCTURE
  1 ****   3 GROUP 4 **** **** 0

# MOE 2024.06 (io_trps.svl 2023.06)
