@<TRIPOS>MOLECULE
NONAME
43 44 1 0 0 
SMALL
USER_CHARGES


@<TRIPOS>ATOM
  1 S        0.1320    -0.8600     0.0150 S.3   1 <1>  -0.3320 
  2 C        1.9140    -1.0050     0.0980 C.ar  1 <1>   0.7220 
  3 C       -0.5010    -2.0800     1.2500 C.3   1 <1>  -0.0100 
  4 N        2.5660    -0.2130    -0.7210 N.ar  1 <1>  -0.6200 
  5 N        2.3700    -1.8850     0.9750 N.ar  1 <1>  -0.6200 
  6 C        3.8790    -0.3220    -0.6730 C.ar  1 <1>   0.4100 
  7 C        3.6830    -1.9520     1.0130 C.ar  1 <1>   0.1600 
  8 N        4.5610     0.5040    -1.5320 N.pl3 1 <1>  -0.8380 
  9 C        4.5020    -1.1950     0.2110 C.ar  1 <1>  -0.1790 
 10 C        4.6360     1.9490    -1.2220 C.3   1 <1>   0.2090 
 11 C        5.5270    -0.0640    -2.5120 C.3   1 <1>   0.1290 
 12 C        5.9160    -1.3200     0.3610 C.2   1 <1>   0.9790 
 13 C        6.0300     2.3100    -0.7040 C.3   1 <1>  -0.1600 
 14 O        6.4700    -0.8680     1.3780 O.co2 1 <1>  -0.9000 
 15 O        6.5980    -1.9630    -0.4570 O.co2 1 <1>  -0.9000 
 16 C        6.0180     3.5930     0.1350 C.3   1 <1>   0.0210 
 17 C        7.4220     3.9260     0.6150 C.2   1 <1>  -0.1810 
 18 C        8.2240     5.0020     0.2350 C.2   1 <1>   0.1080 
 19 C        8.1770     3.2320     1.4950 C.2   1 <1>  -0.3320 
 20 N        9.3790     4.9890     0.8210 N.2   1 <1>  -0.7070 
 21 C        7.8390     6.0840    -0.7470 C.3   1 <1>  -0.0590 
 22 N        9.3500     3.8870     1.5950 N.pl3 1 <1>   0.3000 
 23 C        7.8690     1.9490     2.2560 C.3   1 <1>  -0.0600 
 24 H       -1.5750    -2.0350     1.2360 H     1 <1>   0.0800 
 25 H       -0.1120    -1.8040     2.2130 H     1 <1>   0.0800 
 26 H       -0.1500    -3.0540     0.9580 H     1 <1>   0.0800 
 27 H        4.1390    -2.6340     1.7130 H     1 <1>   0.1500 
 28 H        3.9000     2.1730    -0.4670 H     1 <1>   0.0800 
 29 H        4.3970     2.5200    -2.1020 H     1 <1>   0.0800 
 30 H        5.3220    -1.1110    -2.6610 H     1 <1>   0.0800 
 31 H        6.5340     0.0300    -2.1420 H     1 <1>   0.0800 
 32 H        5.4390     0.4470    -3.4530 H     1 <1>   0.0800 
 33 H        6.7050     2.4280    -1.5320 H     1 <1>   0.0800 
 34 H        6.3920     1.5050    -0.0910 H     1 <1>   0.0800 
 35 H        5.3860     3.4520     0.9940 H     1 <1>   0.0800 
 36 H        5.6210     4.4060    -0.4430 H     1 <1>   0.0800 
 37 H        7.5950     5.6430    -1.6950 H     1 <1>   0.0800 
 38 H        8.6610     6.7640    -0.8800 H     1 <1>   0.0800 
 39 H        6.9930     6.6290    -0.3730 H     1 <1>   0.0800 
 40 H       10.1450     3.6010     2.1760 H     1 <1>   0.2700 
 41 H        6.8210     1.7130     2.2040 H     1 <1>   0.0800 
 42 H        8.1370     2.0450     3.2910 H     1 <1>   0.0800 
 43 H        8.4090     1.1220     1.8280 H     1 <1>   0.0800 
@<TRIPOS>BOND
  1   1   2  1   
  2   1   3  1   
  3   2   4  ar  
  4   2   5  ar  
  5   3  24  1   
  6   3  25  1   
  7   3  26  1   
  8   4   6  ar  
  9   5   7  ar  
 10   6   8  1   
 11   6   9  ar  
 12   7   9  ar  
 13   7  27  1   
 14   8  10  1   
 15   8  11  1   
 16   9  12  1   
 17  10  13  1   
 18  10  28  1   
 19  10  29  1   
 20  11  30  1   
 21  11  31  1   
 22  11  32  1   
 23  12  14  ar  
 24  12  15  ar  
 25  13  16  1   
 26  13  33  1   
 27  13  34  1   
 28  16  17  1   
 29  16  35  1   
 30  16  36  1   
 31  17  18  1   
 32  17  19  2   
 33  18  20  2   
 34  18  21  1   
 35  19  22  1   
 36  19  23  1   
 37  20  22  1   
 38  21  37  1   
 39  21  38  1   
 40  21  39  1   
 41  22  40  1   
 42  23  41  1   
 43  23  42  1   
 44  23  43  1   
@<TRIPOS>SUBSTRUCTURE
  1 ****  13 GROUP 4 **** **** 0

# MOE 2024.06 (io_trps.svl 2023.06)
