@<TRIPOS>MOLECULE
NONAME
48 50 1 0 0 
SMALL
USER_CHARGES


@<TRIPOS>ATOM
  1 O       -2.4780     0.8070     3.1030 O.2   1 <1>  -0.5700 
  2 C       -2.6130     1.2180     1.9650 C.2   1 <1>   0.5440 
  3 N       -3.3740     0.4760     1.0930 N.am  1 <1>  -0.6600 
  4 C       -2.0170     2.4780     1.5770 C.ar  1 <1>   0.0860 
  5 C       -3.8130     0.9130    -0.2540 C.3   1 <1>   0.1400 
  6 C       -3.5860    -0.9810     1.2660 C.3   1 <1>   0.1400 
  7 C       -1.0180     2.5560     0.5980 C.ar  1 <1>   0.0830 
  8 C       -2.4180     3.6600     2.1990 C.ar  1 <1>  -0.1500 
  9 C       -4.6600    -0.2500    -0.7670 C.3   1 <1>   0.2000 
 10 C       -4.0440    -1.4880    -0.1100 C.3   1 <1>  -0.0800 
 11 O       -0.6120     1.4080     0.0070 O.3   1 <1>  -0.3630 
 12 C       -0.4640     3.7860     0.2530 C.ar  1 <1>  -0.1500 
 13 C       -1.8650     4.8790     1.8570 C.ar  1 <1>  -0.1500 
 14 O       -5.9470    -0.1030    -0.2770 O.3   1 <1>  -0.6800 
 15 C       -2.8640    -2.0160    -0.9520 C.3   1 <1>  -0.0170 
 16 C        0.7050     1.2460    -0.4660 C.3   1 <1>   0.1200 
 17 C       -0.8870     4.9430     0.8800 C.ar  1 <1>  -0.1500 
 18 C       -2.2690    -3.2930    -0.3780 C.ar  1 <1>   0.1670 
 19 C        0.9200    -0.2400    -0.7560 C.3   1 <1>  -0.1600 
 20 N       -1.1250    -3.1740     0.2760 N.ar  1 <1>  -0.6200 
 21 C       -2.9280    -4.5080    -0.5580 C.ar  1 <1>   0.1600 
 22 C        2.3500    -0.5170    -1.2320 C.3   1 <1>  -0.2400 
 23 C       -0.6930    -4.3350     0.7400 C.ar  1 <1>   0.1600 
 24 N       -2.4980    -5.6710    -0.0970 N.ar  1 <1>  -0.6200 
 25 C       -1.3570    -5.5420     0.5600 C.ar  1 <1>   0.1600 
 26 H       -4.3710     1.8320    -0.2110 H     1 <1>   0.0800 
 27 H       -2.9520     1.0420    -0.8850 H     1 <1>   0.0800 
 28 H       -2.6800    -1.4550     1.6060 H     1 <1>   0.0800 
 29 H       -4.3560    -1.1340     2.0020 H     1 <1>   0.0800 
 30 H       -3.1720     3.6080     2.9660 H     1 <1>   0.1500 
 31 H       -4.7100    -0.2990    -1.8420 H     1 <1>   0.0800 
 32 H       -4.7750    -2.2710    -0.0060 H     1 <1>   0.0800 
 33 H        0.2930     3.8550    -0.5040 H     1 <1>   0.1500 
 34 H       -2.1920     5.7780     2.3500 H     1 <1>   0.1500 
 35 H       -5.8910     0.1020     0.6790 H     1 <1>   0.4000 
 36 H       -2.0930    -1.2670    -1.0150 H     1 <1>   0.0800 
 37 H       -3.2000    -2.2190    -1.9530 H     1 <1>   0.0800 
 38 H        0.8240     1.8300    -1.3610 H     1 <1>   0.0800 
 39 H        1.3830     1.5860     0.2980 H     1 <1>   0.0800 
 40 H       -0.4570     5.8930     0.6110 H     1 <1>   0.1500 
 41 H        0.7290    -0.8070     0.1400 H     1 <1>   0.0800 
 42 H        0.2280    -0.5590    -1.5150 H     1 <1>   0.0800 
 43 H       -3.8530    -4.5180    -1.1060 H     1 <1>   0.1500 
 44 H        3.0610    -0.2250    -0.4790 H     1 <1>   0.0800 
 45 H        2.5590     0.0250    -2.1380 H     1 <1>   0.0800 
 46 H        2.4720    -1.5680    -1.4260 H     1 <1>   0.0800 
 47 H        0.2310    -4.3300     1.2900 H     1 <1>   0.1500 
 48 H       -0.9260    -6.4350     0.9760 H     1 <1>   0.1500 
@<TRIPOS>BOND
  1   1   2  2   
  2   2   3  am  
  3   2   4  1   
  4   3   5  1   
  5   3   6  1   
  6   4   7  ar  
  7   4   8  ar  
  8   5   9  1   
  9   5  26  1   
 10   5  27  1   
 11   6  10  1   
 12   6  28  1   
 13   6  29  1   
 14   7  11  1   
 15   7  12  ar  
 16   8  13  ar  
 17   8  30  1   
 18   9  10  1   
 19   9  14  1   
 20   9  31  1   
 21  10  15  1   
 22  10  32  1   
 23  11  16  1   
 24  12  17  ar  
 25  12  33  1   
 26  13  17  ar  
 27  13  34  1   
 28  14  35  1   
 29  15  18  1   
 30  15  36  1   
 31  15  37  1   
 32  16  19  1   
 33  16  38  1   
 34  16  39  1   
 35  17  40  1   
 36  18  20  ar  
 37  18  21  ar  
 38  19  22  1   
 39  19  41  1   
 40  19  42  1   
 41  20  23  ar  
 42  21  24  ar  
 43  21  43  1   
 44  22  44  1   
 45  22  45  1   
 46  22  46  1   
 47  23  25  ar  
 48  23  47  1   
 49  24  25  ar  
 50  25  48  1   
@<TRIPOS>SUBSTRUCTURE
  1 ****   3 GROUP 4 **** **** 0

# MOE 2024.06 (io_trps.svl 2023.06)
