@<TRIPOS>MOLECULE
NONAME
45 47 1 0 0 
SMALL
USER_CHARGES


@<TRIPOS>ATOM
  1 O        0.4000    -0.0570    -1.9500 O.2   1 <1>  -0.5700 
  2 C       -0.5250     0.6810    -1.6980 C.2   1 <1>   0.5690 
  3 N       -1.7940     0.1890    -1.5440 N.am  1 <1>  -0.6600 
  4 C       -0.2230     2.1590    -1.4960 C.3   1 <1>   0.0820 
  5 C       -3.0460     0.9650    -1.3500 C.3   1 <1>   0.1400 
  6 C       -2.0110    -1.2130    -1.1150 C.3   1 <1>   0.1400 
  7 C       -0.5380     2.5880    -0.0650 C.2   1 <1>  -0.1810 
  8 C       -3.7770     0.2260    -0.2350 C.3   1 <1>   0.2000 
  9 C       -3.4010    -1.2460    -0.4600 C.3   1 <1>  -0.0800 
 10 C       -0.0660     1.9680     1.0930 C.2   1 <1>   0.1080 
 11 C       -1.3290     3.5910     0.3800 C.2   1 <1>  -0.3320 
 12 O       -3.3030     0.6790     0.9890 O.3   1 <1>  -0.6800 
 13 C       -3.4690    -2.1310     0.7990 C.3   1 <1>   0.0200 
 14 N       -0.5420     2.5120     2.1650 N.2   1 <1>  -0.7070 
 15 C        0.8860     0.7930     1.1670 C.3   1 <1>  -0.0590 
 16 N       -1.3160     3.5190     1.7280 N.pl3 1 <1>   0.3000 
 17 C       -2.1280     4.6440    -0.3700 C.3   1 <1>  -0.0600 
 18 C       -3.2560    -3.6080     0.5040 C.2   1 <1>  -0.0400 
 19 O       -3.1900    -4.4430     1.5070 O.3   1 <1>  -0.0190 
 20 C       -3.1120    -4.3180    -0.6270 C.2   1 <1>  -0.1500 
 21 N       -3.0080    -5.6700     1.1090 N.2   1 <1>  -0.4100 
 22 C       -2.9560    -5.6240    -0.1730 C.2   1 <1>   0.1080 
 23 C       -2.7530    -6.8330    -1.0590 C.3   1 <1>  -0.0590 
 24 H        0.8180     2.3350    -1.6930 H     1 <1>   0.0800 
 25 H       -0.7920     2.7290    -2.2030 H     1 <1>   0.0800 
 26 H       -2.8800     1.9940    -1.0990 H     1 <1>   0.0800 
 27 H       -3.6240     0.9130    -2.2560 H     1 <1>   0.0800 
 28 H       -1.9600    -1.8710    -1.9660 H     1 <1>   0.0800 
 29 H       -1.2460    -1.4920    -0.4100 H     1 <1>   0.0800 
 30 H       -4.8410     0.3880    -0.2580 H     1 <1>   0.0800 
 31 H       -4.0880    -1.6400    -1.1870 H     1 <1>   0.0800 
 32 H       -2.3400     0.8780     0.9400 H     1 <1>   0.4000 
 33 H       -4.4310    -2.0130     1.2650 H     1 <1>   0.0800 
 34 H       -2.7250    -1.8150     1.5090 H     1 <1>   0.0800 
 35 H        1.6320     0.8650     0.3980 H     1 <1>   0.0800 
 36 H        0.3420    -0.1250     1.0490 H     1 <1>   0.0800 
 37 H        1.3770     0.7840     2.1230 H     1 <1>   0.0800 
 38 H       -1.8230     4.1340     2.3750 H     1 <1>   0.2700 
 39 H       -1.9870     4.5530    -1.4310 H     1 <1>   0.0800 
 40 H       -1.8110     5.6280    -0.0720 H     1 <1>   0.0800 
 41 H       -3.1770     4.5380    -0.1530 H     1 <1>   0.0800 
 42 H       -3.1120    -4.0050    -1.6540 H     1 <1>   0.1500 
 43 H       -1.8980    -6.6840    -1.6910 H     1 <1>   0.0800 
 44 H       -3.6250    -6.9890    -1.6670 H     1 <1>   0.0800 
 45 H       -2.5900    -7.7070    -0.4540 H     1 <1>   0.0800 
@<TRIPOS>BOND
  1   1   2  2   
  2   2   3  am  
  3   2   4  1   
  4   3   5  1   
  5   3   6  1   
  6   4   7  1   
  7   4  24  1   
  8   4  25  1   
  9   5   8  1   
 10   5  26  1   
 11   5  27  1   
 12   6   9  1   
 13   6  28  1   
 14   6  29  1   
 15   7  10  1   
 16   7  11  2   
 17   8   9  1   
 18   8  12  1   
 19   8  30  1   
 20   9  13  1   
 21   9  31  1   
 22  10  14  2   
 23  10  15  1   
 24  11  16  1   
 25  11  17  1   
 26  12  32  1   
 27  13  18  1   
 28  13  33  1   
 29  13  34  1   
 30  14  16  1   
 31  15  35  1   
 32  15  36  1   
 33  15  37  1   
 34  16  38  1   
 35  17  39  1   
 36  17  40  1   
 37  17  41  1   
 38  18  19  1   
 39  18  20  2   
 40  19  21  1   
 41  20  22  1   
 42  20  42  1   
 43  21  22  2   
 44  22  23  1   
 45  23  43  1   
 46  23  44  1   
 47  23  45  1   
@<TRIPOS>SUBSTRUCTURE
  1 ****   6 GROUP 4 **** **** 0

# MOE 2024.06 (io_trps.svl 2023.06)
