@<TRIPOS>MOLECULE
NONAME
53 56 1 0 0 
SMALL
USER_CHARGES


@<TRIPOS>ATOM
  1 O        0.6840     0.4810     0.5730 O.3   1 <1>  -0.3630 
  2 C        1.5440    -0.5410     0.3440 C.ar  1 <1>   0.0830 
  3 C        0.8870     1.7540    -0.0030 C.3   1 <1>   0.0400 
  4 C        1.2690    -1.7330     0.9890 C.ar  1 <1>  -0.1500 
  5 C        2.6560    -0.4530    -0.4840 C.ar  1 <1>  -0.1500 
  6 C        2.0800    -2.8440     0.8200 C.ar  1 <1>  -0.1430 
  7 C        3.4720    -1.5540    -0.6590 C.ar  1 <1>  -0.1500 
  8 C        3.2010    -2.7600    -0.0180 C.ar  1 <1>  -0.0230 
  9 C        1.7040    -4.1170     1.5690 C.3   1 <1>   0.4870 
 10 N        4.0680    -3.8670    -0.2460 N.pl3 1 <1>   0.5930 
 11 N        1.1950    -5.1280     0.6130 N.4   1 <1>  -0.9590 
 12 N        3.6330    -5.0390    -0.7780 N.2   1 <1>  -0.7070 
 13 C        5.3750    -3.9690     0.0840 C.2   1 <1>  -0.3020 
 14 C        0.1130    -4.6860    -0.3180 C.3   1 <1>   0.3430 
 15 C        0.7870    -6.4250     1.1930 C.3   1 <1>   0.3430 
 16 C        4.6630    -5.8290    -0.7700 C.2   1 <1>   0.1390 
 17 C        5.7880    -5.2120    -0.2400 C.2   1 <1>  -0.1500 
 18 C       -0.7760    -5.9200    -0.5460 C.3   1 <1>   0.2000 
 19 C       -0.0150    -7.0930     0.0760 C.3   1 <1>  -0.0800 
 20 O       -1.9780    -5.7560     0.1320 O.3   1 <1>  -0.6800 
 21 C        0.9040    -7.7680    -0.9640 C.3   1 <1>   0.0210 
 22 C        1.7940    -8.8160    -0.3260 C.2   1 <1>   0.1080 
 23 N        2.8720    -8.5200     0.3330 N.2   1 <1>  -0.7070 
 24 C        1.5630   -10.1860    -0.3730 C.2   1 <1>  -0.1500 
 25 N        3.3700    -9.7140     0.7200 N.pl3 1 <1>   0.3000 
 26 C        2.5910   -10.7340     0.3080 C.2   1 <1>  -0.3320 
 27 C        2.8830   -12.1970     0.5900 C.3   1 <1>  -0.0600 
 28 H        0.0950     2.4010     0.3280 H     1 <1>   0.0800 
 29 H        0.8600     1.6630    -1.0740 H     1 <1>   0.0800 
 30 H        1.8350     2.1410     0.3280 H     1 <1>   0.0800 
 31 H        0.4040    -1.7630     1.6290 H     1 <1>   0.1500 
 32 H        2.8980     0.4590    -0.9990 H     1 <1>   0.1500 
 33 H        4.3290    -1.4740    -1.3070 H     1 <1>   0.1500 
 34 H        0.9470    -3.8940     2.3030 H     1 <1>   0.0800 
 35 H        2.5700    -4.5040     2.0800 H     1 <1>   0.0800 
 36 H        2.0170    -5.3450     0.0080 H     1 <1>   0.4500 
 37 H        5.9230    -3.1570     0.5250 H     1 <1>   0.1500 
 38 H       -0.4690    -3.8840     0.1050 H     1 <1>   0.0800 
 39 H        0.5500    -4.3580    -1.2470 H     1 <1>   0.0800 
 40 H        1.6370    -7.0100     1.5020 H     1 <1>   0.0800 
 41 H        0.1480    -6.2610     2.0450 H     1 <1>   0.0800 
 42 H        4.6410    -6.8480    -1.1300 H     1 <1>   0.1500 
 43 H        6.7620    -5.6570    -0.1280 H     1 <1>   0.1500 
 44 H       -1.0080    -6.0620    -1.5890 H     1 <1>   0.0800 
 45 H       -0.6810    -7.8380     0.4740 H     1 <1>   0.0800 
 46 H       -1.8810    -5.7880     1.1020 H     1 <1>   0.4000 
 47 H        1.5350    -7.0460    -1.4510 H     1 <1>   0.0800 
 48 H        0.3040    -8.2380    -1.7230 H     1 <1>   0.0800 
 49 H        0.7390   -10.6810    -0.8560 H     1 <1>   0.1500 
 50 H        4.2410    -9.8050     1.2590 H     1 <1>   0.2700 
 51 H        2.1180   -12.8180     0.1560 H     1 <1>   0.0800 
 52 H        2.9070   -12.3770     1.6500 H     1 <1>   0.0800 
 53 H        3.8300   -12.4780     0.1650 H     1 <1>   0.0800 
@<TRIPOS>BOND
  1   1   2  1   
  2   1   3  1   
  3   2   4  ar  
  4   2   5  ar  
  5   3  28  1   
  6   3  29  1   
  7   3  30  1   
  8   4   6  ar  
  9   4  31  1   
 10   5   7  ar  
 11   5  32  1   
 12   6   8  ar  
 13   6   9  1   
 14   7   8  ar  
 15   7  33  1   
 16   8  10  1   
 17   9  11  1   
 18   9  34  1   
 19   9  35  1   
 20  10  12  1   
 21  10  13  1   
 22  11  14  1   
 23  11  15  1   
 24  11  36  1   
 25  12  16  2   
 26  13  17  2   
 27  13  37  1   
 28  14  18  1   
 29  14  38  1   
 30  14  39  1   
 31  15  19  1   
 32  15  40  1   
 33  15  41  1   
 34  16  17  1   
 35  16  42  1   
 36  17  43  1   
 37  18  19  1   
 38  18  20  1   
 39  18  44  1   
 40  19  21  1   
 41  19  45  1   
 42  20  46  1   
 43  21  22  1   
 44  21  47  1   
 45  21  48  1   
 46  22  23  2   
 47  22  24  1   
 48  23  25  1   
 49  24  26  2   
 50  24  49  1   
 51  25  26  1   
 52  25  50  1   
 53  26  27  1   
 54  27  51  1   
 55  27  52  1   
 56  27  53  1   
@<TRIPOS>SUBSTRUCTURE
  1 ****  11 GROUP 4 **** **** 0

# MOE 2024.06 (io_trps.svl 2023.06)
