@<TRIPOS>MOLECULE
NONAME
42 44 1 0 0 
SMALL
USER_CHARGES


@<TRIPOS>ATOM
  1 O       -1.1040    -0.1400     1.1480 O.3   1 <1>  -0.5600 
  2 C       -1.5960     1.1640     1.1270 C.3   1 <1>   0.1200 
  3 C       -1.1780    -0.8720    -0.0310 C.3   1 <1>   0.1200 
  4 C       -3.1300     1.2370     0.9660 C.3   1 <1>   0.4230 
  5 C       -2.6130    -1.3520    -0.3030 C.3   1 <1>  -0.0800 
  6 N       -3.5380     1.0690    -0.4930 N.4   1 <1>  -0.9590 
  7 C       -3.8600     0.3240     1.9960 C.3   1 <1>   0.2090 
  8 C       -3.3310    -1.8990     0.9480 C.3   1 <1>   0.2090 
  9 C       -3.4670    -0.3270    -1.0660 C.3   1 <1>   0.3430 
 10 C       -4.9290     1.5830    -0.6870 C.3   1 <1>   0.2630 
 11 N       -4.3880    -0.9530     1.4130 N.pl3 1 <1>  -0.8380 
 12 C       -5.7290    -1.1480     1.1460 C.ar  1 <1>   0.7200 
 13 N       -6.5910    -0.3400     1.7560 N.ar  1 <1>  -0.6200 
 14 N       -6.0330    -2.0810     0.2480 N.ar  1 <1>  -0.6200 
 15 C       -7.8610    -0.5450     1.5080 C.ar  1 <1>   0.1670 
 16 C       -7.3070    -2.2700     0.0100 C.ar  1 <1>   0.1670 
 17 C       -8.2750    -1.5170     0.6300 C.ar  1 <1>  -0.1500 
 18 C       -8.8570     0.3340     2.2340 C.3   1 <1>  -0.0970 
 19 C       -7.6720    -3.3600    -0.9760 C.3   1 <1>  -0.0970 
 20 H       -1.3280     1.5990     2.0750 H     1 <1>   0.0800 
 21 H       -1.0900     1.7180     0.3570 H     1 <1>   0.0800 
 22 H       -0.7810    -0.2880    -0.8440 H     1 <1>   0.0800 
 23 H       -0.5400    -1.7300     0.1060 H     1 <1>   0.0800 
 24 H       -3.3830     2.2450     1.2440 H     1 <1>   0.0800 
 25 H       -2.5120    -2.1910    -0.9670 H     1 <1>   0.0800 
 26 H       -2.9020     1.6520    -1.0480 H     1 <1>   0.4500 
 27 H       -4.6550     0.8950     2.4390 H     1 <1>   0.0800 
 28 H       -3.1900     0.0820     2.8030 H     1 <1>   0.0800 
 29 H       -2.6280    -2.0710     1.7470 H     1 <1>   0.0800 
 30 H       -3.7690    -2.8570     0.7210 H     1 <1>   0.0800 
 31 H       -4.4650    -0.7320    -1.1230 H     1 <1>   0.0800 
 32 H       -3.1010    -0.2650    -2.0780 H     1 <1>   0.0800 
 33 H       -5.6280     0.9920    -0.1170 H     1 <1>   0.0800 
 34 H       -5.2080     1.5300    -1.7260 H     1 <1>   0.0800 
 35 H       -5.0030     2.6070    -0.3610 H     1 <1>   0.0800 
 36 H       -9.3180    -1.6840     0.4360 H     1 <1>   0.1500 
 37 H       -9.8660     0.0790     1.9650 H     1 <1>   0.0800 
 38 H       -8.6810     1.3650     1.9880 H     1 <1>   0.0800 
 39 H       -8.7400     0.2070     3.2950 H     1 <1>   0.0800 
 40 H       -8.7370    -3.4350    -1.0930 H     1 <1>   0.0800 
 41 H       -7.2950    -4.3030    -0.6240 H     1 <1>   0.0800 
 42 H       -7.2310    -3.1470    -1.9320 H     1 <1>   0.0800 
@<TRIPOS>BOND
  1   1   2  1   
  2   1   3  1   
  3   2   4  1   
  4   2  20  1   
  5   2  21  1   
  6   3   5  1   
  7   3  22  1   
  8   3  23  1   
  9   4   6  1   
 10   4   7  1   
 11   4  24  1   
 12   5   8  1   
 13   5   9  1   
 14   5  25  1   
 15   6   9  1   
 16   6  10  1   
 17   6  26  1   
 18   7  11  1   
 19   7  27  1   
 20   7  28  1   
 21   8  11  1   
 22   8  29  1   
 23   8  30  1   
 24   9  31  1   
 25   9  32  1   
 26  10  33  1   
 27  10  34  1   
 28  10  35  1   
 29  11  12  1   
 30  12  13  ar  
 31  12  14  ar  
 32  13  15  ar  
 33  14  16  ar  
 34  15  17  ar  
 35  15  18  1   
 36  16  17  ar  
 37  16  19  1   
 38  17  36  1   
 39  18  37  1   
 40  18  38  1   
 41  18  39  1   
 42  19  40  1   
 43  19  41  1   
 44  19  42  1   
@<TRIPOS>SUBSTRUCTURE
  1 ****  11 GROUP 4 **** **** 0

# MOE 2024.06 (io_trps.svl 2023.06)
