@<TRIPOS>MOLECULE
NONAME
55 58 1 0 0 
SMALL
USER_CHARGES


@<TRIPOS>ATOM
  1 O       -1.4650    -0.7710    -2.2240 O.2   1 <1>  -0.5700 
  2 C       -1.9890    -0.7910    -1.1450 C.2   1 <1>   0.5690 
  3 N       -2.8710     0.1710    -0.7980 N.am  1 <1>  -0.7300 
  4 C       -1.7190    -1.9450    -0.2070 C.3   1 <1>  -0.0190 
  5 C       -3.6520     0.1990     0.4760 C.3   1 <1>   0.2200 
  6 C       -1.1640    -1.4590     1.1380 C.3   1 <1>   0.1200 
  7 C       -2.9600    -2.8380    -0.0400 C.3   1 <1>   0.3430 
  8 C       -2.7130     0.2440     1.6940 C.3   1 <1>   0.1200 
  9 C       -4.6080    -1.0200     0.5890 C.3   1 <1>   0.3430 
 10 O       -2.1950    -1.0260     1.9700 O.3   1 <1>  -0.5600 
 11 N       -4.2770    -2.1680    -0.3460 N.4   1 <1>  -0.9590 
 12 C       -5.3720    -3.1760    -0.4760 C.3   1 <1>   0.4230 
 13 C       -6.5490    -2.5700    -1.2490 C.3   1 <1>  -0.1600 
 14 C       -5.7950    -3.7500     0.8860 C.3   1 <1>  -0.1600 
 15 C       -7.6660    -3.5990    -1.3900 C.3   1 <1>   0.2090 
 16 C       -6.9300    -4.7520     0.6990 C.3   1 <1>   0.2090 
 17 N       -8.0140    -4.0670    -0.0330 N.pl3 1 <1>  -0.8380 
 18 C       -9.2850    -4.6110     0.1260 C.ar  1 <1>   0.1000 
 19 C       -9.6750    -5.7570    -0.5560 C.ar  1 <1>  -0.1500 
 20 C      -10.1890    -4.0050     0.9880 C.ar  1 <1>  -0.1500 
 21 C      -10.9420    -6.2890    -0.3860 C.ar  1 <1>  -0.1430 
 22 C      -11.4580    -4.5260     1.1690 C.ar  1 <1>  -0.1430 
 23 C      -11.8300    -5.6680     0.4780 C.ar  1 <1>  -0.1500 
 24 C      -11.3700    -7.5400    -1.1310 C.3   1 <1>  -0.0970 
 25 C      -12.4450    -3.8610     2.1110 C.3   1 <1>  -0.0970 
 26 H       -2.9370     0.9810    -1.4260 H     1 <1>   0.3700 
 27 H       -0.9440    -2.5430    -0.6530 H     1 <1>   0.0800 
 28 H       -4.2400     1.1010     0.4910 H     1 <1>   0.0800 
 29 H       -0.4420    -0.6680     1.0110 H     1 <1>   0.0800 
 30 H       -0.6780    -2.2760     1.6460 H     1 <1>   0.0800 
 31 H       -2.9760    -3.2240     0.9670 H     1 <1>   0.0800 
 32 H       -2.8450    -3.6770    -0.7060 H     1 <1>   0.0800 
 33 H       -3.2700     0.5440     2.5650 H     1 <1>   0.0800 
 34 H       -1.9080     0.9460     1.5540 H     1 <1>   0.0800 
 35 H       -5.6040    -0.6700     0.3810 H     1 <1>   0.0800 
 36 H       -4.6060    -1.3700     1.6090 H     1 <1>   0.0800 
 37 H       -4.1640    -1.7310    -1.2740 H     1 <1>   0.4500 
 38 H       -5.0050    -3.9990    -1.0690 H     1 <1>   0.0800 
 39 H       -6.9590    -1.7200    -0.7350 H     1 <1>   0.0800 
 40 H       -6.2350    -2.2670    -2.2310 H     1 <1>   0.0800 
 41 H       -4.9740    -4.2520     1.3610 H     1 <1>   0.0800 
 42 H       -6.1570    -2.9780     1.5400 H     1 <1>   0.0800 
 43 H       -7.3500    -4.4330    -1.9950 H     1 <1>   0.0800 
 44 H       -8.5320    -3.1510    -1.8500 H     1 <1>   0.0800 
 45 H       -7.2970    -5.0850     1.6570 H     1 <1>   0.0800 
 46 H       -6.6020    -5.6130     0.1410 H     1 <1>   0.0800 
 47 H       -8.9780    -6.2300    -1.2200 H     1 <1>   0.1500 
 48 H       -9.8810    -3.1210     1.5110 H     1 <1>   0.1500 
 49 H      -12.8150    -6.0760     0.6150 H     1 <1>   0.1500 
 50 H      -12.2130    -7.3190    -1.7600 H     1 <1>   0.0800 
 51 H      -11.6510    -8.3050    -0.4290 H     1 <1>   0.0800 
 52 H      -10.5710    -7.9150    -1.7450 H     1 <1>   0.0800 
 53 H      -12.7810    -4.5680     2.8470 H     1 <1>   0.0800 
 54 H      -13.2950    -3.5050     1.5560 H     1 <1>   0.0800 
 55 H      -11.9920    -3.0280     2.6170 H     1 <1>   0.0800 
@<TRIPOS>BOND
  1   1   2  2   
  2   2   3  am  
  3   2   4  1   
  4   3   5  1   
  5   3  26  1   
  6   4   6  1   
  7   4   7  1   
  8   4  27  1   
  9   5   8  1   
 10   5   9  1   
 11   5  28  1   
 12   6  10  1   
 13   6  29  1   
 14   6  30  1   
 15   7  11  1   
 16   7  31  1   
 17   7  32  1   
 18   8  10  1   
 19   8  33  1   
 20   8  34  1   
 21   9  11  1   
 22   9  35  1   
 23   9  36  1   
 24  11  12  1   
 25  11  37  1   
 26  12  13  1   
 27  12  14  1   
 28  12  38  1   
 29  13  15  1   
 30  13  39  1   
 31  13  40  1   
 32  14  16  1   
 33  14  41  1   
 34  14  42  1   
 35  15  17  1   
 36  15  43  1   
 37  15  44  1   
 38  16  17  1   
 39  16  45  1   
 40  16  46  1   
 41  17  18  1   
 42  18  19  ar  
 43  18  20  ar  
 44  19  21  ar  
 45  19  47  1   
 46  20  22  ar  
 47  20  48  1   
 48  21  23  ar  
 49  21  24  1   
 50  22  23  ar  
 51  22  25  1   
 52  23  49  1   
 53  24  50  1   
 54  24  51  1   
 55  24  52  1   
 56  25  53  1   
 57  25  54  1   
 58  25  55  1   
@<TRIPOS>SUBSTRUCTURE
  1 ****  12 GROUP 4 **** **** 0

# MOE 2024.06 (io_trps.svl 2023.06)
