@<TRIPOS>MOLECULE
NONAME
41 42 1 0 0 
SMALL
USER_CHARGES


@<TRIPOS>ATOM
  1 O        2.4460    -0.3660    -3.5450 O.2   1 <1>  -0.5700 
  2 C        2.1030    -0.8320    -2.4860 C.2   1 <1>   0.5690 
  3 N        2.2430    -0.1910    -1.2880 N.am  1 <1>  -0.4940 
  4 C        1.4700    -2.2160    -2.4770 C.3   1 <1>   0.1810 
  5 C        2.8030     1.0520    -0.9780 C.2   1 <1>   0.2040 
  6 O        1.2120    -2.6420    -1.1430 O.3   1 <1>  -0.3630 
  7 O        3.3730     1.8130    -1.8810 O.3   1 <1>  -0.0190 
  8 C        2.8900     1.6860     0.2070 C.2   1 <1>  -0.1810 
  9 C        0.6640    -3.8560    -0.8680 C.ar  1 <1>   0.0830 
 10 N        3.8390     2.9200    -1.3590 N.2   1 <1>  -0.4100 
 11 C        3.5620     2.8660    -0.1060 C.2   1 <1>   0.1080 
 12 C        2.3830     1.2400     1.5680 C.3   1 <1>   0.0210 
 13 C        0.5200    -4.2170     0.4720 C.ar  1 <1>  -0.1430 
 14 C        0.2450    -4.7230    -1.8740 C.ar  1 <1>  -0.1500 
 15 C        3.9310     3.9620     0.8710 C.3   1 <1>  -0.0590 
 16 C        3.4800     0.4980     2.3330 C.3   1 <1>  -0.2400 
 17 C       -0.0640    -5.4420     0.7930 C.ar  1 <1>  -0.1430 
 18 C        1.0000    -3.2580     1.5640 C.3   1 <1>  -0.0970 
 19 C       -0.3210    -5.9390    -1.5470 C.ar  1 <1>  -0.1500 
 20 C       -0.4750    -6.2930    -0.2210 C.ar  1 <1>  -0.1500 
 21 C       -0.2770    -5.8920     2.2330 C.3   1 <1>  -0.0970 
 22 H        1.8970    -0.7330    -0.4970 H     1 <1>   0.3700 
 23 H        2.1400    -2.9180    -2.9370 H     1 <1>   0.0800 
 24 H        0.5390    -2.1830    -3.0120 H     1 <1>   0.0800 
 25 H        1.5350     0.5910     1.4400 H     1 <1>   0.0800 
 26 H        2.0560     2.0960     2.1320 H     1 <1>   0.0800 
 27 H        0.3450    -4.4780    -2.9130 H     1 <1>   0.1500 
 28 H        4.5410     3.5620     1.6590 H     1 <1>   0.0800 
 29 H        3.0410     4.3920     1.2910 H     1 <1>   0.0800 
 30 H        4.4820     4.7340     0.3640 H     1 <1>   0.0800 
 31 H        3.8020    -0.3650     1.7790 H     1 <1>   0.0800 
 32 H        3.1130     0.1770     3.2920 H     1 <1>   0.0800 
 33 H        4.3290     1.1410     2.4870 H     1 <1>   0.0800 
 34 H        1.8970    -2.7520     1.2560 H     1 <1>   0.0800 
 35 H        1.2310    -3.7720     2.4770 H     1 <1>   0.0800 
 36 H        0.2380    -2.5270     1.7600 H     1 <1>   0.0800 
 37 H       -0.6450    -6.6120    -2.3220 H     1 <1>   0.1500 
 38 H       -0.9220    -7.2430     0.0160 H     1 <1>   0.1500 
 39 H       -0.7840    -5.1260     2.7910 H     1 <1>   0.0800 
 40 H        0.6710    -6.1010     2.6960 H     1 <1>   0.0800 
 41 H       -0.8760    -6.7840     2.2750 H     1 <1>   0.0800 
@<TRIPOS>BOND
  1   1   2  2   
  2   2   3  am  
  3   2   4  1   
  4   3   5  1   
  5   3  22  1   
  6   4   6  1   
  7   4  23  1   
  8   4  24  1   
  9   5   7  1   
 10   5   8  2   
 11   6   9  1   
 12   7  10  1   
 13   8  11  1   
 14   8  12  1   
 15   9  13  ar  
 16   9  14  ar  
 17  10  11  2   
 18  11  15  1   
 19  12  16  1   
 20  12  25  1   
 21  12  26  1   
 22  13  17  ar  
 23  13  18  1   
 24  14  19  ar  
 25  14  27  1   
 26  15  28  1   
 27  15  29  1   
 28  15  30  1   
 29  16  31  1   
 30  16  32  1   
 31  16  33  1   
 32  17  20  ar  
 33  17  21  1   
 34  18  34  1   
 35  18  35  1   
 36  18  36  1   
 37  19  20  ar  
 38  19  37  1   
 39  20  38  1   
 40  21  39  1   
 41  21  40  1   
 42  21  41  1   
@<TRIPOS>SUBSTRUCTURE
  1 ****   6 GROUP 4 **** **** 0

# MOE 2024.06 (io_trps.svl 2023.06)
