@<TRIPOS>MOLECULE
NONAME
47 50 1 0 0 
SMALL
USER_CHARGES


@<TRIPOS>ATOM
  1 N        0.2720     0.0270    -1.4800 N.ar  1 <1>  -0.6200 
  2 C        1.1950     0.3570    -0.5760 C.ar  1 <1>   0.7200 
  3 C        0.1210    -1.2440    -1.7390 C.ar  1 <1>   0.1600 
  4 N        1.9700    -0.5120     0.0730 N.ar  1 <1>  -0.6200 
  5 N        1.3610     1.6970    -0.2930 N.pl3 1 <1>  -0.8380 
  6 C        0.8650    -2.2130    -1.1070 C.ar  1 <1>  -0.1430 
  7 C        1.8030    -1.7780    -0.2000 C.ar  1 <1>   0.1600 
  8 C        0.4570     2.7600    -0.8230 C.3   1 <1>   0.2090 
  9 C        2.5260     2.2270     0.4750 C.3   1 <1>   0.2090 
 10 C        0.6600    -3.6800    -1.3940 C.3   1 <1>   0.4870 
 11 C       -0.0550     3.6250     0.3340 C.3   1 <1>  -0.1600 
 12 C        2.0250     3.0800     1.6450 C.3   1 <1>  -0.1600 
 13 N       -0.1070    -4.2890    -0.2760 N.4   1 <1>  -0.8970 
 14 C        1.0940     4.2050     1.1700 C.3   1 <1>  -0.1600 
 15 C       -0.5770    -5.7000    -0.5070 C.3   1 <1>   0.4720 
 16 C       -1.5410    -3.8400    -0.1500 C.3   1 <1>   0.4720 
 17 C       -1.9860    -5.1560    -0.8190 C.3   1 <1>   0.1080 
 18 C       -3.0710    -5.8660    -0.0370 C.ar  1 <1>   0.2020 
 19 N       -2.8420    -6.0280     1.2570 N.ar  1 <1>  -0.6200 
 20 C       -4.2170    -6.3020    -0.6850 C.ar  1 <1>  -0.1500 
 21 C       -3.7960    -6.6500     1.9360 C.ar  1 <1>   0.1600 
 22 C       -5.2000    -6.9470     0.0330 C.ar  1 <1>  -0.1500 
 23 C       -4.9730    -7.1210     1.3810 C.ar  1 <1>  -0.1500 
 24 H       -0.6210    -1.5060    -2.4740 H     1 <1>   0.1500 
 25 H        2.4360    -2.4760     0.3220 H     1 <1>   0.1500 
 26 H       -0.3860     2.3430    -1.3440 H     1 <1>   0.0800 
 27 H        1.0070     3.3700    -1.5200 H     1 <1>   0.0800 
 28 H        3.1280     2.8310    -0.1820 H     1 <1>   0.0800 
 29 H        3.1490     1.4370     0.8550 H     1 <1>   0.0800 
 30 H        1.6180    -4.1650    -1.4900 H     1 <1>   0.0800 
 31 H        0.1250    -3.7980    -2.3220 H     1 <1>   0.0800 
 32 H       -0.6870     3.0180     0.9590 H     1 <1>   0.0800 
 33 H       -0.6550     4.4250    -0.0610 H     1 <1>   0.0800 
 34 H        2.8680     3.5010     2.1620 H     1 <1>   0.0800 
 35 H        1.5010     2.4410     2.3340 H     1 <1>   0.0800 
 36 H        0.3580    -4.1980     0.6350 H     1 <1>   0.4500 
 37 H        0.6970     4.7330     2.0190 H     1 <1>   0.0800 
 38 H        1.6540     4.9030     0.5710 H     1 <1>   0.0800 
 39 H       -0.5230    -6.2740     0.4000 H     1 <1>   0.0000 
 40 H       -0.0880    -6.1560    -1.3490 H     1 <1>   0.0000 
 41 H       -1.7470    -2.9620    -0.7350 H     1 <1>   0.0000 
 42 H       -1.8280    -3.7610     0.8820 H     1 <1>   0.0000 
 43 H       -2.1750    -5.0500    -1.8740 H     1 <1>   0.0000 
 44 H       -4.3530    -6.1450    -1.7410 H     1 <1>   0.1500 
 45 H       -3.6350    -6.7940     2.9920 H     1 <1>   0.1500 
 46 H       -6.1050    -7.3010    -0.4330 H     1 <1>   0.1500 
 47 H       -5.7010    -7.6170     1.9980 H     1 <1>   0.1500 
@<TRIPOS>BOND
  1   1   2  ar  
  2   1   3  ar  
  3   2   4  ar  
  4   2   5  1   
  5   3   6  ar  
  6   3  24  1   
  7   4   7  ar  
  8   5   8  1   
  9   5   9  1   
 10   6   7  ar  
 11   6  10  1   
 12   7  25  1   
 13   8  11  1   
 14   8  26  1   
 15   8  27  1   
 16   9  12  1   
 17   9  28  1   
 18   9  29  1   
 19  10  13  1   
 20  10  30  1   
 21  10  31  1   
 22  11  14  1   
 23  11  32  1   
 24  11  33  1   
 25  12  14  1   
 26  12  34  1   
 27  12  35  1   
 28  13  15  1   
 29  13  16  1   
 30  13  36  1   
 31  14  37  1   
 32  14  38  1   
 33  15  17  1   
 34  15  39  1   
 35  15  40  1   
 36  16  17  1   
 37  16  41  1   
 38  16  42  1   
 39  17  18  1   
 40  17  43  1   
 41  18  19  ar  
 42  18  20  ar  
 43  19  21  ar  
 44  20  22  ar  
 45  20  44  1   
 46  21  23  ar  
 47  21  45  1   
 48  22  23  ar  
 49  22  46  1   
 50  23  47  1   
@<TRIPOS>SUBSTRUCTURE
  1 ****   6 GROUP 4 **** **** 0

# MOE 2024.06 (io_trps.svl 2023.06)
