@<TRIPOS>MOLECULE
NONAME
43 45 1 0 0 
SMALL
USER_CHARGES


@<TRIPOS>ATOM
  1 O        1.1600    -0.0180     1.9960 O.3   1 <1>  -0.6800 
  2 C        1.4650    -0.2860     0.6670 C.3   1 <1>   0.2000 
  3 C        2.2910    -1.5760     0.6230 C.3   1 <1>  -0.0800 
  4 C        2.4470     0.7850     0.1950 C.3   1 <1>   0.3430 
  5 C        3.7550    -1.1070     0.7400 C.3   1 <1>   0.3430 
  6 C        2.0380    -2.3680    -0.6770 C.3   1 <1>  -0.0170 
  7 N        3.7270     0.3810     0.8330 N.4   1 <1>  -0.9590 
  8 C        2.8110    -3.6800    -0.7150 C.ar  1 <1>   0.1670 
  9 C        4.9600     1.0290     0.2940 C.3   1 <1>   0.3430 
 10 N        4.1210    -3.5830    -0.8840 N.ar  1 <1>  -0.6200 
 11 C        2.1400    -4.8950    -0.5800 C.ar  1 <1>   0.1600 
 12 C        4.9790     2.5330     0.5720 C.3   1 <1>  -0.0170 
 13 C        4.7070    -4.7710    -0.9200 C.ar  1 <1>   0.1600 
 14 N        2.7270    -6.0780    -0.6030 N.ar  1 <1>  -0.6200 
 15 C        6.2860     3.1100     0.0610 C.ar  1 <1>  -0.1440 
 16 C        4.0320    -5.9780    -0.7820 C.ar  1 <1>   0.1600 
 17 C        6.3890     3.5600    -1.2470 C.ar  1 <1>  -0.1500 
 18 C        7.3910     3.1840     0.8960 C.ar  1 <1>  -0.1500 
 19 C        7.5860     4.0730    -1.7160 C.ar  1 <1>  -0.1500 
 20 C        8.5870     3.6970     0.4260 C.ar  1 <1>  -0.1500 
 21 C        8.6860     4.1410    -0.8800 C.ar  1 <1>  -0.1500 
 22 H        0.4230    -0.5810     2.3180 H     1 <1>   0.4000 
 23 H        0.5540    -0.3090     0.0930 H     1 <1>   0.0800 
 24 H        2.0480    -2.2150     1.4550 H     1 <1>   0.0800 
 25 H        2.1290     1.7680     0.5030 H     1 <1>   0.0800 
 26 H        2.5400     0.7490    -0.8780 H     1 <1>   0.0800 
 27 H        4.3060    -1.4020    -0.1380 H     1 <1>   0.0800 
 28 H        4.2290    -1.5380     1.6060 H     1 <1>   0.0800 
 29 H        2.3210    -1.7830    -1.5350 H     1 <1>   0.0800 
 30 H        0.9870    -2.5800    -0.7660 H     1 <1>   0.0800 
 31 H        3.6120     0.6050     1.8340 H     1 <1>   0.4500 
 32 H        5.8290     0.5870     0.7540 H     1 <1>   0.0800 
 33 H        5.0300     0.8630    -0.7690 H     1 <1>   0.0800 
 34 H        1.0730    -4.8950    -0.4470 H     1 <1>   0.1500 
 35 H        4.1610     3.0230     0.0760 H     1 <1>   0.0800 
 36 H        4.8990     2.7160     1.6290 H     1 <1>   0.0800 
 37 H        5.7730    -4.7950    -1.0650 H     1 <1>   0.1500 
 38 H        4.5950    -6.8940    -0.8230 H     1 <1>   0.1500 
 39 H        5.5450     3.5210    -1.9130 H     1 <1>   0.1500 
 40 H        7.3360     2.8480     1.9170 H     1 <1>   0.1500 
 41 H        7.6630     4.4220    -2.7310 H     1 <1>   0.1500 
 42 H        9.4430     3.7540     1.0770 H     1 <1>   0.1500 
 43 H        9.6160     4.5410    -1.2450 H     1 <1>   0.1500 
@<TRIPOS>BOND
  1   1   2  1   
  2   1  22  1   
  3   2   3  1   
  4   2   4  1   
  5   2  23  1   
  6   3   5  1   
  7   3   6  1   
  8   3  24  1   
  9   4   7  1   
 10   4  25  1   
 11   4  26  1   
 12   5   7  1   
 13   5  27  1   
 14   5  28  1   
 15   6   8  1   
 16   6  29  1   
 17   6  30  1   
 18   7   9  1   
 19   7  31  1   
 20   8  10  ar  
 21   8  11  ar  
 22   9  12  1   
 23   9  32  1   
 24   9  33  1   
 25  10  13  ar  
 26  11  14  ar  
 27  11  34  1   
 28  12  15  1   
 29  12  35  1   
 30  12  36  1   
 31  13  16  ar  
 32  13  37  1   
 33  14  16  ar  
 34  15  17  ar  
 35  15  18  ar  
 36  16  38  1   
 37  17  19  ar  
 38  17  39  1   
 39  18  20  ar  
 40  18  40  1   
 41  19  21  ar  
 42  19  41  1   
 43  20  21  ar  
 44  20  42  1   
 45  21  43  1   
@<TRIPOS>SUBSTRUCTURE
  1 ****   5 GROUP 4 **** **** 0

# MOE 2024.06 (io_trps.svl 2023.06)
