@<TRIPOS>MOLECULE
NONAME
55 57 1 0 0 
SMALL
USER_CHARGES


@<TRIPOS>ATOM
  1 O        4.5010    -3.2870     1.3210 O.2   1 <1>  -0.5700 
  2 C        3.9170    -3.2710     0.2630 C.2   1 <1>   0.5690 
  3 N        4.4780    -2.6280    -0.8160 N.am  1 <1>  -0.6600 
  4 C        2.5270    -3.8880     0.2120 C.3   1 <1>   0.0440 
  5 C        5.8530    -2.0490    -0.6820 C.3   1 <1>   0.1400 
  6 C        3.7750    -2.2680    -2.0800 C.3   1 <1>   0.1400 
  7 C        1.4550    -2.8040     0.2410 C.ar  1 <1>  -0.1440 
  8 C        5.8060    -0.7330     0.1160 C.3   1 <1>   0.3430 
  9 C        3.2220    -0.8310    -2.0300 C.3   1 <1>  -0.1600 
 10 C        1.4330    -1.8820     1.2770 C.ar  1 <1>  -0.1500 
 11 C        0.5000    -2.7210    -0.7610 C.ar  1 <1>  -0.1500 
 12 N        4.5000    -0.0140    -0.0850 N.4   1 <1>  -0.9590 
 13 C        4.1810     0.2470    -1.5150 C.3   1 <1>   0.3430 
 14 C        0.4860    -0.8730     1.2960 C.ar  1 <1>  -0.1500 
 15 C       -0.4450    -1.7100    -0.7400 C.ar  1 <1>  -0.1500 
 16 C        4.2950     1.1600     0.8220 C.3   1 <1>   0.3430 
 17 C       -0.4540    -0.7780     0.2830 C.ar  1 <1>  -0.1430 
 18 C        5.4580     2.1710     0.8520 C.3   1 <1>  -0.0800 
 19 C       -1.5030     0.3190     0.3030 C.3   1 <1>  -0.0970 
 20 C        5.1280     3.2620     1.8830 C.3   1 <1>   0.1200 
 21 C        5.7710     2.8280    -0.5090 C.3   1 <1>  -0.1600 
 22 O        6.1940     4.1510     1.9620 O.3   1 <1>  -0.5600 
 23 C        6.8160     3.9370    -0.3310 C.3   1 <1>  -0.1600 
 24 C        6.4290     4.8920     0.8050 C.3   1 <1>   0.1200 
 25 H        2.3980    -4.5280     1.0660 H     1 <1>   0.0800 
 26 H        2.4380    -4.5000    -0.6650 H     1 <1>   0.0800 
 27 H        6.2770    -1.8730    -1.6550 H     1 <1>   0.0800 
 28 H        6.4970    -2.7490    -0.1750 H     1 <1>   0.0800 
 29 H        2.9690    -2.9550    -2.2690 H     1 <1>   0.0800 
 30 H        4.4650    -2.3630    -2.9010 H     1 <1>   0.0800 
 31 H        6.6350    -0.1060    -0.1660 H     1 <1>   0.0800 
 32 H        5.9150    -0.9760     1.1610 H     1 <1>   0.0800 
 33 H        2.3260    -0.8040    -1.4400 H     1 <1>   0.0800 
 34 H        2.9260    -0.5630    -3.0290 H     1 <1>   0.0800 
 35 H        2.1460    -1.9540     2.0810 H     1 <1>   0.1500 
 36 H        0.4810    -3.4390    -1.5620 H     1 <1>   0.1500 
 37 H        3.8040    -0.7300     0.1900 H     1 <1>   0.4500 
 38 H        3.7030     1.2090    -1.6100 H     1 <1>   0.0800 
 39 H        5.0820     0.2600    -2.1060 H     1 <1>   0.0800 
 40 H        0.4720    -0.1700     2.1110 H     1 <1>   0.1500 
 41 H       -1.1830    -1.6570    -1.5230 H     1 <1>   0.1500 
 42 H        4.1520     0.7930     1.8260 H     1 <1>   0.0800 
 43 H        3.3900     1.6730     0.5390 H     1 <1>   0.0800 
 44 H        6.3390     1.6730     1.2170 H     1 <1>   0.0800 
 45 H       -1.1780     1.1510     0.9010 H     1 <1>   0.0800 
 46 H       -2.4190    -0.0640     0.7160 H     1 <1>   0.0800 
 47 H       -1.6960     0.6720    -0.6950 H     1 <1>   0.0800 
 48 H        4.9970     2.8370     2.8640 H     1 <1>   0.0800 
 49 H        4.2420     3.8140     1.6180 H     1 <1>   0.0800 
 50 H        4.8740     3.2610    -0.9190 H     1 <1>   0.0800 
 51 H        6.1560     2.1070    -1.2060 H     1 <1>   0.0800 
 52 H        6.9240     4.4950    -1.2440 H     1 <1>   0.0800 
 53 H        7.7750     3.5060    -0.0980 H     1 <1>   0.0800 
 54 H        7.2320     5.5800     1.0110 H     1 <1>   0.0800 
 55 H        5.5420     5.4530     0.5650 H     1 <1>   0.0800 
@<TRIPOS>BOND
  1   1   2  2   
  2   2   3  am  
  3   2   4  1   
  4   3   5  1   
  5   3   6  1   
  6   4   7  1   
  7   4  25  1   
  8   4  26  1   
  9   5   8  1   
 10   5  27  1   
 11   5  28  1   
 12   6   9  1   
 13   6  29  1   
 14   6  30  1   
 15   7  10  ar  
 16   7  11  ar  
 17   8  12  1   
 18   8  31  1   
 19   8  32  1   
 20   9  13  1   
 21   9  33  1   
 22   9  34  1   
 23  10  14  ar  
 24  10  35  1   
 25  11  15  ar  
 26  11  36  1   
 27  12  13  1   
 28  12  16  1   
 29  12  37  1   
 30  13  38  1   
 31  13  39  1   
 32  14  17  ar  
 33  14  40  1   
 34  15  17  ar  
 35  15  41  1   
 36  16  18  1   
 37  16  42  1   
 38  16  43  1   
 39  17  19  1   
 40  18  20  1   
 41  18  21  1   
 42  18  44  1   
 43  19  45  1   
 44  19  46  1   
 45  19  47  1   
 46  20  22  1   
 47  20  48  1   
 48  20  49  1   
 49  21  23  1   
 50  21  50  1   
 51  21  51  1   
 52  22  24  1   
 53  23  24  1   
 54  23  52  1   
 55  23  53  1   
 56  24  54  1   
 57  24  55  1   
@<TRIPOS>SUBSTRUCTURE
  1 ****  12 GROUP 4 **** **** 0

# MOE 2024.06 (io_trps.svl 2023.06)
