@<TRIPOS>MOLECULE
NONAME
38 39 1 0 0 
SMALL
USER_CHARGES


@<TRIPOS>ATOM
  1 F        0.4290     2.8500    -0.6120 F     1 <1>  -0.3400 
  2 C        0.1300     2.3130     0.5680 C.3   1 <1>   0.9600 
  3 F       -0.4200     3.3140     1.2520 F     1 <1>  -0.3400 
  4 O        1.3470     2.0080     1.2440 O.3   1 <1>  -0.3630 
  5 C       -0.9030     1.1560     0.4110 C.3   1 <1>   0.6000 
  6 C        2.2570     1.1880     0.6730 C.ar  1 <1>   0.0830 
  7 F       -1.1270     0.5210     1.5650 F     1 <1>  -0.3400 
  8 F       -0.4890     0.1960    -0.4190 F     1 <1>  -0.3400 
  9 C        3.2630     1.6870    -0.1700 C.ar  1 <1>   0.0860 
 10 C        2.1910    -0.1630     0.9830 C.ar  1 <1>  -0.1500 
 11 C        3.4180     3.0950    -0.4830 C.2   1 <1>   0.5440 
 12 C        4.1480     0.7610    -0.7250 C.ar  1 <1>  -0.1500 
 13 C        3.0910    -1.0520     0.4290 C.ar  1 <1>  -0.1500 
 14 O        3.5910     3.4330    -1.6420 O.2   1 <1>  -0.5700 
 15 N        3.4190     4.0780     0.4860 N.am  1 <1>  -0.6600 
 16 C        4.0680    -0.5880    -0.4340 C.ar  1 <1>  -0.1500 
 17 C        3.2750     5.5120     0.0610 C.3   1 <1>   0.2200 
 18 C        3.8310     3.8110     1.8960 C.3   1 <1>   0.0600 
 19 C        4.6290     6.0790    -0.3530 C.3   1 <1>   0.2000 
 20 C        2.7830     6.4930     1.1330 C.3   1 <1>   0.1200 
 21 O        4.7010     6.1990    -1.7350 O.3   1 <1>  -0.6800 
 22 C        4.6940     7.4310     0.3470 C.3   1 <1>   0.1200 
 23 O        3.8760     7.2930     1.4710 O.3   1 <1>  -0.5600 
 24 H       -1.8460     1.5140     0.0460 H     1 <1>   0.0800 
 25 H        1.4330    -0.5240     1.6570 H     1 <1>   0.1500 
 26 H        4.9110     1.1140    -1.3970 H     1 <1>   0.1500 
 27 H        3.0310    -2.1020     0.6630 H     1 <1>   0.1500 
 28 H        4.7660    -1.2790    -0.8760 H     1 <1>   0.1500 
 29 H        2.5830     5.5590    -0.7630 H     1 <1>   0.0800 
 30 H        4.5370     4.5550     2.2240 H     1 <1>   0.0800 
 31 H        4.2950     2.8440     1.9800 H     1 <1>   0.0800 
 32 H        2.9690     3.8370     2.5390 H     1 <1>   0.0800 
 33 H        5.4370     5.4510    -0.0220 H     1 <1>   0.0800 
 34 H        2.4000     6.0150     2.0160 H     1 <1>   0.0800 
 35 H        2.0290     7.1400     0.7190 H     1 <1>   0.0800 
 36 H        4.4790     5.3190    -2.1230 H     1 <1>   0.4000 
 37 H        4.2850     8.2100    -0.2730 H     1 <1>   0.0800 
 38 H        5.6900     7.6770     0.6660 H     1 <1>   0.0800 
@<TRIPOS>BOND
  1   1   2  1   
  2   2   3  1   
  3   2   4  1   
  4   2   5  1   
  5   4   6  1   
  6   5   7  1   
  7   5   8  1   
  8   5  24  1   
  9   6   9  ar  
 10   6  10  ar  
 11   9  11  1   
 12   9  12  ar  
 13  10  13  ar  
 14  10  25  1   
 15  11  14  2   
 16  11  15  am  
 17  12  16  ar  
 18  12  26  1   
 19  13  16  ar  
 20  13  27  1   
 21  15  17  1   
 22  15  18  1   
 23  16  28  1   
 24  17  19  1   
 25  17  20  1   
 26  17  29  1   
 27  18  30  1   
 28  18  31  1   
 29  18  32  1   
 30  19  21  1   
 31  19  22  1   
 32  19  33  1   
 33  20  23  1   
 34  20  34  1   
 35  20  35  1   
 36  21  36  1   
 37  22  23  1   
 38  22  37  1   
 39  22  38  1   
@<TRIPOS>SUBSTRUCTURE
  1 ****  11 GROUP 4 **** **** 0

# MOE 2024.06 (io_trps.svl 2023.06)
