@<TRIPOS>MOLECULE
NONAME
43 45 1 0 0 
SMALL
USER_CHARGES


@<TRIPOS>ATOM
  1 F       -1.5380    -0.5280    -1.6610 F     1 <1>  -0.1900 
  2 C       -2.1160    -0.9420    -0.5610 C.ar  1 <1>   0.1900 
  3 C       -2.2040    -2.3050    -0.3030 C.ar  1 <1>   0.0830 
  4 C       -2.6110     0.0110     0.3050 C.ar  1 <1>  -0.1500 
  5 O       -1.6920    -3.1920    -1.1870 O.3   1 <1>  -0.3630 
  6 C       -2.8370    -2.7380     0.8670 C.ar  1 <1>   0.0860 
  7 C       -3.2180    -0.4120     1.4760 C.ar  1 <1>  -0.1500 
  8 C       -0.4440    -3.7650    -0.8630 C.3   1 <1>   0.0400 
  9 C       -2.9990    -4.1390     1.1850 C.2   1 <1>   0.5440 
 10 C       -3.3240    -1.7660     1.7460 C.ar  1 <1>  -0.1500 
 11 O       -2.4370    -4.6050     2.1580 O.2   1 <1>  -0.5700 
 12 N       -3.7950    -4.9680     0.4310 N.am  1 <1>  -0.6600 
 13 C       -4.5750    -4.5730    -0.7680 C.3   1 <1>   0.1400 
 14 C       -3.9520    -6.4170     0.7020 C.3   1 <1>   0.1400 
 15 C       -5.5690    -5.7170    -0.9580 C.3   1 <1>   0.2000 
 16 C       -4.8000    -6.9480    -0.4620 C.3   1 <1>  -0.0800 
 17 O       -6.6560    -5.4840    -0.1290 O.3   1 <1>  -0.6800 
 18 C       -5.6810    -8.1560    -0.0920 C.3   1 <1>   0.0200 
 19 C       -4.8750    -9.3980     0.2530 C.2   1 <1>  -0.0400 
 20 O       -5.5070   -10.4490     0.7040 O.3   1 <1>  -0.0190 
 21 C       -3.5680    -9.7020     0.1980 C.2   1 <1>  -0.1500 
 22 N       -4.6960   -11.4350     0.9570 N.2   1 <1>  -0.4100 
 23 C       -3.5190   -11.0130     0.6620 C.2   1 <1>   0.1080 
 24 C       -2.2600   -11.8380     0.8040 C.3   1 <1>  -0.0590 
 25 H       -2.5200     1.0570     0.0700 H     1 <1>   0.1500 
 26 H       -3.6060     0.3120     2.1730 H     1 <1>   0.1500 
 27 H       -0.1510    -4.4130    -1.6700 H     1 <1>   0.0800 
 28 H       -0.5360    -4.3310     0.0470 H     1 <1>   0.0800 
 29 H        0.2800    -2.9780    -0.7440 H     1 <1>   0.0800 
 30 H       -3.7930    -2.0900     2.6600 H     1 <1>   0.1500 
 31 H       -5.0710    -3.6260    -0.6360 H     1 <1>   0.0800 
 32 H       -3.9130    -4.5200    -1.6150 H     1 <1>   0.0800 
 33 H       -2.9900    -6.8970     0.7510 H     1 <1>   0.0800 
 34 H       -4.4600    -6.5430     1.6430 H     1 <1>   0.0800 
 35 H       -5.9220    -5.8080    -1.9710 H     1 <1>   0.0800 
 36 H       -4.1280    -7.2440    -1.2470 H     1 <1>   0.0800 
 37 H       -6.3240    -5.2430     0.7600 H     1 <1>   0.4000 
 38 H       -6.3290    -8.3910    -0.9170 H     1 <1>   0.0800 
 39 H       -6.3050    -7.9130     0.7500 H     1 <1>   0.0800 
 40 H       -2.7260    -9.1150    -0.1190 H     1 <1>   0.1500 
 41 H       -1.5850   -11.3570     1.4880 H     1 <1>   0.0800 
 42 H       -1.7830   -11.9430    -0.1530 H     1 <1>   0.0800 
 43 H       -2.5020   -12.8150     1.1820 H     1 <1>   0.0800 
@<TRIPOS>BOND
  1   1   2  1   
  2   2   3  ar  
  3   2   4  ar  
  4   3   5  1   
  5   3   6  ar  
  6   4   7  ar  
  7   4  25  1   
  8   5   8  1   
  9   6   9  1   
 10   6  10  ar  
 11   7  10  ar  
 12   7  26  1   
 13   8  27  1   
 14   8  28  1   
 15   8  29  1   
 16   9  11  2   
 17   9  12  am  
 18  10  30  1   
 19  12  13  1   
 20  12  14  1   
 21  13  15  1   
 22  13  31  1   
 23  13  32  1   
 24  14  16  1   
 25  14  33  1   
 26  14  34  1   
 27  15  16  1   
 28  15  17  1   
 29  15  35  1   
 30  16  18  1   
 31  16  36  1   
 32  17  37  1   
 33  18  19  1   
 34  18  38  1   
 35  18  39  1   
 36  19  20  1   
 37  19  21  2   
 38  20  22  1   
 39  21  23  1   
 40  21  40  1   
 41  22  23  2   
 42  23  24  1   
 43  24  41  1   
 44  24  42  1   
 45  24  43  1   
@<TRIPOS>SUBSTRUCTURE
  1 ****  12 GROUP 4 **** **** 0

# MOE 2024.06 (io_trps.svl 2023.06)
