@<TRIPOS>MOLECULE
NONAME
25 25 1 0 0 
SMALL
USER_CHARGES


@<TRIPOS>ATOM
  1 BR      -0.2880    -0.0140    -1.3630 Br    1 <1>  -0.1110 
  2 C       -1.8250    -0.5930    -0.3450 C.ar  1 <1>   0.1110 
  3 C       -3.0680     0.0320    -0.4600 C.ar  1 <1>   0.0830 
  4 C       -1.6320    -1.6870     0.4730 C.ar  1 <1>  -0.1500 
  5 O       -3.2980     1.1220    -1.2430 O.3   1 <1>  -0.3630 
  6 C       -4.1540    -0.4950     0.2400 C.ar  1 <1>  -0.1440 
  7 C       -2.7070    -2.1880     1.1830 C.ar  1 <1>  -0.1500 
  8 C       -2.4810     2.2690    -1.0850 C.3   1 <1>   0.0400 
  9 C       -3.9560    -1.6020     1.0640 C.ar  1 <1>  -0.1500 
 10 C       -5.5100     0.1800     0.0550 C.3   1 <1>   0.5660 
 11 N       -5.8820    -0.0210    -1.3420 N.4   1 <1>  -0.8530 
 12 C       -6.6460    -0.3530     0.9230 C.3   1 <1>  -0.2400 
 13 H       -0.6600    -2.1430     0.5490 H     1 <1>   0.1500 
 14 H       -2.5680    -3.0410     1.8280 H     1 <1>   0.1500 
 15 H       -3.0960     3.1440    -1.1910 H     1 <1>   0.0800 
 16 H       -1.7280     2.2700    -1.8540 H     1 <1>   0.0800 
 17 H       -2.0220     2.2610    -0.1100 H     1 <1>   0.0800 
 18 H       -4.7590    -2.0380     1.6350 H     1 <1>   0.1500 
 19 H       -5.3900     1.2350     0.2460 H     1 <1>   0.0800 
 20 H       -5.9620    -1.0210    -1.5360 H     1 <1>   0.4500 
 21 H       -5.0960     0.3470    -1.8990 H     1 <1>   0.4500 
 22 H       -6.7440     0.4690    -1.5860 H     1 <1>   0.4500 
 23 H       -6.8330    -1.3950     0.7340 H     1 <1>   0.0800 
 24 H       -7.5470     0.2080     0.7500 H     1 <1>   0.0800 
 25 H       -6.3870    -0.2360     1.9610 H     1 <1>   0.0800 
@<TRIPOS>BOND
  1   1   2  1   
  2   2   3  ar  
  3   2   4  ar  
  4   3   5  1   
  5   3   6  ar  
  6   4   7  ar  
  7   4  13  1   
  8   5   8  1   
  9   6   9  ar  
 10   6  10  1   
 11   7   9  ar  
 12   7  14  1   
 13   8  15  1   
 14   8  16  1   
 15   8  17  1   
 16   9  18  1   
 17  10  11  1   
 18  10  12  1   
 19  10  19  1   
 20  11  20  1   
 21  11  21  1   
 22  11  22  1   
 23  12  23  1   
 24  12  24  1   
 25  12  25  1   
@<TRIPOS>SUBSTRUCTURE
  1 ****   3 GROUP 4 **** **** 0

# MOE 2024.06 (io_trps.svl 2023.06)
