@<TRIPOS>MOLECULE
NONAME
52 54 1 0 0 
SMALL
USER_CHARGES


@<TRIPOS>ATOM
  1 O       -0.3450     0.8990    -0.8680 O.2   1 <1>  -0.5700 
  2 C       -1.4090     1.1460    -0.3440 C.2   1 <1>   0.5690 
  3 N       -2.4020     0.2000    -0.2500 N.am  1 <1>  -0.6600 
  4 C       -1.6220     2.5570     0.2280 C.3   1 <1>   0.2010 
  5 C       -3.6780     0.4240     0.4950 C.3   1 <1>   0.1400 
  6 C       -2.2330    -1.1280    -0.9170 C.3   1 <1>   0.1400 
  7 N       -0.6120     3.5490    -0.2450 N.am  1 <1>  -0.7300 
  8 C       -4.3450    -0.9070     0.8390 C.3   1 <1>  -0.1600 
  9 C       -3.5660    -1.6230    -1.4850 C.3   1 <1>  -0.1600 
 10 C       -0.6530     4.8970    -0.2010 C.2   1 <1>   0.5690 
 11 C       -4.7030    -1.6840    -0.4420 C.3   1 <1>   0.4240 
 12 O        0.2340     5.5530    -0.6790 O.2   1 <1>  -0.5700 
 13 C       -1.8170     5.6000     0.4510 C.3   1 <1>  -0.1790 
 14 O       -5.7800    -1.0040    -1.0430 O.3   1 <1>  -0.5600 
 15 C       -5.0560    -3.1510    -0.1150 C.ar  1 <1>  -0.1430 
 16 C       -7.0730    -1.3110    -0.6170 C.3   1 <1>   0.1200 
 17 C       -6.3220    -3.6650    -0.3600 C.ar  1 <1>  -0.1430 
 18 C       -4.1000    -3.9960     0.4330 C.ar  1 <1>  -0.1500 
 19 C       -7.3810    -2.7640    -0.9620 C.3   1 <1>  -0.0170 
 20 C       -6.6180    -4.9850    -0.0600 C.ar  1 <1>  -0.1500 
 21 C       -4.3740    -5.3190     0.7350 C.ar  1 <1>   0.0820 
 22 C       -5.6610    -5.8290     0.4970 C.ar  1 <1>   0.0820 
 23 O       -3.3170    -6.0070     1.2560 O.3   1 <1>  -0.3630 
 24 O       -5.9600    -7.1210     0.8240 O.3   1 <1>  -0.3620 
 25 C       -3.1970    -7.4050     1.1190 C.3   1 <1>   0.0400 
 26 C       -7.2730    -7.6320     0.7520 C.3   1 <1>   0.0400 
 27 H       -1.5690     2.4970     1.2990 H     1 <1>   0.0800 
 28 H       -2.6010     2.8980    -0.0530 H     1 <1>   0.0800 
 29 H       -4.3450     1.0110    -0.1150 H     1 <1>   0.0800 
 30 H       -3.4800     0.9620     1.4060 H     1 <1>   0.0800 
 31 H       -1.8490    -1.8320    -0.1990 H     1 <1>   0.0800 
 32 H       -1.5170    -1.0520    -1.7180 H     1 <1>   0.0800 
 33 H        0.1910     3.1200    -0.7220 H     1 <1>   0.3700 
 34 H       -5.2230    -0.7400     1.4310 H     1 <1>   0.0800 
 35 H       -3.6670    -1.4780     1.4470 H     1 <1>   0.0800 
 36 H       -3.4150    -2.5960    -1.9170 H     1 <1>   0.0800 
 37 H       -3.8390    -0.9640    -2.2900 H     1 <1>   0.0800 
 38 H       -1.9370     5.2530     1.4600 H     1 <1>   0.0800 
 39 H       -2.7140     5.4150    -0.1090 H     1 <1>   0.0800 
 40 H       -1.6330     6.6590     0.4700 H     1 <1>   0.0800 
 41 H       -7.7530    -0.6520    -1.1270 H     1 <1>   0.0800 
 42 H       -7.1490    -1.1440     0.4430 H     1 <1>   0.0800 
 43 H       -3.1080    -3.6380     0.6340 H     1 <1>   0.1500 
 44 H       -7.3960    -2.8840    -2.0300 H     1 <1>   0.0800 
 45 H       -8.3520    -3.0210    -0.5780 H     1 <1>   0.0800 
 46 H       -7.6080    -5.3380    -0.2700 H     1 <1>   0.1500 
 47 H       -2.1760    -7.6750     1.3160 H     1 <1>   0.0800 
 48 H       -3.4660    -7.6840     0.1150 H     1 <1>   0.0800 
 49 H       -3.8440    -7.8800     1.8350 H     1 <1>   0.0800 
 50 H       -7.2580    -8.6410     1.1230 H     1 <1>   0.0800 
 51 H       -7.5950    -7.6270    -0.2740 H     1 <1>   0.0800 
 52 H       -7.9180    -7.0280     1.3650 H     1 <1>   0.0800 
@<TRIPOS>BOND
  1   1   2  2   
  2   2   3  am  
  3   2   4  1   
  4   3   5  1   
  5   3   6  1   
  6   4   7  1   
  7   4  27  1   
  8   4  28  1   
  9   5   8  1   
 10   5  29  1   
 11   5  30  1   
 12   6   9  1   
 13   6  31  1   
 14   6  32  1   
 15   7  10  am  
 16   7  33  1   
 17   8  11  1   
 18   8  34  1   
 19   8  35  1   
 20   9  11  1   
 21   9  36  1   
 22   9  37  1   
 23  10  12  2   
 24  10  13  1   
 25  11  14  1   
 26  11  15  1   
 27  13  38  1   
 28  13  39  1   
 29  13  40  1   
 30  14  16  1   
 31  15  17  ar  
 32  15  18  ar  
 33  16  19  1   
 34  16  41  1   
 35  16  42  1   
 36  17  19  1   
 37  17  20  ar  
 38  18  21  ar  
 39  18  43  1   
 40  19  44  1   
 41  19  45  1   
 42  20  22  ar  
 43  20  46  1   
 44  21  22  ar  
 45  21  23  1   
 46  22  24  1   
 47  23  25  1   
 48  24  26  1   
 49  25  47  1   
 50  25  48  1   
 51  25  49  1   
 52  26  50  1   
 53  26  51  1   
 54  26  52  1   
@<TRIPOS>SUBSTRUCTURE
  1 ****  11 GROUP 4 **** **** 0

# MOE 2024.06 (io_trps.svl 2023.06)
