@<TRIPOS>MOLECULE
NONAME
46 49 1 0 0 
SMALL
USER_CHARGES


@<TRIPOS>ATOM
  1 CL       0.5000    -1.7200    -1.5940 Cl    1 <1>  -0.1770 
  2 C        0.1110    -2.4520    -0.0470 C.ar  1 <1>   0.1770 
  3 C       -1.2250    -2.5900     0.3700 C.ar  1 <1>   0.4100 
  4 C        1.1490    -2.8790     0.7450 C.ar  1 <1>  -0.1500 
  5 N       -1.5590    -3.1340     1.5410 N.ar  1 <1>  -0.6200 
  6 N       -2.2780    -2.1680    -0.4260 N.pl3 1 <1>  -0.8380 
  7 C        0.7850    -3.4380     1.9510 C.ar  1 <1>   0.1770 
  8 C       -0.5500    -3.5420     2.3010 C.ar  1 <1>   0.1600 
  9 C       -3.4650    -1.5330     0.2240 C.3   1 <1>   0.2090 
 10 C       -2.6480    -3.0140    -1.5860 C.3   1 <1>   0.2090 
 11 CL       2.0260    -4.0150     3.0390 Cl    1 <1>  -0.1770 
 12 C       -4.1720    -0.5940    -0.7720 C.3   1 <1>   0.1440 
 13 C       -3.3490    -2.1490    -2.6400 C.3   1 <1>  -0.1600 
 14 C       -5.4140     0.0060    -0.1450 C.ar  1 <1>   0.1670 
 15 C       -4.5470    -1.3730    -2.0540 C.3   1 <1>  -0.1600 
 16 C       -3.3170     0.6640    -1.0900 C.3   1 <1>  -0.1600 
 17 N       -6.3420    -0.6680     0.4890 N.ar  1 <1>  -0.6200 
 18 C       -5.4630     1.3560    -0.3140 C.ar  1 <1>  -0.1430 
 19 C       -4.2710     1.8710    -1.0800 C.3   1 <1>  -0.0170 
 20 C       -7.3510     0.0630     0.9680 C.ar  1 <1>   0.7200 
 21 C       -6.5400     2.0250     0.2100 C.ar  1 <1>   0.1600 
 22 N       -7.4900     1.3880     0.8530 N.ar  1 <1>  -0.6200 
 23 N       -8.3430    -0.6160     1.6490 N.pl3 1 <1>  -0.8380 
 24 C       -8.1620    -2.0160     2.1220 C.3   1 <1>   0.1290 
 25 C       -9.6480     0.0180     1.9820 C.3   1 <1>   0.1290 
 26 H        2.1760    -2.7830     0.4470 H     1 <1>   0.1500 
 27 H       -0.7970    -3.9830     3.2510 H     1 <1>   0.1500 
 28 H       -3.1590    -0.9810     1.0960 H     1 <1>   0.0800 
 29 H       -4.1470    -2.3020     0.5440 H     1 <1>   0.0800 
 30 H       -3.3080    -3.7980    -1.2540 H     1 <1>   0.0800 
 31 H       -1.7680    -3.4680    -2.0100 H     1 <1>   0.0800 
 32 H       -3.6890    -2.7800    -3.4420 H     1 <1>   0.0800 
 33 H       -2.6280    -1.4660    -3.0520 H     1 <1>   0.0800 
 34 H       -4.9480    -0.7000    -2.7910 H     1 <1>   0.0800 
 35 H       -5.3220    -2.0790    -1.8060 H     1 <1>   0.0800 
 36 H       -2.7890     0.5850    -2.0220 H     1 <1>   0.0800 
 37 H       -2.5880     0.8020    -0.3100 H     1 <1>   0.0800 
 38 H       -4.5690     2.1280    -2.0820 H     1 <1>   0.0800 
 39 H       -3.8250     2.7240    -0.5990 H     1 <1>   0.0800 
 40 H       -6.6230     3.0920     0.1020 H     1 <1>   0.1500 
 41 H       -7.1220    -2.2180     2.3150 H     1 <1>   0.0800 
 42 H       -8.5160    -2.6980     1.3690 H     1 <1>   0.0800 
 43 H       -8.7100    -2.1730     3.0340 H     1 <1>   0.0800 
 44 H       -9.9040     0.7620     1.2480 H     1 <1>   0.0800 
 45 H       -9.5810     0.4890     2.9480 H     1 <1>   0.0800 
 46 H      -10.4260    -0.7240     1.9990 H     1 <1>   0.0800 
@<TRIPOS>BOND
  1   1   2  1   
  2   2   3  ar  
  3   2   4  ar  
  4   3   5  ar  
  5   3   6  1   
  6   4   7  ar  
  7   4  26  1   
  8   5   8  ar  
  9   6   9  1   
 10   6  10  1   
 11   7   8  ar  
 12   7  11  1   
 13   8  27  1   
 14   9  12  1   
 15   9  28  1   
 16   9  29  1   
 17  10  13  1   
 18  10  30  1   
 19  10  31  1   
 20  12  14  1   
 21  12  15  1   
 22  12  16  1   
 23  13  15  1   
 24  13  32  1   
 25  13  33  1   
 26  14  17  ar  
 27  14  18  ar  
 28  15  34  1   
 29  15  35  1   
 30  16  19  1   
 31  16  36  1   
 32  16  37  1   
 33  17  20  ar  
 34  18  19  1   
 35  18  21  ar  
 36  19  38  1   
 37  19  39  1   
 38  20  22  ar  
 39  20  23  1   
 40  21  22  ar  
 41  21  40  1   
 42  23  24  1   
 43  23  25  1   
 44  24  41  1   
 45  24  42  1   
 46  24  43  1   
 47  25  44  1   
 48  25  45  1   
 49  25  46  1   
@<TRIPOS>SUBSTRUCTURE
  1 ****   9 GROUP 4 **** **** 0

# MOE 2024.06 (io_trps.svl 2023.06)
