@<TRIPOS>MOLECULE
NONAME
44 46 1 0 0 
SMALL
USER_CHARGES


@<TRIPOS>ATOM
  1 S       -0.8910     0.0260     0.4650 S.3   1 <1>  -0.0800 
  2 C       -1.5310    -1.5520     0.8820 C.2   1 <1>  -0.1100 
  3 C       -1.5540    -0.0860    -1.1540 C.2   1 <1>  -0.1100 
  4 C       -2.2050    -2.0870    -0.1550 C.2   1 <1>  -0.1810 
  5 C       -2.2090    -1.2490    -1.3210 C.2   1 <1>  -0.1500 
  6 C       -2.8980    -3.4330    -0.1410 C.3   1 <1>   0.5240 
  7 N       -4.2300    -3.2600     0.4980 N.4   1 <1>  -0.9590 
  8 C       -4.7550    -4.5850     0.9870 C.3   1 <1>   0.3430 
  9 C       -5.1590    -2.5100    -0.4090 C.3   1 <1>   0.3430 
 10 C       -6.1360    -4.5310     1.6780 C.3   1 <1>   0.1400 
 11 C       -6.2110    -1.7700     0.4180 C.3   1 <1>  -0.1600 
 12 N       -7.1830    -4.0630     0.7260 N.am  1 <1>  -0.6600 
 13 C       -7.4610    -2.6000     0.7290 C.3   1 <1>   0.1400 
 14 C       -7.7010    -4.8530    -0.2660 C.2   1 <1>   0.5690 
 15 O       -7.9280    -4.3980    -1.3590 O.2   1 <1>  -0.5700 
 16 C       -7.9700    -6.3280    -0.0320 C.3   1 <1>  -0.0990 
 17 C       -9.1920    -6.8020    -0.8340 C.3   1 <1>   0.0960 
 18 N       -9.4740    -8.2210    -0.5480 N.pl3 1 <1>   0.0480 
 19 C      -10.1810    -8.7440     0.4550 C.2   1 <1>   0.0360 
 20 C       -9.0680    -9.3040    -1.2130 C.2   1 <1>   0.0360 
 21 N      -10.1970   -10.0310     0.4100 N.2   1 <1>  -0.3380 
 22 N       -9.4830   -10.3900    -0.6590 N.2   1 <1>  -0.3380 
 23 H       -1.3210    -1.9010     1.8790 H     1 <1>   0.1500 
 24 H       -1.3730     0.7430    -1.8170 H     1 <1>   0.1500 
 25 H       -2.6890    -1.5450    -2.2400 H     1 <1>   0.1500 
 26 H       -2.3010    -4.1210     0.4360 H     1 <1>   0.0800 
 27 H       -2.9960    -3.8200    -1.1430 H     1 <1>   0.0800 
 28 H       -4.0580    -2.6440     1.3020 H     1 <1>   0.4500 
 29 H       -4.0490    -5.0040     1.6850 H     1 <1>   0.0800 
 30 H       -4.8270    -5.2660     0.1550 H     1 <1>   0.0800 
 31 H       -5.6350    -3.1750    -1.1150 H     1 <1>   0.0800 
 32 H       -4.6040    -1.7740    -0.9650 H     1 <1>   0.0800 
 33 H       -6.0960    -3.8790     2.5340 H     1 <1>   0.0800 
 34 H       -6.3850    -5.5130     2.0370 H     1 <1>   0.0800 
 35 H       -6.5360    -0.9130    -0.1460 H     1 <1>   0.0800 
 36 H       -5.7800    -1.3880     1.3260 H     1 <1>   0.0800 
 37 H       -8.2160    -2.3820    -0.0100 H     1 <1>   0.0800 
 38 H       -7.8660    -2.3120     1.6850 H     1 <1>   0.0800 
 39 H       -8.1600    -6.4910     1.0130 H     1 <1>   0.0800 
 40 H       -7.1040    -6.8890    -0.3290 H     1 <1>   0.0800 
 41 H       -9.0140    -6.6890    -1.8890 H     1 <1>   0.0800 
 42 H      -10.0570    -6.2180    -0.5740 H     1 <1>   0.0800 
 43 H      -10.6730    -8.1540     1.2060 H     1 <1>   0.1500 
 44 H       -8.4660    -9.2630    -2.1030 H     1 <1>   0.1500 
@<TRIPOS>BOND
  1   1   2  1   
  2   1   3  1   
  3   2   4  2   
  4   2  23  1   
  5   3   5  2   
  6   3  24  1   
  7   4   5  1   
  8   4   6  1   
  9   5  25  1   
 10   6   7  1   
 11   6  26  1   
 12   6  27  1   
 13   7   8  1   
 14   7   9  1   
 15   7  28  1   
 16   8  10  1   
 17   8  29  1   
 18   8  30  1   
 19   9  11  1   
 20   9  31  1   
 21   9  32  1   
 22  10  12  1   
 23  10  33  1   
 24  10  34  1   
 25  11  13  1   
 26  11  35  1   
 27  11  36  1   
 28  12  13  1   
 29  12  14  am  
 30  13  37  1   
 31  13  38  1   
 32  14  15  2   
 33  14  16  1   
 34  16  17  1   
 35  16  39  1   
 36  16  40  1   
 37  17  18  1   
 38  17  41  1   
 39  17  42  1   
 40  18  19  1   
 41  18  20  1   
 42  19  21  2   
 43  19  43  1   
 44  20  22  2   
 45  20  44  1   
 46  21  22  1   
@<TRIPOS>SUBSTRUCTURE
  1 ****  12 GROUP 4 **** **** 0

# MOE 2024.06 (io_trps.svl 2023.06)
