@<TRIPOS>MOLECULE
NONAME
58 60 1 0 0 
SMALL
USER_CHARGES


@<TRIPOS>ATOM
  1 O       -0.5570    -0.4570    -0.9120 O.2   1 <1>  -0.5700 
  2 C       -0.0660    -1.2360    -0.1290 C.2   1 <1>   0.5690 
  3 N        1.2790    -1.3070     0.0470 N.am  1 <1>  -0.7300 
  4 C       -1.0060    -2.1500     0.6840 C.3   1 <1>   0.4040 
  5 C        2.2610    -0.5470    -0.7500 C.3   1 <1>   0.2840 
  6 N       -2.4480    -1.6960     0.7200 N.4   1 <1>  -0.9590 
  7 C        3.5180    -1.3910    -0.8290 C.ar  1 <1>  -0.1430 
  8 C       -2.6310    -0.3420     1.3250 C.3   1 <1>   0.3430 
  9 C       -3.4040    -2.7090     1.2370 C.3   1 <1>   0.3430 
 10 C        4.5020    -1.2730     0.1410 C.ar  1 <1>  -0.1500 
 11 C        3.6900    -2.2960    -1.8670 C.ar  1 <1>  -0.1500 
 12 C       -4.1110     0.0580     1.3590 C.3   1 <1>  -0.1600 
 13 C       -4.8490    -2.2890     0.9400 C.3   1 <1>  -0.1600 
 14 C        5.6490    -2.0470     0.0830 C.ar  1 <1>   0.0830 
 15 C        4.8270    -3.0840    -1.9250 C.ar  1 <1>  -0.1500 
 16 C       -4.9880    -0.8350     0.4740 C.3   1 <1>   0.4180 
 17 O        6.5800    -1.8510     1.0480 O.3   1 <1>  -0.3630 
 18 C        5.8020    -2.9810    -0.9480 C.ar  1 <1>   0.0830 
 19 O       -4.4930    -0.8060    -0.8440 O.3   1 <1>  -0.5600 
 20 C       -6.4500    -0.4090     0.5110 C.2   1 <1>  -0.2880 
 21 C        7.8220    -1.3330     0.6250 C.3   1 <1>   0.0400 
 22 O        6.8710    -3.8080    -1.0450 O.3   1 <1>  -0.3630 
 23 C       -4.8780     0.2740    -1.6540 C.3   1 <1>   0.1200 
 24 C       -7.1100     0.0810    -0.5410 C.2   1 <1>  -0.2760 
 25 C        7.0250    -4.7640    -0.0190 C.3   1 <1>   0.0400 
 26 C       -6.3970     0.2750    -1.8670 C.3   1 <1>  -0.0220 
 27 C       -8.5770     0.4720    -0.5300 C.3   1 <1>  -0.1020 
 28 H        1.7290    -1.9900     0.6620 H     1 <1>   0.3700 
 29 H       -0.6280    -2.2180     1.6880 H     1 <1>   0.0800 
 30 H       -0.9580    -3.1300     0.2430 H     1 <1>   0.0800 
 31 H        2.4710     0.3930    -0.2700 H     1 <1>   0.0800 
 32 H        1.8750    -0.3500    -1.7370 H     1 <1>   0.0800 
 33 H       -2.7340    -1.5350    -0.2710 H     1 <1>   0.4500 
 34 H       -2.0940     0.3810     0.7310 H     1 <1>   0.0800 
 35 H       -2.2290    -0.3190     2.3240 H     1 <1>   0.0800 
 36 H       -3.2730    -2.8150     2.3020 H     1 <1>   0.0800 
 37 H       -3.2160    -3.6660     0.7770 H     1 <1>   0.0800 
 38 H        4.3970    -0.5730     0.9510 H     1 <1>   0.1500 
 39 H        2.9400    -2.3940    -2.6340 H     1 <1>   0.1500 
 40 H       -4.2180     1.0880     1.0720 H     1 <1>   0.0800 
 41 H       -4.4610    -0.0110     2.3730 H     1 <1>   0.0800 
 42 H       -5.4240    -2.4350     1.8360 H     1 <1>   0.0800 
 43 H       -5.2730    -2.9350     0.1930 H     1 <1>   0.0800 
 44 H        4.9610    -3.7880    -2.7270 H     1 <1>   0.1500 
 45 H       -6.9120    -0.5480     1.4720 H     1 <1>   0.1500 
 46 H        8.4150    -1.1270     1.4970 H     1 <1>   0.0800 
 47 H        7.6500    -0.4260     0.0730 H     1 <1>   0.0800 
 48 H        8.3210    -2.0570     0.0070 H     1 <1>   0.0800 
 49 H       -4.3700     0.1810    -2.5980 H     1 <1>   0.0800 
 50 H       -4.5650     1.1890    -1.1830 H     1 <1>   0.0800 
 51 H        7.8370    -5.4160    -0.2860 H     1 <1>   0.0800 
 52 H        6.1130    -5.3280     0.0690 H     1 <1>   0.0800 
 53 H        7.2460    -4.2640     0.9060 H     1 <1>   0.0800 
 54 H       -6.6720    -0.5100    -2.5480 H     1 <1>   0.0800 
 55 H       -6.6790     1.2140    -2.3080 H     1 <1>   0.0800 
 56 H       -9.1190    -0.1050    -1.2590 H     1 <1>   0.0800 
 57 H       -8.6860     1.5160    -0.7610 H     1 <1>   0.0800 
 58 H       -9.0110     0.2900     0.4370 H     1 <1>   0.0800 
@<TRIPOS>BOND
  1   1   2  2   
  2   2   3  am  
  3   2   4  1   
  4   3   5  1   
  5   3  28  1   
  6   4   6  1   
  7   4  29  1   
  8   4  30  1   
  9   5   7  1   
 10   5  31  1   
 11   5  32  1   
 12   6   8  1   
 13   6   9  1   
 14   6  33  1   
 15   7  10  ar  
 16   7  11  ar  
 17   8  12  1   
 18   8  34  1   
 19   8  35  1   
 20   9  13  1   
 21   9  36  1   
 22   9  37  1   
 23  10  14  ar  
 24  10  38  1   
 25  11  15  ar  
 26  11  39  1   
 27  12  16  1   
 28  12  40  1   
 29  12  41  1   
 30  13  16  1   
 31  13  42  1   
 32  13  43  1   
 33  14  17  1   
 34  14  18  ar  
 35  15  18  ar  
 36  15  44  1   
 37  16  19  1   
 38  16  20  1   
 39  17  21  1   
 40  18  22  1   
 41  19  23  1   
 42  20  24  2   
 43  20  45  1   
 44  21  46  1   
 45  21  47  1   
 46  21  48  1   
 47  22  25  1   
 48  23  26  1   
 49  23  49  1   
 50  23  50  1   
 51  24  26  1   
 52  24  27  1   
 53  25  51  1   
 54  25  52  1   
 55  25  53  1   
 56  26  54  1   
 57  26  55  1   
 58  27  56  1   
 59  27  57  1   
 60  27  58  1   
@<TRIPOS>SUBSTRUCTURE
  1 ****   2 GROUP 4 **** **** 0

# MOE 2024.06 (io_trps.svl 2023.06)
