@<TRIPOS>MOLECULE
NONAME
50 52 1 0 0 
SMALL
USER_CHARGES


@<TRIPOS>ATOM
  1 O       -0.6290    -0.4660    -0.7150 O.3   1 <1>  -0.3630 
  2 C       -1.7230    -1.0370    -0.1770 C.ar  1 <1>   0.0830 
  3 C        0.4130    -0.1180     0.1680 C.3   1 <1>   0.0400 
  4 C       -1.8480    -2.4180    -0.1070 C.ar  1 <1>  -0.1440 
  5 C       -2.7600    -0.2550     0.3010 C.ar  1 <1>  -0.1440 
  6 C       -3.0010    -2.9390     0.4720 C.ar  1 <1>   0.1660 
  7 C       -0.7350    -3.3140    -0.6580 C.3   1 <1>  -0.0960 
  8 C       -3.8550    -0.8940     0.8530 C.ar  1 <1>   0.1600 
  9 C       -2.7190     1.2660     0.2240 C.3   1 <1>  -0.0970 
 10 N       -3.9980    -2.2060     0.9510 N.ar  1 <1>  -0.6200 
 11 C       -3.2050    -4.4480     0.5930 C.3   1 <1>   0.4860 
 12 N       -4.1210    -4.9660    -0.4790 N.4   1 <1>  -0.9590 
 13 C       -5.5360    -4.4980    -0.2740 C.3   1 <1>   0.3430 
 14 C       -4.1420    -6.4550    -0.5330 C.3   1 <1>   0.3430 
 15 C       -6.4050    -5.7590    -0.2180 C.3   1 <1>   0.2000 
 16 C       -5.4460    -6.8900     0.1300 C.3   1 <1>  -0.0800 
 17 O       -7.4050    -5.6670     0.7380 O.3   1 <1>  -0.6800 
 18 C       -5.9420    -8.2700    -0.3390 C.3   1 <1>  -0.0170 
 19 C       -4.9550    -9.3740     0.0120 C.ar  1 <1>   0.1670 
 20 N       -3.7800    -9.3300    -0.6000 N.ar  1 <1>  -0.6200 
 21 C       -5.3180   -10.3520     0.9280 C.ar  1 <1>  -0.1500 
 22 C       -2.9400   -10.3110    -0.2980 C.ar  1 <1>   0.1600 
 23 C       -4.4290   -11.3580     1.2390 C.ar  1 <1>  -0.1500 
 24 C       -3.2090   -11.3290     0.6000 C.ar  1 <1>  -0.1500 
 25 H        1.2040     0.3320    -0.4050 H     1 <1>   0.0800 
 26 H        0.7710    -1.0070     0.6550 H     1 <1>   0.0800 
 27 H        0.0410     0.5820     0.8940 H     1 <1>   0.0800 
 28 H       -1.1330    -4.1730    -1.1660 H     1 <1>   0.0800 
 29 H       -0.0950    -3.6400     0.1420 H     1 <1>   0.0800 
 30 H       -0.1290    -2.7860    -1.3740 H     1 <1>   0.0800 
 31 H       -4.6610    -0.2900     1.2360 H     1 <1>   0.1500 
 32 H       -3.7080     1.6820     0.3010 H     1 <1>   0.0800 
 33 H       -2.2970     1.5800    -0.7140 H     1 <1>   0.0800 
 34 H       -2.1180     1.6600     1.0230 H     1 <1>   0.0800 
 35 H       -3.6190    -4.6620     1.5640 H     1 <1>   0.0800 
 36 H       -2.2500    -4.9400     0.5250 H     1 <1>   0.0800 
 37 H       -3.7800    -4.5830    -1.3720 H     1 <1>   0.4500 
 38 H       -5.6220    -3.9610     0.6570 H     1 <1>   0.0800 
 39 H       -5.8490    -3.8570    -1.0810 H     1 <1>   0.0800 
 40 H       -4.1460    -6.7830    -1.5610 H     1 <1>   0.0800 
 41 H       -3.2890    -6.8950    -0.0400 H     1 <1>   0.0800 
 42 H       -6.8730    -5.9180    -1.1760 H     1 <1>   0.0800 
 43 H       -5.2790    -6.9170     1.1930 H     1 <1>   0.0800 
 44 H       -7.0550    -5.6010     1.6490 H     1 <1>   0.4000 
 45 H       -6.0880    -8.2720    -1.4050 H     1 <1>   0.0800 
 46 H       -6.8950    -8.4760     0.1160 H     1 <1>   0.0800 
 47 H       -6.2860   -10.3370     1.3950 H     1 <1>   0.1500 
 48 H       -1.9840   -10.3070    -0.7930 H     1 <1>   0.1500 
 49 H       -4.6780   -12.1340     1.9430 H     1 <1>   0.1500 
 50 H       -2.4740   -12.0890     0.7930 H     1 <1>   0.1500 
@<TRIPOS>BOND
  1   1   2  1   
  2   1   3  1   
  3   2   4  ar  
  4   2   5  ar  
  5   3  25  1   
  6   3  26  1   
  7   3  27  1   
  8   4   6  ar  
  9   4   7  1   
 10   5   8  ar  
 11   5   9  1   
 12   6  10  ar  
 13   6  11  1   
 14   7  28  1   
 15   7  29  1   
 16   7  30  1   
 17   8  10  ar  
 18   8  31  1   
 19   9  32  1   
 20   9  33  1   
 21   9  34  1   
 22  11  12  1   
 23  11  35  1   
 24  11  36  1   
 25  12  13  1   
 26  12  14  1   
 27  12  37  1   
 28  13  15  1   
 29  13  38  1   
 30  13  39  1   
 31  14  16  1   
 32  14  40  1   
 33  14  41  1   
 34  15  16  1   
 35  15  17  1   
 36  15  42  1   
 37  16  18  1   
 38  16  43  1   
 39  17  44  1   
 40  18  19  1   
 41  18  45  1   
 42  18  46  1   
 43  19  20  ar  
 44  19  21  ar  
 45  20  22  ar  
 46  21  23  ar  
 47  21  47  1   
 48  22  24  ar  
 49  22  48  1   
 50  23  24  ar  
 51  23  49  1   
 52  24  50  1   
@<TRIPOS>SUBSTRUCTURE
  1 ****  12 GROUP 4 **** **** 0

# MOE 2024.06 (io_trps.svl 2023.06)
