@<TRIPOS>MOLECULE
NONAME
37 37 1 0 0 
SMALL
USER_CHARGES


@<TRIPOS>ATOM
  1 O        4.4450     1.9250     0.0750 O.2   1 <1>  -0.5700 
  2 C        3.4690     1.6790    -0.5920 C.2   1 <1>   0.5690 
  3 N        3.5930     1.0500    -1.7700 N.am  1 <1>  -0.8000 
  4 C        2.0990     2.0880    -0.1000 C.3   1 <1>  -0.0990 
  5 C        2.1360     3.2880     0.8570 C.3   1 <1>   0.2090 
  6 N        2.4530     4.5680     0.1450 N.pl3 1 <1>  -0.8380 
  7 C        3.6450     5.2320     0.1930 C.ar  1 <1>   0.7710 
  8 C        1.2360     5.2420    -0.4200 C.3   1 <1>   0.1290 
  9 N        3.6670     6.5310    -0.0710 N.ar  1 <1>  -0.6200 
 10 N        4.7690     4.5630     0.5020 N.ar  1 <1>  -0.1790 
 11 C        4.8170     7.1780    -0.0100 C.ar  1 <1>   0.4100 
 12 C        5.9680     5.1790     0.5860 C.ar  1 <1>   0.2110 
 13 N        4.8100     8.5120    -0.2950 N.pl3 1 <1>  -0.8380 
 14 C        6.0080     6.5070     0.3360 C.ar  1 <1>  -0.1500 
 15 C        6.0060     9.2860    -0.7260 C.3   1 <1>   0.2090 
 16 C        3.5370     9.2950    -0.3640 C.3   1 <1>   0.1290 
 17 C        6.5820    10.0360     0.4710 C.3   1 <1>  -0.2400 
 18 H        4.5090     0.7260    -2.0890 H     1 <1>   0.3700 
 19 H        2.8080     0.7970    -2.3730 H     1 <1>   0.3700 
 20 H        1.6840     1.2480     0.4250 H     1 <1>   0.0800 
 21 H        1.4570     2.3040    -0.9330 H     1 <1>   0.0800 
 22 H        2.8400     3.1090     1.6520 H     1 <1>   0.0800 
 23 H        1.1690     3.3850     1.3240 H     1 <1>   0.0800 
 24 H        0.5500     4.5160    -0.8220 H     1 <1>   0.0800 
 25 H        1.5060     5.9170    -1.2160 H     1 <1>   0.0800 
 26 H        0.7380     5.8030     0.3520 H     1 <1>   0.0800 
 27 H        4.6790     3.5440     0.5750 H     1 <1>   0.4570 
 28 H        6.8390     4.5970     0.8420 H     1 <1>   0.1500 
 29 H        6.9260     7.0560     0.4000 H     1 <1>   0.1500 
 30 H        5.7250     9.9850    -1.4950 H     1 <1>   0.0800 
 31 H        6.7470     8.6280    -1.1460 H     1 <1>   0.0800 
 32 H        2.7900     8.8670     0.2830 H     1 <1>   0.0800 
 33 H        3.1650     9.2940    -1.3740 H     1 <1>   0.0800 
 34 H        3.7040    10.3110    -0.0520 H     1 <1>   0.0800 
 35 H        5.8640    10.7390     0.8540 H     1 <1>   0.0800 
 36 H        7.4590    10.5790     0.1700 H     1 <1>   0.0800 
 37 H        6.8540     9.3510     1.2530 H     1 <1>   0.0800 
@<TRIPOS>BOND
  1   1   2  2   
  2   2   3  am  
  3   2   4  1   
  4   3  18  1   
  5   3  19  1   
  6   4   5  1   
  7   4  20  1   
  8   4  21  1   
  9   5   6  1   
 10   5  22  1   
 11   5  23  1   
 12   6   7  1   
 13   6   8  1   
 14   7   9  ar  
 15   7  10  ar  
 16   8  24  1   
 17   8  25  1   
 18   8  26  1   
 19   9  11  ar  
 20  10  12  ar  
 21  10  27  1   
 22  11  13  1   
 23  11  14  ar  
 24  12  14  ar  
 25  12  28  1   
 26  13  15  1   
 27  13  16  1   
 28  14  29  1   
 29  15  17  1   
 30  15  30  1   
 31  15  31  1   
 32  16  32  1   
 33  16  33  1   
 34  16  34  1   
 35  17  35  1   
 36  17  36  1   
 37  17  37  1   
@<TRIPOS>SUBSTRUCTURE
  1 ****   7 GROUP 4 **** **** 0

# MOE 2024.06 (io_trps.svl 2023.06)
