@<TRIPOS>MOLECULE
NONAME
45 46 1 0 0 
SMALL
USER_CHARGES


@<TRIPOS>ATOM
  1 O       -0.7930    -1.2990     2.5920 O.3   1 <1>  -0.8500 
  2 C       -0.7500    -1.9900     1.5580 C.2   1 <1>  -0.1500 
  3 C       -1.7740    -2.0380     0.6090 C.2   1 <1>  -0.1240 
  4 C        0.4110    -2.7680     1.3200 C.2   1 <1>  -0.1500 
  5 C       -1.6360    -2.8330    -0.5390 C.2   1 <1>   0.6160 
  6 C       -3.0330    -1.1990     0.8450 C.3   1 <1>   0.2020 
  7 C        0.5430    -3.5520     0.2220 C.2   1 <1>  -0.0290 
  8 O       -2.4970    -2.8700    -1.4450 O.2   1 <1>  -0.5700 
  9 N       -0.4830    -3.6220    -0.7210 N.am  1 <1>  -0.4690 
 10 C       -4.2730    -2.0860     1.0240 C.ar  1 <1>  -0.1440 
 11 C       -3.1940    -0.0780    -0.1950 C.3   1 <1>  -0.0990 
 12 C        1.8160    -4.3550     0.0090 C.3   1 <1>  -0.1020 
 13 C       -0.3750    -4.4670    -1.9450 C.3   1 <1>   0.0600 
 14 C       -5.1490    -2.3910    -0.0100 C.ar  1 <1>  -0.1500 
 15 C       -4.5130    -2.6140     2.2840 C.ar  1 <1>  -0.1500 
 16 C       -1.9870     0.8290    -0.1730 C.2   1 <1>   0.6590 
 17 C       -6.2590    -3.2030     0.2060 C.ar  1 <1>   0.0820 
 18 C       -5.6190    -3.4110     2.5210 C.ar  1 <1>  -0.1500 
 19 O       -1.2520     0.9370    -1.1230 O.2   1 <1>  -0.5700 
 20 O       -1.7850     1.4870     0.9600 O.3   1 <1>  -0.4300 
 21 O       -7.1170    -3.5370    -0.8000 O.3   1 <1>  -0.3630 
 22 C       -6.4940    -3.7020     1.4880 C.ar  1 <1>   0.0820 
 23 C       -0.4910     1.9050     1.3260 C.3   1 <1>   0.0400 
 24 C       -6.6520    -3.5640    -2.1320 C.3   1 <1>   0.0400 
 25 O       -7.5630    -4.4850     1.7510 O.3   1 <1>  -0.5330 
 26 H        1.1710    -2.6850     2.0730 H     1 <1>   0.1500 
 27 H       -2.9200    -0.6900     1.7850 H     1 <1>   0.0800 
 28 H       -4.0660     0.5030     0.0360 H     1 <1>   0.0800 
 29 H       -3.2980    -0.4800    -1.1830 H     1 <1>   0.0800 
 30 H        2.2580    -4.1010    -0.9370 H     1 <1>   0.0800 
 31 H        1.5980    -5.4060     0.0390 H     1 <1>   0.0800 
 32 H        2.5280    -4.1360     0.7840 H     1 <1>   0.0800 
 33 H       -1.3500    -4.7900    -2.2640 H     1 <1>   0.0800 
 34 H        0.2120    -5.3440    -1.7540 H     1 <1>   0.0800 
 35 H        0.0790    -3.8900    -2.7310 H     1 <1>   0.0800 
 36 H       -4.9530    -2.0010    -0.9880 H     1 <1>   0.1500 
 37 H       -3.8180    -2.4010     3.0820 H     1 <1>   0.1500 
 38 H       -5.7800    -3.8020     3.5070 H     1 <1>   0.1500 
 39 H       -0.5550     2.4220     2.2660 H     1 <1>   0.0800 
 40 H       -0.0950     2.5490     0.5620 H     1 <1>   0.0800 
 41 H        0.1230     1.0250     1.4380 H     1 <1>   0.0800 
 42 H       -7.3850    -4.0740    -2.7300 H     1 <1>   0.0800 
 43 H       -5.7150    -4.0930    -2.1640 H     1 <1>   0.0800 
 44 H       -6.5330    -2.5540    -2.4800 H     1 <1>   0.0800 
 45 H       -7.5810    -4.7900     2.6720 H     1 <1>   0.4500 
@<TRIPOS>BOND
  1   1   2  1   
  2   2   3  2   
  3   2   4  1   
  4   3   5  1   
  5   3   6  1   
  6   4   7  2   
  7   4  26  1   
  8   5   8  2   
  9   5   9  am  
 10   6  10  1   
 11   6  11  1   
 12   6  27  1   
 13   7   9  1   
 14   7  12  1   
 15   9  13  1   
 16  10  14  ar  
 17  10  15  ar  
 18  11  16  1   
 19  11  28  1   
 20  11  29  1   
 21  12  30  1   
 22  12  31  1   
 23  12  32  1   
 24  13  33  1   
 25  13  34  1   
 26  13  35  1   
 27  14  17  ar  
 28  14  36  1   
 29  15  18  ar  
 30  15  37  1   
 31  16  19  2   
 32  16  20  1   
 33  17  21  1   
 34  17  22  ar  
 35  18  22  ar  
 36  18  38  1   
 37  20  23  1   
 38  21  24  1   
 39  22  25  1   
 40  23  39  1   
 41  23  40  1   
 42  23  41  1   
 43  24  42  1   
 44  24  43  1   
 45  24  44  1   
 46  25  45  1   
@<TRIPOS>SUBSTRUCTURE
  1 ****   3 GROUP 4 **** **** 0

# MOE 2024.06 (io_trps.svl 2023.06)
