@<TRIPOS>MOLECULE
NONAME
39 40 1 0 0 
SMALL
USER_CHARGES


@<TRIPOS>ATOM
  1 F       -1.3430     0.8260     1.2110 F     1 <1>  -0.3400 
  2 C       -1.6030     1.4780     0.0870 C.3   1 <1>   1.1640 
  3 F       -0.7190     1.0480    -0.8060 F     1 <1>  -0.3400 
  4 F       -2.7900     1.0600    -0.3310 F     1 <1>  -0.3400 
  5 C       -1.5210     3.0030     0.2780 C.ar  1 <1>  -0.1430 
  6 C       -0.2820     3.6290     0.3690 C.ar  1 <1>  -0.1500 
  7 C       -2.6680     3.7840     0.3700 C.ar  1 <1>  -0.1500 
  8 C       -0.1840     5.0030     0.5370 C.ar  1 <1>  -0.1430 
  9 C       -2.5770     5.1530     0.5480 C.ar  1 <1>  -0.1500 
 10 C       -1.3390     5.7620     0.6320 C.ar  1 <1>  -0.1500 
 11 C        1.1740     5.6740     0.6140 C.3   1 <1>   0.4870 
 12 N        1.7590     5.7270    -0.7600 N.4   1 <1>  -0.9590 
 13 C        3.2030     6.1690    -0.7030 C.3   1 <1>   0.5240 
 14 C        0.9550     6.6320    -1.6460 C.3   1 <1>   0.2630 
 15 C        3.3780     7.5030     0.0250 C.2   1 <1>   0.3350 
 16 N        3.7070     7.6110     1.2480 N.2   1 <1>  -0.4100 
 17 N        3.1340     8.6640    -0.5670 N.2   1 <1>  -0.5650 
 18 O        3.7000     8.8790     1.5340 O.3   1 <1>  -0.0190 
 19 C        3.3430     9.4580     0.4130 C.2   1 <1>   0.2980 
 20 C        3.2130    10.9750     0.3950 C.3   1 <1>   0.3000 
 21 O        2.0540    11.3530     1.0800 O.3   1 <1>  -0.5600 
 22 C        1.8600    12.7300     1.1560 C.3   1 <1>   0.0400 
 23 H        0.6110     3.0270     0.3120 H     1 <1>   0.1500 
 24 H       -3.6470     3.3340     0.3090 H     1 <1>   0.1500 
 25 H       -3.4760     5.7430     0.6240 H     1 <1>   0.1500 
 26 H       -1.2940     6.8290     0.7770 H     1 <1>   0.1500 
 27 H        1.8140     5.1090     1.2730 H     1 <1>   0.0800 
 28 H        1.0710     6.6700     1.0170 H     1 <1>   0.0800 
 29 H        1.7110     4.7770    -1.1460 H     1 <1>   0.4500 
 30 H        3.5980     6.2670    -1.7000 H     1 <1>   0.0800 
 31 H        3.7870     5.4280    -0.1840 H     1 <1>   0.0800 
 32 H        0.9320     7.6320    -1.2440 H     1 <1>   0.0800 
 33 H       -0.0590     6.2730    -1.7270 H     1 <1>   0.0800 
 34 H        1.3830     6.6710    -2.6350 H     1 <1>   0.0800 
 35 H        3.1400    11.3240    -0.6200 H     1 <1>   0.0800 
 36 H        4.0650    11.4220     0.8750 H     1 <1>   0.0800 
 37 H        0.9460    12.9100     1.6960 H     1 <1>   0.0800 
 38 H        1.7770    13.1370     0.1630 H     1 <1>   0.0800 
 39 H        2.6830    13.1800     1.6850 H     1 <1>   0.0800 
@<TRIPOS>BOND
  1   1   2  1   
  2   2   3  1   
  3   2   4  1   
  4   2   5  1   
  5   5   6  ar  
  6   5   7  ar  
  7   6   8  ar  
  8   6  23  1   
  9   7   9  ar  
 10   7  24  1   
 11   8  10  ar  
 12   8  11  1   
 13   9  10  ar  
 14   9  25  1   
 15  10  26  1   
 16  11  12  1   
 17  11  27  1   
 18  11  28  1   
 19  12  13  1   
 20  12  14  1   
 21  12  29  1   
 22  13  15  1   
 23  13  30  1   
 24  13  31  1   
 25  14  32  1   
 26  14  33  1   
 27  14  34  1   
 28  15  16  2   
 29  15  17  1   
 30  16  18  1   
 31  17  19  2   
 32  18  19  1   
 33  19  20  1   
 34  20  21  1   
 35  20  35  1   
 36  20  36  1   
 37  21  22  1   
 38  22  37  1   
 39  22  38  1   
 40  22  39  1   
@<TRIPOS>SUBSTRUCTURE
  1 ****  11 GROUP 4 **** **** 0

# MOE 2024.06 (io_trps.svl 2023.06)
