@<TRIPOS>MOLECULE
NONAME
52 55 1 0 0 
SMALL
USER_CHARGES


@<TRIPOS>ATOM
  1 O       -2.2160     0.2120    -0.0180 O.2   1 <1>  -0.5700 
  2 C       -2.3650     1.0540    -0.8870 C.2   1 <1>   0.6900 
  3 N       -3.4430     0.9400    -1.7130 N.am  1 <1>  -0.6600 
  4 N       -1.5590     2.1360    -1.0390 N.am  1 <1>  -0.5470 
  5 C       -4.7290     1.4970    -1.1900 C.3   1 <1>   0.1400 
  6 C       -3.6320    -0.3780    -2.4040 C.3   1 <1>   0.1400 
  7 C       -0.4670     2.6040    -0.2950 C.ar  1 <1>   0.1170 
  8 C       -5.3930     0.5360    -0.1630 C.3   1 <1>   0.4230 
  9 C       -4.5860    -1.3220    -1.6280 C.3   1 <1>   0.3430 
 10 C        0.2870     1.7930     0.5490 C.ar  1 <1>  -0.1500 
 11 C       -0.1110     3.9420    -0.4140 C.ar  1 <1>  -0.1500 
 12 N       -4.7880    -0.8490    -0.2150 N.4   1 <1>  -0.9590 
 13 C       -6.9260     0.4800    -0.3530 C.3   1 <1>   0.1200 
 14 C        1.3560     2.3040     1.2630 C.ar  1 <1>  -0.1430 
 15 C        0.9570     4.4670     0.2920 C.ar  1 <1>  -0.1430 
 16 C       -5.5020    -1.7790     0.7070 C.3   1 <1>   0.5180 
 17 O       -7.5070    -0.4190     0.5510 O.3   1 <1>  -0.5600 
 18 C        1.6880     3.6420     1.1300 C.ar  1 <1>  -0.1500 
 19 C        2.1700     1.4110     2.1820 C.3   1 <1>  -0.0970 
 20 C        1.3380     5.9300     0.1580 C.3   1 <1>  -0.0970 
 21 C       -4.9290    -3.1950     0.5700 C.3   1 <1>  -0.1950 
 22 C       -7.0290    -1.7370     0.4780 C.3   1 <1>   0.1200 
 23 C       -4.6960    -4.0310     1.7910 C.3   1 <1>  -0.2000 
 24 C       -3.5290    -3.5130     1.0020 C.3   1 <1>  -0.2000 
 25 H       -1.8210     2.7200    -1.8290 H     1 <1>   0.3700 
 26 H       -4.5490     2.4480    -0.7170 H     1 <1>   0.0800 
 27 H       -5.3920     1.6750    -2.0200 H     1 <1>   0.0800 
 28 H       -4.0110    -0.2150    -3.3980 H     1 <1>   0.0800 
 29 H       -2.6750    -0.8630    -2.5050 H     1 <1>   0.0800 
 30 H       -5.2120     0.9450     0.8170 H     1 <1>   0.0800 
 31 H       -4.1620    -2.3130    -1.6330 H     1 <1>   0.0800 
 32 H       -5.5340    -1.3670    -2.1360 H     1 <1>   0.0800 
 33 H        0.0440     0.7530     0.6470 H     1 <1>   0.1500 
 34 H       -0.6780     4.5810    -1.0650 H     1 <1>   0.1500 
 35 H       -3.8200    -0.7250     0.1500 H     1 <1>   0.4500 
 36 H       -7.1870     0.1760    -1.3510 H     1 <1>   0.0800 
 37 H       -7.3590     1.4480    -0.1660 H     1 <1>   0.0800 
 38 H       -5.3210    -1.4520     1.7180 H     1 <1>   0.0800 
 39 H        2.5200     4.0420     1.6810 H     1 <1>   0.1500 
 40 H        2.3630     1.9160     3.1110 H     1 <1>   0.0800 
 41 H        3.1080     1.1680     1.7150 H     1 <1>   0.0800 
 42 H        1.6430     0.4990     2.3940 H     1 <1>   0.0800 
 43 H        1.4700     6.3660     1.1320 H     1 <1>   0.0800 
 44 H        0.5760     6.4810    -0.3620 H     1 <1>   0.0800 
 45 H        2.2600     6.0160    -0.3890 H     1 <1>   0.0800 
 46 H       -5.3240    -3.7240    -0.2800 H     1 <1>   0.1000 
 47 H       -7.5280    -2.3080     1.2420 H     1 <1>   0.0800 
 48 H       -7.2900    -2.1480    -0.4800 H     1 <1>   0.0800 
 49 H       -4.8610    -3.6210     2.7730 H     1 <1>   0.1000 
 50 H       -4.9060    -5.0880     1.7520 H     1 <1>   0.1000 
 51 H       -2.9480    -4.2210     0.4340 H     1 <1>   0.1000 
 52 H       -2.9130    -2.7520     1.4520 H     1 <1>   0.1000 
@<TRIPOS>BOND
  1   1   2  2   
  2   2   3  am  
  3   2   4  am  
  4   3   5  1   
  5   3   6  1   
  6   4   7  1   
  7   4  25  1   
  8   5   8  1   
  9   5  26  1   
 10   5  27  1   
 11   6   9  1   
 12   6  28  1   
 13   6  29  1   
 14   7  10  ar  
 15   7  11  ar  
 16   8  12  1   
 17   8  13  1   
 18   8  30  1   
 19   9  12  1   
 20   9  31  1   
 21   9  32  1   
 22  10  14  ar  
 23  10  33  1   
 24  11  15  ar  
 25  11  34  1   
 26  12  16  1   
 27  12  35  1   
 28  13  17  1   
 29  13  36  1   
 30  13  37  1   
 31  14  18  ar  
 32  14  19  1   
 33  15  18  ar  
 34  15  20  1   
 35  16  21  1   
 36  16  22  1   
 37  16  38  1   
 38  17  22  1   
 39  18  39  1   
 40  19  40  1   
 41  19  41  1   
 42  19  42  1   
 43  20  43  1   
 44  20  44  1   
 45  20  45  1   
 46  21  23  1   
 47  21  24  1   
 48  21  46  1   
 49  22  47  1   
 50  22  48  1   
 51  23  24  1   
 52  23  49  1   
 53  23  50  1   
 54  24  51  1   
 55  24  52  1   
@<TRIPOS>SUBSTRUCTURE
  1 ****   1 GROUP 4 **** **** 0

# MOE 2024.06 (io_trps.svl 2023.06)
