@<TRIPOS>MOLECULE
NONAME
43 46 1 0 0 
SMALL
USER_CHARGES


@<TRIPOS>ATOM
  1 S       -3.1260     0.9480    -1.2850 S.3   1 <1>  -0.0800 
  2 C       -2.8390     1.0470     0.4380 C.2   1 <1>   0.1980 
  3 C       -2.9800    -0.7810    -1.1780 C.2   1 <1>  -0.1100 
  4 N       -2.6630    -0.0760     1.0080 N.2   1 <1>  -0.5650 
  5 C       -2.8280     2.4230     1.0620 C.3   1 <1>  -0.0600 
  6 C       -2.7390    -1.1200     0.0990 C.2   1 <1>   0.0460 
  7 C       -2.5470    -2.5220     0.6520 C.3   1 <1>   0.0820 
  8 C       -3.0210    -3.6020    -0.3060 C.2   1 <1>   0.5690 
  9 O       -2.1700    -4.2730    -0.8440 O.2   1 <1>  -0.5700 
 10 N       -4.3610    -3.8120    -0.5450 N.am  1 <1>  -0.6600 
 11 C       -4.8260    -4.8970    -1.4540 C.3   1 <1>   0.1400 
 12 C       -5.4750    -2.9980     0.0210 C.3   1 <1>   0.1400 
 13 C       -5.7650    -5.8300    -0.6880 C.3   1 <1>  -0.1600 
 14 C       -6.4140    -3.9120     0.8080 C.3   1 <1>  -0.1600 
 15 C       -6.9350    -5.0650    -0.0610 C.3   1 <1>   0.4600 
 16 O       -7.6820    -4.5300    -1.1370 O.3   1 <1>  -0.5600 
 17 C       -7.8360    -6.0030     0.7350 C.2   1 <1>  -0.1400 
 18 C       -9.0270    -4.1800    -0.9050 C.3   1 <1>   0.1200 
 19 S       -7.2420    -7.0040     2.0520 S.3   1 <1>  -0.0800 
 20 C       -9.1500    -6.1890     0.5540 C.2   1 <1>  -0.1810 
 21 C       -9.8720    -5.4110    -0.5220 C.3   1 <1>   0.0210 
 22 C       -8.8480    -7.6740     2.3080 C.2   1 <1>  -0.1100 
 23 C       -9.7350    -7.1460     1.4430 C.2   1 <1>  -0.1500 
 24 H       -3.0880    -1.3570    -2.0800 H     1 <1>   0.1500 
 25 H       -2.0550     3.0190     0.6140 H     1 <1>   0.0800 
 26 H       -2.6420     2.3410     2.1170 H     1 <1>   0.0800 
 27 H       -3.7790     2.9000     0.9090 H     1 <1>   0.0800 
 28 H       -3.0790    -2.6220     1.5790 H     1 <1>   0.0800 
 29 H       -1.5030    -2.6670     0.8620 H     1 <1>   0.0800 
 30 H       -3.9930    -5.4620    -1.8370 H     1 <1>   0.0800 
 31 H       -5.3430    -4.4590    -2.2910 H     1 <1>   0.0800 
 32 H       -6.0130    -2.5320    -0.7890 H     1 <1>   0.0800 
 33 H       -5.1130    -2.2170     0.6640 H     1 <1>   0.0800 
 34 H       -5.2000    -6.3250     0.0790 H     1 <1>   0.0800 
 35 H       -6.1500    -6.5870    -1.3480 H     1 <1>   0.0800 
 36 H       -7.2360    -3.3470     1.2040 H     1 <1>   0.0800 
 37 H       -5.8760    -4.3170     1.6450 H     1 <1>   0.0800 
 38 H       -9.4090    -3.7340    -1.8060 H     1 <1>   0.0800 
 39 H       -9.0580    -3.4470    -0.1190 H     1 <1>   0.0800 
 40 H      -10.0220    -6.0350    -1.3840 H     1 <1>   0.0800 
 41 H      -10.8320    -5.0860    -0.1640 H     1 <1>   0.0800 
 42 H       -8.9590    -8.4040     3.0900 H     1 <1>   0.1500 
 43 H      -10.7820    -7.3900     1.3920 H     1 <1>   0.1500 
@<TRIPOS>BOND
  1   1   2  1   
  2   1   3  1   
  3   2   4  2   
  4   2   5  1   
  5   3   6  2   
  6   3  24  1   
  7   4   6  1   
  8   5  25  1   
  9   5  26  1   
 10   5  27  1   
 11   6   7  1   
 12   7   8  1   
 13   7  28  1   
 14   7  29  1   
 15   8   9  2   
 16   8  10  am  
 17  10  11  1   
 18  10  12  1   
 19  11  13  1   
 20  11  30  1   
 21  11  31  1   
 22  12  14  1   
 23  12  32  1   
 24  12  33  1   
 25  13  15  1   
 26  13  34  1   
 27  13  35  1   
 28  14  15  1   
 29  14  36  1   
 30  14  37  1   
 31  15  16  1   
 32  15  17  1   
 33  16  18  1   
 34  17  19  1   
 35  17  20  2   
 36  18  21  1   
 37  18  38  1   
 38  18  39  1   
 39  19  22  1   
 40  20  21  1   
 41  20  23  1   
 42  21  40  1   
 43  21  41  1   
 44  22  23  2   
 45  22  42  1   
 46  23  43  1   
@<TRIPOS>SUBSTRUCTURE
  1 ****  12 GROUP 4 **** **** 0

# MOE 2024.06 (io_trps.svl 2023.06)
