@<TRIPOS>MOLECULE
NONAME
50 52 1 0 0 
SMALL
USER_CHARGES


@<TRIPOS>ATOM
  1 S        0.1620    -0.7200     0.9010 S.o2  1 <1>   1.4470 
  2 O       -0.6190    -0.4050     2.0750 O.2   1 <1>  -0.6500 
  3 O        0.8410    -1.9980     0.9300 O.2   1 <1>  -0.6500 
  4 N       -0.9430    -0.8360    -0.3930 N.am  1 <1>  -0.8490 
  5 C        1.3280     0.5700     0.4080 C.ar  1 <1>  -0.0090 
  6 C       -1.5870    -2.1490    -0.4880 C.3   1 <1>   0.1960 
  7 C       -1.9630     0.2320    -0.4550 C.3   1 <1>   0.1960 
  8 C        1.1270     1.9050     0.7230 C.ar  1 <1>   0.1900 
  9 C        2.4640     0.2710    -0.3370 C.ar  1 <1>  -0.1500 
 10 C       -2.6990    -2.1950     0.5790 C.3   1 <1>   0.4230 
 11 C       -3.2470    -0.0530     0.3830 C.3   1 <1>  -0.1600 
 12 F        0.0720     2.2580     1.4040 F     1 <1>  -0.1900 
 13 C        1.9960     2.9110     0.3430 C.ar  1 <1>  -0.1500 
 14 C        3.3490     1.2620    -0.7310 C.ar  1 <1>  -0.1500 
 15 N       -2.8500    -3.4740     1.3630 N.4   1 <1>  -0.9590 
 16 C       -3.9920    -1.4490     0.0200 C.3   1 <1>   0.0000 
 17 C        3.1230     2.5870    -0.3930 C.ar  1 <1>  -0.1430 
 18 C       -3.1520    -4.6470     0.5310 C.3   1 <1>   0.3430 
 19 C       -1.6610    -3.7000     2.2480 C.3   1 <1>   0.2630 
 20 C       -4.7170    -2.8260    -0.4180 C.3   1 <1>  -0.1600 
 21 C       -5.2890    -0.6390    -0.4600 C.3   1 <1>   0.1200 
 22 C        4.1010     3.6630    -0.8300 C.3   1 <1>  -0.0970 
 23 C       -3.9900    -4.1790    -0.6420 C.3   1 <1>  -0.1600 
 24 O       -5.9710    -0.2190     0.6790 O.3   1 <1>  -0.6800 
 25 H       -2.0140    -2.2500    -1.4700 H     1 <1>   0.0800 
 26 H       -0.8740    -2.9430    -0.3580 H     1 <1>   0.0800 
 27 H       -1.5320     1.1700    -0.1510 H     1 <1>   0.0800 
 28 H       -2.2560     0.3480    -1.4860 H     1 <1>   0.0800 
 29 H        2.6630    -0.7520    -0.6130 H     1 <1>   0.1500 
 30 H       -2.2940    -1.5880     1.3610 H     1 <1>   0.0800 
 31 H       -3.0370     0.0230     1.4390 H     1 <1>   0.0800 
 32 H       -3.7960     0.8680     0.2680 H     1 <1>   0.0800 
 33 H        1.7860     3.9280     0.6210 H     1 <1>   0.1500 
 34 H        4.2200     0.9970    -1.3050 H     1 <1>   0.1500 
 35 H       -3.6690    -3.3090     1.9660 H     1 <1>   0.4500 
 36 H       -2.2440    -5.1030     0.1690 H     1 <1>   0.0800 
 37 H       -3.6960    -5.3740     1.1120 H     1 <1>   0.0800 
 38 H       -0.7730    -3.8620     1.6570 H     1 <1>   0.0800 
 39 H       -1.8180    -4.5590     2.8800 H     1 <1>   0.0800 
 40 H       -1.4930    -2.8380     2.8750 H     1 <1>   0.0800 
 41 H       -5.5250    -3.0130     0.2740 H     1 <1>   0.0800 
 42 H       -5.1490    -2.7400    -1.4030 H     1 <1>   0.0800 
 43 H       -6.0520    -1.1280    -1.0400 H     1 <1>   0.0800 
 44 H       -5.0580     0.2180    -1.0740 H     1 <1>   0.0800 
 45 H        5.1120     3.3370    -0.6570 H     1 <1>   0.0800 
 46 H        3.9400     4.5740    -0.2820 H     1 <1>   0.0800 
 47 H        3.9770     3.8640    -1.8790 H     1 <1>   0.0800 
 48 H       -3.3580    -4.1120    -1.5100 H     1 <1>   0.0800 
 49 H       -4.7160    -4.9440    -0.8640 H     1 <1>   0.0800 
 50 H       -6.7620     0.3110     0.4460 H     1 <1>   0.4000 
@<TRIPOS>BOND
  1   1   2  2   
  2   1   3  2   
  3   1   4  am  
  4   1   5  1   
  5   4   6  1   
  6   4   7  1   
  7   5   8  ar  
  8   5   9  ar  
  9   6  10  1   
 10   6  25  1   
 11   6  26  1   
 12   7  11  1   
 13   7  27  1   
 14   7  28  1   
 15   8  12  1   
 16   8  13  ar  
 17   9  14  ar  
 18   9  29  1   
 19  10  15  1   
 20  10  16  1   
 21  10  30  1   
 22  11  16  1   
 23  11  31  1   
 24  11  32  1   
 25  13  17  ar  
 26  13  33  1   
 27  14  17  ar  
 28  14  34  1   
 29  15  18  1   
 30  15  19  1   
 31  15  35  1   
 32  16  20  1   
 33  16  21  1   
 34  17  22  1   
 35  18  23  1   
 36  18  36  1   
 37  18  37  1   
 38  19  38  1   
 39  19  39  1   
 40  19  40  1   
 41  20  23  1   
 42  20  41  1   
 43  20  42  1   
 44  21  24  1   
 45  21  43  1   
 46  21  44  1   
 47  22  45  1   
 48  22  46  1   
 49  22  47  1   
 50  23  48  1   
 51  23  49  1   
 52  24  50  1   
@<TRIPOS>SUBSTRUCTURE
  1 ****   4 GROUP 4 **** **** 0

# MOE 2024.06 (io_trps.svl 2023.06)
