@<TRIPOS>MOLECULE
NONAME
55 58 1 0 0 
SMALL
USER_CHARGES


@<TRIPOS>ATOM
  1 O       -3.0100     0.6720     0.7190 O.2   1 <1>  -0.5700 
  2 C       -2.8860     1.0690    -0.4190 C.2   1 <1>   0.9370 
  3 N       -1.9280     2.0800    -0.6850 N.pl3 1 <1>  -0.5760 
  4 C       -3.7670     0.6270    -1.4480 C.2   1 <1>   0.0290 
  5 C       -2.1810     2.9150    -1.7310 C.cat 1 <1>   0.7390 
  6 C       -0.7950     2.3130     0.0830 C.2   1 <1>   0.2030 
  7 C       -4.4800    -0.6170    -1.3730 C.2   1 <1>   0.6160 
  8 C       -3.9150     1.4570    -2.5120 C.2   1 <1>   0.1910 
  9 N       -3.1810     2.6070    -2.5930 N.pl3 1 <1>  -0.6450 
 10 C       -1.4040     4.0580    -1.9430 C.2   1 <1>  -0.1800 
 11 C       -0.0210     3.4230    -0.1330 C.2   1 <1>  -0.1500 
 12 C       -0.3430     1.3490     1.1770 C.3   1 <1>  -0.1020 
 13 O       -5.3690    -0.8270    -2.1720 O.2   1 <1>  -0.5700 
 14 N       -4.2100    -1.6430    -0.5030 N.am  1 <1>  -0.6600 
 15 C       -0.3270     4.3290    -1.1480 C.2   1 <1>  -0.1500 
 16 C       -4.8170    -1.6490     0.8720 C.3   1 <1>   0.1400 
 17 C       -4.0080    -3.0140    -1.0660 C.3   1 <1>   0.1400 
 18 C       -6.0780    -2.5440     0.9860 C.3   1 <1>   0.4230 
 19 C       -5.3080    -3.8400    -1.0070 C.3   1 <1>   0.3430 
 20 N       -5.8600    -3.9250     0.3960 N.4   1 <1>  -0.9590 
 21 C       -7.3130    -1.8570     0.3560 C.3   1 <1>   0.1200 
 22 C       -7.1430    -4.7110     0.4880 C.3   1 <1>   0.4230 
 23 O       -8.4400    -2.6690     0.4990 O.3   1 <1>  -0.5600 
 24 C       -8.3380    -3.9260    -0.1070 C.3   1 <1>   0.1200 
 25 C       -6.9730    -6.1050    -0.1380 C.3   1 <1>  -0.1600 
 26 C       -8.1000    -7.0700     0.2660 C.3   1 <1>  -0.1600 
 27 C       -7.8510    -8.4680    -0.3070 C.3   1 <1>  -0.2400 
 28 H       -4.6020     1.2370    -3.3200 H     1 <1>   0.1500 
 29 H       -3.3350     3.2490    -3.3800 H     1 <1>   0.4500 
 30 H       -1.6550     4.7260    -2.7460 H     1 <1>   0.1500 
 31 H        0.8480     3.6210     0.4730 H     1 <1>   0.1500 
 32 H       -0.3480     0.3370     0.8180 H     1 <1>   0.0800 
 33 H       -0.9880     1.4260     2.0350 H     1 <1>   0.0800 
 34 H        0.6570     1.5750     1.5020 H     1 <1>   0.0800 
 35 H        0.2870     5.2050    -1.2920 H     1 <1>   0.1500 
 36 H       -4.0770    -1.9920     1.5750 H     1 <1>   0.0800 
 37 H       -5.0820    -0.6470     1.1630 H     1 <1>   0.0800 
 38 H       -3.6910    -2.9410    -2.0930 H     1 <1>   0.0800 
 39 H       -3.2290    -3.5180    -0.5200 H     1 <1>   0.0800 
 40 H       -6.2980    -2.6490     2.0360 H     1 <1>   0.0800 
 41 H       -5.1070    -4.8290    -1.3840 H     1 <1>   0.0800 
 42 H       -6.0330    -3.3790    -1.6590 H     1 <1>   0.0800 
 43 H       -5.1690    -4.4090     0.9810 H     1 <1>   0.4500 
 44 H       -7.1720    -1.6530    -0.6900 H     1 <1>   0.0800 
 45 H       -7.5210    -0.9290     0.8580 H     1 <1>   0.0800 
 46 H       -7.3670    -4.8610     1.5320 H     1 <1>   0.0800 
 47 H       -9.2610    -4.4450     0.0840 H     1 <1>   0.0800 
 48 H       -8.2370    -3.7930    -1.1700 H     1 <1>   0.0800 
 49 H       -6.9560    -6.0340    -1.2120 H     1 <1>   0.0800 
 50 H       -6.0420    -6.5300     0.1940 H     1 <1>   0.0800 
 51 H       -8.1590    -7.1410     1.3400 H     1 <1>   0.0800 
 52 H       -9.0500    -6.7180    -0.0980 H     1 <1>   0.0800 
 53 H       -6.9250    -8.8750     0.0620 H     1 <1>   0.0800 
 54 H       -7.8140    -8.4400    -1.3820 H     1 <1>   0.0800 
 55 H       -8.6480    -9.1310    -0.0160 H     1 <1>   0.0800 
@<TRIPOS>BOND
  1   1   2  2   
  2   2   3  1   
  3   2   4  1   
  4   3   5  ar  
  5   3   6  1   
  6   4   7  1   
  7   4   8  2   
  8   5   9  ar  
  9   5  10  1   
 10   6  11  2   
 11   6  12  1   
 12   7  13  2   
 13   7  14  am  
 14   8   9  1   
 15   8  28  1   
 16   9  29  1   
 17  10  15  2   
 18  10  30  1   
 19  11  15  1   
 20  11  31  1   
 21  12  32  1   
 22  12  33  1   
 23  12  34  1   
 24  14  16  1   
 25  14  17  1   
 26  15  35  1   
 27  16  18  1   
 28  16  36  1   
 29  16  37  1   
 30  17  19  1   
 31  17  38  1   
 32  17  39  1   
 33  18  20  1   
 34  18  21  1   
 35  18  40  1   
 36  19  20  1   
 37  19  41  1   
 38  19  42  1   
 39  20  22  1   
 40  20  43  1   
 41  21  23  1   
 42  21  44  1   
 43  21  45  1   
 44  22  24  1   
 45  22  25  1   
 46  22  46  1   
 47  23  24  1   
 48  24  47  1   
 49  24  48  1   
 50  25  26  1   
 51  25  49  1   
 52  25  50  1   
 53  26  27  1   
 54  26  51  1   
 55  26  52  1   
 56  27  53  1   
 57  27  54  1   
 58  27  55  1   
@<TRIPOS>SUBSTRUCTURE
  1 ****  14 GROUP 4 **** **** 0

# MOE 2024.06 (io_trps.svl 2023.06)
