@<TRIPOS>MOLECULE
NONAME
39 40 1 0 0 
SMALL
USER_CHARGES


@<TRIPOS>ATOM
  1 O        1.8360     0.1490     2.2520 O.2   1 <1>  -0.5700 
  2 C        1.3650    -0.5240     1.3680 C.2   1 <1>   0.5690 
  3 N        1.3150    -0.0960     0.0810 N.am  1 <1>  -0.7300 
  4 C        0.8180    -1.9190     1.6940 C.3   1 <1>   0.1710 
  5 C        1.7710     1.2280    -0.4220 C.3   1 <1>   0.1400 
  6 N       -0.1330    -2.4730     0.6800 N.3   1 <1>  -0.8100 
  7 C        3.2970     1.3770    -0.3440 C.3   1 <1>   0.2000 
  8 C       -0.3150    -3.9310     0.8860 C.3   1 <1>   0.2530 
  9 C       -1.4330    -1.7780     0.7600 C.3   1 <1>   0.0300 
 10 O        3.6790     2.5320    -1.0140 O.3   1 <1>  -0.5600 
 11 C        4.0920     0.2740    -1.0330 C.3   1 <1>  -0.1600 
 12 C       -1.0860    -4.6050    -0.2460 C.ar  1 <1>   0.1670 
 13 C        5.0330     2.4680    -1.3250 C.3   1 <1>   0.1200 
 14 C        5.3660     0.9840    -1.4670 C.3   1 <1>  -0.1600 
 15 N       -1.9710    -5.5310     0.0970 N.ar  1 <1>  -0.6200 
 16 C       -0.8310    -4.2390    -1.5660 C.ar  1 <1>   0.1600 
 17 C       -2.5760    -6.0530    -0.9570 C.ar  1 <1>   0.1600 
 18 N       -1.4350    -4.7620    -2.6220 N.ar  1 <1>  -0.6200 
 19 C       -2.3170    -5.6820    -2.2700 C.ar  1 <1>   0.1600 
 20 H        0.8540    -0.7230    -0.5860 H     1 <1>   0.3700 
 21 H        0.3450    -1.8830     2.6600 H     1 <1>   0.0800 
 22 H        1.6710    -2.5680     1.7720 H     1 <1>   0.0800 
 23 H        1.3160     2.0030     0.1710 H     1 <1>   0.0800 
 24 H        1.4550     1.3410    -1.4440 H     1 <1>   0.0800 
 25 H        3.6060     1.4810     0.6830 H     1 <1>   0.0800 
 26 H       -0.8300    -4.1030     1.8160 H     1 <1>   0.0800 
 27 H        0.6470    -4.4080     0.9510 H     1 <1>   0.0800 
 28 H       -1.3040    -0.7190     0.6160 H     1 <1>   0.0800 
 29 H       -1.8920    -1.9410     1.7210 H     1 <1>   0.0800 
 30 H       -2.1000    -2.1380    -0.0050 H     1 <1>   0.0800 
 31 H        3.5520    -0.0810    -1.8930 H     1 <1>   0.0800 
 32 H        4.2800    -0.5490    -0.3670 H     1 <1>   0.0800 
 33 H        5.5830     2.9160    -0.5150 H     1 <1>   0.0800 
 34 H        5.2030     3.0150    -2.2360 H     1 <1>   0.0800 
 35 H        5.6240     0.7420    -2.4830 H     1 <1>   0.0800 
 36 H        6.1910     0.7340    -0.8240 H     1 <1>   0.0800 
 37 H       -0.0940    -3.4780    -1.7520 H     1 <1>   0.1500 
 38 H       -3.3140    -6.8140    -0.7730 H     1 <1>   0.1500 
 39 H       -2.8620    -6.1670    -3.0610 H     1 <1>   0.1500 
@<TRIPOS>BOND
  1   1   2  2   
  2   2   3  am  
  3   2   4  1   
  4   3   5  1   
  5   3  20  1   
  6   4   6  1   
  7   4  21  1   
  8   4  22  1   
  9   5   7  1   
 10   5  23  1   
 11   5  24  1   
 12   6   8  1   
 13   6   9  1   
 14   7  10  1   
 15   7  11  1   
 16   7  25  1   
 17   8  12  1   
 18   8  26  1   
 19   8  27  1   
 20   9  28  1   
 21   9  29  1   
 22   9  30  1   
 23  10  13  1   
 24  11  14  1   
 25  11  31  1   
 26  11  32  1   
 27  12  15  ar  
 28  12  16  ar  
 29  13  14  1   
 30  13  33  1   
 31  13  34  1   
 32  14  35  1   
 33  14  36  1   
 34  15  17  ar  
 35  16  18  ar  
 36  16  37  1   
 37  17  19  ar  
 38  17  38  1   
 39  18  19  ar  
 40  19  39  1   
@<TRIPOS>SUBSTRUCTURE
  1 ****   6 GROUP 4 **** **** 0

# MOE 2024.06 (io_trps.svl 2023.06)
