@<TRIPOS>MOLECULE
NONAME
42 44 1 0 0 
SMALL
USER_CHARGES


@<TRIPOS>ATOM
  1 F       -0.2880    -0.4160     0.7360 F     1 <1>  -0.3400 
  2 C        0.5030    -1.3760     0.2800 C.3   1 <1>   0.7800 
  3 F        0.8580    -0.9680    -0.9300 F     1 <1>  -0.3400 
  4 C       -0.2930    -2.6540     0.1540 C.2   1 <1>  -0.3320 
  5 N       -1.4010    -2.7200    -0.5990 N.pl3 1 <1>   0.3000 
  6 C       -0.1180    -3.8790     0.6900 C.2   1 <1>  -0.1500 
  7 N       -1.9510    -3.9430    -0.5720 N.2   1 <1>  -0.7070 
  8 C       -1.1750    -4.6720     0.2180 C.2   1 <1>   0.2030 
  9 C       -1.3220    -6.0820     0.5860 C.2   1 <1>   0.7160 
 10 O       -0.4330    -6.6300     1.2210 O.2   1 <1>  -0.5700 
 11 N       -2.4200    -6.8520     0.2520 N.am  1 <1>  -0.6600 
 12 C       -3.6320    -6.3830    -0.4630 C.3   1 <1>   0.1400 
 13 C       -2.5710    -8.2730     0.6280 C.3   1 <1>   0.1400 
 14 C       -4.6130    -7.5640    -0.4380 C.3   1 <1>   0.2000 
 15 C       -3.7080    -8.7870    -0.2580 C.3   1 <1>  -0.0800 
 16 O       -5.4590    -7.4640     0.6740 O.3   1 <1>  -0.5600 
 17 C       -4.4150   -10.0310     0.3110 C.3   1 <1>   0.0200 
 18 C       -6.5710    -6.6430     0.5050 C.3   1 <1>   0.0400 
 19 C       -3.5360   -11.2700     0.3120 C.2   1 <1>  -0.0400 
 20 O       -3.9960   -12.3650     0.8560 O.3   1 <1>  -0.0190 
 21 C       -2.3040   -11.5340    -0.1530 C.2   1 <1>  -0.1500 
 22 N       -3.1410   -13.3440     0.7840 N.2   1 <1>  -0.4100 
 23 C       -2.1100   -12.8720     0.1810 C.2   1 <1>   0.1080 
 24 C       -0.8610   -13.6690    -0.1190 C.3   1 <1>  -0.0590 
 25 H        1.3790    -1.4350     0.9020 H     1 <1>   0.0800 
 26 H       -1.7970    -1.9400    -1.1410 H     1 <1>   0.2700 
 27 H        0.6570    -4.2330     1.3490 H     1 <1>   0.1500 
 28 H       -4.0430    -5.5100     0.0110 H     1 <1>   0.0800 
 29 H       -3.3640    -6.1490    -1.4780 H     1 <1>   0.0800 
 30 H       -1.6540    -8.8130     0.4680 H     1 <1>   0.0800 
 31 H       -2.8450    -8.3280     1.6680 H     1 <1>   0.0800 
 32 H       -5.2090    -7.6290    -1.3320 H     1 <1>   0.0800 
 33 H       -3.2940    -9.0320    -1.2200 H     1 <1>   0.0800 
 34 H       -5.2930   -10.2390    -0.2730 H     1 <1>   0.0800 
 35 H       -4.7350    -9.8380     1.3210 H     1 <1>   0.0800 
 36 H       -7.1330    -6.6510     1.4220 H     1 <1>   0.0800 
 37 H       -7.1800    -7.0290    -0.2950 H     1 <1>   0.0800 
 38 H       -6.2520    -5.6390     0.2880 H     1 <1>   0.0800 
 39 H       -1.6010   -10.9040    -0.6640 H     1 <1>   0.1500 
 40 H       -0.6790   -13.6770    -1.1780 H     1 <1>   0.0800 
 41 H       -0.9820   -14.6810     0.2210 H     1 <1>   0.0800 
 42 H       -0.0190   -13.2310     0.3840 H     1 <1>   0.0800 
@<TRIPOS>BOND
  1   1   2  1   
  2   2   3  1   
  3   2   4  1   
  4   2  25  1   
  5   4   5  1   
  6   4   6  2   
  7   5   7  1   
  8   5  26  1   
  9   6   8  1   
 10   6  27  1   
 11   7   8  2   
 12   8   9  1   
 13   9  10  2   
 14   9  11  am  
 15  11  12  1   
 16  11  13  1   
 17  12  14  1   
 18  12  28  1   
 19  12  29  1   
 20  13  15  1   
 21  13  30  1   
 22  13  31  1   
 23  14  15  1   
 24  14  16  1   
 25  14  32  1   
 26  15  17  1   
 27  15  33  1   
 28  16  18  1   
 29  17  19  1   
 30  17  34  1   
 31  17  35  1   
 32  18  36  1   
 33  18  37  1   
 34  18  38  1   
 35  19  20  1   
 36  19  21  2   
 37  20  22  1   
 38  21  23  1   
 39  21  39  1   
 40  22  23  2   
 41  23  24  1   
 42  24  40  1   
 43  24  41  1   
 44  24  42  1   
@<TRIPOS>SUBSTRUCTURE
  1 ****  11 GROUP 4 **** **** 0

# MOE 2024.06 (io_trps.svl 2023.06)
