@<TRIPOS>MOLECULE
NONAME
65 68 1 0 0 
SMALL
USER_CHARGES


@<TRIPOS>ATOM
  1 CL      -0.2810     1.1040     1.2180 Cl    1 <1>  -0.1770 
  2 C        1.0560     0.0870     0.7480 C.ar  1 <1>   0.1770 
  3 C        0.8130    -1.0180    -0.0450 C.ar  1 <1>  -0.1500 
  4 C        2.3310     0.3970     1.1800 C.ar  1 <1>  -0.1500 
  5 C        1.8700    -1.8380    -0.4140 C.ar  1 <1>  -0.1440 
  6 C        3.3880    -0.4130     0.8040 C.ar  1 <1>  -0.1500 
  7 C        3.1630    -1.5270    -0.0030 C.ar  1 <1>   0.0830 
  8 C        1.6420    -3.0730    -1.2540 C.3   1 <1>   0.4870 
  9 O        4.1740    -2.3360    -0.4160 O.3   1 <1>  -0.3630 
 10 N        1.5130    -4.2100    -0.3090 N.4   1 <1>  -0.9590 
 11 C        5.4210    -1.7600    -0.7710 C.3   1 <1>   0.1200 
 12 C        2.0520    -5.4770    -0.9050 C.3   1 <1>   0.3430 
 13 C        0.1060    -4.3570     0.1670 C.3   1 <1>   0.3430 
 14 C        6.4730    -2.0360     0.3120 C.3   1 <1>  -0.1600 
 15 C        1.9280    -6.6940     0.0580 C.3   1 <1>   0.4230 
 16 C        0.0010    -5.5140     1.1680 C.3   1 <1>  -0.1600 
 17 C        7.1110    -3.4320     0.2300 C.3   1 <1>   0.0960 
 18 N        2.5770    -7.9750    -0.4340 N.4   1 <1>  -0.9590 
 19 C        0.4970    -6.8840     0.6260 C.3   1 <1>   0.0000 
 20 N        6.1570    -4.5190     0.5350 N.pl3 1 <1>   0.0480 
 21 C        2.2200    -9.1920     0.3630 C.3   1 <1>   0.3430 
 22 C        2.4250    -8.2560    -1.8970 C.3   1 <1>   0.2630 
 23 C        0.5630    -7.8870     1.8160 C.3   1 <1>  -0.1600 
 24 C       -0.5100    -7.4410    -0.4210 C.3   1 <1>   0.1200 
 25 C        5.6260    -5.4280    -0.3140 C.2   1 <1>   0.0360 
 26 C        5.7210    -4.8940     1.7490 C.2   1 <1>  -0.3020 
 27 C        1.7940    -8.8180     1.7840 C.3   1 <1>  -0.1600 
 28 O       -0.4840    -6.7120    -1.6010 O.3   1 <1>  -0.6800 
 29 N        4.8830    -6.3230     0.2620 N.2   1 <1>  -0.5650 
 30 C        4.9620    -5.9940     1.5700 C.2   1 <1>   0.0770 
 31 H       -0.1980    -1.2120    -0.3580 H     1 <1>   0.1500 
 32 H        2.4890     1.2620     1.8010 H     1 <1>   0.1500 
 33 H        4.3760    -0.1690     1.1480 H     1 <1>   0.1500 
 34 H        2.4930    -3.2150    -1.9000 H     1 <1>   0.0800 
 35 H        0.7570    -2.9710    -1.8610 H     1 <1>   0.0800 
 36 H        2.1130    -3.9360     0.4860 H     1 <1>   0.4500 
 37 H        5.7260    -2.1890    -1.7100 H     1 <1>   0.0800 
 38 H        5.2910    -0.7010    -0.9210 H     1 <1>   0.0800 
 39 H        1.5210    -5.6910    -1.8150 H     1 <1>   0.0800 
 40 H        3.0920    -5.3340    -1.1460 H     1 <1>   0.0800 
 41 H       -0.2180    -3.4440     0.6420 H     1 <1>   0.0800 
 42 H       -0.5460    -4.5460    -0.6720 H     1 <1>   0.0800 
 43 H        7.2660    -1.3210     0.1760 H     1 <1>   0.0800 
 44 H        6.0640    -1.8670     1.2920 H     1 <1>   0.0800 
 45 H        2.5080    -6.4010     0.9160 H     1 <1>   0.0800 
 46 H        0.5640    -5.2330     2.0420 H     1 <1>   0.0800 
 47 H       -1.0260    -5.6010     1.4790 H     1 <1>   0.0800 
 48 H        7.9200    -3.4950     0.9370 H     1 <1>   0.0800 
 49 H        7.5210    -3.5930    -0.7510 H     1 <1>   0.0800 
 50 H        3.5930    -7.8040    -0.2620 H     1 <1>   0.4500 
 51 H        1.4040    -9.7110    -0.1120 H     1 <1>   0.0800 
 52 H        3.0630    -9.8650     0.3990 H     1 <1>   0.0800 
 53 H        1.3840    -8.3660    -2.1540 H     1 <1>   0.0800 
 54 H        2.9410    -9.1670    -2.1560 H     1 <1>   0.0800 
 55 H        2.8440    -7.4560    -2.4830 H     1 <1>   0.0800 
 56 H        0.5850    -7.3680     2.7600 H     1 <1>   0.0800 
 57 H       -0.3310    -8.4900     1.8360 H     1 <1>   0.0800 
 58 H       -1.5140    -7.4020    -0.0290 H     1 <1>   0.0800 
 59 H       -0.2890    -8.4650    -0.6660 H     1 <1>   0.0800 
 60 H        5.8340    -5.3900    -1.3700 H     1 <1>   0.1500 
 61 H        5.9840    -4.3790     2.6560 H     1 <1>   0.1500 
 62 H        1.5690    -9.7170     2.3320 H     1 <1>   0.0800 
 63 H        2.6260    -8.3520     2.2830 H     1 <1>   0.0800 
 64 H       -1.2290    -6.9840    -2.1850 H     1 <1>   0.4000 
 65 H        4.4770    -6.5710     2.3420 H     1 <1>   0.1500 
@<TRIPOS>BOND
  1   1   2  1   
  2   2   3  ar  
  3   2   4  ar  
  4   3   5  ar  
  5   3  31  1   
  6   4   6  ar  
  7   4  32  1   
  8   5   7  ar  
  9   5   8  1   
 10   6   7  ar  
 11   6  33  1   
 12   7   9  1   
 13   8  10  1   
 14   8  34  1   
 15   8  35  1   
 16   9  11  1   
 17  10  12  1   
 18  10  13  1   
 19  10  36  1   
 20  11  14  1   
 21  11  37  1   
 22  11  38  1   
 23  12  15  1   
 24  12  39  1   
 25  12  40  1   
 26  13  16  1   
 27  13  41  1   
 28  13  42  1   
 29  14  17  1   
 30  14  43  1   
 31  14  44  1   
 32  15  18  1   
 33  15  19  1   
 34  15  45  1   
 35  16  19  1   
 36  16  46  1   
 37  16  47  1   
 38  17  20  1   
 39  17  48  1   
 40  17  49  1   
 41  18  21  1   
 42  18  22  1   
 43  18  50  1   
 44  19  23  1   
 45  19  24  1   
 46  20  25  1   
 47  20  26  1   
 48  21  27  1   
 49  21  51  1   
 50  21  52  1   
 51  22  53  1   
 52  22  54  1   
 53  22  55  1   
 54  23  27  1   
 55  23  56  1   
 56  23  57  1   
 57  24  28  1   
 58  24  58  1   
 59  24  59  1   
 60  25  29  2   
 61  25  60  1   
 62  26  30  2   
 63  26  61  1   
 64  27  62  1   
 65  27  63  1   
 66  28  64  1   
 67  29  30  1   
 68  30  65  1   
@<TRIPOS>SUBSTRUCTURE
  1 ****  10 GROUP 4 **** **** 0

# MOE 2024.06 (io_trps.svl 2023.06)
