@<TRIPOS>MOLECULE
NONAME
51 53 1 0 0 
SMALL
USER_CHARGES


@<TRIPOS>ATOM
  1 O       -2.6430     0.0460     1.9500 O.2   1 <1>  -0.5700 
  2 C       -2.3140     0.5250     0.8920 C.2   1 <1>   0.5690 
  3 N       -2.0970    -0.2420    -0.2210 N.am  1 <1>  -0.6600 
  4 C       -2.1290     2.0300     0.8440 C.3   1 <1>  -0.0990 
  5 C       -2.1910    -1.7410    -0.1310 C.3   1 <1>   0.3640 
  6 C       -1.7950     0.3270    -1.5740 C.3   1 <1>   0.1400 
  7 C       -0.6570     2.4080     1.0440 C.3   1 <1>  -0.0170 
  8 C       -0.8240    -2.3890     0.1460 C.ar  1 <1>  -0.1440 
  9 C       -2.8550    -2.3780    -1.3940 C.3   1 <1>   0.2000 
 10 C       -1.6720    -0.7560    -2.6540 C.3   1 <1>   0.1200 
 11 C       -0.4470     3.8910     0.7720 C.ar  1 <1>  -0.1440 
 12 C       -0.8110    -3.7020     0.5990 C.ar  1 <1>  -0.1500 
 13 C        0.3950    -1.7380    -0.0230 C.ar  1 <1>  -0.1500 
 14 O       -2.7710    -1.6050    -2.5730 O.3   1 <1>  -0.5600 
 15 C       -4.3440    -2.6580    -1.1590 C.3   1 <1>   0.1200 
 16 C       -0.3010     4.3750    -0.5270 C.ar  1 <1>   0.0820 
 17 C       -0.4050     4.7730     1.8410 C.ar  1 <1>  -0.1500 
 18 C        0.3810    -4.3560     0.8590 C.ar  1 <1>  -0.1500 
 19 C        1.5890    -2.3880     0.2360 C.ar  1 <1>  -0.1500 
 20 O       -4.4990    -3.7340    -0.2880 O.3   1 <1>  -0.6800 
 21 O       -0.3560     3.4800    -1.5530 O.3   1 <1>  -0.3630 
 22 C       -0.1110     5.7410    -0.7320 C.ar  1 <1>  -0.1500 
 23 C       -0.2160     6.1260     1.6300 C.ar  1 <1>  -0.1500 
 24 C        1.5840    -3.6990     0.6740 C.ar  1 <1>  -0.1500 
 25 C       -0.1630     3.8800    -2.8910 C.3   1 <1>   0.0400 
 26 C       -0.0690     6.6100     0.3430 C.ar  1 <1>  -0.1500 
 27 H       -2.4940     2.4210    -0.0850 H     1 <1>   0.0800 
 28 H       -2.7150     2.4760     1.6270 H     1 <1>   0.0800 
 29 H       -2.8080    -1.9930     0.7140 H     1 <1>   0.0800 
 30 H       -2.5860     0.9980    -1.8580 H     1 <1>   0.0800 
 31 H       -0.8800     0.8890    -1.5370 H     1 <1>   0.0800 
 32 H       -0.0300     1.8330     0.3860 H     1 <1>   0.0800 
 33 H       -0.3630     2.1650     2.0500 H     1 <1>   0.0800 
 34 H       -2.3710    -3.3120    -1.6160 H     1 <1>   0.0800 
 35 H       -0.7710    -1.3340    -2.5370 H     1 <1>   0.0800 
 36 H       -1.6710    -0.3080    -3.6310 H     1 <1>   0.0800 
 37 H       -1.7380    -4.2260     0.7590 H     1 <1>   0.1500 
 38 H        0.4340    -0.7160    -0.3490 H     1 <1>   0.1500 
 39 H       -4.8360    -2.9050    -2.0840 H     1 <1>   0.0800 
 40 H       -4.8180    -1.7990    -0.7160 H     1 <1>   0.0800 
 41 H       -0.5200     4.4080     2.8470 H     1 <1>   0.1500 
 42 H        0.3720    -5.3730     1.2080 H     1 <1>   0.1500 
 43 H        2.5220    -1.8710     0.1000 H     1 <1>   0.1500 
 44 H       -4.3680    -4.5810    -0.7590 H     1 <1>   0.4000 
 45 H        0.0040     6.1490    -1.7180 H     1 <1>   0.1500 
 46 H       -0.1840     6.8020     2.4660 H     1 <1>   0.1500 
 47 H        2.5120    -4.2050     0.8760 H     1 <1>   0.1500 
 48 H       -0.2260     3.0080    -3.5150 H     1 <1>   0.0800 
 49 H        0.8120     4.3260    -2.9850 H     1 <1>   0.0800 
 50 H       -0.9340     4.5800    -3.1620 H     1 <1>   0.0800 
 51 H        0.0780     7.6630     0.1790 H     1 <1>   0.1500 
@<TRIPOS>BOND
  1   1   2  2   
  2   2   3  am  
  3   2   4  1   
  4   3   5  1   
  5   3   6  1   
  6   4   7  1   
  7   4  27  1   
  8   4  28  1   
  9   5   8  1   
 10   5   9  1   
 11   5  29  1   
 12   6  10  1   
 13   6  30  1   
 14   6  31  1   
 15   7  11  1   
 16   7  32  1   
 17   7  33  1   
 18   8  12  ar  
 19   8  13  ar  
 20   9  14  1   
 21   9  15  1   
 22   9  34  1   
 23  10  14  1   
 24  10  35  1   
 25  10  36  1   
 26  11  16  ar  
 27  11  17  ar  
 28  12  18  ar  
 29  12  37  1   
 30  13  19  ar  
 31  13  38  1   
 32  15  20  1   
 33  15  39  1   
 34  15  40  1   
 35  16  21  1   
 36  16  22  ar  
 37  17  23  ar  
 38  17  41  1   
 39  18  24  ar  
 40  18  42  1   
 41  19  24  ar  
 42  19  43  1   
 43  20  44  1   
 44  21  25  1   
 45  22  26  ar  
 46  22  45  1   
 47  23  26  ar  
 48  23  46  1   
 49  24  47  1   
 50  25  48  1   
 51  25  49  1   
 52  25  50  1   
 53  26  51  1   
@<TRIPOS>SUBSTRUCTURE
  1 ****   3 GROUP 4 **** **** 0

# MOE 2024.06 (io_trps.svl 2023.06)
