@<TRIPOS>MOLECULE
NONAME
40 42 1 0 0 
SMALL
USER_CHARGES


@<TRIPOS>ATOM
  1 N       -0.4650    -0.1050     0.4680 N.ar  1 <1>  -0.6200 
  2 C       -1.6370     0.3940     0.1160 C.ar  1 <1>   0.4100 
  3 C       -0.3780    -1.4190     0.4320 C.ar  1 <1>   0.4700 
  4 N       -1.8000     1.7670     0.1530 N.pl3 1 <1>  -0.8380 
  5 C       -2.6700    -0.4290    -0.2620 C.ar  1 <1>  -0.1500 
  6 N       -1.3000    -2.3010     0.0990 N.ar  1 <1>  -0.6200 
  7 C       -0.6430     2.6580    -0.1200 C.3   1 <1>   0.2090 
  8 C       -2.8670     2.3330     1.0230 C.3   1 <1>   0.1290 
  9 C       -2.4620    -1.7850    -0.2540 C.ar  1 <1>   0.4100 
 10 C       -1.0780     3.7860    -1.0510 C.3   1 <1>  -0.2400 
 11 N       -3.4590    -2.6480    -0.6180 N.pl3 1 <1>  -0.8690 
 12 C       -3.5290    -4.0180    -0.0710 C.3   1 <1>   0.3900 
 13 C       -4.9970    -4.4260     0.0620 C.2   1 <1>   0.1080 
 14 N       -5.9840    -3.5810     0.1920 N.2   1 <1>  -0.7070 
 15 C       -5.4420    -5.7450     0.0550 C.2   1 <1>  -0.1500 
 16 N       -7.0840    -4.3550     0.2720 N.pl3 1 <1>   0.3000 
 17 C       -6.7830    -5.6660     0.1920 C.2   1 <1>  -0.2370 
 18 C       -7.8230    -6.7640     0.2550 C.3   1 <1>  -0.0150 
 19 C       -7.6260    -8.0330    -0.5100 C.3   1 <1>  -0.2000 
 20 C       -8.6670    -7.0440    -0.9460 C.3   1 <1>  -0.2000 
 21 H        0.5770    -1.8280     0.7160 H     1 <1>   0.1500 
 22 H       -3.6100    -0.0190    -0.5610 H     1 <1>   0.1500 
 23 H        0.1450     2.1000    -0.5980 H     1 <1>   0.0800 
 24 H       -0.2610     3.0540     0.8050 H     1 <1>   0.0800 
 25 H       -3.4370     1.5440     1.4820 H     1 <1>   0.0800 
 26 H       -3.5280     2.9430     0.4330 H     1 <1>   0.0800 
 27 H       -2.4280     2.9330     1.8010 H     1 <1>   0.0800 
 28 H       -1.4910     3.3740    -1.9540 H     1 <1>   0.0800 
 29 H       -0.2260     4.3890    -1.3070 H     1 <1>   0.0800 
 30 H       -1.8080     4.4130    -0.5740 H     1 <1>   0.0800 
 31 H       -4.4160    -2.2740    -0.6060 H     1 <1>   0.4000 
 32 H       -3.0650    -4.0530     0.8990 H     1 <1>   0.0800 
 33 H       -3.0140    -4.6920    -0.7320 H     1 <1>   0.0800 
 34 H       -4.8310    -6.6240    -0.0400 H     1 <1>   0.1500 
 35 H       -8.0280    -3.9640     0.3770 H     1 <1>   0.2700 
 36 H       -8.2870    -6.8450     1.2240 H     1 <1>   0.1000 
 37 H       -7.9430    -8.9590    -0.0630 H     1 <1>   0.1000 
 38 H       -6.7430    -8.1460    -1.1140 H     1 <1>   0.1000 
 39 H       -8.4910    -6.4820    -1.8470 H     1 <1>   0.1000 
 40 H       -9.7050    -7.2900    -0.8060 H     1 <1>   0.1000 
@<TRIPOS>BOND
  1   1   2  ar  
  2   1   3  ar  
  3   2   4  1   
  4   2   5  ar  
  5   3   6  ar  
  6   3  21  1   
  7   4   7  1   
  8   4   8  1   
  9   5   9  ar  
 10   5  22  1   
 11   6   9  ar  
 12   7  10  1   
 13   7  23  1   
 14   7  24  1   
 15   8  25  1   
 16   8  26  1   
 17   8  27  1   
 18   9  11  1   
 19  10  28  1   
 20  10  29  1   
 21  10  30  1   
 22  11  12  1   
 23  11  31  1   
 24  12  13  1   
 25  12  32  1   
 26  12  33  1   
 27  13  14  2   
 28  13  15  1   
 29  14  16  1   
 30  15  17  2   
 31  15  34  1   
 32  16  17  1   
 33  16  35  1   
 34  17  18  1   
 35  18  19  1   
 36  18  20  1   
 37  18  36  1   
 38  19  20  1   
 39  19  37  1   
 40  19  38  1   
 41  20  39  1   
 42  20  40  1   
@<TRIPOS>SUBSTRUCTURE
  1 ****  11 GROUP 4 **** **** 0

# MOE 2024.06 (io_trps.svl 2023.06)
