@<TRIPOS>MOLECULE
NONAME
53 55 1 0 0 
SMALL
USER_CHARGES


@<TRIPOS>ATOM
  1 O        1.7140    -1.0690     1.0160 O.co2 1 <1>  -0.9000 
  2 C        1.8250     0.1400     1.2790 C.2   1 <1>   0.9060 
  3 O        1.6220     0.5640     2.4230 O.co2 1 <1>  -0.9000 
  4 C        2.2500     1.1150     0.1560 C.3   1 <1>  -0.1060 
  5 C        3.3630     0.4560    -0.7010 C.3   1 <1>   0.2000 
  6 C        2.8660     2.4190     0.7460 C.3   1 <1>  -0.1600 
  7 C        1.0380     1.4640    -0.7560 C.3   1 <1>  -0.1600 
  8 O        2.9260    -0.7470    -1.2330 O.3   1 <1>  -0.6800 
  9 C        4.6450     0.1970     0.1080 C.3   1 <1>   0.2090 
 10 C        4.1530     2.1580     1.5420 C.3   1 <1>   0.2090 
 11 C       -0.1300     2.1660    -0.0420 C.3   1 <1>  -0.1600 
 12 N        5.1680     1.4880     0.6680 N.pl3 1 <1>  -0.8380 
 13 C       -1.3060     2.3830    -0.9980 C.3   1 <1>  -0.2400 
 14 C        6.3540     2.0570     0.3340 C.ar  1 <1>   0.4100 
 15 N        6.4400     3.3740     0.3640 N.ar  1 <1>  -0.6200 
 16 C        7.4600     1.2660    -0.0320 C.ar  1 <1>  -0.1500 
 17 C        7.5800     3.9410     0.0070 C.ar  1 <1>   0.7710 
 18 C        8.6210     1.8660    -0.3900 C.ar  1 <1>   0.2180 
 19 N        8.6500     3.2180    -0.3650 N.ar  1 <1>  -0.1790 
 20 N        7.6760     5.2940     0.0170 N.pl3 1 <1>  -0.8380 
 21 C        9.8710     1.1070    -0.8010 C.3   1 <1>  -0.0970 
 22 C        8.8170     6.1540    -0.3990 C.3   1 <1>   0.2090 
 23 C        6.5280     6.1430     0.4450 C.3   1 <1>   0.2090 
 24 C        8.2360     7.5590    -0.4940 C.3   1 <1>  -0.1600 
 25 C        7.0760     7.5620     0.4930 C.3   1 <1>  -0.1600 
 26 H        3.6100     1.0910    -1.5330 H     1 <1>   0.0800 
 27 H        2.1630     2.8820     1.4150 H     1 <1>   0.0800 
 28 H        3.0840     3.1190    -0.0400 H     1 <1>   0.0800 
 29 H        1.3730     2.0810    -1.5710 H     1 <1>   0.0800 
 30 H        0.6630     0.5480    -1.1810 H     1 <1>   0.0800 
 31 H        2.3870    -1.1740    -0.4960 H     1 <1>   0.4000 
 32 H        5.3610    -0.2590    -0.5480 H     1 <1>   0.0800 
 33 H        4.4330    -0.4820     0.9180 H     1 <1>   0.0800 
 34 H        3.9390     1.5220     2.3850 H     1 <1>   0.0800 
 35 H        4.5300     3.0870     1.9300 H     1 <1>   0.0800 
 36 H       -0.4580     1.5660     0.7910 H     1 <1>   0.0800 
 37 H        0.1860     3.1200     0.3410 H     1 <1>   0.0800 
 38 H       -1.6610     1.4370    -1.3690 H     1 <1>   0.0800 
 39 H       -1.0060     2.9940    -1.8310 H     1 <1>   0.0800 
 40 H       -2.1120     2.8720    -0.4810 H     1 <1>   0.0800 
 41 H        7.3630     0.1980    -0.0060 H     1 <1>   0.1500 
 42 H        9.4720     3.7530    -0.6080 H     1 <1>   0.4570 
 43 H        9.6910     0.0460    -0.7700 H     1 <1>   0.0800 
 44 H       10.6840     1.3290    -0.1330 H     1 <1>   0.0800 
 45 H       10.1570     1.3690    -1.8050 H     1 <1>   0.0800 
 46 H        9.5810     6.1320     0.3620 H     1 <1>   0.0800 
 47 H        9.2250     5.8510    -1.3480 H     1 <1>   0.0800 
 48 H        5.7390     6.0700    -0.2870 H     1 <1>   0.0800 
 49 H        6.1490     5.8360     1.4070 H     1 <1>   0.0800 
 50 H        8.9680     8.3140    -0.2670 H     1 <1>   0.0800 
 51 H        7.8670     7.7210    -1.4920 H     1 <1>   0.0800 
 52 H        6.3230     8.2890     0.2410 H     1 <1>   0.0800 
 53 H        7.4360     7.7650     1.4860 H     1 <1>   0.0800 
@<TRIPOS>BOND
  1   1   2  ar  
  2   2   3  ar  
  3   2   4  1   
  4   4   5  1   
  5   4   6  1   
  6   4   7  1   
  7   5   8  1   
  8   5   9  1   
  9   5  26  1   
 10   6  10  1   
 11   6  27  1   
 12   6  28  1   
 13   7  11  1   
 14   7  29  1   
 15   7  30  1   
 16   8  31  1   
 17   9  12  1   
 18   9  32  1   
 19   9  33  1   
 20  10  12  1   
 21  10  34  1   
 22  10  35  1   
 23  11  13  1   
 24  11  36  1   
 25  11  37  1   
 26  12  14  1   
 27  13  38  1   
 28  13  39  1   
 29  13  40  1   
 30  14  15  ar  
 31  14  16  ar  
 32  15  17  ar  
 33  16  18  ar  
 34  16  41  1   
 35  17  19  ar  
 36  17  20  1   
 37  18  19  ar  
 38  18  21  1   
 39  19  42  1   
 40  20  22  1   
 41  20  23  1   
 42  21  43  1   
 43  21  44  1   
 44  21  45  1   
 45  22  24  1   
 46  22  46  1   
 47  22  47  1   
 48  23  25  1   
 49  23  48  1   
 50  23  49  1   
 51  24  25  1   
 52  24  50  1   
 53  24  51  1   
 54  25  52  1   
 55  25  53  1   
@<TRIPOS>SUBSTRUCTURE
  1 ****  12 GROUP 4 **** **** 0

# MOE 2024.06 (io_trps.svl 2023.06)
