@<TRIPOS>MOLECULE
NONAME
43 45 1 0 0 
SMALL
USER_CHARGES


@<TRIPOS>ATOM
  1 S       -1.3220     1.5130     2.4880 S.3   1 <1>  -0.0800 
  2 C       -1.5940     1.7400     0.7670 C.2   1 <1>  -0.1400 
  3 C       -1.6620    -0.2010     2.3580 C.2   1 <1>  -0.1100 
  4 C       -1.9310     0.5700     0.1910 C.2   1 <1>  -0.1500 
  5 C       -1.4410     3.1420     0.2050 C.3   1 <1>   0.5230 
  6 C       -1.9630    -0.5460     1.0900 C.2   1 <1>   0.0190 
  7 N       -0.0110     3.4390    -0.1100 N.4   1 <1>  -0.9590 
  8 C       -2.2850    -1.8610     0.6270 C.1   1 <1>  -0.0190 
  9 C        0.8300     3.5590     1.1380 C.3   1 <1>   0.3430 
 10 C        0.5490     2.4490    -1.0980 C.3   1 <1>   0.3430 
 11 C       -2.5470    -2.9570     0.2430 C.1   1 <1>  -0.2000 
 12 C        2.2300     4.1900     0.9090 C.3   1 <1>   0.2200 
 13 C        1.9090     2.8420    -1.6940 C.3   1 <1>  -0.0190 
 14 C       -2.8750    -4.3290    -0.2250 C.3   1 <1>   0.3200 
 15 N        2.3040     4.9440    -0.3890 N.am  1 <1>  -0.6600 
 16 C        3.3250     3.1140     0.9950 C.3   1 <1>   0.1200 
 17 C        2.1370     4.3360    -1.6070 C.2   1 <1>   0.5690 
 18 C        3.0730     2.0460    -1.0950 C.3   1 <1>   0.1200 
 19 O       -2.1900    -5.2130     0.5800 O.3   1 <1>  -0.6800 
 20 C        2.6610     6.3920    -0.2820 C.3   1 <1>   0.0600 
 21 O        2.9560     1.9670     0.2890 O.3   1 <1>  -0.5600 
 22 O        2.0860     4.9620    -2.6340 O.2   1 <1>  -0.5700 
 23 H       -1.6040    -0.7930     3.2550 H     1 <1>   0.1500 
 24 H       -2.1690     0.4160    -0.8480 H     1 <1>   0.1500 
 25 H       -1.8280     3.8580     0.9120 H     1 <1>   0.0800 
 26 H       -2.0260     3.2160    -0.6970 H     1 <1>   0.0800 
 27 H        0.0320     4.3670    -0.5610 H     1 <1>   0.4500 
 28 H        0.3090     4.1700     1.8560 H     1 <1>   0.0800 
 29 H        0.9600     2.5870     1.5850 H     1 <1>   0.0800 
 30 H        0.6380     1.4800    -0.6310 H     1 <1>   0.0800 
 31 H       -0.1480     2.3520    -1.9150 H     1 <1>   0.0800 
 32 H        2.4160     4.8800     1.7140 H     1 <1>   0.0800 
 33 H        1.8860     2.5870    -2.7380 H     1 <1>   0.0800 
 34 H       -2.5550    -4.4750    -1.2420 H     1 <1>   0.0800 
 35 H       -3.9280    -4.5350    -0.1370 H     1 <1>   0.0800 
 36 H        3.4510     2.8150     2.0210 H     1 <1>   0.0800 
 37 H        4.2720     3.4800     0.6340 H     1 <1>   0.0800 
 38 H        4.0280     2.4750    -1.3560 H     1 <1>   0.0800 
 39 H        3.0490     1.0340    -1.4650 H     1 <1>   0.0800 
 40 H       -1.3020    -4.8500     0.7620 H     1 <1>   0.4000 
 41 H        1.9100     6.9190     0.2810 H     1 <1>   0.0800 
 42 H        2.7330     6.8450    -1.2580 H     1 <1>   0.0800 
 43 H        3.6130     6.5000     0.2080 H     1 <1>   0.0800 
@<TRIPOS>BOND
  1   1   2  1   
  2   1   3  1   
  3   2   4  2   
  4   2   5  1   
  5   3   6  2   
  6   3  23  1   
  7   4   6  1   
  8   4  24  1   
  9   5   7  1   
 10   5  25  1   
 11   5  26  1   
 12   6   8  1   
 13   7   9  1   
 14   7  10  1   
 15   7  27  1   
 16   8  11  3   
 17   9  12  1   
 18   9  28  1   
 19   9  29  1   
 20  10  13  1   
 21  10  30  1   
 22  10  31  1   
 23  11  14  1   
 24  12  15  1   
 25  12  16  1   
 26  12  32  1   
 27  13  17  1   
 28  13  18  1   
 29  13  33  1   
 30  14  19  1   
 31  14  34  1   
 32  14  35  1   
 33  15  17  am  
 34  15  20  1   
 35  16  21  1   
 36  16  36  1   
 37  16  37  1   
 38  17  22  2   
 39  18  21  1   
 40  18  38  1   
 41  18  39  1   
 42  19  40  1   
 43  20  41  1   
 44  20  42  1   
 45  20  43  1   
@<TRIPOS>SUBSTRUCTURE
  1 ****  10 GROUP 4 **** **** 0

# MOE 2024.06 (io_trps.svl 2023.06)
