@<TRIPOS>MOLECULE
NONAME
39 41 1 0 0 
SMALL
USER_CHARGES


@<TRIPOS>ATOM
  1 CL      -1.3370     0.1780    -1.9060 Cl    1 <1>  -0.1770 
  2 C       -2.1630    -0.7630    -0.6920 C.ar  1 <1>   0.1770 
  3 C       -2.7940    -0.1120     0.3490 C.ar  1 <1>  -0.1500 
  4 C       -2.1710    -2.1420    -0.7940 C.ar  1 <1>  -0.1500 
  5 C       -3.4310    -0.8950     1.2890 C.ar  1 <1>   0.1900 
  6 C       -2.8280    -2.9300     0.1550 C.ar  1 <1>   0.0860 
  7 F       -4.0350    -0.3100     2.2870 F     1 <1>  -0.1900 
  8 C       -3.4560    -2.2740     1.2160 C.ar  1 <1>  -0.1500 
  9 C       -2.8370    -4.3760     0.0370 C.2   1 <1>   0.5440 
 10 O       -1.8080    -4.9600    -0.2370 O.2   1 <1>  -0.5700 
 11 N       -3.9860    -5.1130     0.2120 N.am  1 <1>  -0.6600 
 12 C       -5.3660    -4.5860     0.0490 C.3   1 <1>   0.1400 
 13 C       -3.9840    -6.5950     0.1290 C.3   1 <1>   0.1400 
 14 C       -6.1850    -5.7860    -0.4210 C.3   1 <1>   0.2000 
 15 C       -5.4570    -7.0090     0.1280 C.3   1 <1>  -0.0800 
 16 O       -7.4830    -5.7410     0.0610 O.3   1 <1>  -0.6800 
 17 C       -5.7350    -8.2870    -0.6760 C.3   1 <1>   0.0200 
 18 C       -4.9340    -9.4540    -0.1330 C.2   1 <1>  -0.0400 
 19 O       -5.1470    -9.8820     1.0830 O.3   1 <1>  -0.0190 
 20 C       -3.9630   -10.2060    -0.6710 C.2   1 <1>  -0.1500 
 21 N       -4.3670   -10.8790     1.3890 N.2   1 <1>  -0.4100 
 22 C       -3.6430   -11.0960     0.3500 C.2   1 <1>   0.1080 
 23 C       -2.5870   -12.1750     0.2600 C.3   1 <1>  -0.0590 
 24 H       -2.7870     0.9600     0.4250 H     1 <1>   0.1500 
 25 H       -1.6620    -2.6170    -1.6140 H     1 <1>   0.1500 
 26 H       -3.9540    -2.8390     1.9830 H     1 <1>   0.1500 
 27 H       -5.7240    -4.2330     1.0000 H     1 <1>   0.0800 
 28 H       -5.3930    -3.7950    -0.6810 H     1 <1>   0.0800 
 29 H       -3.4980    -6.8940    -0.7850 H     1 <1>   0.0800 
 30 H       -3.4540    -7.0220     0.9650 H     1 <1>   0.0800 
 31 H       -6.2230    -5.8000    -1.4970 H     1 <1>   0.0800 
 32 H       -5.7410    -7.1650     1.1550 H     1 <1>   0.0800 
 33 H       -7.4940    -5.8430     1.0330 H     1 <1>   0.4000 
 34 H       -5.4790    -8.1340    -1.7100 H     1 <1>   0.0800 
 35 H       -6.7830    -8.5270    -0.6240 H     1 <1>   0.0800 
 36 H       -3.5130   -10.1610    -1.6450 H     1 <1>   0.1500 
 37 H       -2.8220   -12.8510    -0.5410 H     1 <1>   0.0800 
 38 H       -2.5480   -12.7280     1.1820 H     1 <1>   0.0800 
 39 H       -1.6260   -11.7300     0.0810 H     1 <1>   0.0800 
@<TRIPOS>BOND
  1   1   2  1   
  2   2   3  ar  
  3   2   4  ar  
  4   3   5  ar  
  5   3  24  1   
  6   4   6  ar  
  7   4  25  1   
  8   5   7  1   
  9   5   8  ar  
 10   6   8  ar  
 11   6   9  1   
 12   8  26  1   
 13   9  10  2   
 14   9  11  am  
 15  11  12  1   
 16  11  13  1   
 17  12  14  1   
 18  12  27  1   
 19  12  28  1   
 20  13  15  1   
 21  13  29  1   
 22  13  30  1   
 23  14  15  1   
 24  14  16  1   
 25  14  31  1   
 26  15  17  1   
 27  15  32  1   
 28  16  33  1   
 29  17  18  1   
 30  17  34  1   
 31  17  35  1   
 32  18  19  1   
 33  18  20  2   
 34  19  21  1   
 35  20  22  1   
 36  20  36  1   
 37  21  22  2   
 38  22  23  1   
 39  23  37  1   
 40  23  38  1   
 41  23  39  1   
@<TRIPOS>SUBSTRUCTURE
  1 ****  11 GROUP 4 **** **** 0

# MOE 2024.06 (io_trps.svl 2023.06)
