@<TRIPOS>MOLECULE
NONAME
46 48 1 0 0 
SMALL
USER_CHARGES


@<TRIPOS>ATOM
  1 F       -0.0160    -0.7010    -1.0210 F     1 <1>  -0.1900 
  2 C       -0.6170    -1.8010    -0.6430 C.ar  1 <1>   0.1900 
  3 C        0.0760    -2.8560    -0.0390 C.ar  1 <1>   0.0830 
  4 C       -1.9780    -1.8660    -0.8680 C.ar  1 <1>  -0.1500 
  5 O        1.4120    -2.9110     0.2340 O.3   1 <1>  -0.3630 
  6 C       -0.6520    -3.9760     0.3270 C.ar  1 <1>  -0.1500 
  7 C       -2.6740    -2.9990    -0.4880 C.ar  1 <1>  -0.1500 
  8 C        2.3130    -1.8870    -0.1270 C.3   1 <1>   0.0400 
  9 C       -2.0290    -4.0820     0.1150 C.ar  1 <1>   0.0530 
 10 C       -2.7490    -5.2690     0.5140 C.2   1 <1>   0.0870 
 11 O       -2.2670    -6.0540     1.4490 O.3   1 <1>  -0.0190 
 12 C       -3.9200    -5.8230     0.1110 C.2   1 <1>  -0.2330 
 13 N       -3.0370    -7.0820     1.6990 N.2   1 <1>  -0.4100 
 14 C       -4.0430    -6.9620     0.9060 C.2   1 <1>   0.3720 
 15 C       -4.8460    -5.4010    -0.8850 C.2   1 <1>   1.0330 
 16 N       -5.0920    -7.8850     0.8900 N.pl3 1 <1>  -0.8210 
 17 O       -5.7260    -4.5670    -0.6090 O.co2 1 <1>  -0.9000 
 18 O       -4.7910    -5.8540    -2.0410 O.co2 1 <1>  -0.9000 
 19 C       -5.1500    -8.6740    -0.3670 C.3   1 <1>   0.2090 
 20 C       -6.4070    -7.2930     1.2560 C.3   1 <1>   0.2090 
 21 C       -6.1610    -9.8110    -0.2150 C.3   1 <1>  -0.1600 
 22 C       -7.4350    -8.4090     1.4390 C.3   1 <1>  -0.1600 
 23 C       -7.5320    -9.2410     0.1620 C.3   1 <1>   0.2000 
 24 O       -8.4250   -10.2850     0.4040 O.3   1 <1>  -0.5600 
 25 C       -9.0650   -10.7850    -0.7220 C.3   1 <1>   0.1200 
 26 C       -9.9960   -11.9000    -0.2620 C.3   1 <1>  -0.2400 
 27 H       -2.4900    -1.0440    -1.3340 H     1 <1>   0.1500 
 28 H       -0.1300    -4.7950     0.7890 H     1 <1>   0.1500 
 29 H       -3.7360    -3.0380    -0.6610 H     1 <1>   0.1500 
 30 H        3.3000    -2.1900     0.1710 H     1 <1>   0.0800 
 31 H        2.0390    -0.9830     0.3870 H     1 <1>   0.0800 
 32 H        2.2790    -1.7520    -1.1930 H     1 <1>   0.0800 
 33 H       -4.1740    -9.0740    -0.5820 H     1 <1>   0.0800 
 34 H       -5.4440    -8.0420    -1.1870 H     1 <1>   0.0800 
 35 H       -6.7390    -6.6220     0.4820 H     1 <1>   0.0800 
 36 H       -6.3030    -6.7320     2.1690 H     1 <1>   0.0800 
 37 H       -5.8170   -10.4800     0.5530 H     1 <1>   0.0800 
 38 H       -6.2190   -10.3430    -1.1440 H     1 <1>   0.0800 
 39 H       -8.3910    -7.9750     1.6610 H     1 <1>   0.0800 
 40 H       -7.1310    -9.0290     2.2630 H     1 <1>   0.0800 
 41 H       -7.9140    -8.6210    -0.6330 H     1 <1>   0.0800 
 42 H       -8.3280   -11.1670    -1.4080 H     1 <1>   0.0800 
 43 H       -9.6250    -9.9900    -1.1860 H     1 <1>   0.0800 
 44 H       -9.4270   -12.6790     0.2130 H     1 <1>   0.0800 
 45 H      -10.5140   -12.3160    -1.1060 H     1 <1>   0.0800 
 46 H      -10.7190   -11.5110     0.4310 H     1 <1>   0.0800 
@<TRIPOS>BOND
  1   1   2  1   
  2   2   3  ar  
  3   2   4  ar  
  4   3   5  1   
  5   3   6  ar  
  6   4   7  ar  
  7   4  27  1   
  8   5   8  1   
  9   6   9  ar  
 10   6  28  1   
 11   7   9  ar  
 12   7  29  1   
 13   8  30  1   
 14   8  31  1   
 15   8  32  1   
 16   9  10  1   
 17  10  11  1   
 18  10  12  2   
 19  11  13  1   
 20  12  14  1   
 21  12  15  1   
 22  13  14  2   
 23  14  16  1   
 24  15  17  ar  
 25  15  18  ar  
 26  16  19  1   
 27  16  20  1   
 28  19  21  1   
 29  19  33  1   
 30  19  34  1   
 31  20  22  1   
 32  20  35  1   
 33  20  36  1   
 34  21  23  1   
 35  21  37  1   
 36  21  38  1   
 37  22  23  1   
 38  22  39  1   
 39  22  40  1   
 40  23  24  1   
 41  23  41  1   
 42  24  25  1   
 43  25  26  1   
 44  25  42  1   
 45  25  43  1   
 46  26  44  1   
 47  26  45  1   
 48  26  46  1   
@<TRIPOS>SUBSTRUCTURE
  1 ****  12 GROUP 4 **** **** 0

# MOE 2024.06 (io_trps.svl 2023.06)
