@<TRIPOS>MOLECULE
NONAME
53 56 1 0 0 
SMALL
USER_CHARGES


@<TRIPOS>ATOM
  1 CL      -0.2870    -0.2730    -0.2790 Cl    1 <1>  -0.1770 
  2 C       -0.3500    -2.0100    -0.1460 C.ar  1 <1>   0.1770 
  3 C        0.7700    -2.7580    -0.4530 C.ar  1 <1>  -0.1500 
  4 C       -1.5190    -2.6200     0.2630 C.ar  1 <1>  -0.1500 
  5 C        0.7140    -4.1360    -0.3460 C.ar  1 <1>  -0.1500 
  6 C       -1.5630    -4.0000     0.3660 C.ar  1 <1>  -0.1500 
  7 C       -0.4510    -4.7960     0.0650 C.ar  1 <1>   0.0000 
  8 C       -0.5050    -6.2470     0.1730 C.ar  1 <1>   0.6200 
  9 N       -1.3220    -6.7750     1.0880 N.ar  1 <1>  -0.6200 
 10 N        0.2580    -6.9670    -0.6550 N.ar  1 <1>  -0.6200 
 11 C       -1.3830    -8.0790     1.1620 C.ar  1 <1>   0.1600 
 12 C        0.1800    -8.2700    -0.5690 C.ar  1 <1>   0.1600 
 13 C       -0.6620    -8.8940     0.3210 C.ar  1 <1>  -0.1430 
 14 C       -0.8010   -10.3990     0.3690 C.3   1 <1>   0.4860 
 15 N       -1.4830   -10.9380    -0.8610 N.4   1 <1>  -0.9590 
 16 C       -2.9280   -10.5970    -1.0930 C.3   1 <1>   0.4230 
 17 C       -1.3190   -12.4250    -0.9040 C.3   1 <1>   0.2630 
 18 C       -3.8150   -10.5760     0.1520 C.3   1 <1>  -0.1600 
 19 C       -3.1340    -9.2460    -1.7720 C.3   1 <1>  -0.1600 
 20 C       -5.0370    -9.7450    -0.2600 C.3   1 <1>  -0.0800 
 21 C       -4.5530    -8.8030    -1.3870 C.3   1 <1>  -0.0800 
 22 C       -5.7240    -9.0490     0.9360 C.3   1 <1>   0.1400 
 23 C       -4.6330    -7.3130    -1.0100 C.3   1 <1>  -0.0990 
 24 N       -6.5110    -7.8790     0.4820 N.am  1 <1>  -0.6600 
 25 C       -5.9950    -6.9980    -0.4280 C.2   1 <1>   0.5690 
 26 C       -7.8290    -7.6620     1.1400 C.3   1 <1>   0.0600 
 27 O       -6.5660    -5.9970    -0.7860 O.2   1 <1>  -0.5700 
 28 H        1.6710    -2.2630    -0.7700 H     1 <1>   0.1500 
 29 H       -2.3810    -2.0210     0.4960 H     1 <1>   0.1500 
 30 H        1.5910    -4.7140    -0.5860 H     1 <1>   0.1500 
 31 H       -2.4790    -4.4660     0.6860 H     1 <1>   0.1500 
 32 H       -2.0350    -8.4910     1.9140 H     1 <1>   0.1500 
 33 H        0.8030    -8.8410    -1.2370 H     1 <1>   0.1500 
 34 H       -1.3490   -10.6880     1.2510 H     1 <1>   0.0800 
 35 H        0.1860   -10.8260     0.4470 H     1 <1>   0.0800 
 36 H       -0.9820   -10.5500    -1.6720 H     1 <1>   0.4500 
 37 H       -3.3500   -11.3300    -1.7630 H     1 <1>   0.0800 
 38 H       -1.8420   -12.8850    -0.0810 H     1 <1>   0.0800 
 39 H       -0.2760   -12.6930    -0.8430 H     1 <1>   0.0800 
 40 H       -1.7170   -12.8200    -1.8260 H     1 <1>   0.0800 
 41 H       -4.1080   -11.5680     0.4460 H     1 <1>   0.0800 
 42 H       -3.3330   -10.0870     0.9730 H     1 <1>   0.0800 
 43 H       -2.4320    -8.5080    -1.4430 H     1 <1>   0.0800 
 44 H       -3.0520    -9.3410    -2.8410 H     1 <1>   0.0800 
 45 H       -5.7620   -10.4140    -0.6960 H     1 <1>   0.0800 
 46 H       -5.2050    -8.9510    -2.2340 H     1 <1>   0.0800 
 47 H       -4.9900    -8.6940     1.6400 H     1 <1>   0.0800 
 48 H       -6.3640    -9.7500     1.4450 H     1 <1>   0.0800 
 49 H       -4.4680    -6.7000    -1.8770 H     1 <1>   0.0800 
 50 H       -3.8950    -7.0580    -0.2720 H     1 <1>   0.0800 
 51 H       -8.4730    -8.5020     0.9530 H     1 <1>   0.0800 
 52 H       -8.3020    -6.7750     0.7550 H     1 <1>   0.0800 
 53 H       -7.6920    -7.5440     2.2010 H     1 <1>   0.0800 
@<TRIPOS>BOND
  1   1   2  1   
  2   2   3  ar  
  3   2   4  ar  
  4   3   5  ar  
  5   3  28  1   
  6   4   6  ar  
  7   4  29  1   
  8   5   7  ar  
  9   5  30  1   
 10   6   7  ar  
 11   6  31  1   
 12   7   8  1   
 13   8   9  ar  
 14   8  10  ar  
 15   9  11  ar  
 16  10  12  ar  
 17  11  13  ar  
 18  11  32  1   
 19  12  13  ar  
 20  12  33  1   
 21  13  14  1   
 22  14  15  1   
 23  14  34  1   
 24  14  35  1   
 25  15  16  1   
 26  15  17  1   
 27  15  36  1   
 28  16  18  1   
 29  16  19  1   
 30  16  37  1   
 31  17  38  1   
 32  17  39  1   
 33  17  40  1   
 34  18  20  1   
 35  18  41  1   
 36  18  42  1   
 37  19  21  1   
 38  19  43  1   
 39  19  44  1   
 40  20  21  1   
 41  20  22  1   
 42  20  45  1   
 43  21  23  1   
 44  21  46  1   
 45  22  24  1   
 46  22  47  1   
 47  22  48  1   
 48  23  25  1   
 49  23  49  1   
 50  23  50  1   
 51  24  25  am  
 52  24  26  1   
 53  25  27  2   
 54  26  51  1   
 55  26  52  1   
 56  26  53  1   
@<TRIPOS>SUBSTRUCTURE
  1 ****   9 GROUP 4 **** **** 0

# MOE 2024.06 (io_trps.svl 2023.06)
