@<TRIPOS>MOLECULE
NONAME
45 47 1 0 0 
SMALL
USER_CHARGES


@<TRIPOS>ATOM
  1 O       -1.7580     0.0350    -2.1040 O.2   1 <1>  -0.5700 
  2 C       -1.8220     0.3650    -0.9460 C.2   1 <1>   0.5690 
  3 N       -1.9230    -0.5440     0.0520 N.am  1 <1>  -0.7300 
  4 C       -1.7960     1.8340    -0.5870 C.3   1 <1>  -0.0990 
  5 C       -1.9070    -2.0130    -0.1330 C.3   1 <1>   0.2200 
  6 C       -0.3850     2.2820    -0.1760 C.3   1 <1>  -0.0650 
  7 C       -3.2950    -2.6100     0.0600 C.3   1 <1>  -0.0800 
  8 C       -1.1680    -2.6450     1.0380 C.3   1 <1>   0.1200 
  9 C       -0.3560     3.7330     0.3300 C.3   1 <1>  -0.1900 
 10 C       -3.3890    -2.7830     1.5810 C.3   1 <1>   0.1200 
 11 C       -4.4600    -1.8210    -0.5640 C.3   1 <1>  -0.0160 
 12 O       -2.0900    -2.6530     2.0840 O.3   1 <1>  -0.5600 
 13 C        0.6830     4.0960     1.3400 C.3   1 <1>  -0.2000 
 14 C       -0.7690     4.0140     1.7370 C.3   1 <1>  -0.2000 
 15 C       -0.6820     4.7710    -0.7510 C.3   1 <1>  -0.1450 
 16 C       -5.7750    -2.5660    -0.3880 C.ar  1 <1>  -0.1440 
 17 C       -6.6660    -2.2540     0.6190 C.ar  1 <1>  -0.1500 
 18 C       -6.1420    -3.5960    -1.2300 C.ar  1 <1>  -0.1500 
 19 C       -7.8450    -2.9720     0.7360 C.ar  1 <1>   0.1600 
 20 C       -7.3460    -4.2500    -1.0260 C.ar  1 <1>   0.1600 
 21 N       -8.2050    -3.9640    -0.0620 N.ar  1 <1>  -0.6200 
 22 H       -1.9880    -0.2490     1.0290 H     1 <1>   0.3700 
 23 H       -2.1260     2.3950    -1.4410 H     1 <1>   0.0800 
 24 H       -2.4850     2.0120     0.2170 H     1 <1>   0.0800 
 25 H       -1.4700    -2.2730    -1.0830 H     1 <1>   0.0800 
 26 H        0.2810     2.1800    -1.0160 H     1 <1>   0.0800 
 27 H       -0.0250     1.6280     0.5990 H     1 <1>   0.0800 
 28 H       -3.2890    -3.5950    -0.3730 H     1 <1>   0.0800 
 29 H       -0.2910    -2.0930     1.3270 H     1 <1>   0.0800 
 30 H       -0.9050    -3.6660     0.8190 H     1 <1>   0.0800 
 31 H       -3.7740    -3.7520     1.8490 H     1 <1>   0.0800 
 32 H       -3.9910    -2.0140     2.0330 H     1 <1>   0.0800 
 33 H       -4.2700    -1.6760    -1.6140 H     1 <1>   0.0800 
 34 H       -4.5400    -0.8470    -0.1150 H     1 <1>   0.0800 
 35 H        1.3570     3.3390     1.7030 H     1 <1>   0.1000 
 36 H        1.1480     5.0660     1.2950 H     1 <1>   0.1000 
 37 H       -1.2920     4.9280     1.9580 H     1 <1>   0.1000 
 38 H       -1.0790     3.2020     2.3710 H     1 <1>   0.1000 
 39 H       -0.5570     5.7690    -0.3700 H     1 <1>   0.0800 
 40 H       -1.6990     4.6680    -1.0830 H     1 <1>   0.0800 
 41 H       -0.0270     4.6470    -1.5940 H     1 <1>   0.0800 
 42 H       -6.4570    -1.4610     1.3130 H     1 <1>   0.1500 
 43 H       -5.5050    -3.8950    -2.0420 H     1 <1>   0.1500 
 44 H       -8.5280    -2.7150     1.5270 H     1 <1>   0.1500 
 45 H       -7.6160    -5.0510    -1.6930 H     1 <1>   0.1500 
@<TRIPOS>BOND
  1   1   2  2   
  2   2   3  am  
  3   2   4  1   
  4   3   5  1   
  5   3  22  1   
  6   4   6  1   
  7   4  23  1   
  8   4  24  1   
  9   5   7  1   
 10   5   8  1   
 11   5  25  1   
 12   6   9  1   
 13   6  26  1   
 14   6  27  1   
 15   7  10  1   
 16   7  11  1   
 17   7  28  1   
 18   8  12  1   
 19   8  29  1   
 20   8  30  1   
 21   9  13  1   
 22   9  14  1   
 23   9  15  1   
 24  10  12  1   
 25  10  31  1   
 26  10  32  1   
 27  11  16  1   
 28  11  33  1   
 29  11  34  1   
 30  13  14  1   
 31  13  35  1   
 32  13  36  1   
 33  14  37  1   
 34  14  38  1   
 35  15  39  1   
 36  15  40  1   
 37  15  41  1   
 38  16  17  ar  
 39  16  18  ar  
 40  17  19  ar  
 41  17  42  1   
 42  18  20  ar  
 43  18  43  1   
 44  19  21  ar  
 45  19  44  1   
 46  20  21  ar  
 47  20  45  1   
@<TRIPOS>SUBSTRUCTURE
  1 ****   3 GROUP 4 **** **** 0

# MOE 2024.06 (io_trps.svl 2023.06)
