@<TRIPOS>MOLECULE
NONAME
46 49 1 0 0 
SMALL
USER_CHARGES


@<TRIPOS>ATOM
  1 O        0.7410    -0.2670    -2.3420 O.2   1 <1>  -0.5700 
  2 C        1.3750    -0.8650    -1.5020 C.2   1 <1>   0.5690 
  3 N        2.2370    -0.2010    -0.6760 N.am  1 <1>  -0.5100 
  4 C        1.1890    -2.3900    -1.4200 C.3   1 <1>   0.2610 
  5 C        2.8080     1.1740    -0.8210 C.3   1 <1>   0.2250 
  6 C        3.4420    -0.6460     0.0930 C.3   1 <1>   0.2250 
  7 O        1.4040    -2.8600    -0.0940 O.3   1 <1>  -0.3630 
  8 C        2.1470    -3.1320    -2.3650 C.3   1 <1>  -0.2400 
  9 C        4.2050     0.5640    -0.5160 C.3   1 <1>   0.2100 
 10 C        0.9100    -4.0400     0.3660 C.ar  1 <1>   0.0820 
 11 N        5.0170     1.3300     0.4550 N.3   1 <1>  -0.7500 
 12 C        0.0800    -4.8820    -0.3780 C.ar  1 <1>  -0.1500 
 13 C        1.2790    -4.3920     1.6640 C.ar  1 <1>  -0.1500 
 14 C        6.1950     0.5530     0.8890 C.3   1 <1>   0.1100 
 15 C        5.4650     2.6100    -0.1280 C.3   1 <1>   0.1100 
 16 C       -0.3450    -6.0540     0.2140 C.ar  1 <1>   0.0820 
 17 C        0.8390    -5.5770     2.2400 C.ar  1 <1>  -0.1500 
 18 C        7.0850     1.3780     1.8350 C.3   1 <1>   0.1200 
 19 C        6.3770     3.3740     0.8480 C.3   1 <1>   0.1200 
 20 O       -1.1330    -7.0010    -0.3050 O.3   1 <1>  -0.3630 
 21 C        0.0220    -6.3930     1.4840 C.ar  1 <1>   0.0820 
 22 O        7.4640     2.5780     1.2250 O.3   1 <1>  -0.5600 
 23 C       -1.2800    -8.0060     0.6980 C.3   1 <1>   0.4000 
 24 O       -0.5190    -7.5700     1.8230 O.3   1 <1>  -0.3630 
 25 H        0.1670    -2.5890    -1.6840 H     1 <1>   0.0800 
 26 H        2.4330     1.8280    -0.0530 H     1 <1>   0.0000 
 27 H        2.7060     1.5510    -1.8230 H     1 <1>   0.0000 
 28 H        3.8090    -1.6000    -0.2380 H     1 <1>   0.0000 
 29 H        3.2690    -0.5730     1.1530 H     1 <1>   0.0000 
 30 H        3.1680    -2.9290    -2.0980 H     1 <1>   0.0800 
 31 H        1.9870    -2.7940    -3.3730 H     1 <1>   0.0800 
 32 H        1.9750    -4.1920    -2.3330 H     1 <1>   0.0800 
 33 H        4.7550     0.3090    -1.4050 H     1 <1>   0.0000 
 34 H       -0.2400    -4.6650    -1.3780 H     1 <1>   0.1500 
 35 H        1.9150    -3.7290     2.2210 H     1 <1>   0.1500 
 36 H        6.7780     0.2560     0.0330 H     1 <1>   0.0800 
 37 H        5.8730    -0.3360     1.4030 H     1 <1>   0.0800 
 38 H        4.6100     3.2230    -0.3550 H     1 <1>   0.0800 
 39 H        6.0050     2.4320    -1.0430 H     1 <1>   0.0800 
 40 H        1.1170    -5.8590     3.2400 H     1 <1>   0.1500 
 41 H        7.9810     0.8340     2.0750 H     1 <1>   0.0800 
 42 H        6.5590     1.6040     2.7470 H     1 <1>   0.0800 
 43 H        5.8320     3.6570     1.7320 H     1 <1>   0.0800 
 44 H        6.7670     4.2610     0.3800 H     1 <1>   0.0800 
 45 H       -0.8850    -8.9380     0.3350 H     1 <1>   0.0800 
 46 H       -2.3150    -8.0910     0.9740 H     1 <1>   0.0800 
@<TRIPOS>BOND
  1   1   2  2   
  2   2   3  am  
  3   2   4  1   
  4   3   5  1   
  5   3   6  1   
  6   4   7  1   
  7   4   8  1   
  8   4  25  1   
  9   5   9  1   
 10   5  26  1   
 11   5  27  1   
 12   6   9  1   
 13   6  28  1   
 14   6  29  1   
 15   7  10  1   
 16   8  30  1   
 17   8  31  1   
 18   8  32  1   
 19   9  11  1   
 20   9  33  1   
 21  10  12  ar  
 22  10  13  ar  
 23  11  14  1   
 24  11  15  1   
 25  12  16  ar  
 26  12  34  1   
 27  13  17  ar  
 28  13  35  1   
 29  14  18  1   
 30  14  36  1   
 31  14  37  1   
 32  15  19  1   
 33  15  38  1   
 34  15  39  1   
 35  16  20  1   
 36  16  21  ar  
 37  17  21  ar  
 38  17  40  1   
 39  18  22  1   
 40  18  41  1   
 41  18  42  1   
 42  19  22  1   
 43  19  43  1   
 44  19  44  1   
 45  20  23  1   
 46  21  24  1   
 47  23  24  1   
 48  23  45  1   
 49  23  46  1   
@<TRIPOS>SUBSTRUCTURE
  1 ****   7 GROUP 4 **** **** 0

# MOE 2024.06 (io_trps.svl 2023.06)
