@<TRIPOS>MOLECULE
NONAME
42 44 1 0 0 
SMALL
USER_CHARGES


@<TRIPOS>ATOM
  1 O       -1.3220     0.6680     1.8760 O.2   1 <1>  -0.5700 
  2 C       -1.8880     0.9280     0.8340 C.2   1 <1>   0.5440 
  3 N       -2.7440     0.0010     0.2940 N.am  1 <1>  -0.6600 
  4 C       -1.6630     2.1940     0.1800 C.ar  1 <1>   0.0860 
  5 C       -3.7100     0.2580    -0.8010 C.3   1 <1>   0.1400 
  6 C       -2.9930    -1.3310     0.9030 C.3   1 <1>   0.1400 
  7 C       -0.7710     2.3250    -0.8750 C.ar  1 <1>   0.1660 
  8 C       -2.3470     3.3450     0.5450 C.ar  1 <1>   0.1660 
  9 C       -4.8560    -0.7110    -0.5160 C.3   1 <1>   0.2000 
 10 C       -4.1820    -1.9270     0.1270 C.3   1 <1>  -0.0800 
 11 N       -0.6030     3.4580    -1.5200 N.ar  1 <1>  -0.6200 
 12 C        0.0690     1.1540    -1.3610 C.3   1 <1>  -0.0960 
 13 N       -2.1920     4.4880    -0.0870 N.ar  1 <1>  -0.6200 
 14 C       -3.3380     3.3510     1.6960 C.3   1 <1>  -0.0970 
 15 O       -5.6860    -0.1360     0.4310 O.3   1 <1>  -0.6800 
 16 C       -3.7320    -2.9360    -0.9490 C.3   1 <1>  -0.0160 
 17 C       -1.3240     4.4770    -1.0840 C.ar  1 <1>   0.4700 
 18 C       -3.1880    -4.2200    -0.3400 C.ar  1 <1>   0.1670 
 19 N       -1.8750    -4.2990    -0.1970 N.ar  1 <1>  -0.6200 
 20 C       -4.0640    -5.2390     0.0320 C.ar  1 <1>   0.1600 
 21 C       -1.5000    -5.4490     0.3390 C.ar  1 <1>   0.1600 
 22 N       -3.6920    -6.3890     0.5680 N.ar  1 <1>  -0.6200 
 23 C       -2.3790    -6.4590     0.7090 C.ar  1 <1>   0.1600 
 24 H       -4.0510     1.2800    -0.8190 H     1 <1>   0.0800 
 25 H       -3.2460     0.0170    -1.7420 H     1 <1>   0.0800 
 26 H       -2.1070    -1.9380     0.8390 H     1 <1>   0.0800 
 27 H       -3.2480    -1.2010     1.9410 H     1 <1>   0.0800 
 28 H       -5.4460    -0.9400    -1.3870 H     1 <1>   0.0800 
 29 H       -4.8600    -2.4260     0.7980 H     1 <1>   0.0800 
 30 H        0.3620     0.5220    -0.5420 H     1 <1>   0.0800 
 31 H        0.9620     1.5140    -1.8390 H     1 <1>   0.0800 
 32 H       -0.4920     0.5750    -2.0710 H     1 <1>   0.0800 
 33 H       -2.9670     2.7730     2.5230 H     1 <1>   0.0800 
 34 H       -4.2780     2.9440     1.3710 H     1 <1>   0.0800 
 35 H       -3.5010     4.3570     2.0400 H     1 <1>   0.0800 
 36 H       -5.1450     0.1360     1.2000 H     1 <1>   0.4000 
 37 H       -2.9790    -2.4980    -1.5800 H     1 <1>   0.0800 
 38 H       -4.5700    -3.1870    -1.5740 H     1 <1>   0.0800 
 39 H       -1.1890     5.4100    -1.6050 H     1 <1>   0.1500 
 40 H       -5.1190    -5.0970    -0.1190 H     1 <1>   0.1500 
 41 H       -0.4460    -5.6000     0.4930 H     1 <1>   0.1500 
 42 H       -1.9780    -7.3610     1.1380 H     1 <1>   0.1500 
@<TRIPOS>BOND
  1   1   2  2   
  2   2   3  am  
  3   2   4  1   
  4   3   5  1   
  5   3   6  1   
  6   4   7  ar  
  7   4   8  ar  
  8   5   9  1   
  9   5  24  1   
 10   5  25  1   
 11   6  10  1   
 12   6  26  1   
 13   6  27  1   
 14   7  11  ar  
 15   7  12  1   
 16   8  13  ar  
 17   8  14  1   
 18   9  10  1   
 19   9  15  1   
 20   9  28  1   
 21  10  16  1   
 22  10  29  1   
 23  11  17  ar  
 24  12  30  1   
 25  12  31  1   
 26  12  32  1   
 27  13  17  ar  
 28  14  33  1   
 29  14  34  1   
 30  14  35  1   
 31  15  36  1   
 32  16  18  1   
 33  16  37  1   
 34  16  38  1   
 35  17  39  1   
 36  18  19  ar  
 37  18  20  ar  
 38  19  21  ar  
 39  20  22  ar  
 40  20  40  1   
 41  21  23  ar  
 42  21  41  1   
 43  22  23  ar  
 44  23  42  1   
@<TRIPOS>SUBSTRUCTURE
  1 ****   3 GROUP 4 **** **** 0

# MOE 2024.06 (io_trps.svl 2023.06)
