@<TRIPOS>MOLECULE
NONAME
57 60 1 0 0 
SMALL
USER_CHARGES


@<TRIPOS>ATOM
  1 F       -1.2780    -0.6130     1.8020 F     1 <1>  -0.1900 
  2 C       -2.4230    -0.0670     1.4820 C.ar  1 <1>   0.1900 
  3 C       -2.5290     1.2800     1.1180 C.ar  1 <1>   0.0820 
  4 C       -3.5300    -0.8930     1.5250 C.ar  1 <1>  -0.1500 
  5 O       -1.5170     2.1920     1.0400 O.3   1 <1>  -0.3630 
  6 C       -3.7880     1.7620     0.7990 C.ar  1 <1>  -0.1500 
  7 C       -4.7720    -0.3790     1.2010 C.ar  1 <1>  -0.1500 
  8 C       -0.1670     1.8670     1.2910 C.3   1 <1>   0.0400 
  9 C       -4.9300     0.9580     0.8280 C.ar  1 <1>   0.0530 
 10 C       -6.2200     1.5070     0.4900 C.2   1 <1>   0.0870 
 11 O       -6.4820     2.7580     0.7720 O.3   1 <1>  -0.0190 
 12 C       -7.3360     0.9950    -0.1000 C.2   1 <1>  -0.0860 
 13 N       -7.6790     3.1260     0.4070 N.2   1 <1>  -0.4100 
 14 C       -8.2110     2.0880    -0.1350 C.2   1 <1>   0.3720 
 15 C       -7.5950    -0.3160    -0.6130 C.2   1 <1>   0.7160 
 16 N       -9.4930     2.0860    -0.7060 N.pl3 1 <1>  -0.8210 
 17 O       -6.7220    -0.9280    -1.2020 O.2   1 <1>  -0.5700 
 18 N       -8.7860    -0.9860    -0.4330 N.am  1 <1>  -0.6600 
 19 C       -9.4660     2.1680    -2.1910 C.3   1 <1>   0.1290 
 20 C      -10.4380     3.0870    -0.1300 C.3   1 <1>   0.1290 
 21 C       -9.2100    -2.0400    -1.3990 C.3   1 <1>   0.1400 
 22 C       -9.6950    -0.7670     0.7180 C.3   1 <1>   0.1400 
 23 C       -8.5500    -3.3910    -1.0590 C.3   1 <1>   0.4230 
 24 C       -9.5260    -1.8900     1.7490 C.3   1 <1>  -0.1600 
 25 N       -8.4530    -3.6950     0.4000 N.4   1 <1>  -0.9590 
 26 C       -9.2550    -4.6050    -1.6530 C.3   1 <1>  -0.1600 
 27 C       -9.6570    -3.3170     1.2010 C.3   1 <1>   0.3430 
 28 C       -8.1740    -5.1510     0.4730 C.3   1 <1>   0.3430 
 29 C       -8.9140    -5.7660    -0.7140 C.3   1 <1>  -0.1600 
 30 H       -3.4110    -1.9220     1.8100 H     1 <1>   0.1500 
 31 H       -3.8790     2.7960     0.5170 H     1 <1>   0.1500 
 32 H       -5.6300    -1.0210     1.2400 H     1 <1>   0.1500 
 33 H        0.4230     2.7530     1.1400 H     1 <1>   0.0800 
 34 H        0.1440     1.1020     0.6020 H     1 <1>   0.0800 
 35 H       -0.0700     1.5350     2.3090 H     1 <1>   0.0800 
 36 H      -10.4550     2.0150    -2.5870 H     1 <1>   0.0800 
 37 H       -8.8130     1.4120    -2.5930 H     1 <1>   0.0800 
 38 H       -9.1070     3.1350    -2.4990 H     1 <1>   0.0800 
 39 H      -11.4410     2.8820    -0.4610 H     1 <1>   0.0800 
 40 H      -10.1590     4.0810    -0.4370 H     1 <1>   0.0800 
 41 H      -10.4130     3.0400     0.9460 H     1 <1>   0.0800 
 42 H      -10.2820    -2.1310    -1.3920 H     1 <1>   0.0800 
 43 H       -8.9210    -1.7520    -2.3960 H     1 <1>   0.0800 
 44 H       -9.4840     0.1760     1.1920 H     1 <1>   0.0800 
 45 H      -10.7120    -0.7240     0.3650 H     1 <1>   0.0800 
 46 H       -7.5470    -3.3660    -1.4570 H     1 <1>   0.0800 
 47 H      -10.2910    -1.7530     2.4930 H     1 <1>   0.0800 
 48 H       -8.5840    -1.7770     2.2550 H     1 <1>   0.0800 
 49 H       -7.6560    -3.1520     0.7570 H     1 <1>   0.4500 
 50 H      -10.3210    -4.4520    -1.6750 H     1 <1>   0.0800 
 51 H       -8.9150    -4.7890    -2.6580 H     1 <1>   0.0800 
 52 H      -10.5510    -3.4130     0.6060 H     1 <1>   0.0800 
 53 H       -9.7460    -3.9880     2.0400 H     1 <1>   0.0800 
 54 H       -7.1160    -5.3210     0.3550 H     1 <1>   0.0800 
 55 H       -8.4970    -5.5770     1.4100 H     1 <1>   0.0800 
 56 H       -8.2870    -6.4940    -1.1980 H     1 <1>   0.0800 
 57 H       -9.8100    -6.2590    -0.3780 H     1 <1>   0.0800 
@<TRIPOS>BOND
  1   1   2  1   
  2   2   3  ar  
  3   2   4  ar  
  4   3   5  1   
  5   3   6  ar  
  6   4   7  ar  
  7   4  30  1   
  8   5   8  1   
  9   6   9  ar  
 10   6  31  1   
 11   7   9  ar  
 12   7  32  1   
 13   8  33  1   
 14   8  34  1   
 15   8  35  1   
 16   9  10  1   
 17  10  11  1   
 18  10  12  2   
 19  11  13  1   
 20  12  14  1   
 21  12  15  1   
 22  13  14  2   
 23  14  16  1   
 24  15  17  2   
 25  15  18  am  
 26  16  19  1   
 27  16  20  1   
 28  18  21  1   
 29  18  22  1   
 30  19  36  1   
 31  19  37  1   
 32  19  38  1   
 33  20  39  1   
 34  20  40  1   
 35  20  41  1   
 36  21  23  1   
 37  21  42  1   
 38  21  43  1   
 39  22  24  1   
 40  22  44  1   
 41  22  45  1   
 42  23  25  1   
 43  23  26  1   
 44  23  46  1   
 45  24  27  1   
 46  24  47  1   
 47  24  48  1   
 48  25  27  1   
 49  25  28  1   
 50  25  49  1   
 51  26  29  1   
 52  26  50  1   
 53  26  51  1   
 54  27  52  1   
 55  27  53  1   
 56  28  29  1   
 57  28  54  1   
 58  28  55  1   
 59  29  56  1   
 60  29  57  1   
@<TRIPOS>SUBSTRUCTURE
  1 ****  15 GROUP 4 **** **** 0

# MOE 2024.06 (io_trps.svl 2023.06)
