@<TRIPOS>MOLECULE
NONAME
49 52 1 0 0 
SMALL
USER_CHARGES


@<TRIPOS>ATOM
  1 S       -0.6160     0.5180    -1.0970 S.o2  1 <1>   1.4470 
  2 O       -0.0080     0.9620    -2.3310 O.2   1 <1>  -0.6500 
  3 O       -1.9270    -0.1010    -1.1460 O.2   1 <1>  -0.6500 
  4 N       -0.7700     1.8790    -0.0930 N.am  1 <1>  -0.8490 
  5 C        0.5460    -0.5370    -0.1920 C.ar  1 <1>  -0.0090 
  6 C       -1.3030     1.5750     1.2490 C.3   1 <1>   0.1960 
  7 C       -1.3830     3.0370    -0.7580 C.3   1 <1>   0.1960 
  8 C        1.7400    -0.0310     0.2870 C.ar  1 <1>  -0.1500 
  9 C        0.2490    -1.8930     0.0410 C.ar  1 <1>  -0.1500 
 10 C       -2.3880     2.5560     1.7070 C.3   1 <1>  -0.1600 
 11 C       -2.9050     2.8970    -0.7680 C.3   1 <1>  -0.1600 
 12 C        2.6170    -0.8480     0.9930 C.ar  1 <1>   0.2270 
 13 C        1.1090    -2.7170     0.7330 C.ar  1 <1>  -0.1500 
 14 C       -3.4990     2.7540     0.6540 C.3   1 <1>   0.2800 
 15 N        3.8200    -0.5460     1.5520 N.2   1 <1>  -0.5650 
 16 C        2.3010    -2.1750     1.2100 C.ar  1 <1>  -0.1520 
 17 O       -4.0510     4.0170     0.9580 O.3   1 <1>  -0.5600 
 18 C       -4.5830     1.6320     0.7640 C.3   1 <1>   0.2000 
 19 C        4.2110    -1.6530     2.0800 C.2   1 <1>   0.0360 
 20 N        3.3440    -2.6820     1.9130 N.pl3 1 <1>   0.0330 
 21 C       -5.4430     4.1770     1.0480 C.3   1 <1>   0.1200 
 22 O       -4.0950     0.3370     0.5230 O.3   1 <1>  -0.6800 
 23 C       -5.8760     1.9400    -0.0480 C.3   1 <1>   0.2800 
 24 C       -6.1370     3.4530    -0.1100 C.3   1 <1>  -0.1600 
 25 O       -6.9220     1.3760     0.6540 O.3   1 <1>  -0.6800 
 26 C       -5.9630     1.3210    -1.4510 C.3   1 <1>  -0.2400 
 27 H       -1.7070     0.5770     1.2760 H     1 <1>   0.0800 
 28 H       -0.4880     1.5990     1.9530 H     1 <1>   0.0800 
 29 H       -1.1080     3.9350    -0.2300 H     1 <1>   0.0800 
 30 H       -1.0110     3.1340    -1.7640 H     1 <1>   0.0800 
 31 H        2.0140     0.9970     0.1280 H     1 <1>   0.1500 
 32 H       -0.6790    -2.2900    -0.3370 H     1 <1>   0.1500 
 33 H       -1.9140     3.4990     1.9170 H     1 <1>   0.0800 
 34 H       -2.8120     2.2030     2.6290 H     1 <1>   0.0800 
 35 H       -3.1510     2.0510    -1.3730 H     1 <1>   0.0800 
 36 H       -3.3240     3.7570    -1.2590 H     1 <1>   0.0800 
 37 H        0.8730    -3.7540     0.9050 H     1 <1>   0.1500 
 38 H       -4.8720     1.6210     1.8010 H     1 <1>   0.0800 
 39 H        5.1390    -1.7750     2.6120 H     1 <1>   0.1500 
 40 H        3.4500    -3.6440     2.2460 H     1 <1>   0.2700 
 41 H       -5.7740     3.7900     1.9970 H     1 <1>   0.0800 
 42 H       -5.6520     5.2320     1.0140 H     1 <1>   0.0800 
 43 H       -3.5030     0.3020    -0.2700 H     1 <1>   0.4000 
 44 H       -5.7550     3.8630    -1.0270 H     1 <1>   0.0800 
 45 H       -7.1940     3.6500    -0.0890 H     1 <1>   0.0800 
 46 H       -6.7320     0.4220     0.7600 H     1 <1>   0.4000 
 47 H       -5.2190     1.7370    -2.1020 H     1 <1>   0.0800 
 48 H       -6.9260     1.5270    -1.8830 H     1 <1>   0.0800 
 49 H       -5.8220     0.2560    -1.4140 H     1 <1>   0.0800 
@<TRIPOS>BOND
  1   1   2  2   
  2   1   3  2   
  3   1   4  am  
  4   1   5  1   
  5   4   6  1   
  6   4   7  1   
  7   5   8  ar  
  8   5   9  ar  
  9   6  10  1   
 10   6  27  1   
 11   6  28  1   
 12   7  11  1   
 13   7  29  1   
 14   7  30  1   
 15   8  12  ar  
 16   8  31  1   
 17   9  13  ar  
 18   9  32  1   
 19  10  14  1   
 20  10  33  1   
 21  10  34  1   
 22  11  14  1   
 23  11  35  1   
 24  11  36  1   
 25  12  15  1   
 26  12  16  ar  
 27  13  16  ar  
 28  13  37  1   
 29  14  17  1   
 30  14  18  1   
 31  15  19  2   
 32  16  20  1   
 33  17  21  1   
 34  18  22  1   
 35  18  23  1   
 36  18  38  1   
 37  19  20  1   
 38  19  39  1   
 39  20  40  1   
 40  21  24  1   
 41  21  41  1   
 42  21  42  1   
 43  22  43  1   
 44  23  24  1   
 45  23  25  1   
 46  23  26  1   
 47  24  44  1   
 48  24  45  1   
 49  25  46  1   
 50  26  47  1   
 51  26  48  1   
 52  26  49  1   
@<TRIPOS>SUBSTRUCTURE
  1 ****   6 GROUP 4 **** **** 0

# MOE 2024.06 (io_trps.svl 2023.06)
