@<TRIPOS>MOLECULE
NONAME
50 53 1 0 0 
SMALL
USER_CHARGES


@<TRIPOS>ATOM
  1 F        0.1360     0.2510     0.4450 F     1 <1>  -0.1900 
  2 C        1.0640    -0.6350     0.1480 C.ar  1 <1>   0.1900 
  3 C        0.7240    -1.8390    -0.4730 C.ar  1 <1>   0.4100 
  4 C        2.3810    -0.3660     0.4330 C.ar  1 <1>   0.1660 
  5 N        1.6830    -2.6930    -0.7940 N.ar  1 <1>  -0.6200 
  6 N       -0.5780    -2.2180    -0.7800 N.pl3 1 <1>  -0.8380 
  7 N        3.3310    -1.2330     0.1200 N.ar  1 <1>  -0.6200 
  8 C        2.8270     0.9250     1.1090 C.3   1 <1>  -0.0170 
  9 C        2.9160    -2.3390    -0.4770 C.ar  1 <1>   0.4700 
 10 C       -1.6480    -2.2000     0.2520 C.3   1 <1>   0.2090 
 11 C       -0.8760    -3.1070    -1.9380 C.3   1 <1>   0.2090 
 12 C        3.3190     1.9530     0.0830 C.3   1 <1>  -0.2400 
 13 C       -1.8700    -3.6180     0.7750 C.3   1 <1>  -0.1600 
 14 C       -1.1030    -4.5380    -1.4480 C.3   1 <1>  -0.1600 
 15 C       -2.1880    -4.6090    -0.3610 C.3   1 <1>   0.4240 
 16 O       -3.3490    -4.1300    -1.0100 O.3   1 <1>  -0.5600 
 17 C       -2.3840    -6.0660     0.1540 C.ar  1 <1>  -0.1430 
 18 C       -4.5830    -4.4650    -0.4680 C.3   1 <1>   0.1200 
 19 C       -1.3540    -6.7830     0.7800 C.ar  1 <1>   0.0830 
 20 C       -3.6190    -6.6970    -0.0010 C.ar  1 <1>  -0.1430 
 21 C       -4.7790    -5.9630    -0.6400 C.3   1 <1>  -0.0170 
 22 O       -0.1520    -6.1790     0.9670 O.3   1 <1>  -0.3630 
 23 C       -1.5670    -8.0910     1.2080 C.ar  1 <1>  -0.1500 
 24 C       -3.8180    -7.9990     0.4270 C.ar  1 <1>  -0.1500 
 25 C        0.9890    -6.8640     1.4310 C.3   1 <1>   0.0400 
 26 C       -2.7930    -8.6980     1.0300 C.ar  1 <1>  -0.1500 
 27 H        3.6220     0.7000     1.7990 H     1 <1>   0.0800 
 28 H        2.0180     1.3480     1.6780 H     1 <1>   0.0800 
 29 H        3.6850    -3.0460    -0.7410 H     1 <1>   0.1500 
 30 H       -2.5540    -1.8160    -0.1860 H     1 <1>   0.0800 
 31 H       -1.3730    -1.5610     1.0720 H     1 <1>   0.0800 
 32 H       -0.0630    -3.0850    -2.6430 H     1 <1>   0.0800 
 33 H       -1.7570    -2.7450    -2.4400 H     1 <1>   0.0800 
 34 H        4.1490     1.5510    -0.4720 H     1 <1>   0.0800 
 35 H        3.6380     2.8510     0.5800 H     1 <1>   0.0800 
 36 H        2.5290     2.1970    -0.6050 H     1 <1>   0.0800 
 37 H       -2.6580    -3.6260     1.5030 H     1 <1>   0.0800 
 38 H       -0.9740    -3.9140     1.2820 H     1 <1>   0.0800 
 39 H       -0.1660    -4.9000    -1.0780 H     1 <1>   0.0800 
 40 H       -1.3870    -5.1650    -2.2710 H     1 <1>   0.0800 
 41 H       -5.3390    -3.9200    -1.0040 H     1 <1>   0.0800 
 42 H       -4.6080    -4.1830     0.5700 H     1 <1>   0.0800 
 43 H       -4.8300    -6.2020    -1.6870 H     1 <1>   0.0800 
 44 H       -5.7050    -6.2520    -0.1780 H     1 <1>   0.0800 
 45 H       -0.7930    -8.6560     1.6880 H     1 <1>   0.1500 
 46 H       -4.7740    -8.4750     0.2920 H     1 <1>   0.1500 
 47 H        1.8170    -6.1780     1.4120 H     1 <1>   0.0800 
 48 H        1.1880    -7.6940     0.7760 H     1 <1>   0.0800 
 49 H        0.8120    -7.1960     2.4380 H     1 <1>   0.0800 
 50 H       -2.9510    -9.7090     1.3600 H     1 <1>   0.1500 
@<TRIPOS>BOND
  1   1   2  1   
  2   2   3  ar  
  3   2   4  ar  
  4   3   5  ar  
  5   3   6  1   
  6   4   7  ar  
  7   4   8  1   
  8   5   9  ar  
  9   6  10  1   
 10   6  11  1   
 11   7   9  ar  
 12   8  12  1   
 13   8  27  1   
 14   8  28  1   
 15   9  29  1   
 16  10  13  1   
 17  10  30  1   
 18  10  31  1   
 19  11  14  1   
 20  11  32  1   
 21  11  33  1   
 22  12  34  1   
 23  12  35  1   
 24  12  36  1   
 25  13  15  1   
 26  13  37  1   
 27  13  38  1   
 28  14  15  1   
 29  14  39  1   
 30  14  40  1   
 31  15  16  1   
 32  15  17  1   
 33  16  18  1   
 34  17  19  ar  
 35  17  20  ar  
 36  18  21  1   
 37  18  41  1   
 38  18  42  1   
 39  19  22  1   
 40  19  23  ar  
 41  20  21  1   
 42  20  24  ar  
 43  21  43  1   
 44  21  44  1   
 45  22  25  1   
 46  23  26  ar  
 47  23  45  1   
 48  24  26  ar  
 49  24  46  1   
 50  25  47  1   
 51  25  48  1   
 52  25  49  1   
 53  26  50  1   
@<TRIPOS>SUBSTRUCTURE
  1 ****  13 GROUP 4 **** **** 0

# MOE 2024.06 (io_trps.svl 2023.06)
