@<TRIPOS>MOLECULE
NONAME
55 58 1 0 0 
SMALL
USER_CHARGES


@<TRIPOS>ATOM
  1 F       -0.8270     2.5880    -1.8190 F     1 <1>  -0.3400 
  2 C       -1.2350     1.6400    -0.9780 C.3   1 <1>   1.1640 
  3 F       -0.4610     1.7400     0.0990 F     1 <1>  -0.3400 
  4 F       -0.8980     0.4860    -1.5540 F     1 <1>  -0.3400 
  5 C       -2.7460     1.7340    -0.6480 C.ar  1 <1>   0.1660 
  6 N       -3.2300     2.8440    -0.0980 N.ar  1 <1>  -0.6200 
  7 C       -3.5850     0.6780    -0.9240 C.ar  1 <1>  -0.1500 
  8 C       -4.5340     2.8640     0.1630 C.ar  1 <1>   0.7200 
  9 C       -4.9190     0.8030    -0.6110 C.ar  1 <1>   0.4100 
 10 N       -5.3880     1.8870    -0.0660 N.ar  1 <1>  -0.6200 
 11 N       -5.0550     4.0020     0.7310 N.pl3 1 <1>  -0.8380 
 12 N       -5.8230    -0.1980    -0.8830 N.pl3 1 <1>  -0.8380 
 13 C       -6.5270     4.1940     0.8560 C.3   1 <1>   0.2090 
 14 C       -4.3490     5.2980     0.7610 C.3   1 <1>   0.2090 
 15 C       -6.7160    -0.6030     0.2640 C.3   1 <1>   0.2090 
 16 C       -6.5070    -0.0610    -2.2020 C.3   1 <1>   0.2090 
 17 C       -6.6840     5.6420     1.2960 C.3   1 <1>  -0.1600 
 18 C       -5.4540     6.3490     0.7300 C.3   1 <1>  -0.1600 
 19 C       -8.1870    -0.8240    -0.1650 C.3   1 <1>   0.4230 
 20 C       -7.7700     0.8060    -2.0760 C.3   1 <1>  -0.1600 
 21 N       -9.1210    -1.2230     0.9460 N.4   1 <1>  -0.9590 
 22 C       -8.7370     0.4100    -0.9130 C.3   1 <1>  -0.1060 
 23 C      -10.4640    -1.6050     0.4380 C.3   1 <1>   0.3430 
 24 C       -8.5820    -2.1850     1.9420 C.3   1 <1>   0.2630 
 25 C       -8.9120     1.5890     0.0690 C.2   1 <1>   0.9060 
 26 C      -10.1180     0.0250    -1.5010 C.3   1 <1>  -0.1600 
 27 C      -11.0700    -0.4770    -0.4020 C.3   1 <1>  -0.1600 
 28 O       -9.1890     2.7050    -0.3730 O.co2 1 <1>  -0.9000 
 29 O       -8.9070     1.3710     1.2930 O.co2 1 <1>  -0.9000 
 30 H       -3.2490    -0.2380    -1.3700 H     1 <1>   0.1500 
 31 H       -6.9950     4.0420    -0.1030 H     1 <1>   0.0800 
 32 H       -6.9550     3.5070     1.5670 H     1 <1>   0.0800 
 33 H       -3.7870     5.3640     1.6760 H     1 <1>   0.0800 
 34 H       -3.6860     5.4040    -0.0810 H     1 <1>   0.0800 
 35 H       -6.3220    -1.5170     0.6670 H     1 <1>   0.0800 
 36 H       -6.6900     0.1400     1.0430 H     1 <1>   0.0800 
 37 H       -5.8360     0.3930    -2.9120 H     1 <1>   0.0800 
 38 H       -6.7610    -1.0390    -2.5730 H     1 <1>   0.0800 
 39 H       -7.6080     6.0590     0.9380 H     1 <1>   0.0800 
 40 H       -6.6730     5.6770     2.3710 H     1 <1>   0.0800 
 41 H       -5.1880     7.2260     1.2910 H     1 <1>   0.0800 
 42 H       -5.6380     6.6250    -0.2930 H     1 <1>   0.0800 
 43 H       -8.1660    -1.6380    -0.8680 H     1 <1>   0.0800 
 44 H       -7.4410     1.8230    -1.9380 H     1 <1>   0.0800 
 45 H       -8.2850     0.7970    -3.0190 H     1 <1>   0.0800 
 46 H       -9.2400    -0.2890     1.4280 H     1 <1>   0.4500 
 47 H      -10.3790    -2.4930    -0.1660 H     1 <1>   0.0800 
 48 H      -11.1200    -1.8170     1.2660 H     1 <1>   0.0800 
 49 H       -8.3520    -3.1250     1.4690 H     1 <1>   0.0800 
 50 H       -9.3070    -2.3510     2.7220 H     1 <1>   0.0800 
 51 H       -7.6880    -1.7880     2.3930 H     1 <1>   0.0800 
 52 H      -10.5540     0.8890    -1.9760 H     1 <1>   0.0800 
 53 H      -10.0000    -0.7400    -2.2490 H     1 <1>   0.0800 
 54 H      -11.9840    -0.8230    -0.8520 H     1 <1>   0.0800 
 55 H      -11.3310     0.3400     0.2500 H     1 <1>   0.0800 
@<TRIPOS>BOND
  1   1   2  1   
  2   2   3  1   
  3   2   4  1   
  4   2   5  1   
  5   5   6  ar  
  6   5   7  ar  
  7   6   8  ar  
  8   7   9  ar  
  9   7  30  1   
 10   8  10  ar  
 11   8  11  1   
 12   9  10  ar  
 13   9  12  1   
 14  11  13  1   
 15  11  14  1   
 16  12  15  1   
 17  12  16  1   
 18  13  17  1   
 19  13  31  1   
 20  13  32  1   
 21  14  18  1   
 22  14  33  1   
 23  14  34  1   
 24  15  19  1   
 25  15  35  1   
 26  15  36  1   
 27  16  20  1   
 28  16  37  1   
 29  16  38  1   
 30  17  18  1   
 31  17  39  1   
 32  17  40  1   
 33  18  41  1   
 34  18  42  1   
 35  19  21  1   
 36  19  22  1   
 37  19  43  1   
 38  20  22  1   
 39  20  44  1   
 40  20  45  1   
 41  21  23  1   
 42  21  24  1   
 43  21  46  1   
 44  22  25  1   
 45  22  26  1   
 46  23  27  1   
 47  23  47  1   
 48  23  48  1   
 49  24  49  1   
 50  24  50  1   
 51  24  51  1   
 52  25  28  ar  
 53  25  29  ar  
 54  26  27  1   
 55  26  52  1   
 56  26  53  1   
 57  27  54  1   
 58  27  55  1   
@<TRIPOS>SUBSTRUCTURE
  1 ****  10 GROUP 4 **** **** 0

# MOE 2024.06 (io_trps.svl 2023.06)
