@<TRIPOS>MOLECULE
NONAME
46 48 1 0 0 
SMALL
USER_CHARGES


@<TRIPOS>ATOM
  1 F       -0.8690    -1.4420    -2.1990 F     1 <1>  -0.1900 
  2 C       -1.3150    -2.4140    -1.4440 C.ar  1 <1>   0.1900 
  3 C       -0.6360    -3.6320    -1.3240 C.ar  1 <1>   0.0820 
  4 C       -2.4920    -2.1730    -0.7620 C.ar  1 <1>  -0.1500 
  5 O        0.5260    -3.9890    -1.9450 O.3   1 <1>  -0.3630 
  6 C       -1.1860    -4.5940    -0.4920 C.ar  1 <1>  -0.1500 
  7 C       -3.0100    -3.1560     0.0600 C.ar  1 <1>  -0.1500 
  8 C        1.1610    -3.1790    -2.9090 C.3   1 <1>   0.0400 
  9 C       -2.3740    -4.3890     0.2140 C.ar  1 <1>   0.0530 
 10 C       -2.8990    -5.4160     1.0820 C.2   1 <1>   0.0870 
 11 O       -2.0580    -6.2030     1.7140 O.3   1 <1>  -0.0190 
 12 C       -4.1510    -5.8050     1.4480 C.2   1 <1>  -0.2330 
 13 N       -2.6530    -7.0770     2.4820 N.2   1 <1>  -0.4100 
 14 C       -3.9090    -6.8440     2.3460 C.2   1 <1>   0.3720 
 15 C       -5.4570    -5.3770     1.0410 C.2   1 <1>   1.0330 
 16 N       -4.9030    -7.5530     3.0010 N.pl3 1 <1>  -0.8520 
 17 O       -5.6150    -4.6610     0.0400 O.co2 1 <1>  -0.9000 
 18 O       -6.4730    -5.7390     1.6660 O.co2 1 <1>  -0.9000 
 19 C       -5.0620    -8.9460     2.5540 C.3   1 <1>   0.2090 
 20 C       -6.0550    -8.9750     1.3910 C.3   1 <1>  -0.1600 
 21 C       -6.2750   -10.3960     0.8520 C.3   1 <1>  -0.1600 
 22 C       -7.3000   -10.4120    -0.2950 C.3   1 <1>  -0.0800 
 23 C       -7.5650   -11.8150    -0.8490 C.3   1 <1>   0.1200 
 24 C       -6.8560    -9.6320    -1.5220 C.3   1 <1>  -0.1600 
 25 O       -7.5030   -11.7260    -2.2410 O.3   1 <1>  -0.5600 
 26 C       -7.5130   -10.3990    -2.6530 C.3   1 <1>   0.1200 
 27 H       -3.0000    -1.2330    -0.8740 H     1 <1>   0.1500 
 28 H       -0.6760    -5.5350    -0.3920 H     1 <1>   0.1500 
 29 H       -3.9290    -2.9710     0.5900 H     1 <1>   0.1500 
 30 H        2.0140    -3.7130    -3.2850 H     1 <1>   0.0800 
 31 H        1.4810    -2.2640    -2.4420 H     1 <1>   0.0800 
 32 H        0.4710    -2.9830    -3.7110 H     1 <1>   0.0800 
 33 H       -5.7850    -7.0380     2.7890 H     1 <1>   0.4000 
 34 H       -5.4310    -9.5360     3.3740 H     1 <1>   0.0800 
 35 H       -4.1100    -9.3450     2.2450 H     1 <1>   0.0800 
 36 H       -5.6760    -8.3470     0.6040 H     1 <1>   0.0800 
 37 H       -6.9930    -8.5640     1.7220 H     1 <1>   0.0800 
 38 H       -6.6320   -11.0240     1.6500 H     1 <1>   0.0800 
 39 H       -5.3380   -10.7970     0.5050 H     1 <1>   0.0800 
 40 H       -8.2350   -10.0120     0.0590 H     1 <1>   0.0800 
 41 H       -8.5420   -12.1690    -0.5720 H     1 <1>   0.0800 
 42 H       -6.8170   -12.5210    -0.5350 H     1 <1>   0.0800 
 43 H       -5.7880    -9.6750    -1.6450 H     1 <1>   0.0800 
 44 H       -7.1680    -8.6020    -1.4930 H     1 <1>   0.0800 
 45 H       -6.9780   -10.3090    -3.5820 H     1 <1>   0.0800 
 46 H       -8.5390   -10.0980    -2.7800 H     1 <1>   0.0800 
@<TRIPOS>BOND
  1   1   2  1   
  2   2   3  ar  
  3   2   4  ar  
  4   3   5  1   
  5   3   6  ar  
  6   4   7  ar  
  7   4  27  1   
  8   5   8  1   
  9   6   9  ar  
 10   6  28  1   
 11   7   9  ar  
 12   7  29  1   
 13   8  30  1   
 14   8  31  1   
 15   8  32  1   
 16   9  10  1   
 17  10  11  1   
 18  10  12  2   
 19  11  13  1   
 20  12  14  1   
 21  12  15  1   
 22  13  14  2   
 23  14  16  1   
 24  15  17  ar  
 25  15  18  ar  
 26  16  19  1   
 27  16  33  1   
 28  19  20  1   
 29  19  34  1   
 30  19  35  1   
 31  20  21  1   
 32  20  36  1   
 33  20  37  1   
 34  21  22  1   
 35  21  38  1   
 36  21  39  1   
 37  22  23  1   
 38  22  24  1   
 39  22  40  1   
 40  23  25  1   
 41  23  41  1   
 42  23  42  1   
 43  24  26  1   
 44  24  43  1   
 45  24  44  1   
 46  25  26  1   
 47  26  45  1   
 48  26  46  1   
@<TRIPOS>SUBSTRUCTURE
  1 ****  12 GROUP 4 **** **** 0

# MOE 2024.06 (io_trps.svl 2023.06)
