@<TRIPOS>MOLECULE
NONAME
55 58 1 0 0 
SMALL
USER_CHARGES


@<TRIPOS>ATOM
  1 O       -1.0370    -0.0380    -0.3580 O.co2 1 <1>  -0.9000 
  2 C       -1.6660    -1.0980    -0.3960 C.2   1 <1>   0.9060 
  3 O       -1.5410    -2.0100     0.4270 O.co2 1 <1>  -0.9000 
  4 C       -2.8000    -1.2220    -1.4180 C.3   1 <1>   0.2370 
  5 N       -4.1600    -0.7720    -0.9000 N.4   1 <1>  -0.9590 
  6 C       -4.4740    -1.5390     0.3560 C.3   1 <1>   0.3430 
  7 C       -4.1080     0.6940    -0.6180 C.3   1 <1>   0.3430 
  8 C       -5.9560    -1.4070     0.7840 C.3   1 <1>   0.2200 
  9 C       -5.4790     1.2960    -0.2490 C.3   1 <1>  -0.0800 
 10 N       -6.8230    -0.9200    -0.3590 N.am  1 <1>  -0.6600 
 11 C       -6.1060    -0.5360     2.0440 C.3   1 <1>   0.1200 
 12 C       -5.5850     1.6280     1.2460 C.3   1 <1>   0.1200 
 13 C       -6.7120     0.5270    -0.7650 C.3   1 <1>   0.1400 
 14 C       -7.6920    -1.7150    -1.0710 C.2   1 <1>   0.5690 
 15 O       -5.2260     0.5430     2.0310 O.3   1 <1>  -0.5600 
 16 O       -8.3100    -1.2680    -2.0040 O.2   1 <1>  -0.5700 
 17 C       -7.9410    -3.1810    -0.7540 C.3   1 <1>  -0.0990 
 18 C       -9.1140    -3.3440     0.2250 C.3   1 <1>  -0.0220 
 19 C       -9.5390    -4.8130     0.3460 C.2   1 <1>  -0.1240 
 20 C       -9.0210    -5.6300     1.4140 C.2   1 <1>   0.3750 
 21 C      -10.4120    -5.3730    -0.5480 C.2   1 <1>  -0.1690 
 22 N       -9.3420    -6.8670     1.5850 N.2   1 <1>  -0.5760 
 23 C       -8.0390    -5.0640     2.4250 C.3   1 <1>  -0.1790 
 24 N      -10.7550    -6.7040    -0.3460 N.pl3 1 <1>   0.6010 
 25 C      -11.0590    -4.6950    -1.7600 C.3   1 <1>  -0.1020 
 26 C      -10.2250    -7.4080     0.6910 C.2   1 <1>   0.3120 
 27 N      -11.5690    -7.5040    -1.0310 N.2   1 <1>  -0.7070 
 28 N      -10.6680    -8.6250     0.6960 N.2   1 <1>  -0.5650 
 29 C      -11.4720    -8.6130    -0.3660 C.2   1 <1>   0.3660 
 30 H       -2.8450    -2.2540    -1.7100 H     1 <1>   0.0800 
 31 H       -2.5210    -0.6380    -2.2760 H     1 <1>   0.0800 
 32 H       -4.9070    -0.9550    -1.5800 H     1 <1>   0.4500 
 33 H       -4.2560    -2.5810     0.1930 H     1 <1>   0.0800 
 34 H       -3.8290    -1.2120     1.1580 H     1 <1>   0.0800 
 35 H       -3.4000     0.8850     0.1760 H     1 <1>   0.0800 
 36 H       -3.7380     1.1970    -1.4970 H     1 <1>   0.0800 
 37 H       -6.2850    -2.3810     1.0860 H     1 <1>   0.0800 
 38 H       -5.5140     2.2530    -0.7360 H     1 <1>   0.0800 
 39 H       -5.8420    -1.1230     2.9070 H     1 <1>   0.0800 
 40 H       -7.1160    -0.1850     2.1710 H     1 <1>   0.0800 
 41 H       -6.5770     1.9470     1.5170 H     1 <1>   0.0800 
 42 H       -4.8990     2.4220     1.4890 H     1 <1>   0.0800 
 43 H       -6.7050     0.5790    -1.8420 H     1 <1>   0.0800 
 44 H       -7.6040     1.0350    -0.4400 H     1 <1>   0.0800 
 45 H       -8.1950    -3.6700    -1.6780 H     1 <1>   0.0800 
 46 H       -7.0570    -3.6660    -0.3890 H     1 <1>   0.0800 
 47 H       -9.9480    -2.7600    -0.1250 H     1 <1>   0.0800 
 48 H       -8.8570    -2.9230     1.1790 H     1 <1>   0.0800 
 49 H       -7.1840    -4.6500     1.9280 H     1 <1>   0.0800 
 50 H       -7.6970    -5.8430     3.0830 H     1 <1>   0.0800 
 51 H       -8.5200    -4.3130     3.0240 H     1 <1>   0.0800 
 52 H      -10.8770    -5.2810    -2.6440 H     1 <1>   0.0800 
 53 H      -10.6860    -3.7060    -1.9460 H     1 <1>   0.0800 
 54 H      -12.1240    -4.6330    -1.6170 H     1 <1>   0.0800 
 55 H      -12.0130    -9.5030    -0.6460 H     1 <1>   0.1500 
@<TRIPOS>BOND
  1   1   2  ar  
  2   2   3  ar  
  3   2   4  1   
  4   4   5  1   
  5   4  30  1   
  6   4  31  1   
  7   5   6  1   
  8   5   7  1   
  9   5  32  1   
 10   6   8  1   
 11   6  33  1   
 12   6  34  1   
 13   7   9  1   
 14   7  35  1   
 15   7  36  1   
 16   8  10  1   
 17   8  11  1   
 18   8  37  1   
 19   9  12  1   
 20   9  13  1   
 21   9  38  1   
 22  10  13  1   
 23  10  14  am  
 24  11  15  1   
 25  11  39  1   
 26  11  40  1   
 27  12  15  1   
 28  12  41  1   
 29  12  42  1   
 30  13  43  1   
 31  13  44  1   
 32  14  16  2   
 33  14  17  1   
 34  17  18  1   
 35  17  45  1   
 36  17  46  1   
 37  18  19  1   
 38  18  47  1   
 39  18  48  1   
 40  19  20  1   
 41  19  21  2   
 42  20  22  2   
 43  20  23  1   
 44  21  24  1   
 45  21  25  1   
 46  22  26  1   
 47  23  49  1   
 48  23  50  1   
 49  23  51  1   
 50  24  26  1   
 51  24  27  1   
 52  25  52  1   
 53  25  53  1   
 54  25  54  1   
 55  26  28  2   
 56  27  29  2   
 57  28  29  1   
 58  29  55  1   
@<TRIPOS>SUBSTRUCTURE
  1 ****  17 GROUP 4 **** **** 0

# MOE 2024.06 (io_trps.svl 2023.06)
