@<TRIPOS>MOLECULE
NONAME
51 55 1 0 0 
SMALL
USER_CHARGES


@<TRIPOS>ATOM
  1 S        0.2160     0.3800     1.8940 S.3   1 <1>  -0.0800 
  2 C       -0.7910     0.8350     0.5280 C.2   1 <1>  -0.1400 
  3 C       -0.8660    -0.9500     2.2880 C.2   1 <1>  -0.1100 
  4 C       -1.8520     0.0240     0.4310 C.2   1 <1>  -0.1810 
  5 C       -0.4570     2.0050    -0.3900 C.3   1 <1>   0.4600 
  6 C       -1.9000    -1.0020     1.4270 C.2   1 <1>  -0.1500 
  7 C       -2.8630     0.2490    -0.6710 C.3   1 <1>   0.0210 
  8 O       -1.3740     2.0110    -1.4680 O.3   1 <1>  -0.5600 
  9 C       -0.5510     3.3460     0.3500 C.3   1 <1>  -0.1600 
 10 C        0.9340     1.8330    -1.0090 C.3   1 <1>  -0.1600 
 11 C       -2.7190     1.6900    -1.1980 C.3   1 <1>   0.1200 
 12 C       -0.1710     4.5190    -0.5550 C.3   1 <1>   0.1400 
 13 C        1.3010     3.0180    -1.9030 C.3   1 <1>   0.1400 
 14 N        1.1840     4.2820    -1.1230 N.am  1 <1>  -0.6600 
 15 C        2.2850     5.0540    -0.8220 C.2   1 <1>   0.7150 
 16 O        3.3970     4.5740    -0.9530 O.2   1 <1>  -0.5700 
 17 C        2.1480     6.4000    -0.3440 C.2   1 <1>  -0.2370 
 18 N        2.8960     6.9320     0.6520 N.pl3 1 <1>   0.3140 
 19 C        1.3190     7.4040    -0.7320 C.2   1 <1>  -0.1500 
 20 N        2.5620     8.1990     0.9210 N.2   1 <1>  -0.7070 
 21 C        3.9640     6.2640     1.4140 C.3   1 <1>   0.0160 
 22 C        1.6010     8.4980     0.0790 C.2   1 <1>   0.2350 
 23 C        0.9460     9.7930     0.0230 C.ar  1 <1>   0.0540 
 24 C        1.5510    10.9240     0.5730 C.ar  1 <1>  -0.1500 
 25 C       -0.3030     9.9660    -0.5750 C.ar  1 <1>  -0.1500 
 26 C        0.9460    12.1670     0.5250 C.ar  1 <1>  -0.1500 
 27 C       -0.9150    11.2060    -0.6280 C.ar  1 <1>  -0.1500 
 28 C       -0.2900    12.3110    -0.0780 C.ar  1 <1>  -0.1500 
 29 H       -0.6080    -1.5610     3.1350 H     1 <1>   0.1500 
 30 H       -2.6990    -1.7220     1.4490 H     1 <1>   0.1500 
 31 H       -3.8590     0.1050    -0.2950 H     1 <1>   0.0800 
 32 H       -2.6940    -0.4510    -1.4690 H     1 <1>   0.0800 
 33 H        0.1220     3.3320     1.1880 H     1 <1>   0.0800 
 34 H       -1.5400     3.4840     0.7410 H     1 <1>   0.0800 
 35 H        0.9600     0.9220    -1.5780 H     1 <1>   0.0800 
 36 H        1.6720     1.7530    -0.2330 H     1 <1>   0.0800 
 37 H       -3.0980     2.3910    -0.4760 H     1 <1>   0.0800 
 38 H       -3.2730     1.8060    -2.1130 H     1 <1>   0.0800 
 39 H       -0.1980     5.4260     0.0230 H     1 <1>   0.0800 
 40 H       -0.8800     4.6090    -1.3610 H     1 <1>   0.0800 
 41 H        0.6320     3.0630    -2.7460 H     1 <1>   0.0800 
 42 H        2.3020     2.8930    -2.2820 H     1 <1>   0.0800 
 43 H        0.5890     7.3720    -1.5200 H     1 <1>   0.1500 
 44 H        3.5960     5.3320     1.8000 H     1 <1>   0.0800 
 45 H        4.2720     6.8970     2.2250 H     1 <1>   0.0800 
 46 H        4.7980     6.0820     0.7620 H     1 <1>   0.0800 
 47 H        2.5120    10.8190     1.0450 H     1 <1>   0.1500 
 48 H       -0.8110     9.1220    -1.0010 H     1 <1>   0.1500 
 49 H        1.4380    13.0210     0.9570 H     1 <1>   0.1500 
 50 H       -1.8780    11.3130    -1.0950 H     1 <1>   0.1500 
 51 H       -0.7630    13.2770    -0.1170 H     1 <1>   0.1500 
@<TRIPOS>BOND
  1   1   2  1   
  2   1   3  1   
  3   2   4  2   
  4   2   5  1   
  5   3   6  2   
  6   3  29  1   
  7   4   6  1   
  8   4   7  1   
  9   5   8  1   
 10   5   9  1   
 11   5  10  1   
 12   6  30  1   
 13   7  11  1   
 14   7  31  1   
 15   7  32  1   
 16   8  11  1   
 17   9  12  1   
 18   9  33  1   
 19   9  34  1   
 20  10  13  1   
 21  10  35  1   
 22  10  36  1   
 23  11  37  1   
 24  11  38  1   
 25  12  14  1   
 26  12  39  1   
 27  12  40  1   
 28  13  14  1   
 29  13  41  1   
 30  13  42  1   
 31  14  15  am  
 32  15  16  2   
 33  15  17  1   
 34  17  18  1   
 35  17  19  2   
 36  18  20  1   
 37  18  21  1   
 38  19  22  1   
 39  19  43  1   
 40  20  22  2   
 41  21  44  1   
 42  21  45  1   
 43  21  46  1   
 44  22  23  1   
 45  23  24  ar  
 46  23  25  ar  
 47  24  26  ar  
 48  24  47  1   
 49  25  27  ar  
 50  25  48  1   
 51  26  28  ar  
 52  26  49  1   
 53  27  28  ar  
 54  27  50  1   
 55  28  51  1   
@<TRIPOS>SUBSTRUCTURE
  1 ****  12 GROUP 4 **** **** 0

# MOE 2024.06 (io_trps.svl 2023.06)
