@<TRIPOS>MOLECULE
NONAME
62 66 1 0 0 
SMALL
USER_CHARGES


@<TRIPOS>ATOM
  1 N       -0.5410    -0.4060     0.1700 N.ar  1 <1>  -0.6200 
  2 C        0.7780    -0.4920     0.0880 C.ar  1 <1>   0.7710 
  3 C       -1.2450    -1.5090     0.3440 C.ar  1 <1>   0.4100 
  4 N        1.4080    -1.6730     0.1920 N.ar  1 <1>  -0.1790 
  5 N        1.5170     0.6370    -0.1000 N.pl3 1 <1>  -0.8380 
  6 N       -2.6000    -1.3960     0.4130 N.pl3 1 <1>  -0.8380 
  7 C       -0.6100    -2.7610     0.4570 C.ar  1 <1>  -0.1500 
  8 C        0.7400    -2.8340     0.3790 C.ar  1 <1>   0.2180 
  9 C        2.9940     0.7270    -0.3240 C.3   1 <1>   0.2090 
 10 C        0.8950     2.0020    -0.0520 C.3   1 <1>   0.2090 
 11 C       -3.2950    -0.0790     0.6370 C.3   1 <1>   0.2090 
 12 C       -3.5480    -2.5400     0.2010 C.3   1 <1>   0.2090 
 13 C        1.5260    -4.1340     0.4950 C.3   1 <1>  -0.0170 
 14 C        3.6350     1.4640     0.8550 C.3   1 <1>  -0.1600 
 15 C        1.4930     2.7820     1.1230 C.3   1 <1>  -0.1600 
 16 C       -4.1370     0.3300    -0.5930 C.3   1 <1>   0.1440 
 17 C       -4.9360    -2.0760    -0.2770 C.3   1 <1>  -0.1600 
 18 C        2.2880    -4.4660    -0.7950 C.3   1 <1>  -0.2400 
 19 C        3.0250     2.8610     1.0370 C.3   1 <1>  -0.1600 
 20 C       -5.1280     1.3820    -0.1250 C.ar  1 <1>   0.1670 
 21 C       -4.8270    -0.8930    -1.2530 C.3   1 <1>  -0.1600 
 22 C       -3.2950     1.1200    -1.6300 C.3   1 <1>  -0.1600 
 23 N       -6.2060     1.1510     0.5930 N.ar  1 <1>  -0.6200 
 24 C       -4.7590     2.6320    -0.5210 C.ar  1 <1>  -0.1430 
 25 C       -3.4760     2.6140    -1.3130 C.3   1 <1>  -0.0170 
 26 C       -6.9110     2.2340     0.8870 C.ar  1 <1>   0.4770 
 27 C       -5.5620     3.6840    -0.1570 C.ar  1 <1>   0.1600 
 28 N       -6.6530     3.4920     0.5550 N.ar  1 <1>  -0.6200 
 29 C       -8.1570     2.0080     1.7080 C.3   1 <1>  -0.0970 
 30 H        2.4160    -1.6380     0.1400 H     1 <1>   0.4570 
 31 H       -1.2070    -3.6380     0.6160 H     1 <1>   0.1500 
 32 H        3.1780     1.2800    -1.2320 H     1 <1>   0.0800 
 33 H        3.4480    -0.2400    -0.4400 H     1 <1>   0.0800 
 34 H       -0.1740     1.9620     0.0630 H     1 <1>   0.0800 
 35 H        1.1010     2.5200    -0.9740 H     1 <1>   0.0800 
 36 H       -2.6010     0.7040     0.8840 H     1 <1>   0.0800 
 37 H       -3.9470    -0.1900     1.4860 H     1 <1>   0.0800 
 38 H       -3.6530    -3.0950     1.1180 H     1 <1>   0.0800 
 39 H       -3.1380    -3.1950    -0.5480 H     1 <1>   0.0800 
 40 H        0.8490    -4.9430     0.7120 H     1 <1>   0.0800 
 41 H        2.2170    -4.0680     1.3180 H     1 <1>   0.0800 
 42 H        4.6930     1.5590     0.6850 H     1 <1>   0.0800 
 43 H        3.4980     0.8900     1.7540 H     1 <1>   0.0800 
 44 H        1.2030     2.3010     2.0420 H     1 <1>   0.0800 
 45 H        1.0830     3.7760     1.1350 H     1 <1>   0.0800 
 46 H       -5.5290    -1.7850     0.5730 H     1 <1>   0.0800 
 47 H       -5.4410    -2.8980    -0.7510 H     1 <1>   0.0800 
 48 H        1.6080    -4.5370    -1.6270 H     1 <1>   0.0800 
 49 H        2.7840    -5.4160    -0.6900 H     1 <1>   0.0800 
 50 H        3.0330    -3.7240    -1.0180 H     1 <1>   0.0800 
 51 H        3.3010     3.4830     0.2020 H     1 <1>   0.0800 
 52 H        3.4170     3.3180     1.9300 H     1 <1>   0.0800 
 53 H       -4.2490    -1.2220    -2.0980 H     1 <1>   0.0800 
 54 H       -5.8040    -0.6170    -1.6110 H     1 <1>   0.0800 
 55 H       -3.6880     0.9470    -2.6160 H     1 <1>   0.0800 
 56 H       -2.2610     0.8270    -1.6220 H     1 <1>   0.0800 
 57 H       -3.5520     3.2040    -2.2110 H     1 <1>   0.0800 
 58 H       -2.6680     2.9760    -0.7020 H     1 <1>   0.0800 
 59 H       -5.3120     4.6900    -0.4480 H     1 <1>   0.1500 
 60 H       -8.5660     1.0380     1.4970 H     1 <1>   0.0800 
 61 H       -8.8930     2.7550     1.4750 H     1 <1>   0.0800 
 62 H       -7.9090     2.0690     2.7500 H     1 <1>   0.0800 
@<TRIPOS>BOND
  1   1   2  ar  
  2   1   3  ar  
  3   2   4  ar  
  4   2   5  1   
  5   3   6  1   
  6   3   7  ar  
  7   4   8  ar  
  8   4  30  1   
  9   5   9  1   
 10   5  10  1   
 11   6  11  1   
 12   6  12  1   
 13   7   8  ar  
 14   7  31  1   
 15   8  13  1   
 16   9  14  1   
 17   9  32  1   
 18   9  33  1   
 19  10  15  1   
 20  10  34  1   
 21  10  35  1   
 22  11  16  1   
 23  11  36  1   
 24  11  37  1   
 25  12  17  1   
 26  12  38  1   
 27  12  39  1   
 28  13  18  1   
 29  13  40  1   
 30  13  41  1   
 31  14  19  1   
 32  14  42  1   
 33  14  43  1   
 34  15  19  1   
 35  15  44  1   
 36  15  45  1   
 37  16  20  1   
 38  16  21  1   
 39  16  22  1   
 40  17  21  1   
 41  17  46  1   
 42  17  47  1   
 43  18  48  1   
 44  18  49  1   
 45  18  50  1   
 46  19  51  1   
 47  19  52  1   
 48  20  23  ar  
 49  20  24  ar  
 50  21  53  1   
 51  21  54  1   
 52  22  25  1   
 53  22  55  1   
 54  22  56  1   
 55  23  26  ar  
 56  24  25  1   
 57  24  27  ar  
 58  25  57  1   
 59  25  58  1   
 60  26  28  ar  
 61  26  29  1   
 62  27  28  ar  
 63  27  59  1   
 64  29  60  1   
 65  29  61  1   
 66  29  62  1   
@<TRIPOS>SUBSTRUCTURE
  1 ****  11 GROUP 4 **** **** 0

# MOE 2024.06 (io_trps.svl 2023.06)
