@<TRIPOS>MOLECULE
NONAME
25 25 1 0 0 
SMALL
USER_CHARGES


@<TRIPOS>ATOM
  1 O        0.1630    -0.5430    -0.9390 O.2   1 <1>  -0.5700 
  2 C       -0.1180    -1.5680    -0.3470 C.2   1 <1>   0.6340 
  3 O        0.8280    -2.1460     0.4050 O.3   1 <1>  -0.4300 
  4 C       -1.4350    -2.2010    -0.4000 C.ar  1 <1>   0.3960 
  5 C        2.1380    -1.6240     0.4990 C.3   1 <1>   0.0400 
  6 N       -1.4850    -3.5170    -0.5950 N.ar  1 <1>  -0.6200 
  7 C       -2.6190    -1.4780    -0.2590 C.ar  1 <1>  -0.1430 
  8 C       -2.6720    -4.0660    -0.6710 C.ar  1 <1>   0.4700 
  9 C       -3.8320    -2.1530    -0.3920 C.ar  1 <1>   0.3960 
 10 C       -2.5880     0.0280     0.0480 C.3   1 <1>  -0.0960 
 11 N       -3.8350    -3.4710    -0.5880 N.ar  1 <1>  -0.6200 
 12 C       -5.1220    -1.4690    -0.3310 C.2   1 <1>   0.6340 
 13 O       -5.3660    -0.4340    -0.9220 O.2   1 <1>  -0.5700 
 14 O       -6.0850    -2.0090     0.4270 O.3   1 <1>  -0.4300 
 15 C       -7.3730    -1.4350     0.5300 C.3   1 <1>   0.0400 
 16 H        2.7120    -2.2590     1.1490 H     1 <1>   0.0800 
 17 H        2.0880    -0.6270     0.9010 H     1 <1>   0.0800 
 18 H        2.5760    -1.6070    -0.4840 H     1 <1>   0.0800 
 19 H       -2.6930    -5.1330    -0.8250 H     1 <1>   0.1500 
 20 H       -1.7200     0.3010     0.6200 H     1 <1>   0.0800 
 21 H       -3.4410     0.3350     0.6260 H     1 <1>   0.0800 
 22 H       -2.5800     0.5880    -0.8720 H     1 <1>   0.0800 
 23 H       -7.9680    -2.0470     1.1840 H     1 <1>   0.0800 
 24 H       -7.8170    -1.4010    -0.4510 H     1 <1>   0.0800 
 25 H       -7.2810    -0.4410     0.9310 H     1 <1>   0.0800 
@<TRIPOS>BOND
  1   1   2  2   
  2   2   3  1   
  3   2   4  1   
  4   3   5  1   
  5   4   6  ar  
  6   4   7  ar  
  7   5  16  1   
  8   5  17  1   
  9   5  18  1   
 10   6   8  ar  
 11   7   9  ar  
 12   7  10  1   
 13   8  11  ar  
 14   8  19  1   
 15   9  11  ar  
 16   9  12  1   
 17  10  20  1   
 18  10  21  1   
 19  10  22  1   
 20  12  13  2   
 21  12  14  1   
 22  14  15  1   
 23  15  23  1   
 24  15  24  1   
 25  15  25  1   
@<TRIPOS>SUBSTRUCTURE
  1 ****   7 GROUP 4 **** **** 0

# MOE 2024.06 (io_trps.svl 2023.06)
