@<TRIPOS>MOLECULE
NONAME
66 70 1 0 0 
SMALL
USER_CHARGES


@<TRIPOS>ATOM
  1 O       -2.5560     2.1600     1.6410 O.2   1 <1>  -0.5700 
  2 C       -1.8360     1.7260     0.7730 C.2   1 <1>   0.5690 
  3 N       -1.1200     0.5970     0.9590 N.am  1 <1>  -0.7300 
  4 C       -1.7440     2.5470    -0.5300 C.3   1 <1>   0.0610 
  5 C       -1.1970    -0.2730     2.1500 C.3   1 <1>   0.3210 
  6 C       -0.7220     3.7180    -0.4750 C.3   1 <1>   0.4230 
  7 C       -2.9990     3.5830    -0.8210 C.3   1 <1>  -0.1600 
  8 C       -1.5510     1.6580    -1.7880 C.3   1 <1>  -0.0220 
  9 C       -1.7830    -1.6000     1.7290 C.2   1 <1>  -0.1810 
 10 N       -1.6390     4.4290     0.3070 N.4   1 <1>  -0.9590 
 11 C        0.1930     4.9470    -0.4630 C.3   1 <1>  -0.1600 
 12 C       -2.1020     4.8490    -0.9690 C.3   1 <1>   0.4230 
 13 C       -0.2270     0.8970    -1.8370 C.2   1 <1>  -0.2880 
 14 C       -3.0630    -1.7940     1.2250 C.2   1 <1>   0.1390 
 15 C       -1.2320    -2.8330     1.7400 C.2   1 <1>  -0.3020 
 16 C       -1.7060     4.9910     1.7570 C.3   1 <1>   0.4230 
 17 C       -1.0040     5.9450    -0.8500 C.3   1 <1>  -0.1600 
 18 C       -0.0360    -0.4270    -1.8230 C.2   1 <1>  -0.2760 
 19 N       -3.2910    -3.0370     0.9310 N.2   1 <1>  -0.7070 
 20 N       -2.1600    -3.6830     1.2580 N.pl3 1 <1>   0.3140 
 21 C       -2.2010     6.4340     1.9890 C.3   1 <1>  -0.0170 
 22 C       -0.4420     4.8400     2.6260 C.3   1 <1>  -0.0170 
 23 C        1.3600    -1.0270    -1.8990 C.3   1 <1>  -0.1020 
 24 C       -1.1070    -1.5110    -1.7560 C.3   1 <1>  -0.1020 
 25 C       -2.0300    -5.1330     1.0840 C.3   1 <1>   0.0160 
 26 C       -0.9330     7.1550     2.3800 C.ar  1 <1>  -0.1430 
 27 C        0.0510     6.2640     2.7380 C.ar  1 <1>  -0.1430 
 28 C       -0.6960     8.5170     2.4030 C.ar  1 <1>  -0.1500 
 29 C        1.3000     6.7070     3.1290 C.ar  1 <1>  -0.1500 
 30 C        0.5540     8.9710     2.7920 C.ar  1 <1>  -0.1500 
 31 C        1.5470     8.0710     3.1530 C.ar  1 <1>  -0.1500 
 32 H       -0.6370     0.1620     0.1570 H     1 <1>   0.3700 
 33 H       -0.2090    -0.4200     2.5520 H     1 <1>   0.0800 
 34 H       -1.8150     0.1720     2.9110 H     1 <1>   0.0800 
 35 H        0.0080     3.1680    -1.0400 H     1 <1>   0.0800 
 36 H       -3.7780     3.6400    -0.0690 H     1 <1>   0.0800 
 37 H       -3.4780     3.3680    -1.7610 H     1 <1>   0.0800 
 38 H       -2.3800     0.9770    -1.8510 H     1 <1>   0.0800 
 39 H       -1.5950     2.2670    -2.6750 H     1 <1>   0.0800 
 40 H       -2.2720     3.6890     0.6360 H     1 <1>   0.4500 
 41 H        0.7400     5.1920     0.4220 H     1 <1>   0.0800 
 42 H        0.8960     4.8900    -1.2760 H     1 <1>   0.0800 
 43 H       -2.5090     5.1690    -1.9170 H     1 <1>   0.0800 
 44 H        0.6230     1.5540    -1.9130 H     1 <1>   0.1500 
 45 H       -3.7900    -1.0110     1.0860 H     1 <1>   0.1500 
 46 H       -0.2550    -3.1510     2.0570 H     1 <1>   0.1500 
 47 H       -2.4450     4.3820     2.2520 H     1 <1>   0.0800 
 48 H       -0.8200     6.3450    -1.8320 H     1 <1>   0.0800 
 49 H       -1.1290     6.7930    -0.2140 H     1 <1>   0.0800 
 50 H       -2.7260     6.8660     1.1590 H     1 <1>   0.0800 
 51 H       -2.8570     6.4450     2.8420 H     1 <1>   0.0800 
 52 H       -0.7280     4.5110     3.6090 H     1 <1>   0.0800 
 53 H        0.2820     4.1510     2.2370 H     1 <1>   0.0800 
 54 H        1.4460    -1.6510    -2.7720 H     1 <1>   0.0800 
 55 H        1.5590    -1.6260    -1.0280 H     1 <1>   0.0800 
 56 H        2.1110    -0.2600    -1.9610 H     1 <1>   0.0800 
 57 H       -0.8760    -2.2150    -0.9780 H     1 <1>   0.0800 
 58 H       -1.1400    -2.0480    -2.6880 H     1 <1>   0.0800 
 59 H       -2.0880    -1.1250    -1.5610 H     1 <1>   0.0800 
 60 H       -1.0130    -5.4290     1.2530 H     1 <1>   0.0800 
 61 H       -2.3250    -5.3900     0.0830 H     1 <1>   0.0800 
 62 H       -2.6770    -5.6250     1.7850 H     1 <1>   0.0800 
 63 H       -1.4660     9.2170     2.1270 H     1 <1>   0.1500 
 64 H        2.0700     6.0120     3.4120 H     1 <1>   0.1500 
 65 H        0.7570    10.0280     2.8170 H     1 <1>   0.1500 
 66 H        2.5130     8.4350     3.4560 H     1 <1>   0.1500 
@<TRIPOS>BOND
  1   1   2  2   
  2   2   3  am  
  3   2   4  1   
  4   3   5  1   
  5   3  32  1   
  6   4   6  1   
  7   4   7  1   
  8   4   8  1   
  9   5   9  1   
 10   5  33  1   
 11   5  34  1   
 12   6  10  1   
 13   6  11  1   
 14   6  35  1   
 15   7  12  1   
 16   7  36  1   
 17   7  37  1   
 18   8  13  1   
 19   8  38  1   
 20   8  39  1   
 21   9  14  1   
 22   9  15  2   
 23  10  12  1   
 24  10  16  1   
 25  10  40  1   
 26  11  17  1   
 27  11  41  1   
 28  11  42  1   
 29  12  17  1   
 30  12  43  1   
 31  13  18  2   
 32  13  44  1   
 33  14  19  2   
 34  14  45  1   
 35  15  20  1   
 36  15  46  1   
 37  16  21  1   
 38  16  22  1   
 39  16  47  1   
 40  17  48  1   
 41  17  49  1   
 42  18  23  1   
 43  18  24  1   
 44  19  20  1   
 45  20  25  1   
 46  21  26  1   
 47  21  50  1   
 48  21  51  1   
 49  22  27  1   
 50  22  52  1   
 51  22  53  1   
 52  23  54  1   
 53  23  55  1   
 54  23  56  1   
 55  24  57  1   
 56  24  58  1   
 57  24  59  1   
 58  25  60  1   
 59  25  61  1   
 60  25  62  1   
 61  26  27  ar  
 62  26  28  ar  
 63  27  29  ar  
 64  28  30  ar  
 65  28  63  1   
 66  29  31  ar  
 67  29  64  1   
 68  30  31  ar  
 69  30  65  1   
 70  31  66  1   
@<TRIPOS>SUBSTRUCTURE
  1 ****   2 GROUP 4 **** **** 0

# MOE 2024.06 (io_trps.svl 2023.06)
