@<TRIPOS>MOLECULE
NONAME
46 48 1 0 0 
SMALL
USER_CHARGES


@<TRIPOS>ATOM
  1 F        2.8030     0.4170    -1.7960 F     1 <1>  -0.1900 
  2 C        2.8430    -0.0430    -0.5750 C.ar  1 <1>   0.1900 
  3 C        3.4130     0.7220     0.4500 C.ar  1 <1>   0.0860 
  4 C        2.2960    -1.2970    -0.3740 C.ar  1 <1>  -0.1500 
  5 C        4.0000     2.0410     0.2650 C.2   1 <1>   0.5440 
  6 C        3.3920     0.1360     1.7200 C.ar  1 <1>  -0.1500 
  7 C        2.2990    -1.8390     0.8970 C.ar  1 <1>  -0.1500 
  8 O        4.2090     2.7590     1.2240 O.2   1 <1>  -0.5700 
  9 N        4.3430     2.5270    -0.9670 N.am  1 <1>  -0.7300 
 10 C        2.8490    -1.1180     1.9430 C.ar  1 <1>  -0.1500 
 11 C        4.9900     3.8340    -1.2150 C.3   1 <1>   0.1400 
 12 C        3.9250     4.9240    -1.2860 C.3   1 <1>  -0.0990 
 13 C        4.5860     6.2750    -1.3820 C.2   1 <1>   0.5690 
 14 O        4.7610     6.7720    -2.4670 O.2   1 <1>  -0.5700 
 15 N        4.9910     6.8750    -0.2450 N.am  1 <1>  -0.7300 
 16 C        5.6600     8.1780    -0.1760 C.3   1 <1>   0.4950 
 17 C        7.1510     7.9590     0.0980 C.2   1 <1>   0.0070 
 18 C        4.9550     9.0050     0.9110 C.3   1 <1>  -0.1950 
 19 N        7.7010     7.9620     1.2760 N.2   1 <1>  -0.5650 
 20 N        8.0370     7.7200    -0.9050 N.pl3 1 <1>   0.0480 
 21 C        3.6290     9.6580     0.6680 C.3   1 <1>  -0.2000 
 22 C        4.8670    10.4970     0.8130 C.3   1 <1>  -0.2000 
 23 C        9.0000     7.7190     1.0320 C.2   1 <1>   0.0770 
 24 C        9.2230     7.5680    -0.2890 C.2   1 <1>  -0.3020 
 25 C        7.8060     7.6050    -2.3580 C.3   1 <1>   0.0160 
 26 H        1.8720    -1.8390    -1.2010 H     1 <1>   0.1500 
 27 H        3.8140     0.6780     2.5500 H     1 <1>   0.1500 
 28 H        1.8770    -2.8150     1.0740 H     1 <1>   0.1500 
 29 H        4.0860     1.9810    -1.7960 H     1 <1>   0.3700 
 30 H        2.8530    -1.5350     2.9360 H     1 <1>   0.1500 
 31 H        5.5490     3.7950    -2.1350 H     1 <1>   0.0800 
 32 H        5.6770     4.0460    -0.4110 H     1 <1>   0.0800 
 33 H        3.3130     4.8970    -0.4030 H     1 <1>   0.0800 
 34 H        3.3020     4.7740    -2.1470 H     1 <1>   0.0800 
 35 H        4.9370     6.3990     0.6570 H     1 <1>   0.3700 
 36 H        5.5430     8.6910    -1.1140 H     1 <1>   0.0800 
 37 H        5.1410     8.6080     1.8940 H     1 <1>   0.1000 
 38 H        2.9040     9.6590     1.4630 H     1 <1>   0.1000 
 39 H        3.1740     9.5660    -0.3040 H     1 <1>   0.1000 
 40 H        5.2640    10.9910    -0.0570 H     1 <1>   0.1000 
 41 H        5.0080    11.0730     1.7120 H     1 <1>   0.1000 
 42 H        9.7170     7.6640     1.8350 H     1 <1>   0.1500 
 43 H       10.1410     7.3640    -0.8090 H     1 <1>   0.1500 
 44 H        7.1180     8.3630    -2.6820 H     1 <1>   0.0800 
 45 H        7.3970     6.6350    -2.5750 H     1 <1>   0.0800 
 46 H        8.7370     7.7250    -2.8810 H     1 <1>   0.0800 
@<TRIPOS>BOND
  1   1   2  1   
  2   2   3  ar  
  3   2   4  ar  
  4   3   5  1   
  5   3   6  ar  
  6   4   7  ar  
  7   4  26  1   
  8   5   8  2   
  9   5   9  am  
 10   6  10  ar  
 11   6  27  1   
 12   7  10  ar  
 13   7  28  1   
 14   9  11  1   
 15   9  29  1   
 16  10  30  1   
 17  11  12  1   
 18  11  31  1   
 19  11  32  1   
 20  12  13  1   
 21  12  33  1   
 22  12  34  1   
 23  13  14  2   
 24  13  15  am  
 25  15  16  1   
 26  15  35  1   
 27  16  17  1   
 28  16  18  1   
 29  16  36  1   
 30  17  19  2   
 31  17  20  1   
 32  18  21  1   
 33  18  22  1   
 34  18  37  1   
 35  19  23  1   
 36  20  24  1   
 37  20  25  1   
 38  21  22  1   
 39  21  38  1   
 40  21  39  1   
 41  22  40  1   
 42  22  41  1   
 43  23  24  2   
 44  23  42  1   
 45  24  43  1   
 46  25  44  1   
 47  25  45  1   
 48  25  46  1   
@<TRIPOS>SUBSTRUCTURE
  1 ****  11 GROUP 4 **** **** 0

# MOE 2024.06 (io_trps.svl 2023.06)
