@<TRIPOS>MOLECULE
NONAME
44 45 1 0 0 
SMALL
USER_CHARGES


@<TRIPOS>ATOM
  1 CL      -1.5890    -1.1650     1.5430 Cl    1 <1>  -0.1770 
  2 C       -2.6790     0.0180     0.8560 C.ar  1 <1>   0.1770 
  3 C       -3.4860    -0.2870    -0.2430 C.ar  1 <1>   0.0860 
  4 C       -2.6900     1.2660     1.4500 C.ar  1 <1>  -0.1500 
  5 C       -3.5200    -1.5850    -0.8870 C.2   1 <1>   0.5440 
  6 C       -4.2980     0.7420    -0.7260 C.ar  1 <1>  -0.1500 
  7 C       -3.5130     2.2580     0.9520 C.ar  1 <1>  -0.1500 
  8 O       -3.6430    -1.6700    -2.0930 O.2   1 <1>  -0.5700 
  9 N       -3.4780    -2.7450    -0.1710 N.am  1 <1>  -0.7300 
 10 C       -4.3220     1.9980    -0.1410 C.ar  1 <1>  -0.1430 
 11 C       -3.3890    -4.1080    -0.7470 C.3   1 <1>   0.2200 
 12 C       -5.2210     3.0860    -0.6990 C.3   1 <1>  -0.0970 
 13 C       -4.7310    -4.8190    -0.6690 C.3   1 <1>  -0.0800 
 14 C       -2.5540    -4.9800     0.1790 C.3   1 <1>   0.1200 
 15 C       -4.7370    -5.3730     0.7610 C.3   1 <1>   0.1200 
 16 C       -5.9470    -3.9430    -1.0400 C.3   1 <1>  -0.0550 
 17 O       -3.4150    -5.3340     1.2180 O.3   1 <1>  -0.5600 
 18 S       -7.4930    -4.8420    -1.1750 S.o2  1 <1>   1.3330 
 19 O       -7.2540    -6.0260    -1.9700 O.2   1 <1>  -0.6500 
 20 O       -8.5470    -3.9280    -1.5520 O.2   1 <1>  -0.6500 
 21 N       -7.8170    -5.3470     0.4160 N.am  1 <1>  -0.8490 
 22 C       -8.6590    -6.5460     0.4530 C.3   1 <1>   0.1160 
 23 C       -8.4160    -4.2960     1.2470 C.3   1 <1>   0.1160 
 24 H       -2.0530     1.4610     2.2950 H     1 <1>   0.1500 
 25 H       -4.9200     0.5430    -1.5820 H     1 <1>   0.1500 
 26 H       -3.5200     3.2310     1.4140 H     1 <1>   0.1500 
 27 H       -3.3340    -2.7170     0.8430 H     1 <1>   0.3700 
 28 H       -2.9910    -4.0760    -1.7480 H     1 <1>   0.0800 
 29 H       -5.5940     3.7100     0.0940 H     1 <1>   0.0800 
 30 H       -6.0620     2.6570    -1.2140 H     1 <1>   0.0800 
 31 H       -4.6690     3.6970    -1.3900 H     1 <1>   0.0800 
 32 H       -4.6980    -5.6580    -1.3430 H     1 <1>   0.0800 
 33 H       -1.6950    -4.4680     0.5750 H     1 <1>   0.0800 
 34 H       -2.2480    -5.8840    -0.3190 H     1 <1>   0.0800 
 35 H       -5.0920    -6.3890     0.7950 H     1 <1>   0.0800 
 36 H       -5.3240    -4.7620     1.4240 H     1 <1>   0.0800 
 37 H       -5.7440    -3.4840    -1.9880 H     1 <1>   0.0800 
 38 H       -6.0570    -3.1530    -0.3240 H     1 <1>   0.0800 
 39 H       -8.8370    -6.8480     1.4700 H     1 <1>   0.0800 
 40 H       -8.1680    -7.3580    -0.0570 H     1 <1>   0.0800 
 41 H       -9.6030    -6.3550    -0.0320 H     1 <1>   0.0800 
 42 H       -8.5180    -4.6410     2.2620 H     1 <1>   0.0800 
 43 H       -9.3890    -4.0250     0.8700 H     1 <1>   0.0800 
 44 H       -7.7900    -3.4200     1.2480 H     1 <1>   0.0800 
@<TRIPOS>BOND
  1   1   2  1   
  2   2   3  ar  
  3   2   4  ar  
  4   3   5  1   
  5   3   6  ar  
  6   4   7  ar  
  7   4  24  1   
  8   5   8  2   
  9   5   9  am  
 10   6  10  ar  
 11   6  25  1   
 12   7  10  ar  
 13   7  26  1   
 14   9  11  1   
 15   9  27  1   
 16  10  12  1   
 17  11  13  1   
 18  11  14  1   
 19  11  28  1   
 20  12  29  1   
 21  12  30  1   
 22  12  31  1   
 23  13  15  1   
 24  13  16  1   
 25  13  32  1   
 26  14  17  1   
 27  14  33  1   
 28  14  34  1   
 29  15  17  1   
 30  15  35  1   
 31  15  36  1   
 32  16  18  1   
 33  16  37  1   
 34  16  38  1   
 35  18  19  2   
 36  18  20  2   
 37  18  21  am  
 38  21  22  1   
 39  21  23  1   
 40  22  39  1   
 41  22  40  1   
 42  22  41  1   
 43  23  42  1   
 44  23  43  1   
 45  23  44  1   
@<TRIPOS>SUBSTRUCTURE
  1 ****   9 GROUP 4 **** **** 0

# MOE 2024.06 (io_trps.svl 2023.06)
