@<TRIPOS>MOLECULE
NONAME
50 53 1 0 0 
SMALL
USER_CHARGES


@<TRIPOS>ATOM
  1 S       -1.6830    -0.2440     0.3240 S.3   1 <1>  -0.1120 
  2 C       -1.3190     0.7290    -1.1470 C.2   1 <1>   0.2420 
  3 C       -2.1470    -1.8830    -0.2570 C.2   1 <1>   0.1960 
  4 N       -1.6040     0.3780    -2.3520 N.2   1 <1>  -0.3380 
  5 N       -0.7280     1.9210    -1.0710 N.pl3 1 <1>   0.0480 
  6 O       -2.8810    -2.6130     0.5570 O.3   1 <1>  -0.2800 
  7 C       -1.8710    -2.5350    -1.4050 C.2   1 <1>  -0.1500 
  8 N       -1.1810     1.3760    -3.1340 N.2   1 <1>  -0.3380 
  9 C       -0.6700     2.2740    -2.3590 C.2   1 <1>   0.0360 
 10 C       -0.2590     2.6620     0.1150 C.3   1 <1>   0.0160 
 11 C       -3.1140    -3.7580    -0.0640 C.2   1 <1>  -0.0400 
 12 C       -2.5120    -3.7750    -1.2760 C.2   1 <1>  -0.1500 
 13 C       -3.9820    -4.8050     0.6200 C.3   1 <1>   0.5230 
 14 N       -5.3530    -4.2700     0.8810 N.4   1 <1>  -0.9590 
 15 C       -5.9900    -3.7420    -0.3740 C.3   1 <1>   0.3430 
 16 C       -5.3620    -3.2700     1.9860 C.3   1 <1>   0.3430 
 17 C       -7.4840    -3.4030    -0.1840 C.3   1 <1>   0.1400 
 18 C       -6.5520    -3.5290     2.9160 C.3   1 <1>  -0.1600 
 19 N       -8.0560    -4.0900     1.0190 N.am  1 <1>  -0.6600 
 20 C       -7.9300    -3.3050     2.2810 C.3   1 <1>   0.1400 
 21 C       -8.6010    -5.3690     1.0090 C.2   1 <1>   0.5440 
 22 O       -8.9680    -5.8240     2.0750 O.2   1 <1>  -0.5700 
 23 C       -8.7170    -6.2030    -0.1850 C.ar  1 <1>   0.3960 
 24 N       -7.7060    -6.2800    -1.0740 N.ar  1 <1>  -0.6200 
 25 C       -9.8990    -6.9330    -0.3600 C.ar  1 <1>   0.1600 
 26 C       -7.9740    -7.0900    -2.0870 C.ar  1 <1>   0.1600 
 27 N      -10.1630    -7.7330    -1.3800 N.ar  1 <1>  -0.6200 
 28 C       -9.1630    -7.7920    -2.2370 C.ar  1 <1>   0.1600 
 29 H       -1.2910    -2.2070    -2.2510 H     1 <1>   0.1500 
 30 H       -0.2450     3.2020    -2.6970 H     1 <1>   0.1500 
 31 H        0.4480     2.0590     0.6560 H     1 <1>   0.0800 
 32 H       -1.0970     2.8880     0.7490 H     1 <1>   0.0800 
 33 H        0.2140     3.5780    -0.1930 H     1 <1>   0.0800 
 34 H       -2.4960    -4.5460    -2.0290 H     1 <1>   0.1500 
 35 H       -3.5200    -5.1030     1.5460 H     1 <1>   0.0800 
 36 H       -4.0490    -5.6730    -0.0160 H     1 <1>   0.0800 
 37 H       -5.9660    -5.0370     1.1940 H     1 <1>   0.4500 
 38 H       -5.9180    -4.4920    -1.1460 H     1 <1>   0.0800 
 39 H       -5.4640    -2.8690    -0.7250 H     1 <1>   0.0800 
 40 H       -5.4040    -2.2700     1.5850 H     1 <1>   0.0800 
 41 H       -4.4520    -3.3550     2.5590 H     1 <1>   0.0800 
 42 H       -8.0320    -3.6750    -1.0690 H     1 <1>   0.0800 
 43 H       -7.5900    -2.3380    -0.0750 H     1 <1>   0.0800 
 44 H       -6.4690    -2.8650     3.7580 H     1 <1>   0.0800 
 45 H       -6.5000    -4.5290     3.3080 H     1 <1>   0.0800 
 46 H       -8.0790    -2.2590     2.0750 H     1 <1>   0.0800 
 47 H       -8.6980    -3.6010     2.9780 H     1 <1>   0.0800 
 48 H      -10.6620    -6.8410     0.3950 H     1 <1>   0.1500 
 49 H       -7.2180    -7.2110    -2.8440 H     1 <1>   0.1500 
 50 H       -9.2900    -8.4260    -3.0980 H     1 <1>   0.1500 
@<TRIPOS>BOND
  1   1   2  1   
  2   1   3  1   
  3   2   4  2   
  4   2   5  1   
  5   3   6  1   
  6   3   7  2   
  7   4   8  1   
  8   5   9  1   
  9   5  10  1   
 10   6  11  1   
 11   7  12  1   
 12   7  29  1   
 13   8   9  2   
 14   9  30  1   
 15  10  31  1   
 16  10  32  1   
 17  10  33  1   
 18  11  12  2   
 19  11  13  1   
 20  12  34  1   
 21  13  14  1   
 22  13  35  1   
 23  13  36  1   
 24  14  15  1   
 25  14  16  1   
 26  14  37  1   
 27  15  17  1   
 28  15  38  1   
 29  15  39  1   
 30  16  18  1   
 31  16  40  1   
 32  16  41  1   
 33  17  19  1   
 34  17  42  1   
 35  17  43  1   
 36  18  20  1   
 37  18  44  1   
 38  18  45  1   
 39  19  20  1   
 40  19  21  am  
 41  20  46  1   
 42  20  47  1   
 43  21  22  2   
 44  21  23  1   
 45  23  24  ar  
 46  23  25  ar  
 47  24  26  ar  
 48  25  27  ar  
 49  25  48  1   
 50  26  28  ar  
 51  26  49  1   
 52  27  28  ar  
 53  28  50  1   
@<TRIPOS>SUBSTRUCTURE
  1 ****  15 GROUP 4 **** **** 0

# MOE 2024.06 (io_trps.svl 2023.06)
