@<TRIPOS>MOLECULE
NONAME
42 44 1 0 0 
SMALL
USER_CHARGES


@<TRIPOS>ATOM
  1 CL      -2.2360     0.6750    -0.9300 Cl    1 <1>  -0.1770 
  2 C       -1.1920     2.0060    -0.4900 C.ar  1 <1>   0.1770 
  3 C       -1.5950     2.9010     0.4930 C.ar  1 <1>  -0.1440 
  4 C        0.0160     2.1420    -1.1470 C.ar  1 <1>  -0.1500 
  5 C       -0.7550     3.9590     0.8230 C.ar  1 <1>  -0.1500 
  6 C       -2.9270     2.7200     1.1980 C.3   1 <1>   0.4870 
  7 C        0.8320     3.2020    -0.8040 C.ar  1 <1>   0.1770 
  8 C        0.4600     4.1090     0.1720 C.ar  1 <1>  -0.1500 
  9 N       -4.0320     2.9630     0.2370 N.4   1 <1>  -0.9590 
 10 CL       2.3600     3.4010    -1.6180 Cl    1 <1>  -0.1770 
 11 C       -5.3480     2.5500     0.8180 C.3   1 <1>   0.3430 
 12 C       -4.0670     4.3690    -0.2590 C.3   1 <1>   0.3430 
 13 C       -6.4810     2.6410    -0.2280 C.3   1 <1>   0.0000 
 14 C       -5.1470     4.5100    -1.3330 C.3   1 <1>  -0.1600 
 15 C       -7.8210     2.2490     0.4200 C.3   1 <1>   0.2000 
 16 C       -6.5270     4.0640    -0.8210 C.3   1 <1>  -0.1600 
 17 C       -6.3120     1.5580    -1.3070 C.3   1 <1>  -0.1600 
 18 O       -7.8710     2.6540     1.7430 O.3   1 <1>  -0.6800 
 19 C       -7.9210     0.7240     0.3340 C.3   1 <1>  -0.1600 
 20 C       -6.8500     0.2750    -0.6700 C.3   1 <1>  -0.1600 
 21 H        0.3180     1.4440    -1.9060 H     1 <1>   0.1500 
 22 H       -1.0280     4.6700     1.5860 H     1 <1>   0.1500 
 23 H       -3.0020     3.4000     2.0310 H     1 <1>   0.0800 
 24 H       -2.9880     1.7120     1.5780 H     1 <1>   0.0800 
 25 H        1.1230     4.9220     0.4170 H     1 <1>   0.1500 
 26 H       -3.8580     2.3530    -0.5720 H     1 <1>   0.4500 
 27 H       -5.2940     1.5390     1.1870 H     1 <1>   0.0800 
 28 H       -5.5910     3.1930     1.6490 H     1 <1>   0.0800 
 29 H       -4.2840     5.0380     0.5580 H     1 <1>   0.0800 
 30 H       -3.1100     4.6400    -0.6770 H     1 <1>   0.0800 
 31 H       -5.2010     5.5410    -1.6390 H     1 <1>   0.0800 
 32 H       -4.8690     3.9360    -2.2000 H     1 <1>   0.0800 
 33 H       -8.6430     2.7030    -0.1110 H     1 <1>   0.0800 
 34 H       -7.2450     4.1140    -1.6220 H     1 <1>   0.0800 
 35 H       -6.8540     4.7500    -0.0560 H     1 <1>   0.0800 
 36 H       -6.9310     1.7970    -2.1570 H     1 <1>   0.0800 
 37 H       -5.3020     1.4350    -1.6540 H     1 <1>   0.0800 
 38 H       -8.7460     2.4390     2.1260 H     1 <1>   0.4000 
 39 H       -7.7490     0.2550     1.2880 H     1 <1>   0.0800 
 40 H       -8.8970     0.4460    -0.0240 H     1 <1>   0.0800 
 41 H       -6.0580    -0.2380    -0.1490 H     1 <1>   0.0800 
 42 H       -7.2570    -0.3910    -1.4120 H     1 <1>   0.0800 
@<TRIPOS>BOND
  1   1   2  1   
  2   2   3  ar  
  3   2   4  ar  
  4   3   5  ar  
  5   3   6  1   
  6   4   7  ar  
  7   4  21  1   
  8   5   8  ar  
  9   5  22  1   
 10   6   9  1   
 11   6  23  1   
 12   6  24  1   
 13   7   8  ar  
 14   7  10  1   
 15   8  25  1   
 16   9  11  1   
 17   9  12  1   
 18   9  26  1   
 19  11  13  1   
 20  11  27  1   
 21  11  28  1   
 22  12  14  1   
 23  12  29  1   
 24  12  30  1   
 25  13  15  1   
 26  13  16  1   
 27  13  17  1   
 28  14  16  1   
 29  14  31  1   
 30  14  32  1   
 31  15  18  1   
 32  15  19  1   
 33  15  33  1   
 34  16  34  1   
 35  16  35  1   
 36  17  20  1   
 37  17  36  1   
 38  17  37  1   
 39  18  38  1   
 40  19  20  1   
 41  19  39  1   
 42  19  40  1   
 43  20  41  1   
 44  20  42  1   
@<TRIPOS>SUBSTRUCTURE
  1 ****   9 GROUP 4 **** **** 0

# MOE 2024.06 (io_trps.svl 2023.06)
