@<TRIPOS>MOLECULE
NONAME
36 37 1 0 0 
SMALL
USER_CHARGES


@<TRIPOS>ATOM
  1 F        4.8230     0.1350     1.1740 F     1 <1>  -0.3400 
  2 C        4.6750     0.4740    -0.1070 C.3   1 <1>   0.2600 
  3 C        4.1210     1.9120    -0.1680 C.3   1 <1>   0.2200 
  4 C        3.6490    -0.5010    -0.6920 C.3   1 <1>   0.3430 
  5 N        5.0630     2.8680     0.4410 N.am  1 <1>  -0.7300 
  6 C        2.7520     2.0220     0.5180 C.3   1 <1>  -0.1600 
  7 N        2.3410    -0.3810     0.0380 N.4   1 <1>  -0.9060 
  8 C        6.1950     3.2400    -0.1910 C.2   1 <1>   0.7800 
  9 C        1.7590     0.9920    -0.0340 C.3   1 <1>   0.3430 
 10 O        6.3650     3.0280    -1.3750 O.2   1 <1>  -0.5700 
 11 O        7.1370     3.7780     0.5680 O.3   1 <1>  -0.4300 
 12 C        8.4600     3.8830     0.0900 C.3   1 <1>   0.2630 
 13 C        9.0940     2.4980     0.1180 C.ar  1 <1>  -0.1440 
 14 C        9.3450     1.8160    -1.0640 C.ar  1 <1>  -0.1500 
 15 C        9.4140     1.9010     1.3280 C.ar  1 <1>  -0.1500 
 16 C        9.9130     0.5540    -1.0360 C.ar  1 <1>  -0.1500 
 17 C        9.9790     0.6380     1.3570 C.ar  1 <1>  -0.1500 
 18 C       10.2300    -0.0360     0.1750 C.ar  1 <1>  -0.1500 
 19 H        5.6400     0.3860    -0.5770 H     1 <1>   0.0800 
 20 H        4.0020     2.1800    -1.2060 H     1 <1>   0.0800 
 21 H        4.0350    -1.5050    -0.6130 H     1 <1>   0.0800 
 22 H        3.5080    -0.2800    -1.7370 H     1 <1>   0.0800 
 23 H        5.0990     2.9110     1.4600 H     1 <1>   0.3700 
 24 H        2.8550     1.8780     1.5800 H     1 <1>   0.0800 
 25 H        2.3540     3.0090     0.3560 H     1 <1>   0.0800 
 26 H        1.6680    -1.0800    -0.3040 H     1 <1>   0.4500 
 27 H        2.5280    -0.6040     1.0290 H     1 <1>   0.4500 
 28 H        1.5270     1.2340    -1.0600 H     1 <1>   0.0800 
 29 H        0.8430     1.0360     0.5340 H     1 <1>   0.0800 
 30 H        8.4480     4.3010    -0.9020 H     1 <1>   0.0800 
 31 H        8.9930     4.5490     0.7440 H     1 <1>   0.0800 
 32 H        9.0940     2.2650    -2.0100 H     1 <1>   0.1500 
 33 H        9.2200     2.4180     2.2520 H     1 <1>   0.1500 
 34 H       10.1080     0.0330    -1.9570 H     1 <1>   0.1500 
 35 H       10.2260     0.1810     2.2990 H     1 <1>   0.1500 
 36 H       10.6710    -1.0170     0.1970 H     1 <1>   0.1500 
@<TRIPOS>BOND
  1   1   2  1   
  2   2   3  1   
  3   2   4  1   
  4   2  19  1   
  5   3   5  1   
  6   3   6  1   
  7   3  20  1   
  8   4   7  1   
  9   4  21  1   
 10   4  22  1   
 11   5   8  am  
 12   5  23  1   
 13   6   9  1   
 14   6  24  1   
 15   6  25  1   
 16   7   9  1   
 17   7  26  1   
 18   7  27  1   
 19   8  10  2   
 20   8  11  1   
 21   9  28  1   
 22   9  29  1   
 23  11  12  1   
 24  12  13  1   
 25  12  30  1   
 26  12  31  1   
 27  13  14  ar  
 28  13  15  ar  
 29  14  16  ar  
 30  14  32  1   
 31  15  17  ar  
 32  15  33  1   
 33  16  18  ar  
 34  16  34  1   
 35  17  18  ar  
 36  17  35  1   
 37  18  36  1   
@<TRIPOS>SUBSTRUCTURE
  1 ****   8 GROUP 4 **** **** 0

# MOE 2024.06 (io_trps.svl 2023.06)
