@<TRIPOS>MOLECULE
NONAME
52 54 1 0 0 
SMALL
USER_CHARGES


@<TRIPOS>ATOM
  1 O       -0.4960     0.5460    -1.7880 O.co2 1 <1>  -0.9000 
  2 C       -0.5730     0.9020    -0.6080 C.2   1 <1>   0.9060 
  3 O       -0.8740     0.0980     0.2880 O.co2 1 <1>  -0.9000 
  4 C       -0.3030     2.3590    -0.2170 C.3   1 <1>  -0.1060 
  5 C       -1.5140     2.7810     0.6520 C.3   1 <1>   0.2000 
  6 C       -0.2840     3.2150    -1.5100 C.3   1 <1>   0.1400 
  7 C        1.0880     2.3460     0.4920 C.3   1 <1>  -0.0650 
  8 O       -1.4500     2.1800     1.8910 O.3   1 <1>  -0.6800 
  9 C       -1.7140     4.2850     0.8440 C.3   1 <1>  -0.1600 
 10 N       -0.4970     4.6790    -1.2550 N.am  1 <1>  -0.6600 
 11 C        1.6160     3.6290     1.1510 C.3   1 <1>  -0.1950 
 12 C       -1.7490     4.9760    -0.5130 C.3   1 <1>   0.1400 
 13 C        0.3390     5.6240    -1.8060 C.2   1 <1>   0.5690 
 14 C        2.4540     4.6290     0.4200 C.3   1 <1>  -0.2000 
 15 C        3.0800     3.7310     1.4440 C.3   1 <1>  -0.2000 
 16 O        1.0850     5.3500    -2.7190 O.2   1 <1>  -0.5700 
 17 C        0.3200     7.0690    -1.2980 C.3   1 <1>   0.1810 
 18 O        1.6250     7.6140    -1.1830 O.3   1 <1>  -0.3630 
 19 C        1.8290     8.8340    -0.6280 C.ar  1 <1>   0.0820 
 20 C        3.1410     9.1850    -0.3600 C.ar  1 <1>  -0.1500 
 21 C        0.8090     9.7270    -0.3200 C.ar  1 <1>  -0.1500 
 22 C        3.4530    10.4070     0.2150 C.ar  1 <1>  -0.1430 
 23 C        1.1140    10.9480     0.2540 C.ar  1 <1>  -0.1500 
 24 C        2.4290    11.2970     0.5260 C.ar  1 <1>  -0.1430 
 25 C        4.9110    10.7410     0.4900 C.3   1 <1>  -0.0970 
 26 C        2.7190    12.6510     1.1590 C.3   1 <1>  -0.0970 
 27 H       -2.4040     2.3970     0.1790 H     1 <1>   0.0800 
 28 H       -1.0710     2.8850    -2.1670 H     1 <1>   0.0800 
 29 H        0.6450     3.0510    -2.0300 H     1 <1>   0.0800 
 30 H        1.0620     1.5950     1.2630 H     1 <1>   0.0800 
 31 H        1.8160     2.0070    -0.2250 H     1 <1>   0.0800 
 32 H       -1.2690     1.2170     1.6960 H     1 <1>   0.4000 
 33 H       -2.6490     4.4500     1.3480 H     1 <1>   0.0800 
 34 H       -0.9350     4.7130     1.4400 H     1 <1>   0.0800 
 35 H        0.9910     3.9530     1.9620 H     1 <1>   0.1000 
 36 H       -1.8980     6.0310    -0.3840 H     1 <1>   0.0800 
 37 H       -2.5810     4.5970    -1.0830 H     1 <1>   0.0800 
 38 H        2.6750     4.4600    -0.6200 H     1 <1>   0.1000 
 39 H        2.3300     5.6720     0.6490 H     1 <1>   0.1000 
 40 H        3.3900     4.1540     2.3830 H     1 <1>   0.1000 
 41 H        3.7380     2.9490     1.1050 H     1 <1>   0.1000 
 42 H       -0.1190     7.1080    -0.3210 H     1 <1>   0.0800 
 43 H       -0.2360     7.6760    -1.9860 H     1 <1>   0.0800 
 44 H        3.9150     8.4820    -0.6090 H     1 <1>   0.1500 
 45 H       -0.2180     9.4960    -0.5210 H     1 <1>   0.1500 
 46 H        0.3170    11.6300     0.4880 H     1 <1>   0.1500 
 47 H        5.5550     9.9380     0.1800 H     1 <1>   0.0800 
 48 H        5.0590    10.9050     1.5420 H     1 <1>   0.0800 
 49 H        5.1940    11.6270    -0.0480 H     1 <1>   0.0800 
 50 H        1.8120    13.2000     1.3320 H     1 <1>   0.0800 
 51 H        3.3460    13.2330     0.5080 H     1 <1>   0.0800 
 52 H        3.2180    12.5180     2.1010 H     1 <1>   0.0800 
@<TRIPOS>BOND
  1   1   2  ar  
  2   2   3  ar  
  3   2   4  1   
  4   4   5  1   
  5   4   6  1   
  6   4   7  1   
  7   5   8  1   
  8   5   9  1   
  9   5  27  1   
 10   6  10  1   
 11   6  28  1   
 12   6  29  1   
 13   7  11  1   
 14   7  30  1   
 15   7  31  1   
 16   8  32  1   
 17   9  12  1   
 18   9  33  1   
 19   9  34  1   
 20  10  12  1   
 21  10  13  am  
 22  11  14  1   
 23  11  15  1   
 24  11  35  1   
 25  12  36  1   
 26  12  37  1   
 27  13  16  2   
 28  13  17  1   
 29  14  15  1   
 30  14  38  1   
 31  14  39  1   
 32  15  40  1   
 33  15  41  1   
 34  17  18  1   
 35  17  42  1   
 36  17  43  1   
 37  18  19  1   
 38  19  20  ar  
 39  19  21  ar  
 40  20  22  ar  
 41  20  44  1   
 42  21  23  ar  
 43  21  45  1   
 44  22  24  ar  
 45  22  25  1   
 46  23  24  ar  
 47  23  46  1   
 48  24  26  1   
 49  25  47  1   
 50  25  48  1   
 51  25  49  1   
 52  26  50  1   
 53  26  51  1   
 54  26  52  1   
@<TRIPOS>SUBSTRUCTURE
  1 ****  13 GROUP 4 **** **** 0

# MOE 2024.06 (io_trps.svl 2023.06)
