@<TRIPOS>MOLECULE
NONAME
50 52 1 0 0 
SMALL
USER_CHARGES


@<TRIPOS>ATOM
  1 S       -0.0020     0.2140    -1.1600 S.o2  1 <1>   1.0900 
  2 O       -1.3800     0.5730    -1.4070 O.2   1 <1>  -0.6500 
  3 O        0.5300    -1.0230    -1.6840 O.2   1 <1>  -0.6500 
  4 C        0.2630     0.2350     0.6020 C.3   1 <1>  -0.0550 
  5 C        1.0460     1.5350    -1.7400 C.3   1 <1>  -0.0550 
  6 C        1.6930     0.6580     0.9050 C.3   1 <1>   0.1100 
  7 C        1.2150     2.5950    -0.6600 C.3   1 <1>   0.1100 
  8 N        1.9270     2.0680     0.5310 N.3   1 <1>  -0.8100 
  9 C        3.3670     2.3930     0.5520 C.3   1 <1>   0.2530 
 10 C        3.6060     3.8990     0.5760 C.ar  1 <1>  -0.1430 
 11 C        4.4790     4.4900    -0.3240 C.ar  1 <1>  -0.1500 
 12 C        2.9560     4.7000     1.5000 C.ar  1 <1>  -0.1500 
 13 C        4.6980     5.8560    -0.2940 C.ar  1 <1>  -0.1500 
 14 C        3.1780     6.0650     1.5260 C.ar  1 <1>  -0.1500 
 15 C        4.0590     6.6790     0.6360 C.ar  1 <1>   0.0860 
 16 C        4.2920     8.1130     0.6870 C.2   1 <1>   0.5440 
 17 O        3.4260     8.8730     1.0750 O.2   1 <1>  -0.5700 
 18 N        5.4930     8.6420     0.3050 N.am  1 <1>  -0.7300 
 19 C        5.8390    10.0850     0.3770 C.3   1 <1>   0.1400 
 20 C        5.2700    10.8330    -0.8310 C.3   1 <1>   0.1400 
 21 N        5.5280    12.2860    -0.7050 N.am  1 <1>  -0.6600 
 22 C        6.7360    12.8790    -0.8280 C.2   1 <1>   0.6900 
 23 C        4.5580    13.1990    -0.0590 C.3   1 <1>   0.1400 
 24 O        7.7590    12.3220    -1.1690 O.2   1 <1>  -0.5700 
 25 N        6.6840    14.1590    -0.4340 N.am  1 <1>  -0.7300 
 26 C        5.3700    14.4910     0.1500 C.3   1 <1>   0.1400 
 27 H        0.0780    -0.7420     1.0060 H     1 <1>   0.0800 
 28 H       -0.4090     0.9240     1.0770 H     1 <1>   0.0800 
 29 H        0.6130     1.9770    -2.6160 H     1 <1>   0.0800 
 30 H        2.0130     1.1550    -2.0050 H     1 <1>   0.0800 
 31 H        2.3720     0.0140     0.3690 H     1 <1>   0.0800 
 32 H        1.8840     0.5430     1.9590 H     1 <1>   0.0800 
 33 H        0.2410     2.9400    -0.3530 H     1 <1>   0.0800 
 34 H        1.7320     3.4470    -1.0690 H     1 <1>   0.0800 
 35 H        3.8480     1.9520    -0.3050 H     1 <1>   0.0800 
 36 H        3.8140     1.9730     1.4370 H     1 <1>   0.0800 
 37 H        4.9930     3.8890    -1.0550 H     1 <1>   0.1500 
 38 H        2.2690     4.2550     2.2000 H     1 <1>   0.1500 
 39 H        5.3710     6.2910    -1.0110 H     1 <1>   0.1500 
 40 H        2.6610     6.6740     2.2480 H     1 <1>   0.1500 
 41 H        6.2610     8.0170     0.0560 H     1 <1>   0.3700 
 42 H        6.9090    10.1970     0.4030 H     1 <1>   0.0800 
 43 H        5.4240    10.4990     1.2800 H     1 <1>   0.0800 
 44 H        4.2100    10.6650    -0.9000 H     1 <1>   0.0800 
 45 H        5.7420    10.4740    -1.7290 H     1 <1>   0.0800 
 46 H        4.2220    12.7950     0.8800 H     1 <1>   0.0800 
 47 H        3.7170    13.3700    -0.7080 H     1 <1>   0.0800 
 48 H        7.5450    14.6580    -0.2150 H     1 <1>   0.3700 
 49 H        5.4670    14.7200     1.1970 H     1 <1>   0.0800 
 50 H        4.9220    15.3200    -0.3710 H     1 <1>   0.0800 
@<TRIPOS>BOND
  1   1   2  2   
  2   1   3  2   
  3   1   4  1   
  4   1   5  1   
  5   4   6  1   
  6   4  27  1   
  7   4  28  1   
  8   5   7  1   
  9   5  29  1   
 10   5  30  1   
 11   6   8  1   
 12   6  31  1   
 13   6  32  1   
 14   7   8  1   
 15   7  33  1   
 16   7  34  1   
 17   8   9  1   
 18   9  10  1   
 19   9  35  1   
 20   9  36  1   
 21  10  11  ar  
 22  10  12  ar  
 23  11  13  ar  
 24  11  37  1   
 25  12  14  ar  
 26  12  38  1   
 27  13  15  ar  
 28  13  39  1   
 29  14  15  ar  
 30  14  40  1   
 31  15  16  1   
 32  16  17  2   
 33  16  18  am  
 34  18  19  1   
 35  18  41  1   
 36  19  20  1   
 37  19  42  1   
 38  19  43  1   
 39  20  21  1   
 40  20  44  1   
 41  20  45  1   
 42  21  22  am  
 43  21  23  1   
 44  22  24  2   
 45  22  25  am  
 46  23  26  1   
 47  23  46  1   
 48  23  47  1   
 49  25  26  1   
 50  25  48  1   
 51  26  49  1   
 52  26  50  1   
@<TRIPOS>SUBSTRUCTURE
  1 ****  15 GROUP 4 **** **** 0

# MOE 2024.06 (io_trps.svl 2023.06)
