@<TRIPOS>MOLECULE
NONAME
51 53 1 0 0 
SMALL
USER_CHARGES


@<TRIPOS>ATOM
  1 F       -1.1480    -0.6710     0.4540 F     1 <1>  -0.1900 
  2 C       -2.3410    -0.1420     0.3610 C.ar  1 <1>   0.1900 
  3 C       -2.5400     1.2420     0.3230 C.ar  1 <1>   0.0830 
  4 C       -3.4020    -1.0250     0.3040 C.ar  1 <1>  -0.1500 
  5 O       -1.5810     2.2110     0.3710 O.3   1 <1>  -0.3630 
  6 C       -3.8430     1.7020     0.2250 C.ar  1 <1>  -0.1500 
  7 C       -4.6900    -0.5320     0.2090 C.ar  1 <1>  -0.1500 
  8 C       -0.2010     1.9260     0.4260 C.3   1 <1>   0.0400 
  9 C       -4.9430     0.8420     0.1640 C.ar  1 <1>   0.0530 
 10 C       -6.2840     1.3700     0.0650 C.2   1 <1>   0.0870 
 11 O       -6.5490     2.5860     0.4730 O.3   1 <1>  -0.0190 
 12 C       -7.4550     0.8480    -0.3840 C.2   1 <1>  -0.0860 
 13 N       -7.8060     2.9130     0.3280 N.2   1 <1>  -0.4100 
 14 C       -8.3750     1.8840    -0.1970 C.2   1 <1>   0.3720 
 15 C       -7.7390    -0.4410    -0.9240 C.2   1 <1>   0.7160 
 16 N       -9.7360     1.8300    -0.5370 N.pl3 1 <1>  -0.8210 
 17 O       -7.2860    -0.7590    -2.0080 O.2   1 <1>  -0.5700 
 18 N       -8.4770    -1.3630    -0.2220 N.am  1 <1>  -0.6600 
 19 C      -10.6080     2.8280     0.1460 C.3   1 <1>   0.1290 
 20 C       -9.9930     1.7830    -2.0030 C.3   1 <1>   0.1290 
 21 C       -8.7440    -2.7380    -0.7000 C.3   1 <1>   0.1400 
 22 C       -9.1530    -1.1020     1.0670 C.3   1 <1>   0.1400 
 23 C       -9.8900    -3.2310     0.1790 C.3   1 <1>  -0.0190 
 24 C       -9.7110    -2.4570     1.4910 C.3   1 <1>  -0.1600 
 25 C       -9.8920    -4.7420     0.3500 C.2   1 <1>   0.5690 
 26 O       -8.8760    -5.3030     0.6850 O.2   1 <1>  -0.5700 
 27 N      -11.0480    -5.4220     0.1230 N.am  1 <1>  -0.7300 
 28 C      -11.2100    -6.8930     0.2490 C.3   1 <1>   0.0600 
 29 H       -3.2200    -2.0840     0.3350 H     1 <1>   0.1500 
 30 H       -4.0020     2.7650     0.1930 H     1 <1>   0.1500 
 31 H       -5.5040    -1.2330     0.1710 H     1 <1>   0.1500 
 32 H        0.3330     2.8590     0.4320 H     1 <1>   0.0800 
 33 H        0.0740     1.3540    -0.4420 H     1 <1>   0.0800 
 34 H        0.0090     1.3820     1.3300 H     1 <1>   0.0800 
 35 H      -10.4090     2.8220     1.2040 H     1 <1>   0.0800 
 36 H      -11.6430     2.5820    -0.0120 H     1 <1>   0.0800 
 37 H      -10.4120     3.8150    -0.2370 H     1 <1>   0.0800 
 38 H       -9.3870     1.0250    -2.4690 H     1 <1>   0.0800 
 39 H       -9.7570     2.7340    -2.4470 H     1 <1>   0.0800 
 40 H      -11.0270     1.5520    -2.1870 H     1 <1>   0.0800 
 41 H       -7.8590    -3.3350    -0.5530 H     1 <1>   0.0800 
 42 H       -9.0110    -2.7430    -1.7430 H     1 <1>   0.0800 
 43 H       -9.9540    -0.4000     0.9110 H     1 <1>   0.0800 
 44 H       -8.4640    -0.7110     1.7960 H     1 <1>   0.0800 
 45 H      -10.8100    -2.9230    -0.2820 H     1 <1>   0.0800 
 46 H      -10.6300    -2.3600     2.0390 H     1 <1>   0.0800 
 47 H       -8.9840    -2.9520     2.1130 H     1 <1>   0.0800 
 48 H      -11.8880    -4.9070    -0.1480 H     1 <1>   0.3700 
 49 H      -10.2790    -7.3500     0.5370 H     1 <1>   0.0800 
 50 H      -11.5220    -7.3080    -0.6940 H     1 <1>   0.0800 
 51 H      -11.9500    -7.1150     0.9980 H     1 <1>   0.0800 
@<TRIPOS>BOND
  1   1   2  1   
  2   2   3  ar  
  3   2   4  ar  
  4   3   5  1   
  5   3   6  ar  
  6   4   7  ar  
  7   4  29  1   
  8   5   8  1   
  9   6   9  ar  
 10   6  30  1   
 11   7   9  ar  
 12   7  31  1   
 13   8  32  1   
 14   8  33  1   
 15   8  34  1   
 16   9  10  1   
 17  10  11  1   
 18  10  12  2   
 19  11  13  1   
 20  12  14  1   
 21  12  15  1   
 22  13  14  2   
 23  14  16  1   
 24  15  17  2   
 25  15  18  am  
 26  16  19  1   
 27  16  20  1   
 28  18  21  1   
 29  18  22  1   
 30  19  35  1   
 31  19  36  1   
 32  19  37  1   
 33  20  38  1   
 34  20  39  1   
 35  20  40  1   
 36  21  23  1   
 37  21  41  1   
 38  21  42  1   
 39  22  24  1   
 40  22  43  1   
 41  22  44  1   
 42  23  24  1   
 43  23  25  1   
 44  23  45  1   
 45  24  46  1   
 46  24  47  1   
 47  25  26  2   
 48  25  27  am  
 49  27  28  1   
 50  27  48  1   
 51  28  49  1   
 52  28  50  1   
 53  28  51  1   
@<TRIPOS>SUBSTRUCTURE
  1 ****  15 GROUP 4 **** **** 0

# MOE 2024.06 (io_trps.svl 2023.06)
