@<TRIPOS>MOLECULE
NONAME
52 55 1 0 0 
SMALL
USER_CHARGES


@<TRIPOS>ATOM
  1 O        0.6300     0.1060    -1.9630 O.2   1 <1>  -0.5700 
  2 C        1.3110    -0.3400    -1.0700 C.2   1 <1>   0.5690 
  3 N        1.9880     0.4790    -0.1960 N.am  1 <1>  -0.6600 
  4 C        1.3830    -1.8520    -0.9570 C.3   1 <1>  -0.0990 
  5 C        2.8310    -0.0060     0.9400 C.3   1 <1>   0.1400 
  6 C        1.8880     1.9620    -0.3380 C.3   1 <1>   0.1400 
  7 C        0.3260    -2.3980     0.0150 C.3   1 <1>   0.0630 
  8 C        4.3000    -0.1680     0.5180 C.3   1 <1>   0.1100 
  9 C        3.2010     2.7060    -0.0570 C.3   1 <1>  -0.1600 
 10 C        0.4050    -3.9000     0.1890 C.ar  1 <1>  -0.1440 
 11 C       -1.1190    -2.1780    -0.4810 C.3   1 <1>  -0.1600 
 12 N        5.0240     1.1130     0.4010 N.3   1 <1>  -0.8100 
 13 C        4.4500     2.0180    -0.6130 C.3   1 <1>   0.1100 
 14 C       -0.8440    -4.4690     0.1300 C.ar  1 <1>  -0.1440 
 15 C        1.5240    -4.6890     0.3970 C.ar  1 <1>  -0.1500 
 16 C       -1.9160    -3.4310    -0.0880 C.3   1 <1>  -0.0170 
 17 C        6.4730     0.8830     0.1660 C.3   1 <1>   0.2900 
 18 C       -1.0110    -5.8340     0.2680 C.ar  1 <1>  -0.1500 
 19 C        1.3670    -6.0590     0.5360 C.ar  1 <1>  -0.1500 
 20 C        7.3820     2.0970     0.3860 C.2   1 <1>   0.2980 
 21 C        0.1050    -6.6300     0.4710 C.ar  1 <1>  -0.1500 
 22 O        8.6240     2.0090     0.0290 O.3   1 <1>  -0.2800 
 23 N        7.1110     3.2430     0.8920 N.2   1 <1>  -0.3380 
 24 C        9.1160     3.1640     0.3370 C.2   1 <1>   0.2980 
 25 N        8.2470     3.9410     0.8570 N.2   1 <1>  -0.3380 
 26 C       10.5730     3.4610     0.0700 C.3   1 <1>  -0.0600 
 27 H        2.3650    -2.1470    -0.6480 H     1 <1>   0.0800 
 28 H        1.2220    -2.2780    -1.9310 H     1 <1>   0.0800 
 29 H        2.4640    -0.9540     1.2870 H     1 <1>   0.0800 
 30 H        2.7660     0.6760     1.7700 H     1 <1>   0.0800 
 31 H        1.1220     2.3260     0.3230 H     1 <1>   0.0800 
 32 H        1.5840     2.2000    -1.3440 H     1 <1>   0.0800 
 33 H        0.4360    -1.9460     0.9840 H     1 <1>   0.0800 
 34 H        4.3520    -0.7090    -0.4110 H     1 <1>   0.0800 
 35 H        4.7860    -0.7600     1.2750 H     1 <1>   0.0800 
 36 H        3.3200     2.8750     0.9990 H     1 <1>   0.0800 
 37 H        3.1200     3.6750    -0.5130 H     1 <1>   0.0800 
 38 H       -1.1260    -2.0980    -1.5540 H     1 <1>   0.0800 
 39 H       -1.5490    -1.2820    -0.0690 H     1 <1>   0.0800 
 40 H        5.1610     2.7910    -0.8490 H     1 <1>   0.0800 
 41 H        4.2260     1.4860    -1.5230 H     1 <1>   0.0800 
 42 H        2.5040    -4.2530     0.4530 H     1 <1>   0.1500 
 43 H       -2.6000    -3.7240    -0.8650 H     1 <1>   0.0800 
 44 H       -2.4510    -3.2690     0.8310 H     1 <1>   0.0800 
 45 H        6.6150     0.5280    -0.8400 H     1 <1>   0.0800 
 46 H        6.8180     0.1150     0.8350 H     1 <1>   0.0800 
 47 H       -1.9930    -6.2710     0.2190 H     1 <1>   0.1500 
 48 H        2.2280    -6.6840     0.6960 H     1 <1>   0.1500 
 49 H       -0.0100    -7.6940     0.5790 H     1 <1>   0.1500 
 50 H       11.1880     2.7680     0.6120 H     1 <1>   0.0800 
 51 H       10.8050     4.4610     0.3870 H     1 <1>   0.0800 
 52 H       10.7740     3.3690    -0.9810 H     1 <1>   0.0800 
@<TRIPOS>BOND
  1   1   2  2   
  2   2   3  am  
  3   2   4  1   
  4   3   5  1   
  5   3   6  1   
  6   4   7  1   
  7   4  27  1   
  8   4  28  1   
  9   5   8  1   
 10   5  29  1   
 11   5  30  1   
 12   6   9  1   
 13   6  31  1   
 14   6  32  1   
 15   7  10  1   
 16   7  11  1   
 17   7  33  1   
 18   8  12  1   
 19   8  34  1   
 20   8  35  1   
 21   9  13  1   
 22   9  36  1   
 23   9  37  1   
 24  10  14  ar  
 25  10  15  ar  
 26  11  16  1   
 27  11  38  1   
 28  11  39  1   
 29  12  13  1   
 30  12  17  1   
 31  13  40  1   
 32  13  41  1   
 33  14  16  1   
 34  14  18  ar  
 35  15  19  ar  
 36  15  42  1   
 37  16  43  1   
 38  16  44  1   
 39  17  20  1   
 40  17  45  1   
 41  17  46  1   
 42  18  21  ar  
 43  18  47  1   
 44  19  21  ar  
 45  19  48  1   
 46  20  22  1   
 47  20  23  2   
 48  21  49  1   
 49  22  24  1   
 50  23  25  1   
 51  24  25  2   
 52  24  26  1   
 53  26  50  1   
 54  26  51  1   
 55  26  52  1   
@<TRIPOS>SUBSTRUCTURE
  1 ****   5 GROUP 4 **** **** 0

# MOE 2024.06 (io_trps.svl 2023.06)
