@<TRIPOS>MOLECULE
NONAME
45 48 1 0 0 
SMALL
USER_CHARGES


@<TRIPOS>ATOM
  1 S       -1.6150     1.2010     0.5220 S.3   1 <1>  -0.0800 
  2 C       -0.6290     2.6060     0.1760 C.2   1 <1>  -0.1400 
  3 C       -0.2640     0.4290     1.3370 C.2   1 <1>  -0.1100 
  4 C        0.6180     2.4690     0.6420 C.2   1 <1>  -0.1810 
  5 C       -1.1650     3.8040    -0.5590 C.3   1 <1>   0.0200 
  6 C        0.8290     1.2180     1.3160 C.2   1 <1>  -0.1500 
  7 C        1.6560     3.5690     0.4330 C.3   1 <1>   0.4610 
  8 C       -0.2000     4.9700    -0.2920 C.3   1 <1>   0.1200 
  9 O        1.1470     4.5680    -0.4360 O.3   1 <1>  -0.5600 
 10 C        2.0760     4.2270     1.7580 C.3   1 <1>  -0.1600 
 11 C        2.8980     3.0140    -0.2670 C.3   1 <1>  -0.1600 
 12 C        3.4020     4.9920     1.6750 C.3   1 <1>   0.3430 
 13 C        3.9100     4.1130    -0.6080 C.3   1 <1>   0.3430 
 14 N        3.7210     5.3110     0.2590 N.4   1 <1>  -0.9590 
 15 C        4.7470     6.3750     0.0970 C.3   1 <1>   0.5230 
 16 C        4.1300     7.7170     0.4630 C.2   1 <1>   0.0070 
 17 N        2.8670     7.9220     0.6260 N.2   1 <1>  -0.5650 
 18 N        4.8350     8.8440     0.6470 N.pl3 1 <1>   0.3140 
 19 C        2.8430     9.2290     0.9200 C.2   1 <1>   0.3660 
 20 N        3.9910     9.8160     0.9480 N.2   1 <1>  -0.7070 
 21 C        6.2930     9.0940     0.5600 C.3   1 <1>   0.0960 
 22 C        6.7650     9.1670    -0.8980 C.3   1 <1>  -0.2400 
 23 H       -0.4360    -0.5480     1.7510 H     1 <1>   0.1500 
 24 H       -2.1480     4.0560    -0.2040 H     1 <1>   0.0800 
 25 H       -1.2200     3.5960    -1.6130 H     1 <1>   0.0800 
 26 H        1.7770     0.9580     1.7520 H     1 <1>   0.1500 
 27 H       -0.3430     5.3480     0.7050 H     1 <1>   0.0800 
 28 H       -0.3840     5.7690    -0.9900 H     1 <1>   0.0800 
 29 H        2.1890     3.4670     2.5090 H     1 <1>   0.0800 
 30 H        1.3000     4.8810     2.1090 H     1 <1>   0.0800 
 31 H        2.6050     2.5010    -1.1660 H     1 <1>   0.0800 
 32 H        3.3710     2.2870     0.3670 H     1 <1>   0.0800 
 33 H        4.1930     4.3910     2.0950 H     1 <1>   0.0800 
 34 H        3.3210     5.9000     2.2530 H     1 <1>   0.0800 
 35 H        3.7680     4.4040    -1.6370 H     1 <1>   0.0800 
 36 H        4.9100     3.7230    -0.5020 H     1 <1>   0.0800 
 37 H        2.8440     5.7630    -0.0790 H     1 <1>   0.4500 
 38 H        5.0700     6.4160    -0.9310 H     1 <1>   0.0800 
 39 H        5.5990     6.1690     0.7220 H     1 <1>   0.0800 
 40 H        1.9130     9.7410     1.1180 H     1 <1>   0.1500 
 41 H        6.8170     8.3210     1.0910 H     1 <1>   0.0800 
 42 H        6.4990    10.0320     1.0490 H     1 <1>   0.0800 
 43 H        6.6070     8.2370    -1.4120 H     1 <1>   0.0800 
 44 H        7.8160     9.3960    -0.9260 H     1 <1>   0.0800 
 45 H        6.2410     9.9540    -1.4150 H     1 <1>   0.0800 
@<TRIPOS>BOND
  1   1   2  1   
  2   1   3  1   
  3   2   4  2   
  4   2   5  1   
  5   3   6  2   
  6   3  23  1   
  7   4   6  1   
  8   4   7  1   
  9   5   8  1   
 10   5  24  1   
 11   5  25  1   
 12   6  26  1   
 13   7   9  1   
 14   7  10  1   
 15   7  11  1   
 16   8   9  1   
 17   8  27  1   
 18   8  28  1   
 19  10  12  1   
 20  10  29  1   
 21  10  30  1   
 22  11  13  1   
 23  11  31  1   
 24  11  32  1   
 25  12  14  1   
 26  12  33  1   
 27  12  34  1   
 28  13  14  1   
 29  13  35  1   
 30  13  36  1   
 31  14  15  1   
 32  14  37  1   
 33  15  16  1   
 34  15  38  1   
 35  15  39  1   
 36  16  17  2   
 37  16  18  1   
 38  17  19  1   
 39  18  20  1   
 40  18  21  1   
 41  19  20  2   
 42  19  40  1   
 43  21  22  1   
 44  21  41  1   
 45  21  42  1   
 46  22  43  1   
 47  22  44  1   
 48  22  45  1   
@<TRIPOS>SUBSTRUCTURE
  1 ****  14 GROUP 4 **** **** 0

# MOE 2024.06 (io_trps.svl 2023.06)
