@<TRIPOS>MOLECULE
NONAME
54 57 1 0 0 
SMALL
USER_CHARGES


@<TRIPOS>ATOM
  1 O       -1.3190    -6.9070     0.8320 O.2   1 <1>  -0.5700 
  2 C       -0.1840    -6.5220     0.7210 C.2   1 <1>   0.5690 
  3 N        0.8600    -7.3760     0.7620 N.am  1 <1>  -0.7300 
  4 C        0.1240    -5.0500     0.5460 C.3   1 <1>  -0.0990 
  5 C        2.2660    -6.9420     0.6350 C.3   1 <1>   0.1400 
  6 C        1.2130    -4.8430    -0.5260 C.3   1 <1>  -0.0800 
  7 C        2.3800    -5.8620    -0.4590 C.3   1 <1>  -0.0800 
  8 C        1.8500    -3.4470    -0.4780 C.3   1 <1>  -0.1600 
  9 C        3.6640    -5.0310    -0.3420 C.3   1 <1>  -0.1600 
 10 C        3.2930    -3.6740    -0.9260 C.3   1 <1>   0.2200 
 11 N        4.2540    -2.6030    -0.5250 N.am  1 <1>  -0.6600 
 12 C        5.2680    -2.2380    -1.3910 C.2   1 <1>   0.5440 
 13 C        4.1830    -2.0680     0.8700 C.3   1 <1>   0.0600 
 14 O        5.5140    -2.9490    -2.3480 O.2   1 <1>  -0.5700 
 15 C        6.0580    -1.0380    -1.1840 C.ar  1 <1>   0.0860 
 16 C        5.4620     0.2050    -0.9730 C.ar  1 <1>  -0.1500 
 17 C        7.4510    -1.0900    -1.1890 C.ar  1 <1>  -0.1500 
 18 C        6.2210     1.3400    -0.7580 C.ar  1 <1>  -0.1500 
 19 C        8.2160     0.0420    -0.9740 C.ar  1 <1>  -0.1500 
 20 C        7.6050     1.2670    -0.7550 C.ar  1 <1>  -0.1440 
 21 C        8.4340     2.5200    -0.5190 C.3   1 <1>   0.2630 
 22 O        8.1490     3.0160     0.7690 O.3   1 <1>  -0.3630 
 23 C        8.7400     4.1430     1.2370 C.ar  1 <1>   0.0820 
 24 C        9.6510     4.9040     0.5070 C.ar  1 <1>  -0.1500 
 25 C        8.3990     4.5360     2.5210 C.ar  1 <1>  -0.1500 
 26 C       10.2060     6.0420     1.0660 C.ar  1 <1>  -0.1500 
 27 C        8.9540     5.6740     3.0780 C.ar  1 <1>  -0.1500 
 28 C        9.8590     6.4280     2.3500 C.ar  1 <1>  -0.1500 
 29 H        0.6570    -8.3670     0.9090 H     1 <1>   0.3700 
 30 H       -0.7720    -4.5260     0.2710 H     1 <1>   0.0800 
 31 H        0.4550    -4.6780     1.4980 H     1 <1>   0.0800 
 32 H        2.5850    -6.5460     1.5850 H     1 <1>   0.0800 
 33 H        2.8900    -7.7830     0.3880 H     1 <1>   0.0800 
 34 H        0.7460    -4.9660    -1.4900 H     1 <1>   0.0800 
 35 H        2.4100    -6.3720    -1.4080 H     1 <1>   0.0800 
 36 H        1.8150    -3.0750     0.5280 H     1 <1>   0.0800 
 37 H        1.3440    -2.7590    -1.1320 H     1 <1>   0.0800 
 38 H        4.4770    -5.4750    -0.8890 H     1 <1>   0.0800 
 39 H        3.9430    -4.9210     0.6900 H     1 <1>   0.0800 
 40 H        3.2860    -3.7650    -2.0010 H     1 <1>   0.0800 
 41 H        3.9430    -2.8540     1.5620 H     1 <1>   0.0800 
 42 H        3.4260    -1.3060     0.9270 H     1 <1>   0.0800 
 43 H        5.1280    -1.6440     1.1640 H     1 <1>   0.0800 
 44 H        4.3890     0.2760    -0.9810 H     1 <1>   0.1500 
 45 H        7.9300    -2.0370    -1.3650 H     1 <1>   0.1500 
 46 H        5.7350     2.2860    -0.5880 H     1 <1>   0.1500 
 47 H        9.2890    -0.0380    -0.9780 H     1 <1>   0.1500 
 48 H        8.1770     3.2750    -1.2400 H     1 <1>   0.0800 
 49 H        9.4860     2.3010    -0.5710 H     1 <1>   0.0800 
 50 H        9.9410     4.6320    -0.4900 H     1 <1>   0.1500 
 51 H        7.6960     3.9450     3.0790 H     1 <1>   0.1500 
 52 H       10.9090     6.6310     0.5030 H     1 <1>   0.1500 
 53 H        8.6830     5.9720     4.0750 H     1 <1>   0.1500 
 54 H       10.2920     7.3140     2.7820 H     1 <1>   0.1500 
@<TRIPOS>BOND
  1   1   2  2   
  2   2   3  am  
  3   2   4  1   
  4   3   5  1   
  5   3  29  1   
  6   4   6  1   
  7   4  30  1   
  8   4  31  1   
  9   5   7  1   
 10   5  32  1   
 11   5  33  1   
 12   6   7  1   
 13   6   8  1   
 14   6  34  1   
 15   7   9  1   
 16   7  35  1   
 17   8  10  1   
 18   8  36  1   
 19   8  37  1   
 20   9  10  1   
 21   9  38  1   
 22   9  39  1   
 23  10  11  1   
 24  10  40  1   
 25  11  12  am  
 26  11  13  1   
 27  12  14  2   
 28  12  15  1   
 29  13  41  1   
 30  13  42  1   
 31  13  43  1   
 32  15  16  ar  
 33  15  17  ar  
 34  16  18  ar  
 35  16  44  1   
 36  17  19  ar  
 37  17  45  1   
 38  18  20  ar  
 39  18  46  1   
 40  19  20  ar  
 41  19  47  1   
 42  20  21  1   
 43  21  22  1   
 44  21  48  1   
 45  21  49  1   
 46  22  23  1   
 47  23  24  ar  
 48  23  25  ar  
 49  24  26  ar  
 50  24  50  1   
 51  25  27  ar  
 52  25  51  1   
 53  26  28  ar  
 54  26  52  1   
 55  27  28  ar  
 56  27  53  1   
 57  28  54  1   
@<TRIPOS>SUBSTRUCTURE
  1 ****  15 GROUP 4 **** **** 0

# MOE 2024.06 (io_trps.svl 2023.06)
