@<TRIPOS>MOLECULE
NONAME
53 57 1 0 0 
SMALL
USER_CHARGES


@<TRIPOS>ATOM
  1 O        0.1490     1.2520    -1.8860 O.2   1 <1>  -0.5700 
  2 C       -0.3560     1.8610    -0.9620 C.2   1 <1>   0.5440 
  3 N       -1.6620     1.5770    -0.6080 N.am  1 <1>  -0.6600 
  4 C        0.4160     2.8850    -0.2870 C.ar  1 <1>   0.0860 
  5 C       -2.5180     2.4900     0.2150 C.3   1 <1>   0.1400 
  6 C       -2.4130     0.4390    -1.2110 C.3   1 <1>   0.1400 
  7 C        0.5550     2.9130     1.0930 C.ar  1 <1>  -0.1500 
  8 C        1.0490     3.8980    -1.0380 C.ar  1 <1>  -0.1500 
  9 C       -3.6740     3.0680    -0.6210 C.3   1 <1>   0.1440 
 10 C       -3.5720     0.9710    -2.0650 C.3   1 <1>  -0.1600 
 11 C        1.2730     3.9390     1.7080 C.ar  1 <1>  -0.1520 
 12 C        1.7630     4.9090    -0.4400 C.ar  1 <1>  -0.1500 
 13 C       -4.5160     3.9410     0.2910 C.ar  1 <1>   0.1660 
 14 C       -4.4820     1.9200    -1.2650 C.3   1 <1>  -0.1600 
 15 C       -3.1630     4.0870    -1.6750 C.3   1 <1>  -0.1600 
 16 N        1.5300     4.1870     3.0330 N.pl3 1 <1>   0.0330 
 17 C        1.8750     4.9400     0.9530 C.ar  1 <1>   0.0000 
 18 N       -5.3350     3.5050     1.2140 N.ar  1 <1>  -0.6200 
 19 C       -4.2970     5.2640     0.0560 C.ar  1 <1>  -0.1430 
 20 C       -3.2880     5.4830    -1.0430 C.3   1 <1>  -0.0170 
 21 C        2.2790     5.3250     3.1140 C.2   1 <1>  -0.3020 
 22 C        2.5060     5.8070     1.8680 C.2   1 <1>  -0.1500 
 23 C       -5.9630     4.4530     1.9160 C.ar  1 <1>   0.7200 
 24 C       -4.9850     6.1680     0.8240 C.ar  1 <1>   0.1600 
 25 N       -5.8210     5.7740     1.7550 N.ar  1 <1>  -0.6200 
 26 N       -6.8420     4.0280     2.8950 N.pl3 1 <1>  -0.8380 
 27 C       -7.6610     4.9940     3.6800 C.3   1 <1>   0.1290 
 28 C       -7.2710     2.6030     2.9810 C.3   1 <1>   0.1290 
 29 H       -1.9470     3.3030     0.6210 H     1 <1>   0.0800 
 30 H       -2.9250     1.9320     1.0410 H     1 <1>   0.0800 
 31 H       -2.7980    -0.1810    -0.4200 H     1 <1>   0.0800 
 32 H       -1.7640    -0.1690    -1.8190 H     1 <1>   0.0800 
 33 H        0.1050     2.1420     1.6920 H     1 <1>   0.1500 
 34 H        0.9620     3.8580    -2.1100 H     1 <1>   0.1500 
 35 H       -4.1500     0.1400    -2.4290 H     1 <1>   0.0800 
 36 H       -3.1630     1.4800    -2.9200 H     1 <1>   0.0800 
 37 H        2.2430     5.6770    -1.0200 H     1 <1>   0.1500 
 38 H       -5.2540     2.3190    -1.8980 H     1 <1>   0.0800 
 39 H       -4.9660     1.3570    -0.4850 H     1 <1>   0.0800 
 40 H       -3.8030     4.0560    -2.5390 H     1 <1>   0.0800 
 41 H       -2.1570     3.8840    -1.9980 H     1 <1>   0.0800 
 42 H        1.2110     3.6100     3.8180 H     1 <1>   0.2700 
 43 H       -3.6260     6.2140    -1.7580 H     1 <1>   0.0800 
 44 H       -2.3490     5.7930    -0.6170 H     1 <1>   0.0800 
 45 H        2.6080     5.7270     4.0570 H     1 <1>   0.1500 
 46 H        3.0600     6.6840     1.5850 H     1 <1>   0.1500 
 47 H       -4.8470     7.2250     0.6760 H     1 <1>   0.1500 
 48 H       -7.0730     5.8580     3.9400 H     1 <1>   0.0800 
 49 H       -8.0080     4.5390     4.5910 H     1 <1>   0.0800 
 50 H       -8.5060     5.3100     3.0940 H     1 <1>   0.0800 
 51 H       -6.4120     1.9560     2.9410 H     1 <1>   0.0800 
 52 H       -7.9210     2.3740     2.1540 H     1 <1>   0.0800 
 53 H       -7.7920     2.4190     3.9030 H     1 <1>   0.0800 
@<TRIPOS>BOND
  1   1   2  2   
  2   2   3  am  
  3   2   4  1   
  4   3   5  1   
  5   3   6  1   
  6   4   7  ar  
  7   4   8  ar  
  8   5   9  1   
  9   5  29  1   
 10   5  30  1   
 11   6  10  1   
 12   6  31  1   
 13   6  32  1   
 14   7  11  ar  
 15   7  33  1   
 16   8  12  ar  
 17   8  34  1   
 18   9  13  1   
 19   9  14  1   
 20   9  15  1   
 21  10  14  1   
 22  10  35  1   
 23  10  36  1   
 24  11  16  1   
 25  11  17  ar  
 26  12  17  ar  
 27  12  37  1   
 28  13  18  ar  
 29  13  19  ar  
 30  14  38  1   
 31  14  39  1   
 32  15  20  1   
 33  15  40  1   
 34  15  41  1   
 35  16  21  1   
 36  16  42  1   
 37  17  22  1   
 38  18  23  ar  
 39  19  20  1   
 40  19  24  ar  
 41  20  43  1   
 42  20  44  1   
 43  21  22  2   
 44  21  45  1   
 45  22  46  1   
 46  23  25  ar  
 47  23  26  1   
 48  24  25  ar  
 49  24  47  1   
 50  26  27  1   
 51  26  28  1   
 52  27  48  1   
 53  27  49  1   
 54  27  50  1   
 55  28  51  1   
 56  28  52  1   
 57  28  53  1   
@<TRIPOS>SUBSTRUCTURE
  1 ****   5 GROUP 4 **** **** 0

# MOE 2024.06 (io_trps.svl 2023.06)
