@<TRIPOS>MOLECULE
NONAME
50 54 1 0 0 
SMALL
USER_CHARGES


@<TRIPOS>ATOM
  1 O       -0.5600     0.4040    -0.8660 O.2   1 <1>  -0.5700 
  2 C       -1.6010     0.8980    -0.4770 C.2   1 <1>   0.7160 
  3 N       -2.7440     0.1270    -0.4780 N.am  1 <1>  -0.6600 
  4 C       -1.6180     2.2580    -0.0030 C.2   1 <1>  -0.0860 
  5 C       -3.9260     0.4600     0.3740 C.3   1 <1>   0.1400 
  6 C       -2.7630    -1.1780    -1.2020 C.3   1 <1>   0.1400 
  7 C       -2.3940     3.3160    -0.3220 C.2   1 <1>  -0.0400 
  8 C       -0.7850     2.8160     0.9530 C.2   1 <1>   0.1080 
  9 C       -4.5480    -0.8260     0.9090 C.3   1 <1>  -0.1600 
 10 C       -4.1990    -1.6090    -1.5030 C.3   1 <1>  -0.1600 
 11 O       -2.0910     4.3830     0.3770 O.3   1 <1>  -0.0190 
 12 C       -3.5030     3.4310    -1.3500 C.3   1 <1>  -0.0600 
 13 N       -1.0900     4.0410     1.1570 N.2   1 <1>  -0.4100 
 14 C        0.3380     2.0960     1.6700 C.3   1 <1>  -0.0590 
 15 C       -5.0780    -1.6970    -0.2420 C.3   1 <1>   0.4600 
 16 O       -6.3350    -1.1910    -0.6340 O.3   1 <1>  -0.5600 
 17 C       -5.2260    -3.1490     0.2030 C.2   1 <1>  -0.3320 
 18 C       -7.4800    -1.5930     0.0830 C.3   1 <1>   0.1200 
 19 N       -4.2140    -3.9980     0.5580 N.pl3 1 <1>   0.0330 
 20 C       -6.4020    -3.7980     0.2970 C.2   1 <1>  -0.1810 
 21 C       -7.7040    -3.1100    -0.0250 C.3   1 <1>   0.0210 
 22 C       -4.7710    -5.2120     0.8780 C.ar  1 <1>  -0.1520 
 23 C       -6.1510    -5.1200     0.7200 C.ar  1 <1>   0.0000 
 24 C       -4.1770    -6.4050     1.2980 C.ar  1 <1>  -0.1500 
 25 C       -6.9550    -6.2330     0.9830 C.ar  1 <1>  -0.1500 
 26 C       -4.9800    -7.4930     1.5540 C.ar  1 <1>  -0.1500 
 27 C       -6.3690    -7.4080     1.3960 C.ar  1 <1>  -0.1500 
 28 H       -4.6540     0.9940    -0.2130 H     1 <1>   0.0800 
 29 H       -3.6270     1.0830     1.2000 H     1 <1>   0.0800 
 30 H       -2.2720    -1.9200    -0.5980 H     1 <1>   0.0800 
 31 H       -2.2150    -1.0840    -2.1250 H     1 <1>   0.0800 
 32 H       -5.3350    -0.5980     1.6010 H     1 <1>   0.0800 
 33 H       -3.7940    -1.3600     1.4580 H     1 <1>   0.0800 
 34 H       -4.1890    -2.5590    -2.0050 H     1 <1>   0.0800 
 35 H       -4.6160    -0.8920    -2.1880 H     1 <1>   0.0800 
 36 H       -3.6090     2.5150    -1.9020 H     1 <1>   0.0800 
 37 H       -3.2750     4.2230    -2.0390 H     1 <1>   0.0800 
 38 H       -4.4330     3.6560    -0.8590 H     1 <1>   0.0800 
 39 H       -0.0430     1.2230     2.1660 H     1 <1>   0.0800 
 40 H        0.7870     2.7460     2.3990 H     1 <1>   0.0800 
 41 H        1.0880     1.7980     0.9610 H     1 <1>   0.0800 
 42 H       -8.3240    -1.0640    -0.3230 H     1 <1>   0.0800 
 43 H       -7.3590    -1.3100     1.1130 H     1 <1>   0.0800 
 44 H       -3.2120    -3.7890     0.5860 H     1 <1>   0.2700 
 45 H       -8.0170    -3.3670    -1.0200 H     1 <1>   0.0800 
 46 H       -8.4670    -3.4150     0.6680 H     1 <1>   0.0800 
 47 H       -3.1110    -6.4640     1.4170 H     1 <1>   0.1500 
 48 H       -8.0180    -6.1530     0.8560 H     1 <1>   0.1500 
 49 H       -4.5470    -8.4230     1.8790 H     1 <1>   0.1500 
 50 H       -6.9740    -8.2730     1.6030 H     1 <1>   0.1500 
@<TRIPOS>BOND
  1   1   2  2   
  2   2   3  am  
  3   2   4  1   
  4   3   5  1   
  5   3   6  1   
  6   4   7  2   
  7   4   8  1   
  8   5   9  1   
  9   5  28  1   
 10   5  29  1   
 11   6  10  1   
 12   6  30  1   
 13   6  31  1   
 14   7  11  1   
 15   7  12  1   
 16   8  13  2   
 17   8  14  1   
 18   9  15  1   
 19   9  32  1   
 20   9  33  1   
 21  10  15  1   
 22  10  34  1   
 23  10  35  1   
 24  11  13  1   
 25  12  36  1   
 26  12  37  1   
 27  12  38  1   
 28  14  39  1   
 29  14  40  1   
 30  14  41  1   
 31  15  16  1   
 32  15  17  1   
 33  16  18  1   
 34  17  19  1   
 35  17  20  2   
 36  18  21  1   
 37  18  42  1   
 38  18  43  1   
 39  19  22  1   
 40  19  44  1   
 41  20  21  1   
 42  20  23  1   
 43  21  45  1   
 44  21  46  1   
 45  22  23  ar  
 46  22  24  ar  
 47  23  25  ar  
 48  24  26  ar  
 49  24  47  1   
 50  25  27  ar  
 51  25  48  1   
 52  26  27  ar  
 53  26  49  1   
 54  27  50  1   
@<TRIPOS>SUBSTRUCTURE
  1 ****   9 GROUP 4 **** **** 0

# MOE 2024.06 (io_trps.svl 2023.06)
