@<TRIPOS>MOLECULE
NONAME
41 42 1 0 0 
SMALL
USER_CHARGES


@<TRIPOS>ATOM
  1 O       -2.5630    -0.0940    -2.2750 O.2   1 <1>  -0.5700 
  2 C       -2.9800     0.2820    -1.1950 C.2   1 <1>   0.5440 
  3 N       -2.9250     1.6310    -0.8940 N.am  1 <1>  -0.6600 
  4 C       -3.5330    -0.6950    -0.2850 C.ar  1 <1>   0.0860 
  5 C       -2.1070     2.5690    -1.7120 C.3   1 <1>   0.0600 
  6 C       -3.8170     2.2960     0.0950 C.3   1 <1>   0.0600 
  7 C       -4.3450    -1.7160    -0.7710 C.ar  1 <1>   0.1600 
  8 C       -3.2880    -0.6900     1.0850 C.ar  1 <1>  -0.1500 
  9 N       -4.9250    -2.6610    -0.0510 N.ar  1 <1>  -0.6200 
 10 C       -3.8780    -1.6660     1.8510 C.ar  1 <1>  -0.1500 
 11 C       -4.6880    -2.6290     1.2560 C.ar  1 <1>   0.4100 
 12 N       -5.2810    -3.5900     2.0330 N.pl3 1 <1>  -0.8690 
 13 C       -5.9240    -4.8120     1.4850 C.3   1 <1>   0.2090 
 14 C       -7.3830    -4.5250     1.1360 C.3   1 <1>   0.0200 
 15 C       -7.9400    -5.6440     0.2760 C.2   1 <1>   0.0070 
 16 N       -8.6080    -6.6430     0.7410 N.2   1 <1>  -0.3380 
 17 N       -7.7940    -5.7240    -1.0520 N.pl3 1 <1>   0.0480 
 18 N       -8.9230    -7.4200    -0.2970 N.2   1 <1>  -0.3380 
 19 C       -8.4330    -6.8570    -1.3450 C.2   1 <1>   0.0360 
 20 C       -7.0940    -4.8180    -1.9900 C.3   1 <1>   0.0960 
 21 C       -8.0310    -3.7090    -2.4790 C.3   1 <1>  -0.2400 
 22 H       -1.3530     2.0320    -2.2620 H     1 <1>   0.0800 
 23 H       -1.6190     3.2840    -1.0740 H     1 <1>   0.0800 
 24 H       -2.7410     3.0870    -2.4110 H     1 <1>   0.0800 
 25 H       -4.6030     1.6320     0.4110 H     1 <1>   0.0800 
 26 H       -4.2710     3.1640    -0.3510 H     1 <1>   0.0800 
 27 H       -3.2450     2.6010     0.9530 H     1 <1>   0.0800 
 28 H       -4.5210    -1.7390    -1.8330 H     1 <1>   0.1500 
 29 H       -2.6490     0.0580     1.5210 H     1 <1>   0.1500 
 30 H       -3.7210    -1.6980     2.9120 H     1 <1>   0.1500 
 31 H       -5.0190    -3.6420     3.0190 H     1 <1>   0.4000 
 32 H       -5.8730    -5.6100     2.2060 H     1 <1>   0.0800 
 33 H       -5.3910    -5.1280     0.6040 H     1 <1>   0.0800 
 34 H       -7.4620    -3.5930     0.6090 H     1 <1>   0.0800 
 35 H       -7.9570    -4.4510     2.0420 H     1 <1>   0.0800 
 36 H       -8.5200    -7.2420    -2.3440 H     1 <1>   0.1500 
 37 H       -6.7400    -5.3940    -2.8270 H     1 <1>   0.0800 
 38 H       -6.2420    -4.3900    -1.4950 H     1 <1>   0.0800 
 39 H       -8.8790    -4.1300    -2.9890 H     1 <1>   0.0800 
 40 H       -7.5050    -3.0670    -3.1620 H     1 <1>   0.0800 
 41 H       -8.3720    -3.1140    -1.6510 H     1 <1>   0.0800 
@<TRIPOS>BOND
  1   1   2  2   
  2   2   3  am  
  3   2   4  1   
  4   3   5  1   
  5   3   6  1   
  6   4   7  ar  
  7   4   8  ar  
  8   5  22  1   
  9   5  23  1   
 10   5  24  1   
 11   6  25  1   
 12   6  26  1   
 13   6  27  1   
 14   7   9  ar  
 15   7  28  1   
 16   8  10  ar  
 17   8  29  1   
 18   9  11  ar  
 19  10  11  ar  
 20  10  30  1   
 21  11  12  1   
 22  12  13  1   
 23  12  31  1   
 24  13  14  1   
 25  13  32  1   
 26  13  33  1   
 27  14  15  1   
 28  14  34  1   
 29  14  35  1   
 30  15  16  2   
 31  15  17  1   
 32  16  18  1   
 33  17  19  1   
 34  17  20  1   
 35  18  19  2   
 36  19  36  1   
 37  20  21  1   
 38  20  37  1   
 39  20  38  1   
 40  21  39  1   
 41  21  40  1   
 42  21  41  1   
@<TRIPOS>SUBSTRUCTURE
  1 ****   9 GROUP 4 **** **** 0

# MOE 2024.06 (io_trps.svl 2023.06)
