@<TRIPOS>MOLECULE
NONAME
49 52 1 0 0 
SMALL
USER_CHARGES


@<TRIPOS>ATOM
  1 O       -4.1770     2.2020     0.2790 O.2   1 <1>  -0.5700 
  2 C       -2.9690     2.2650     0.4350 C.2   1 <1>   0.5440 
  3 N       -2.2190     1.1770     0.0170 N.am  1 <1>  -0.6600 
  4 C       -2.4060     3.4670     1.0510 C.ar  1 <1>   0.3960 
  5 C       -0.7850     0.9260     0.3530 C.3   1 <1>   0.1400 
  6 C       -2.7170     0.2330    -1.0270 C.3   1 <1>   0.1400 
  7 N       -1.2100     3.9400     0.6650 N.ar  1 <1>  -0.6200 
  8 C       -3.1610     4.1150     2.0330 C.ar  1 <1>   0.1600 
  9 C        0.0590     0.9380    -0.9310 C.3   1 <1>   0.1200 
 10 C       -1.7700     0.2460    -2.2410 C.3   1 <1>   0.1200 
 11 C       -0.8380     5.0400     1.2960 C.ar  1 <1>   0.4100 
 12 N       -2.8050     5.2150     2.6840 N.ar  1 <1>  -0.6200 
 13 O       -0.4450     0.0050    -1.8490 O.3   1 <1>  -0.5600 
 14 N        0.3960     5.5630     0.9610 N.pl3 1 <1>  -0.8380 
 15 C       -1.6290     5.6510     2.2800 C.ar  1 <1>   0.1600 
 16 C        0.7600     5.6180    -0.5130 C.3   1 <1>   0.5280 
 17 C        1.5020     5.1410     1.8700 C.3   1 <1>   0.1290 
 18 C        2.2700     5.8390    -0.7460 C.ar  1 <1>   0.1670 
 19 C       -0.0370     6.7060    -1.2850 C.3   1 <1>  -0.1950 
 20 N        2.9700     4.8100    -1.2220 N.ar  1 <1>  -0.6200 
 21 C        2.8400     7.0730    -0.4530 C.ar  1 <1>  -0.1500 
 22 C       -0.5060     7.9850    -0.6550 C.3   1 <1>  -0.2000 
 23 C       -1.5070     6.9960    -1.1820 C.3   1 <1>  -0.2000 
 24 C        4.2610     5.0250    -1.4180 C.ar  1 <1>   0.1600 
 25 C        4.1860     7.2810    -0.6600 C.ar  1 <1>  -0.1500 
 26 C        4.9080     6.2200    -1.1580 C.ar  1 <1>  -0.1500 
 27 H       -0.6980    -0.0410     0.8160 H     1 <1>   0.0800 
 28 H       -0.4070     1.6490     1.0500 H     1 <1>   0.0800 
 29 H       -3.7070     0.5050    -1.3490 H     1 <1>   0.0800 
 30 H       -2.7620    -0.7610    -0.6170 H     1 <1>   0.0800 
 31 H       -4.1180     3.6930     2.2900 H     1 <1>   0.1500 
 32 H        1.0760     0.6670    -0.7120 H     1 <1>   0.0800 
 33 H        0.0490     1.9150    -1.3830 H     1 <1>   0.0800 
 34 H       -1.8120     1.1990    -2.7390 H     1 <1>   0.0800 
 35 H       -2.0510    -0.5220    -2.9390 H     1 <1>   0.0800 
 36 H       -1.2410     6.5430     2.7350 H     1 <1>   0.1500 
 37 H        0.5200     4.6700    -0.9630 H     1 <1>   0.0800 
 38 H        1.1140     4.8770     2.8390 H     1 <1>   0.0800 
 39 H        2.2070     5.9450     1.9950 H     1 <1>   0.0800 
 40 H        2.0110     4.2830     1.4620 H     1 <1>   0.0800 
 41 H        0.3500     6.7780    -2.2860 H     1 <1>   0.1000 
 42 H        2.2290     7.8660    -0.0620 H     1 <1>   0.1500 
 43 H       -0.3560     8.9080    -1.1870 H     1 <1>   0.1000 
 44 H       -0.4360     8.1100     0.4120 H     1 <1>   0.1000 
 45 H       -2.1260     6.4710    -0.4780 H     1 <1>   0.1000 
 46 H       -2.0440     7.2400    -2.0820 H     1 <1>   0.1000 
 47 H        4.8370     4.2020    -1.8070 H     1 <1>   0.1500 
 48 H        4.6500     8.2280    -0.4430 H     1 <1>   0.1500 
 49 H        5.9630     6.3140    -1.3450 H     1 <1>   0.1500 
@<TRIPOS>BOND
  1   1   2  2   
  2   2   3  am  
  3   2   4  1   
  4   3   5  1   
  5   3   6  1   
  6   4   7  ar  
  7   4   8  ar  
  8   5   9  1   
  9   5  27  1   
 10   5  28  1   
 11   6  10  1   
 12   6  29  1   
 13   6  30  1   
 14   7  11  ar  
 15   8  12  ar  
 16   8  31  1   
 17   9  13  1   
 18   9  32  1   
 19   9  33  1   
 20  10  13  1   
 21  10  34  1   
 22  10  35  1   
 23  11  14  1   
 24  11  15  ar  
 25  12  15  ar  
 26  14  16  1   
 27  14  17  1   
 28  15  36  1   
 29  16  18  1   
 30  16  19  1   
 31  16  37  1   
 32  17  38  1   
 33  17  39  1   
 34  17  40  1   
 35  18  20  ar  
 36  18  21  ar  
 37  19  22  1   
 38  19  23  1   
 39  19  41  1   
 40  20  24  ar  
 41  21  25  ar  
 42  21  42  1   
 43  22  23  1   
 44  22  43  1   
 45  22  44  1   
 46  23  45  1   
 47  23  46  1   
 48  24  26  ar  
 49  24  47  1   
 50  25  26  ar  
 51  25  48  1   
 52  26  49  1   
@<TRIPOS>SUBSTRUCTURE
  1 ****   7 GROUP 4 **** **** 0

# MOE 2024.06 (io_trps.svl 2023.06)
