@<TRIPOS>MOLECULE
NONAME
53 57 1 0 0 
SMALL
USER_CHARGES


@<TRIPOS>ATOM
  1 S       -2.9470     3.6160     0.7340 S.3   1 <1>  -0.0800 
  2 C       -3.6100     4.0570    -0.8240 C.2   1 <1>   0.1980 
  3 C       -3.3260     1.9540     0.3910 C.2   1 <1>  -0.1100 
  4 N       -4.0670     3.0800    -1.4970 N.2   1 <1>  -0.5650 
  5 C       -3.5800     5.5180    -1.2030 C.3   1 <1>  -0.0600 
  6 C       -3.9040     1.8810    -0.8190 C.2   1 <1>   0.0460 
  7 C       -4.3800     0.6170    -1.5100 C.3   1 <1>   0.0820 
  8 C       -5.0360    -0.3470    -0.5360 C.2   1 <1>   0.5690 
  9 O       -4.3560    -1.2590    -0.1270 O.2   1 <1>  -0.5700 
 10 N       -6.3480    -0.1970    -0.1460 N.am  1 <1>  -0.6600 
 11 C       -7.2320     0.9550    -0.5320 C.3   1 <1>   0.1400 
 12 C       -7.0330    -1.2420     0.6700 C.3   1 <1>   0.1400 
 13 C       -7.8920     1.6070     0.7000 C.3   1 <1>   0.1430 
 14 C       -7.6750    -0.6170     1.9130 C.3   1 <1>  -0.1600 
 15 C       -8.8270     2.6990     0.2150 C.ar  1 <1>   0.1670 
 16 C       -8.6200     0.5370     1.5410 C.3   1 <1>  -0.1600 
 17 C       -6.8650     2.4050     1.5450 C.3   1 <1>  -0.1600 
 18 N       -9.9910     2.5060    -0.3560 N.ar  1 <1>  -0.6200 
 19 C       -8.3040     3.9370     0.4270 C.ar  1 <1>  -0.1440 
 20 C       -6.9460     3.8690     1.0790 C.3   1 <1>  -0.0170 
 21 C      -10.6580     3.6120    -0.7160 C.ar  1 <1>   0.6200 
 22 C       -9.0450     5.0190     0.0300 C.ar  1 <1>   0.1600 
 23 N      -10.2190     4.8670    -0.5390 N.ar  1 <1>  -0.6200 
 24 C      -11.9590     3.4340    -1.3480 C.ar  1 <1>   0.0000 
 25 C      -12.4870     4.3870    -2.2250 C.ar  1 <1>  -0.1500 
 26 C      -12.7430     2.3000    -1.1090 C.ar  1 <1>  -0.1500 
 27 C      -13.7210     4.2210    -2.8280 C.ar  1 <1>  -0.1500 
 28 C      -13.9770     2.1260    -1.7090 C.ar  1 <1>  -0.1500 
 29 C      -14.4700     3.0880    -2.5710 C.ar  1 <1>  -0.1500 
 30 H       -3.0730     1.2080     1.1240 H     1 <1>   0.1500 
 31 H       -4.1280     6.0960    -0.4830 H     1 <1>   0.0800 
 32 H       -4.0250     5.6500    -2.1730 H     1 <1>   0.0800 
 33 H       -2.5630     5.8630    -1.2360 H     1 <1>   0.0800 
 34 H       -3.5350     0.1370    -1.9660 H     1 <1>   0.0800 
 35 H       -5.0700     0.8570    -2.2960 H     1 <1>   0.0800 
 36 H       -8.0040     0.5890    -1.1870 H     1 <1>   0.0800 
 37 H       -6.6840     1.7100    -1.0650 H     1 <1>   0.0800 
 38 H       -6.3380    -2.0060     0.9740 H     1 <1>   0.0800 
 39 H       -7.7920    -1.7090     0.0660 H     1 <1>   0.0800 
 40 H       -6.8960    -0.2670     2.5680 H     1 <1>   0.0800 
 41 H       -8.2260    -1.3750     2.4420 H     1 <1>   0.0800 
 42 H       -9.4400     0.1420     0.9670 H     1 <1>   0.0800 
 43 H       -9.0340     0.9810     2.4290 H     1 <1>   0.0800 
 44 H       -5.8690     2.0120     1.4620 H     1 <1>   0.0800 
 45 H       -7.1510     2.3730     2.5810 H     1 <1>   0.0800 
 46 H       -6.1870     4.0750     0.3460 H     1 <1>   0.0800 
 47 H       -6.8580     4.5540     1.9030 H     1 <1>   0.0800 
 48 H       -8.6730     6.0180     0.1780 H     1 <1>   0.1500 
 49 H      -11.9190     5.2760    -2.4390 H     1 <1>   0.1500 
 50 H      -12.3780     1.5400    -0.4400 H     1 <1>   0.1500 
 51 H      -14.0980     4.9740    -3.4970 H     1 <1>   0.1500 
 52 H      -14.5540     1.2410    -1.5040 H     1 <1>   0.1500 
 53 H      -15.4300     2.9560    -3.0380 H     1 <1>   0.1500 
@<TRIPOS>BOND
  1   1   2  1   
  2   1   3  1   
  3   2   4  2   
  4   2   5  1   
  5   3   6  2   
  6   3  30  1   
  7   4   6  1   
  8   5  31  1   
  9   5  32  1   
 10   5  33  1   
 11   6   7  1   
 12   7   8  1   
 13   7  34  1   
 14   7  35  1   
 15   8   9  2   
 16   8  10  am  
 17  10  11  1   
 18  10  12  1   
 19  11  13  1   
 20  11  36  1   
 21  11  37  1   
 22  12  14  1   
 23  12  38  1   
 24  12  39  1   
 25  13  15  1   
 26  13  16  1   
 27  13  17  1   
 28  14  16  1   
 29  14  40  1   
 30  14  41  1   
 31  15  18  ar  
 32  15  19  ar  
 33  16  42  1   
 34  16  43  1   
 35  17  20  1   
 36  17  44  1   
 37  17  45  1   
 38  18  21  ar  
 39  19  20  1   
 40  19  22  ar  
 41  20  46  1   
 42  20  47  1   
 43  21  23  ar  
 44  21  24  1   
 45  22  23  ar  
 46  22  48  1   
 47  24  25  ar  
 48  24  26  ar  
 49  25  27  ar  
 50  25  49  1   
 51  26  28  ar  
 52  26  50  1   
 53  27  29  ar  
 54  27  51  1   
 55  28  29  ar  
 56  28  52  1   
 57  29  53  1   
@<TRIPOS>SUBSTRUCTURE
  1 ****  15 GROUP 4 **** **** 0

# MOE 2024.06 (io_trps.svl 2023.06)
