@<TRIPOS>MOLECULE
NONAME
36 37 1 0 0 
SMALL
USER_CHARGES


@<TRIPOS>ATOM
  1 N       -0.1850    -0.5020     0.2860 N.ar  1 <1>  -0.6200 
  2 C        0.1950    -1.7690     0.3060 C.ar  1 <1>   0.7200 
  3 C        0.7230     0.3570    -0.1030 C.ar  1 <1>   0.1660 
  4 N        1.3790    -2.2640    -0.0340 N.ar  1 <1>  -0.6200 
  5 N       -0.7640    -2.6230     0.7170 N.pl3 1 <1>  -0.8690 
  6 C        1.9870    -0.0420    -0.4700 C.ar  1 <1>  -0.1500 
  7 C        0.3190     1.8160    -0.1300 C.3   1 <1>  -0.0970 
  8 C        2.2720    -1.3870    -0.4190 C.ar  1 <1>   0.1670 
  9 C       -0.8520    -4.0000     0.2310 C.3   1 <1>   0.4330 
 10 C        3.6350    -1.9180    -0.8040 C.3   1 <1>  -0.0970 
 11 C       -2.3220    -4.2970    -0.0470 C.ar  1 <1>  -0.1430 
 12 C       -0.2510    -4.9400     1.2860 C.3   1 <1>  -0.1600 
 13 C       -3.2940    -4.2310     0.9340 C.ar  1 <1>  -0.1500 
 14 C       -2.7620    -4.6470    -1.3100 C.ar  1 <1>  -0.1500 
 15 C       -0.2960    -6.4210     0.8740 C.3   1 <1>  -0.2400 
 16 C       -4.6120    -4.5160     0.6170 C.ar  1 <1>   0.1600 
 17 C       -4.1050    -4.9110    -1.5210 C.ar  1 <1>   0.1600 
 18 N       -5.0410    -4.8570    -0.5880 N.ar  1 <1>  -0.6200 
 19 H       -1.6670    -2.1610     0.7600 H     1 <1>   0.4000 
 20 H        2.7250     0.6700    -0.7860 H     1 <1>   0.1500 
 21 H       -0.5120     1.9460    -0.7980 H     1 <1>   0.0800 
 22 H        1.1320     2.4370    -0.4590 H     1 <1>   0.0800 
 23 H        0.0210     2.1230     0.8560 H     1 <1>   0.0800 
 24 H       -0.2910    -4.0960    -0.6840 H     1 <1>   0.0800 
 25 H        3.5330    -2.6120    -1.6180 H     1 <1>   0.0800 
 26 H        4.0700    -2.4310     0.0350 H     1 <1>   0.0800 
 27 H        4.2910    -1.1220    -1.1040 H     1 <1>   0.0800 
 28 H       -0.7720    -4.8150     2.2170 H     1 <1>   0.0800 
 29 H        0.7760    -4.6580     1.4410 H     1 <1>   0.0800 
 30 H       -3.0360    -3.9610     1.9420 H     1 <1>   0.1500 
 31 H       -2.0730    -4.7160    -2.1320 H     1 <1>   0.1500 
 32 H       -1.3130    -6.7530     0.7570 H     1 <1>   0.0800 
 33 H        0.1730    -7.0250     1.6300 H     1 <1>   0.0800 
 34 H        0.2270    -6.5680    -0.0540 H     1 <1>   0.0800 
 35 H       -5.3520    -4.4600     1.3960 H     1 <1>   0.1500 
 36 H       -4.4260    -5.1820    -2.5120 H     1 <1>   0.1500 
@<TRIPOS>BOND
  1   1   2  ar  
  2   1   3  ar  
  3   2   4  ar  
  4   2   5  1   
  5   3   6  ar  
  6   3   7  1   
  7   4   8  ar  
  8   5   9  1   
  9   5  19  1   
 10   6   8  ar  
 11   6  20  1   
 12   7  21  1   
 13   7  22  1   
 14   7  23  1   
 15   8  10  1   
 16   9  11  1   
 17   9  12  1   
 18   9  24  1   
 19  10  25  1   
 20  10  26  1   
 21  10  27  1   
 22  11  13  ar  
 23  11  14  ar  
 24  12  15  1   
 25  12  28  1   
 26  12  29  1   
 27  13  16  ar  
 28  13  30  1   
 29  14  17  ar  
 30  14  31  1   
 31  15  32  1   
 32  15  33  1   
 33  15  34  1   
 34  16  18  ar  
 35  16  35  1   
 36  17  18  ar  
 37  17  36  1   
@<TRIPOS>SUBSTRUCTURE
  1 ****   5 GROUP 4 **** **** 0

# MOE 2024.06 (io_trps.svl 2023.06)
