@<TRIPOS>MOLECULE
NONAME
65 69 1 0 0 
SMALL
USER_CHARGES


@<TRIPOS>ATOM
  1 O       -0.9930     1.9320    -0.4680 O.2   1 <1>  -0.5700 
  2 C       -1.5320     2.6770     0.3160 C.2   1 <1>   0.5770 
  3 N       -2.7870     2.3880     0.8070 N.am  1 <1>  -0.6600 
  4 C       -0.8050     3.9600     0.7220 C.3   1 <1>   0.0530 
  5 C       -3.6500     3.3300     1.5530 C.3   1 <1>   0.1400 
  6 C       -3.4280     1.0810     0.5350 C.3   1 <1>   0.1400 
  7 C        0.7050     4.0530     0.3580 C.3   1 <1>   0.0000 
  8 C       -0.3570     4.0020     2.2090 C.3   1 <1>   0.0000 
  9 C       -4.8820     3.6240     0.6960 C.3   1 <1>  -0.1600 
 10 C       -4.6460     1.3210    -0.3550 C.3   1 <1>  -0.1600 
 11 C        0.9090     4.7540     1.7250 C.3   1 <1>   0.0000 
 12 C       -5.6190     2.3380     0.2690 C.3   1 <1>   0.4230 
 13 N       -6.7090     2.6550    -0.7140 N.4   1 <1>  -0.9590 
 14 C       -7.6310     3.7480    -0.2290 C.3   1 <1>   0.3430 
 15 C       -7.5190     1.4460    -1.0780 C.3   1 <1>   0.3430 
 16 C       -8.6800     4.1600    -1.2750 C.3   1 <1>   0.1430 
 17 C       -8.5400     1.7850    -2.1680 C.3   1 <1>  -0.1600 
 18 C       -9.5930     5.1670    -0.6230 C.ar  1 <1>   0.1670 
 19 C       -9.4760     2.9300    -1.7490 C.3   1 <1>  -0.1600 
 20 C       -8.0860     4.9690    -2.4610 C.3   1 <1>  -0.1600 
 21 N      -10.1080     5.0230     0.5690 N.ar  1 <1>  -0.6200 
 22 C       -9.7900     6.2600    -1.4070 C.ar  1 <1>  -0.1430 
 23 C       -9.0490     6.1470    -2.7150 C.3   1 <1>  -0.0170 
 24 C      -10.8680     6.0450     0.9770 C.ar  1 <1>   0.7200 
 25 C      -10.5870     7.2590    -0.9070 C.ar  1 <1>   0.1600 
 26 N      -11.1260     7.1600     0.2860 N.ar  1 <1>  -0.6200 
 27 N      -11.4260     5.9390     2.2330 N.pl3 1 <1>  -0.8380 
 28 C      -11.7540     4.6250     2.8490 C.3   1 <1>   0.1290 
 29 C      -11.9820     7.1270     2.9390 C.3   1 <1>   0.1290 
 30 H       -1.3330     4.8530     0.4320 H     1 <1>   0.0000 
 31 H       -3.1360     4.2490     1.7700 H     1 <1>   0.0800 
 32 H       -3.9370     2.8820     2.4900 H     1 <1>   0.0800 
 33 H       -3.7190     0.6260     1.4670 H     1 <1>   0.0800 
 34 H       -2.7420     0.4100     0.0430 H     1 <1>   0.0800 
 35 H        0.9110     4.6840    -0.4880 H     1 <1>   0.0000 
 36 H        1.2050     3.1000     0.3170 H     1 <1>   0.0000 
 37 H       -0.1320     3.0280     2.6100 H     1 <1>   0.0000 
 38 H       -0.9940     4.5920     2.8440 H     1 <1>   0.0000 
 39 H       -4.5620     4.1740    -0.1720 H     1 <1>   0.0800 
 40 H       -5.5250     4.2500     1.2860 H     1 <1>   0.0800 
 41 H       -5.1230     0.3690    -0.4950 H     1 <1>   0.0800 
 42 H       -4.2940     1.6740    -1.3080 H     1 <1>   0.0800 
 43 H        0.7660     5.8200     1.6720 H     1 <1>   0.0000 
 44 H        1.8100     4.4630     2.2350 H     1 <1>   0.0000 
 45 H       -6.0540     1.8940     1.1510 H     1 <1>   0.0800 
 46 H       -6.2500     2.9900    -1.5700 H     1 <1>   0.4500 
 47 H       -7.0700     4.6280     0.0340 H     1 <1>   0.0800 
 48 H       -8.1490     3.4140     0.6550 H     1 <1>   0.0800 
 49 H       -8.0370     1.0810    -0.2060 H     1 <1>   0.0800 
 50 H       -6.8790     0.6600    -1.4430 H     1 <1>   0.0800 
 51 H       -9.1320     0.9090    -2.3710 H     1 <1>   0.0800 
 52 H       -8.0230     2.0320    -3.0790 H     1 <1>   0.0800 
 53 H      -10.1270     3.1990    -2.5640 H     1 <1>   0.0800 
 54 H      -10.1030     2.5890    -0.9410 H     1 <1>   0.0800 
 55 H       -7.9560     4.3800    -3.3520 H     1 <1>   0.0800 
 56 H       -7.1310     5.3780    -2.1800 H     1 <1>   0.0800 
 57 H       -9.7440     5.9120    -3.5030 H     1 <1>   0.0800 
 58 H       -8.5190     7.0530    -2.9540 H     1 <1>   0.0800 
 59 H      -10.7820     8.1470    -1.4830 H     1 <1>   0.1500 
 60 H      -11.7050     3.8360     2.1200 H     1 <1>   0.0800 
 61 H      -12.7510     4.6480     3.2530 H     1 <1>   0.0800 
 62 H      -11.0570     4.4150     3.6410 H     1 <1>   0.0800 
 63 H      -11.4300     8.0130     2.6760 H     1 <1>   0.0800 
 64 H      -11.9150     6.9900     4.0040 H     1 <1>   0.0800 
 65 H      -13.0130     7.2620     2.6600 H     1 <1>   0.0800 
@<TRIPOS>BOND
  1   1   2  2   
  2   2   3  am  
  3   2   4  1   
  4   3   5  1   
  5   3   6  1   
  6   4   7  1   
  7   4   8  1   
  8   4  30  1   
  9   5   9  1   
 10   5  31  1   
 11   5  32  1   
 12   6  10  1   
 13   6  33  1   
 14   6  34  1   
 15   7  11  1   
 16   7  35  1   
 17   7  36  1   
 18   8  11  1   
 19   8  37  1   
 20   8  38  1   
 21   9  12  1   
 22   9  39  1   
 23   9  40  1   
 24  10  12  1   
 25  10  41  1   
 26  10  42  1   
 27  11  43  1   
 28  11  44  1   
 29  12  13  1   
 30  12  45  1   
 31  13  14  1   
 32  13  15  1   
 33  13  46  1   
 34  14  16  1   
 35  14  47  1   
 36  14  48  1   
 37  15  17  1   
 38  15  49  1   
 39  15  50  1   
 40  16  18  1   
 41  16  19  1   
 42  16  20  1   
 43  17  19  1   
 44  17  51  1   
 45  17  52  1   
 46  18  21  ar  
 47  18  22  ar  
 48  19  53  1   
 49  19  54  1   
 50  20  23  1   
 51  20  55  1   
 52  20  56  1   
 53  21  24  ar  
 54  22  23  1   
 55  22  25  ar  
 56  23  57  1   
 57  23  58  1   
 58  24  26  ar  
 59  24  27  1   
 60  25  26  ar  
 61  25  59  1   
 62  27  28  1   
 63  27  29  1   
 64  28  60  1   
 65  28  61  1   
 66  28  62  1   
 67  29  63  1   
 68  29  64  1   
 69  29  65  1   
@<TRIPOS>SUBSTRUCTURE
  1 ****  14 GROUP 4 **** **** 0

# MOE 2024.06 (io_trps.svl 2023.06)
