@<TRIPOS>MOLECULE
NONAME
47 51 1 0 0 
SMALL
USER_CHARGES


@<TRIPOS>ATOM
  1 S        1.5470    -0.3100    -0.6990 S.3   1 <1>  -0.2420 
  2 C        1.3300    -1.4590     0.6250 C.2   1 <1>   0.6410 
  3 C        0.9790    -1.5020    -1.8920 C.2   1 <1>  -0.0490 
  4 N        1.5620    -1.1860     1.8570 N.2   1 <1>  -0.6610 
  5 N        0.8660    -2.6610     0.1200 N.pl3 1 <1>  -0.1080 
  6 C        0.6790    -2.6600    -1.2790 C.2   1 <1>   0.2090 
  7 C        1.2890    -2.2400     2.6930 C.2   1 <1>   0.7810 
  8 N        0.5730    -3.7300     0.9280 N.2   1 <1>  -0.4920 
  9 N        0.1990    -3.8510    -1.8250 N.am  1 <1>  -0.5390 
 10 O        1.4860    -2.0640     3.8890 O.2   1 <1>  -0.5700 
 11 C        0.7840    -3.5030     2.1840 C.2   1 <1>   0.3890 
 12 C       -0.4530    -4.1030    -2.9930 C.2   1 <1>   0.5690 
 13 C        0.4740    -4.6330     3.1560 C.3   1 <1>  -0.1790 
 14 O       -0.5760    -3.2770    -3.8650 O.2   1 <1>  -0.5700 
 15 C       -1.0690    -5.4980    -3.1460 C.3   1 <1>   0.1610 
 16 C       -1.4890    -6.0610    -1.7830 C.2   1 <1>  -0.3320 
 17 C       -0.0510    -6.4550    -3.8130 C.3   1 <1>  -0.1600 
 18 N       -2.2470    -5.4010    -0.8540 N.pl3 1 <1>   0.0330 
 19 C       -1.1410    -7.2720    -1.2980 C.2   1 <1>  -0.1810 
 20 C       -0.3660    -7.9460    -3.5720 C.3   1 <1>  -0.1600 
 21 C       -2.3290    -6.1910     0.2640 C.ar  1 <1>  -0.1520 
 22 C       -1.6470    -7.3780     0.0160 C.ar  1 <1>   0.0000 
 23 C       -0.3410    -8.2980    -2.0730 C.3   1 <1>   0.0210 
 24 C       -2.9440    -5.9630     1.4970 C.ar  1 <1>  -0.1500 
 25 C       -1.5760    -8.3550     1.0140 C.ar  1 <1>  -0.1500 
 26 C       -2.8630    -6.9330     2.4690 C.ar  1 <1>  -0.1500 
 27 C       -2.1790    -8.1340     2.2330 C.ar  1 <1>  -0.1430 
 28 C       -2.1210    -9.1760     3.3350 C.3   1 <1>  -0.0970 
 29 H        0.9320    -1.2010    -2.9240 H     1 <1>   0.1500 
 30 H        0.1560    -4.6190    -1.1430 H     1 <1>   0.3700 
 31 H       -0.2420    -4.3020     3.8850 H     1 <1>   0.0800 
 32 H        1.3730    -4.9350     3.6620 H     1 <1>   0.0800 
 33 H        0.0670    -5.4830     2.6350 H     1 <1>   0.0800 
 34 H       -1.9440    -5.4230    -3.7670 H     1 <1>   0.0800 
 35 H        0.9310    -6.2540    -3.4200 H     1 <1>   0.0800 
 36 H       -0.0230    -6.2540    -4.8700 H     1 <1>   0.0800 
 37 H       -2.6650    -4.4680    -0.9440 H     1 <1>   0.2700 
 38 H        0.3460    -8.5610    -4.0950 H     1 <1>   0.0800 
 39 H       -1.3440    -8.1650    -3.9640 H     1 <1>   0.0800 
 40 H       -0.7610    -9.2770    -1.9230 H     1 <1>   0.0800 
 41 H        0.6710    -8.3010    -1.7070 H     1 <1>   0.0800 
 42 H       -3.4700    -5.0430     1.6740 H     1 <1>   0.1500 
 43 H       -1.0470    -9.2650     0.8060 H     1 <1>   0.1500 
 44 H       -3.3330    -6.7760     3.4240 H     1 <1>   0.1500 
 45 H       -1.5620   -10.0380     3.0190 H     1 <1>   0.0800 
 46 H       -3.1170    -9.4890     3.5930 H     1 <1>   0.0800 
 47 H       -1.6490    -8.7610     4.2070 H     1 <1>   0.0800 
@<TRIPOS>BOND
  1   1   2  1   
  2   1   3  1   
  3   2   4  2   
  4   2   5  1   
  5   3   6  2   
  6   3  29  1   
  7   4   7  1   
  8   5   6  1   
  9   5   8  1   
 10   6   9  1   
 11   7  10  2   
 12   7  11  1   
 13   8  11  2   
 14   9  12  am  
 15   9  30  1   
 16  11  13  1   
 17  12  14  2   
 18  12  15  1   
 19  13  31  1   
 20  13  32  1   
 21  13  33  1   
 22  15  16  1   
 23  15  17  1   
 24  15  34  1   
 25  16  18  1   
 26  16  19  2   
 27  17  20  1   
 28  17  35  1   
 29  17  36  1   
 30  18  21  1   
 31  18  37  1   
 32  19  22  1   
 33  19  23  1   
 34  20  23  1   
 35  20  38  1   
 36  20  39  1   
 37  21  22  ar  
 38  21  24  ar  
 39  22  25  ar  
 40  23  40  1   
 41  23  41  1   
 42  24  26  ar  
 43  24  42  1   
 44  25  27  ar  
 45  25  43  1   
 46  26  27  ar  
 47  26  44  1   
 48  27  28  1   
 49  28  45  1   
 50  28  46  1   
 51  28  47  1   
@<TRIPOS>SUBSTRUCTURE
  1 ****   8 GROUP 4 **** **** 0

# MOE 2024.06 (io_trps.svl 2023.06)
