@<TRIPOS>MOLECULE
NONAME
36 37 1 0 0 
SMALL
USER_CHARGES


@<TRIPOS>ATOM
  1 O       -0.7160     1.8520     1.6530 O.2   1 <1>  -0.5700 
  2 C       -0.2210     2.6160     0.8430 C.2   1 <1>   0.7670 
  3 N       -1.0150     3.1630    -0.1280 N.2   1 <1>  -0.6610 
  4 C        1.1610     2.9330     0.9060 C.2   1 <1>  -0.1360 
  5 C       -0.4670     3.9650    -0.9620 C.2   1 <1>   0.4400 
  6 C        1.7090     3.7830     0.0060 C.2   1 <1>  -0.0380 
  7 N        0.8580     4.3040    -0.9410 N.pl3 1 <1>  -0.5500 
  8 C        3.1770     4.1860     0.0010 C.3   1 <1>   0.3470 
  9 N        3.2490     5.6600     0.1000 N.pl3 1 <1>  -0.8690 
 10 C        4.2100     6.5660    -0.0990 C.ar  1 <1>   0.7710 
 11 N        3.8460     7.8140     0.0750 N.ar  1 <1>  -0.6200 
 12 N        5.4570     6.2080    -0.4510 N.ar  1 <1>  -0.1790 
 13 C        4.7590     8.7550    -0.0820 C.ar  1 <1>   0.4100 
 14 C        6.4120     7.1460    -0.6630 C.ar  1 <1>   0.2110 
 15 N        4.3550    10.0260     0.1690 N.pl3 1 <1>  -0.8380 
 16 C        6.0830     8.4510    -0.4910 C.ar  1 <1>  -0.1430 
 17 C        3.0170    10.5210    -0.2630 C.3   1 <1>   0.1290 
 18 C        5.0160    10.8940     1.1840 C.3   1 <1>   0.1290 
 19 C        7.1120     9.5450    -0.7710 C.3   1 <1>  -0.0970 
 20 H        1.7130     2.4630     1.6970 H     1 <1>   0.1500 
 21 H       -1.0690     4.4130    -1.7350 H     1 <1>   0.0600 
 22 H        1.1890     4.9690    -1.6480 H     1 <1>   0.4000 
 23 H        3.6380     3.8460    -0.9110 H     1 <1>   0.0800 
 24 H        3.6800     3.7380     0.8420 H     1 <1>   0.0800 
 25 H        2.3670     6.0710     0.4330 H     1 <1>   0.4000 
 26 H        5.6460     5.2170    -0.5490 H     1 <1>   0.4570 
 27 H        7.3970     6.8290    -0.9680 H     1 <1>   0.1500 
 28 H        2.6220     9.8990    -1.0480 H     1 <1>   0.0800 
 29 H        3.1000    11.5280    -0.6340 H     1 <1>   0.0800 
 30 H        2.3340    10.5050     0.5690 H     1 <1>   0.0800 
 31 H        5.7890    10.3520     1.6990 H     1 <1>   0.0800 
 32 H        4.2940    11.2220     1.9120 H     1 <1>   0.0800 
 33 H        5.4450    11.7560     0.7030 H     1 <1>   0.0800 
 34 H        6.6590    10.3410    -1.3370 H     1 <1>   0.0800 
 35 H        7.9440     9.1660    -1.3380 H     1 <1>   0.0800 
 36 H        7.4900     9.9520     0.1500 H     1 <1>   0.0800 
@<TRIPOS>BOND
  1   1   2  2   
  2   2   3  1   
  3   2   4  1   
  4   3   5  2   
  5   4   6  2   
  6   4  20  1   
  7   5   7  1   
  8   5  21  1   
  9   6   7  1   
 10   6   8  1   
 11   7  22  1   
 12   8   9  1   
 13   8  23  1   
 14   8  24  1   
 15   9  10  1   
 16   9  25  1   
 17  10  11  ar  
 18  10  12  ar  
 19  11  13  ar  
 20  12  14  ar  
 21  12  26  1   
 22  13  15  1   
 23  13  16  ar  
 24  14  16  ar  
 25  14  27  1   
 26  15  17  1   
 27  15  18  1   
 28  16  19  1   
 29  17  28  1   
 30  17  29  1   
 31  17  30  1   
 32  18  31  1   
 33  18  32  1   
 34  18  33  1   
 35  19  34  1   
 36  19  35  1   
 37  19  36  1   
@<TRIPOS>SUBSTRUCTURE
  1 ****   9 GROUP 4 **** **** 0

# MOE 2024.06 (io_trps.svl 2023.06)
