@<TRIPOS>MOLECULE
NONAME
56 59 1 0 0 
SMALL
USER_CHARGES


@<TRIPOS>ATOM
  1 O        0.4110     0.4010     1.0730 O.3   1 <1>  -0.6800 
  2 C        1.0420    -0.1840    -0.0190 C.3   1 <1>   0.2000 
  3 C        1.4870    -1.5860     0.3940 C.3   1 <1>  -0.0800 
  4 C        2.3670     0.5590    -0.2630 C.3   1 <1>   0.3430 
  5 C        2.7240    -1.2630     1.2360 C.3   1 <1>   0.3430 
  6 C        1.8030    -2.4510    -0.8530 C.3   1 <1>  -0.0160 
  7 N        3.4300    -0.2210     0.4570 N.4   1 <1>  -0.9590 
  8 C        2.9310    -3.4390    -0.6160 C.ar  1 <1>   0.1670 
  9 C        4.3260     0.6290     1.2760 C.3   1 <1>   0.5240 
 10 N        4.1450    -3.0070    -0.8010 N.ar  1 <1>  -0.6200 
 11 C        2.6160    -4.7410    -0.1990 C.ar  1 <1>  -0.1500 
 12 C        4.8450     1.7580     0.4140 C.2   1 <1>  -0.1810 
 13 C        5.1590    -3.8970    -0.6110 C.ar  1 <1>   0.3100 
 14 C        3.6140    -5.6360     0.0340 C.ar  1 <1>  -0.1500 
 15 C        5.8000     1.6520    -0.5910 C.2   1 <1>   0.1080 
 16 C        4.4920     3.0650     0.4210 C.2   1 <1>  -0.3320 
 17 C        4.9400    -5.2210    -0.1700 C.ar  1 <1>   0.0000 
 18 C        6.4810    -3.4920    -0.8610 C.ar  1 <1>  -0.1500 
 19 N        6.0170     2.7830    -1.1720 N.2   1 <1>  -0.7070 
 20 C        6.5380     0.4010    -1.0150 C.3   1 <1>  -0.0590 
 21 N        5.2240     3.6690    -0.5460 N.pl3 1 <1>   0.3140 
 22 C        3.4890     3.7950     1.3060 C.3   1 <1>  -0.0600 
 23 C        6.0450    -6.0690     0.0380 C.ar  1 <1>  -0.1500 
 24 C        7.5420    -4.3340    -0.6580 C.ar  1 <1>  -0.1500 
 25 C        5.2270     5.0960    -0.9380 C.3   1 <1>   0.0960 
 26 C        7.3210    -5.6350    -0.1980 C.ar  1 <1>  -0.1500 
 27 C        6.2240     5.9000    -0.0950 C.3   1 <1>  -0.2400 
 28 H       -0.5210     0.1040     1.1490 H     1 <1>   0.4000 
 29 H        0.3780    -0.1490    -0.8660 H     1 <1>   0.0800 
 30 H        0.7480    -2.0880     0.9940 H     1 <1>   0.0800 
 31 H        2.2940     1.5690     0.1060 H     1 <1>   0.0800 
 32 H        2.5950     0.5870    -1.3160 H     1 <1>   0.0800 
 33 H        3.3460    -2.1270     1.4080 H     1 <1>   0.0800 
 34 H        2.4050    -0.8570     2.1830 H     1 <1>   0.0800 
 35 H        2.0910    -1.8330    -1.6860 H     1 <1>   0.0800 
 36 H        0.9160    -2.9780    -1.1580 H     1 <1>   0.0800 
 37 H        4.0010    -0.7180    -0.2470 H     1 <1>   0.4500 
 38 H        3.7800     1.0410     2.1080 H     1 <1>   0.0800 
 39 H        5.1500     0.0490     1.6580 H     1 <1>   0.0800 
 40 H        1.5870    -5.0250    -0.0650 H     1 <1>   0.1500 
 41 H        3.4140    -6.6430     0.3580 H     1 <1>   0.1500 
 42 H        6.6410    -2.4980    -1.2280 H     1 <1>   0.1500 
 43 H        6.7060    -0.2450    -0.1750 H     1 <1>   0.0800 
 44 H        7.4920     0.6750    -1.4310 H     1 <1>   0.0800 
 45 H        5.9730    -0.1150    -1.7690 H     1 <1>   0.0800 
 46 H        3.0160     3.1210     1.9960 H     1 <1>   0.0800 
 47 H        2.7250     4.2540     0.7030 H     1 <1>   0.0800 
 48 H        3.9870     4.5620     1.8730 H     1 <1>   0.0800 
 49 H        5.8700    -7.0730     0.3850 H     1 <1>   0.1500 
 50 H        8.5520    -4.0110    -0.8510 H     1 <1>   0.1500 
 51 H        5.5000     5.1550    -1.9760 H     1 <1>   0.0800 
 52 H        4.2350     5.4910    -0.8250 H     1 <1>   0.0800 
 53 H        8.1640    -6.2870    -0.0400 H     1 <1>   0.1500 
 54 H        7.2160     5.5040    -0.2250 H     1 <1>   0.0800 
 55 H        5.9600     5.8600     0.9460 H     1 <1>   0.0800 
 56 H        6.2230     6.9280    -0.4110 H     1 <1>   0.0800 
@<TRIPOS>BOND
  1   1   2  1   
  2   1  28  1   
  3   2   3  1   
  4   2   4  1   
  5   2  29  1   
  6   3   5  1   
  7   3   6  1   
  8   3  30  1   
  9   4   7  1   
 10   4  31  1   
 11   4  32  1   
 12   5   7  1   
 13   5  33  1   
 14   5  34  1   
 15   6   8  1   
 16   6  35  1   
 17   6  36  1   
 18   7   9  1   
 19   7  37  1   
 20   8  10  ar  
 21   8  11  ar  
 22   9  12  1   
 23   9  38  1   
 24   9  39  1   
 25  10  13  ar  
 26  11  14  ar  
 27  11  40  1   
 28  12  15  1   
 29  12  16  2   
 30  13  17  ar  
 31  13  18  ar  
 32  14  17  ar  
 33  14  41  1   
 34  15  19  2   
 35  15  20  1   
 36  16  21  1   
 37  16  22  1   
 38  17  23  ar  
 39  18  24  ar  
 40  18  42  1   
 41  19  21  1   
 42  20  43  1   
 43  20  44  1   
 44  20  45  1   
 45  21  25  1   
 46  22  46  1   
 47  22  47  1   
 48  22  48  1   
 49  23  26  ar  
 50  23  49  1   
 51  24  26  ar  
 52  24  50  1   
 53  25  27  1   
 54  25  51  1   
 55  25  52  1   
 56  26  53  1   
 57  27  54  1   
 58  27  55  1   
 59  27  56  1   
@<TRIPOS>SUBSTRUCTURE
  1 ****   7 GROUP 4 **** **** 0

# MOE 2024.06 (io_trps.svl 2023.06)
