@<TRIPOS>MOLECULE
NONAME
53 55 1 0 0 
SMALL
USER_CHARGES


@<TRIPOS>ATOM
  1 O       -0.3330     0.1990     1.2010 O.2   1 <1>  -0.5700 
  2 C       -1.3660     0.8280     1.0810 C.2   1 <1>   0.5440 
  3 N       -2.5230     0.1440     0.7820 N.am  1 <1>  -0.6600 
  4 C       -1.3470     2.2720     1.2300 C.ar  1 <1>   0.0860 
  5 C       -3.7170     0.7450     0.1340 C.3   1 <1>   0.1400 
  6 C       -2.5520    -1.3350     0.6510 C.3   1 <1>   0.1400 
  7 C       -0.3490     3.0310     0.6230 C.ar  1 <1>  -0.1500 
  8 C       -2.3060     2.9500     1.9820 C.ar  1 <1>  -0.1500 
  9 C       -4.3450    -0.3990    -0.6590 C.3   1 <1>   0.2000 
 10 C       -3.9310    -1.6680     0.0790 C.3   1 <1>  -0.0800 
 11 C       -0.3010     4.4140     0.7280 C.ar  1 <1>   0.1170 
 12 C       -2.2780     4.3270     2.1010 C.ar  1 <1>  -0.1500 
 13 O       -5.7260    -0.2940    -0.7010 O.3   1 <1>  -0.6800 
 14 C       -3.9410    -2.9190    -0.8120 C.3   1 <1>   0.0210 
 15 N        0.7450     5.1020     0.0950 N.am  1 <1>  -0.5470 
 16 C       -1.2820     5.0540     1.4770 C.ar  1 <1>  -0.1500 
 17 C       -3.4380    -4.1290    -0.0490 C.2   1 <1>   0.1080 
 18 C        0.8250     6.3960    -0.3440 C.2   1 <1>   0.5690 
 19 N       -4.0550    -4.6140     0.9830 N.2   1 <1>  -0.7070 
 20 C       -2.2790    -4.8360    -0.3510 C.2   1 <1>  -0.1500 
 21 O       -0.0940     7.1760    -0.2770 O.2   1 <1>  -0.5700 
 22 C        2.1510     6.8570    -0.9610 C.3   1 <1>  -0.0190 
 23 N       -3.2980    -5.6580     1.3710 N.pl3 1 <1>   0.3000 
 24 C       -2.2150    -5.8110     0.5800 C.2   1 <1>  -0.3320 
 25 C        2.7640     8.0250    -0.1710 C.3   1 <1>  -0.2400 
 26 C        1.9780     7.2530    -2.4360 C.3   1 <1>  -0.2400 
 27 C       -1.1710    -6.8960     0.7640 C.3   1 <1>  -0.0600 
 28 H       -4.3930     1.0940     0.8940 H     1 <1>   0.0800 
 29 H       -3.4350     1.5540    -0.5180 H     1 <1>   0.0800 
 30 H       -1.7690    -1.6440    -0.0220 H     1 <1>   0.0800 
 31 H       -2.4000    -1.8060     1.6070 H     1 <1>   0.0800 
 32 H        0.4030     2.5140     0.0550 H     1 <1>   0.1500 
 33 H       -3.0750     2.3880     2.4820 H     1 <1>   0.1500 
 34 H       -3.9710    -0.3880    -1.6690 H     1 <1>   0.0800 
 35 H       -4.5860    -1.8300     0.9170 H     1 <1>   0.0800 
 36 H       -3.0280     4.8370     2.6820 H     1 <1>   0.1500 
 37 H       -6.1070    -0.4970     0.1760 H     1 <1>   0.4000 
 38 H       -3.3250    -2.7620    -1.6790 H     1 <1>   0.0800 
 39 H       -4.9440    -3.1150    -1.1450 H     1 <1>   0.0800 
 40 H        1.5660     4.5330    -0.0980 H     1 <1>   0.3700 
 41 H       -1.2680     6.1240     1.5800 H     1 <1>   0.1500 
 42 H       -1.5980    -4.6270    -1.1560 H     1 <1>   0.1500 
 43 H        2.8460     6.0370    -0.9220 H     1 <1>   0.0800 
 44 H       -3.5460    -6.2430     2.1770 H     1 <1>   0.2700 
 45 H        2.1070     8.8780    -0.1980 H     1 <1>   0.0800 
 46 H        3.7140     8.3070    -0.5880 H     1 <1>   0.0800 
 47 H        2.9090     7.7420     0.8560 H     1 <1>   0.0800 
 48 H        1.3010     8.0860    -2.5210 H     1 <1>   0.0800 
 49 H        1.5730     6.4300    -2.9980 H     1 <1>   0.0800 
 50 H        2.9230     7.5320    -2.8670 H     1 <1>   0.0800 
 51 H       -0.4090    -6.8080     0.0100 H     1 <1>   0.0800 
 52 H       -1.6240    -7.8680     0.6810 H     1 <1>   0.0800 
 53 H       -0.7060    -6.8050     1.7300 H     1 <1>   0.0800 
@<TRIPOS>BOND
  1   1   2  2   
  2   2   3  am  
  3   2   4  1   
  4   3   5  1   
  5   3   6  1   
  6   4   7  ar  
  7   4   8  ar  
  8   5   9  1   
  9   5  28  1   
 10   5  29  1   
 11   6  10  1   
 12   6  30  1   
 13   6  31  1   
 14   7  11  ar  
 15   7  32  1   
 16   8  12  ar  
 17   8  33  1   
 18   9  10  1   
 19   9  13  1   
 20   9  34  1   
 21  10  14  1   
 22  10  35  1   
 23  11  15  1   
 24  11  16  ar  
 25  12  16  ar  
 26  12  36  1   
 27  13  37  1   
 28  14  17  1   
 29  14  38  1   
 30  14  39  1   
 31  15  18  am  
 32  15  40  1   
 33  16  41  1   
 34  17  19  2   
 35  17  20  1   
 36  18  21  2   
 37  18  22  1   
 38  19  23  1   
 39  20  24  2   
 40  20  42  1   
 41  22  25  1   
 42  22  26  1   
 43  22  43  1   
 44  23  24  1   
 45  23  44  1   
 46  24  27  1   
 47  25  45  1   
 48  25  46  1   
 49  25  47  1   
 50  26  48  1   
 51  26  49  1   
 52  26  50  1   
 53  27  51  1   
 54  27  52  1   
 55  27  53  1   
@<TRIPOS>SUBSTRUCTURE
  1 ****   2 GROUP 4 **** **** 0

# MOE 2024.06 (io_trps.svl 2023.06)
