@<TRIPOS>MOLECULE
NONAME
40 42 1 0 0 
SMALL
USER_CHARGES


@<TRIPOS>ATOM
  1 CL      -1.1160    -0.1050    -2.2680 Cl    1 <1>  -0.1770 
  2 C       -1.9640    -0.9550    -0.9970 C.ar  1 <1>   0.1770 
  3 C       -2.5950    -0.2640     0.0240 C.ar  1 <1>   0.1900 
  4 C       -2.0030    -2.3360    -1.0170 C.ar  1 <1>  -0.1500 
  5 F       -2.5650     1.0410     0.0490 F     1 <1>  -0.1900 
  6 C       -3.2630    -0.9320     1.0320 C.ar  1 <1>  -0.1500 
  7 C       -2.6780    -3.0460    -0.0210 C.ar  1 <1>   0.0860 
  8 C       -3.2950    -2.3170     1.0030 C.ar  1 <1>  -0.1500 
  9 C       -2.7170    -4.4960    -0.0540 C.2   1 <1>   0.5440 
 10 O       -1.6960    -5.1160    -0.2800 O.2   1 <1>  -0.5700 
 11 N       -3.8840    -5.1980     0.1460 N.am  1 <1>  -0.6600 
 12 C       -5.2500    -4.6510    -0.0570 C.3   1 <1>   0.1400 
 13 C       -3.9170    -6.6840     0.1420 C.3   1 <1>   0.1400 
 14 C       -6.0920    -5.8530    -0.4790 C.3   1 <1>   0.2000 
 15 C       -5.4000    -7.0600     0.1450 C.3   1 <1>  -0.0800 
 16 O       -7.3940    -5.7500    -0.0200 O.3   1 <1>  -0.6800 
 17 C       -5.7010    -8.3780    -0.5840 C.3   1 <1>   0.0210 
 18 C       -4.9230    -9.5250     0.0300 C.2   1 <1>   0.1080 
 19 N       -5.1100    -9.9270     1.2490 N.2   1 <1>  -0.7070 
 20 C       -3.9320   -10.2540    -0.6190 C.2   1 <1>  -0.1500 
 21 N       -4.2350   -10.9380     1.4110 N.pl3 1 <1>   0.3000 
 22 C       -3.5090   -11.1530     0.2930 C.2   1 <1>  -0.3320 
 23 C       -2.4380   -12.2210     0.1650 C.3   1 <1>  -0.0600 
 24 H       -1.5060    -2.8730    -1.8060 H     1 <1>   0.1500 
 25 H       -3.7400    -0.3760     1.8210 H     1 <1>   0.1500 
 26 H       -3.8000    -2.8520     1.7900 H     1 <1>   0.1500 
 27 H       -5.6100    -4.2470     0.8730 H     1 <1>   0.0800 
 28 H       -5.2530    -3.8940    -0.8220 H     1 <1>   0.0800 
 29 H       -3.4290    -7.0440    -0.7480 H     1 <1>   0.0800 
 30 H       -3.4100    -7.0800     1.0060 H     1 <1>   0.0800 
 31 H       -6.1130    -5.9200    -1.5540 H     1 <1>   0.0800 
 32 H       -5.6960    -7.1550     1.1760 H     1 <1>   0.0800 
 33 H       -7.4290    -5.9200     0.9420 H     1 <1>   0.4000 
 34 H       -5.4490    -8.2930    -1.6250 H     1 <1>   0.0800 
 35 H       -6.7510    -8.5970    -0.5100 H     1 <1>   0.0800 
 36 H       -3.5950   -10.1100    -1.6300 H     1 <1>   0.1500 
 37 H       -4.1580   -11.4580     2.2930 H     1 <1>   0.2700 
 38 H       -2.0040   -12.1920    -0.8190 H     1 <1>   0.0800 
 39 H       -2.8630   -13.1960     0.3240 H     1 <1>   0.0800 
 40 H       -1.6580   -12.0540     0.8870 H     1 <1>   0.0800 
@<TRIPOS>BOND
  1   1   2  1   
  2   2   3  ar  
  3   2   4  ar  
  4   3   5  1   
  5   3   6  ar  
  6   4   7  ar  
  7   4  24  1   
  8   6   8  ar  
  9   6  25  1   
 10   7   8  ar  
 11   7   9  1   
 12   8  26  1   
 13   9  10  2   
 14   9  11  am  
 15  11  12  1   
 16  11  13  1   
 17  12  14  1   
 18  12  27  1   
 19  12  28  1   
 20  13  15  1   
 21  13  29  1   
 22  13  30  1   
 23  14  15  1   
 24  14  16  1   
 25  14  31  1   
 26  15  17  1   
 27  15  32  1   
 28  16  33  1   
 29  17  18  1   
 30  17  34  1   
 31  17  35  1   
 32  18  19  2   
 33  18  20  1   
 34  19  21  1   
 35  20  22  2   
 36  20  36  1   
 37  21  22  1   
 38  21  37  1   
 39  22  23  1   
 40  23  38  1   
 41  23  39  1   
 42  23  40  1   
@<TRIPOS>SUBSTRUCTURE
  1 ****  11 GROUP 4 **** **** 0

# MOE 2024.06 (io_trps.svl 2023.06)
