@<TRIPOS>MOLECULE
NONAME
45 47 1 0 0 
SMALL
USER_CHARGES


@<TRIPOS>ATOM
  1 O        0.1550    -0.4470     0.5380 O.2   1 <1>  -0.5700 
  2 C        1.2060    -1.0570     0.4840 C.2   1 <1>   0.5440 
  3 N        2.3820    -0.3490     0.4040 N.am  1 <1>  -0.6600 
  4 C        1.1880    -2.5060     0.4940 C.ar  1 <1>   0.0860 
  5 C        3.6710    -0.8970    -0.0760 C.3   1 <1>   0.1400 
  6 C        2.4060     1.1310     0.4030 C.3   1 <1>   0.1400 
  7 C        0.3410    -3.2300    -0.3220 C.ar  1 <1>  -0.1500 
  8 C        2.0020    -3.2690     1.3210 C.ar  1 <1>  -0.1500 
  9 C        4.4020     0.3010    -0.6710 C.3   1 <1>  -0.1600 
 10 C        3.8520     1.5030     0.0910 C.3   1 <1>  -0.1600 
 11 C        0.3420    -4.6170    -0.3040 C.ar  1 <1>   0.4100 
 12 C        1.9390    -4.6460     1.2720 C.ar  1 <1>   0.1600 
 13 N        1.1370    -5.3320     0.4790 N.ar  1 <1>  -0.6200 
 14 N       -0.5220    -5.2970    -1.1310 N.pl3 1 <1>  -0.8690 
 15 C       -0.7660    -6.7630    -1.0370 C.3   1 <1>   0.2090 
 16 C       -1.7040    -7.0730     0.1310 C.3   1 <1>  -0.0170 
 17 C       -2.2170    -8.5000     0.0480 C.ar  1 <1>   0.1670 
 18 N       -1.3030    -9.4570     0.0350 N.ar  1 <1>  -0.6200 
 19 C       -3.5830    -8.7380    -0.0110 C.ar  1 <1>  -0.1500 
 20 C       -1.7530   -10.6970    -0.0370 C.ar  1 <1>   0.1670 
 21 C       -4.0460   -10.0330    -0.0870 C.ar  1 <1>  -0.1500 
 22 C       -3.0970   -11.0320    -0.1000 C.ar  1 <1>  -0.1500 
 23 C       -0.6960   -11.7790    -0.0480 C.3   1 <1>  -0.0970 
 24 H        3.5200    -1.6700    -0.8110 H     1 <1>   0.0800 
 25 H        4.2220    -1.2880     0.7610 H     1 <1>   0.0800 
 26 H        2.0890     1.5170     1.3560 H     1 <1>   0.0800 
 27 H        1.7470     1.4930    -0.3690 H     1 <1>   0.0800 
 28 H       -0.3280    -2.7110    -0.9800 H     1 <1>   0.1500 
 29 H        2.6750    -2.7820     2.0020 H     1 <1>   0.1500 
 30 H        4.1480     0.3820    -1.7140 H     1 <1>   0.0800 
 31 H        5.4700     0.2070    -0.5770 H     1 <1>   0.0800 
 32 H        4.3870     1.6270     1.0160 H     1 <1>   0.0800 
 33 H        3.9150     2.4140    -0.4760 H     1 <1>   0.0800 
 34 H        2.5790    -5.2200     1.9200 H     1 <1>   0.1500 
 35 H       -1.2830    -4.7570    -1.5430 H     1 <1>   0.4000 
 36 H        0.1660    -7.2890    -0.9040 H     1 <1>   0.0800 
 37 H       -1.2070    -7.1040    -1.9570 H     1 <1>   0.0800 
 38 H       -2.5280    -6.3860     0.1200 H     1 <1>   0.0800 
 39 H       -1.1670    -6.9500     1.0540 H     1 <1>   0.0800 
 40 H       -4.2810    -7.9220     0.0040 H     1 <1>   0.1500 
 41 H       -5.0980   -10.2550    -0.1340 H     1 <1>   0.1500 
 42 H       -3.4000   -12.0610    -0.1570 H     1 <1>   0.1500 
 43 H       -0.1080   -11.7120     0.8500 H     1 <1>   0.0800 
 44 H       -0.0490   -11.6380    -0.8940 H     1 <1>   0.0800 
 45 H       -1.1380   -12.7560    -0.1040 H     1 <1>   0.0800 
@<TRIPOS>BOND
  1   1   2  2   
  2   2   3  am  
  3   2   4  1   
  4   3   5  1   
  5   3   6  1   
  6   4   7  ar  
  7   4   8  ar  
  8   5   9  1   
  9   5  24  1   
 10   5  25  1   
 11   6  10  1   
 12   6  26  1   
 13   6  27  1   
 14   7  11  ar  
 15   7  28  1   
 16   8  12  ar  
 17   8  29  1   
 18   9  10  1   
 19   9  30  1   
 20   9  31  1   
 21  10  32  1   
 22  10  33  1   
 23  11  13  ar  
 24  11  14  1   
 25  12  13  ar  
 26  12  34  1   
 27  14  15  1   
 28  14  35  1   
 29  15  16  1   
 30  15  36  1   
 31  15  37  1   
 32  16  17  1   
 33  16  38  1   
 34  16  39  1   
 35  17  18  ar  
 36  17  19  ar  
 37  18  20  ar  
 38  19  21  ar  
 39  19  40  1   
 40  20  22  ar  
 41  20  23  1   
 42  21  22  ar  
 43  21  41  1   
 44  22  42  1   
 45  23  43  1   
 46  23  44  1   
 47  23  45  1   
@<TRIPOS>SUBSTRUCTURE
  1 ****  11 GROUP 4 **** **** 0

# MOE 2024.06 (io_trps.svl 2023.06)
