@<TRIPOS>MOLECULE
NONAME
47 48 1 0 0 
SMALL
USER_CHARGES


@<TRIPOS>ATOM
  1 S       -0.1710     1.3920     0.4530 S.3   1 <1>  -0.3320 
  2 C       -1.4770     0.1540     0.3430 C.ar  1 <1>   0.1020 
  3 C       -0.8250     2.9270    -0.3470 C.3   1 <1>   0.0700 
  4 C       -2.7130     0.4300    -0.2210 C.ar  1 <1>  -0.1500 
  5 C       -1.1940    -1.1020     0.8480 C.ar  1 <1>  -0.1500 
  6 C        0.2800     3.9890    -0.3050 C.3   1 <1>   0.3430 
  7 C       -3.6680    -0.5710    -0.2790 C.ar  1 <1>  -0.1500 
  8 C       -2.1560    -2.0950     0.7870 C.ar  1 <1>  -0.1500 
  9 N        1.5740     3.4020    -0.7690 N.4   1 <1>  -0.9060 
 10 C       -3.3950    -1.8350     0.2220 C.ar  1 <1>  -0.1430 
 11 C        2.7860     4.2080    -0.4810 C.3   1 <1>   0.4230 
 12 C       -4.4480    -2.9270     0.1570 C.3   1 <1>  -0.0970 
 13 C        2.8260     5.5020    -1.3180 C.3   1 <1>   0.0960 
 14 C        3.9810     3.2960    -0.7510 C.3   1 <1>  -0.2400 
 15 N        3.9570     6.3440    -0.8920 N.pl3 1 <1>   0.0480 
 16 C        4.0670     7.1590     0.1880 C.2   1 <1>   0.0060 
 17 C        5.1570     6.4110    -1.4980 C.2   1 <1>  -0.3020 
 18 N        5.2320     7.7020     0.3010 N.2   1 <1>  -0.5650 
 19 C        2.9560     7.4370     1.1900 C.3   1 <1>   0.0200 
 20 C        5.9190     7.2420    -0.7580 C.2   1 <1>   0.0770 
 21 C        1.9610     8.4700     0.6510 C.3   1 <1>  -0.2400 
 22 H       -1.6930     3.2420     0.2070 H     1 <1>   0.0800 
 23 H       -1.1010     2.6780    -1.3570 H     1 <1>   0.0800 
 24 H       -2.9570     1.3960    -0.6140 H     1 <1>   0.1500 
 25 H       -0.2350    -1.3050     1.2880 H     1 <1>   0.1500 
 26 H        0.3840     4.3270     0.7140 H     1 <1>   0.0800 
 27 H        0.0020     4.8320    -0.9160 H     1 <1>   0.0800 
 28 H       -4.6310    -0.3640    -0.7140 H     1 <1>   0.1500 
 29 H       -1.9360    -3.0720     1.1820 H     1 <1>   0.1500 
 30 H        1.5320     3.1480    -1.7630 H     1 <1>   0.4500 
 31 H        1.6680     2.4990    -0.2720 H     1 <1>   0.4500 
 32 H        2.7860     4.4750     0.5640 H     1 <1>   0.0800 
 33 H       -5.0870    -2.7850    -0.6950 H     1 <1>   0.0800 
 34 H       -5.0480    -2.9060     1.0490 H     1 <1>   0.0800 
 35 H       -3.9830    -3.8930     0.0740 H     1 <1>   0.0800 
 36 H        1.9250     6.0700    -1.1860 H     1 <1>   0.0800 
 37 H        2.9450     5.2740    -2.3610 H     1 <1>   0.0800 
 38 H        4.0530     3.0400    -1.7940 H     1 <1>   0.0800 
 39 H        3.9150     2.3960    -0.1650 H     1 <1>   0.0800 
 40 H        4.8930     3.7910    -0.4670 H     1 <1>   0.0800 
 41 H        5.4120     5.8860    -2.4010 H     1 <1>   0.1500 
 42 H        3.4030     7.8300     2.0890 H     1 <1>   0.0800 
 43 H        2.4500     6.5300     1.4560 H     1 <1>   0.0800 
 44 H        6.9410     7.5410    -0.9320 H     1 <1>   0.1500 
 45 H        2.4830     9.3840     0.4240 H     1 <1>   0.0800 
 46 H        1.2110     8.6840     1.3910 H     1 <1>   0.0800 
 47 H        1.4800     8.1230    -0.2440 H     1 <1>   0.0800 
@<TRIPOS>BOND
  1   1   2  1   
  2   1   3  1   
  3   2   4  ar  
  4   2   5  ar  
  5   3   6  1   
  6   3  22  1   
  7   3  23  1   
  8   4   7  ar  
  9   4  24  1   
 10   5   8  ar  
 11   5  25  1   
 12   6   9  1   
 13   6  26  1   
 14   6  27  1   
 15   7  10  ar  
 16   7  28  1   
 17   8  10  ar  
 18   8  29  1   
 19   9  11  1   
 20   9  30  1   
 21   9  31  1   
 22  10  12  1   
 23  11  13  1   
 24  11  14  1   
 25  11  32  1   
 26  12  33  1   
 27  12  34  1   
 28  12  35  1   
 29  13  15  1   
 30  13  36  1   
 31  13  37  1   
 32  14  38  1   
 33  14  39  1   
 34  14  40  1   
 35  15  16  1   
 36  15  17  1   
 37  16  18  2   
 38  16  19  1   
 39  17  20  2   
 40  17  41  1   
 41  18  20  1   
 42  19  21  1   
 43  19  42  1   
 44  19  43  1   
 45  20  44  1   
 46  21  45  1   
 47  21  46  1   
 48  21  47  1   
@<TRIPOS>SUBSTRUCTURE
  1 ****   9 GROUP 4 **** **** 0

# MOE 2024.06 (io_trps.svl 2023.06)
