@<TRIPOS>MOLECULE
NONAME
51 54 1 0 0 
SMALL
USER_CHARGES


@<TRIPOS>ATOM
  1 F       -3.7340     1.2570    -2.6090 F     1 <1>  -0.1900 
  2 C       -4.0910     0.2460    -1.8590 C.ar  1 <1>   0.1900 
  3 C       -5.2730     0.3180    -1.1620 C.ar  1 <1>  -0.1500 
  4 C       -3.2400    -0.8630    -1.8100 C.ar  1 <1>  -0.1500 
  5 C       -5.6210    -0.7770    -0.3740 C.ar  1 <1>   0.2270 
  6 C       -3.5880    -1.9440    -1.0290 C.ar  1 <1>  -0.1500 
  7 N       -6.7200    -0.9640     0.4070 N.2   1 <1>  -0.5650 
  8 C       -4.7890    -1.8830    -0.3140 C.ar  1 <1>  -0.1520 
  9 C       -6.5570    -2.1360     0.9150 C.2   1 <1>   0.0060 
 10 N       -5.4110    -2.7500     0.5250 N.pl3 1 <1>   0.0330 
 11 C       -7.5420    -2.7900     1.8650 C.3   1 <1>   0.0200 
 12 C       -8.2180    -4.0000     1.2100 C.3   1 <1>  -0.1600 
 13 C       -9.1980    -4.6740     2.1690 C.3   1 <1>   0.1400 
 14 N       -9.7220    -5.8950     1.5290 N.am  1 <1>  -0.7300 
 15 C       -9.1710    -7.1380     1.6320 C.2   1 <1>   0.5690 
 16 O       -8.1760    -7.3090     2.3020 O.2   1 <1>  -0.5700 
 17 C       -9.8350    -8.3150     0.8690 C.3   1 <1>   0.2040 
 18 C      -10.6660    -7.7520    -0.3090 C.ar  1 <1>  -0.1430 
 19 C       -8.7960    -9.3430     0.3720 C.3   1 <1>  -0.1600 
 20 C      -10.6670    -9.1750     1.8390 C.3   1 <1>  -0.1600 
 21 C      -10.0210    -7.3500    -1.4740 C.ar  1 <1>  -0.1500 
 22 C      -12.0460    -7.5890    -0.2330 C.ar  1 <1>  -0.1500 
 23 C       -8.5450   -10.3280     1.5210 C.3   1 <1>  -0.1600 
 24 C       -9.6790   -10.1160     2.5260 C.3   1 <1>  -0.1600 
 25 C      -10.7310    -6.8170    -2.5350 C.ar  1 <1>  -0.1500 
 26 C      -12.7590    -7.0570    -1.2940 C.ar  1 <1>  -0.1500 
 27 C      -12.1020    -6.6710    -2.4470 C.ar  1 <1>  -0.1500 
 28 H       -5.9180     1.1730    -1.2070 H     1 <1>   0.1500 
 29 H       -2.3300    -0.8510    -2.3820 H     1 <1>   0.1500 
 30 H       -2.9580    -2.8140    -0.9670 H     1 <1>   0.1500 
 31 H       -5.0860    -3.6800     0.7980 H     1 <1>   0.2700 
 32 H       -8.2890    -2.0650     2.1420 H     1 <1>   0.0800 
 33 H       -7.0240    -3.0900     2.7590 H     1 <1>   0.0800 
 34 H       -7.4660    -4.7140     0.9240 H     1 <1>   0.0800 
 35 H       -8.7410    -3.6770     0.3270 H     1 <1>   0.0800 
 36 H      -10.0140    -4.0130     2.4070 H     1 <1>   0.0800 
 37 H       -8.6940    -4.9420     3.0840 H     1 <1>   0.0800 
 38 H      -10.4820    -5.7680     0.8520 H     1 <1>   0.3700 
 39 H       -7.8830    -8.8690     0.0580 H     1 <1>   0.0800 
 40 H       -9.2080    -9.8880    -0.4600 H     1 <1>   0.0800 
 41 H      -11.3630    -9.7760     1.2790 H     1 <1>   0.0800 
 42 H      -11.2070    -8.5760     2.5520 H     1 <1>   0.0800 
 43 H       -8.9530    -7.4420    -1.5670 H     1 <1>   0.1500 
 44 H      -12.5920    -7.8680     0.6500 H     1 <1>   0.1500 
 45 H       -7.5990   -10.1190     1.9920 H     1 <1>   0.0800 
 46 H       -8.5360   -11.3400     1.1540 H     1 <1>   0.0800 
 47 H      -10.1450   -11.0450     2.8070 H     1 <1>   0.0800 
 48 H       -9.2850    -9.6420     3.4100 H     1 <1>   0.0800 
 49 H      -10.2150    -6.5140    -3.4300 H     1 <1>   0.1500 
 50 H      -13.8270    -6.9430    -1.2210 H     1 <1>   0.1500 
 51 H      -12.6560    -6.2580    -3.2720 H     1 <1>   0.1500 
@<TRIPOS>BOND
  1   1   2  1   
  2   2   3  ar  
  3   2   4  ar  
  4   3   5  ar  
  5   3  28  1   
  6   4   6  ar  
  7   4  29  1   
  8   5   7  1   
  9   5   8  ar  
 10   6   8  ar  
 11   6  30  1   
 12   7   9  2   
 13   8  10  1   
 14   9  10  1   
 15   9  11  1   
 16  10  31  1   
 17  11  12  1   
 18  11  32  1   
 19  11  33  1   
 20  12  13  1   
 21  12  34  1   
 22  12  35  1   
 23  13  14  1   
 24  13  36  1   
 25  13  37  1   
 26  14  15  am  
 27  14  38  1   
 28  15  16  2   
 29  15  17  1   
 30  17  18  1   
 31  17  19  1   
 32  17  20  1   
 33  18  21  ar  
 34  18  22  ar  
 35  19  23  1   
 36  19  39  1   
 37  19  40  1   
 38  20  24  1   
 39  20  41  1   
 40  20  42  1   
 41  21  25  ar  
 42  21  43  1   
 43  22  26  ar  
 44  22  44  1   
 45  23  24  1   
 46  23  45  1   
 47  23  46  1   
 48  24  47  1   
 49  24  48  1   
 50  25  27  ar  
 51  25  49  1   
 52  26  27  ar  
 53  26  50  1   
 54  27  51  1   
@<TRIPOS>SUBSTRUCTURE
  1 ****  12 GROUP 4 **** **** 0

# MOE 2024.06 (io_trps.svl 2023.06)
