@<TRIPOS>MOLECULE
NONAME
49 52 1 0 0 
SMALL
USER_CHARGES


@<TRIPOS>ATOM
  1 O       -4.3480     2.6870    -1.3140 O.2   1 <1>  -0.5700 
  2 C       -3.1670     2.4280    -1.2850 C.2   1 <1>   0.6300 
  3 N       -2.7070     1.2040    -1.6460 N.am  1 <1>  -0.7300 
  4 C       -2.1460     3.4760    -0.8230 C.3   1 <1>   0.0320 
  5 C       -3.5380     0.0410    -2.0120 C.3   1 <1>   0.2200 
  6 C       -0.9180     2.8430    -0.1770 C.ar  1 <1>  -0.0320 
  7 C       -1.9680     4.7260    -1.6410 C.3   1 <1>  -0.2000 
  8 C       -2.5990     4.8080    -0.2880 C.3   1 <1>  -0.2000 
  9 C       -3.5170    -0.9540    -0.8650 C.3   1 <1>  -0.0800 
 10 C       -2.8580    -0.7470    -3.1290 C.3   1 <1>   0.1200 
 11 C       -0.9400     2.5000     1.1650 C.ar  1 <1>  -0.1500 
 12 C        0.2160     2.5740    -0.9270 C.ar  1 <1>  -0.1500 
 13 C       -2.2100    -1.7050    -1.1310 C.3   1 <1>   0.1200 
 14 C       -4.7430    -1.8860    -0.8990 C.3   1 <1>  -0.0170 
 15 O       -1.9890    -1.6530    -2.5100 O.3   1 <1>  -0.5600 
 16 C        0.1570     1.8910     1.7500 C.ar  1 <1>  -0.1500 
 17 C        1.3120     1.9640    -0.3430 C.ar  1 <1>  -0.1500 
 18 C       -4.7270    -2.8670     0.2630 C.ar  1 <1>  -0.1440 
 19 C        1.2870     1.6170     0.9980 C.ar  1 <1>  -0.1440 
 20 C       -5.0400    -2.4740     1.5480 C.ar  1 <1>  -0.1500 
 21 C       -4.4000    -4.1980     0.0960 C.ar  1 <1>  -0.1500 
 22 C        2.4900     0.9490     1.6390 C.3   1 <1>  -0.0970 
 23 C       -5.0070    -3.4030     2.5760 C.ar  1 <1>   0.1600 
 24 C       -4.3970    -5.0450     1.1910 C.ar  1 <1>   0.1600 
 25 N       -4.6910    -4.6790     2.4280 N.ar  1 <1>  -0.6200 
 26 H       -1.7080     1.0080    -1.5380 H     1 <1>   0.3700 
 27 H       -4.5310     0.3610    -2.2830 H     1 <1>   0.0800 
 28 H       -0.9820     5.1360    -1.7680 H     1 <1>   0.1000 
 29 H       -2.5930     4.8700    -2.5040 H     1 <1>   0.1000 
 30 H       -3.6550     5.0060    -0.2210 H     1 <1>   0.1000 
 31 H       -2.0420     5.2610     0.5130 H     1 <1>   0.1000 
 32 H       -3.4880    -0.4530     0.0870 H     1 <1>   0.0800 
 33 H       -2.3040    -0.1160    -3.8010 H     1 <1>   0.0800 
 34 H       -3.5810    -1.3200    -3.6820 H     1 <1>   0.0800 
 35 H       -1.8160     2.7040     1.7550 H     1 <1>   0.1500 
 36 H        0.2470     2.8370    -1.9700 H     1 <1>   0.1500 
 37 H       -2.2340    -2.7330    -0.8150 H     1 <1>   0.0800 
 38 H       -1.3840    -1.2060    -0.6520 H     1 <1>   0.0800 
 39 H       -4.7750    -2.4280    -1.8280 H     1 <1>   0.0800 
 40 H       -5.6410    -1.2950    -0.8370 H     1 <1>   0.0800 
 41 H        0.1260     1.6320     2.7940 H     1 <1>   0.1500 
 42 H        2.1870     1.7620    -0.9370 H     1 <1>   0.1500 
 43 H       -5.3100    -1.4560     1.7610 H     1 <1>   0.1500 
 44 H       -4.1450    -4.5840    -0.8740 H     1 <1>   0.1500 
 45 H        2.1790     0.3010     2.4390 H     1 <1>   0.0800 
 46 H        3.1520     1.6980     2.0360 H     1 <1>   0.0800 
 47 H        3.0240     0.3610     0.9150 H     1 <1>   0.0800 
 48 H       -5.2540    -3.0770     3.5720 H     1 <1>   0.1500 
 49 H       -4.1380    -6.0800     1.0420 H     1 <1>   0.1500 
@<TRIPOS>BOND
  1   1   2  2   
  2   2   3  am  
  3   2   4  1   
  4   3   5  1   
  5   3  26  1   
  6   4   6  1   
  7   4   7  1   
  8   4   8  1   
  9   5   9  1   
 10   5  10  1   
 11   5  27  1   
 12   6  11  ar  
 13   6  12  ar  
 14   7   8  1   
 15   7  28  1   
 16   7  29  1   
 17   8  30  1   
 18   8  31  1   
 19   9  13  1   
 20   9  14  1   
 21   9  32  1   
 22  10  15  1   
 23  10  33  1   
 24  10  34  1   
 25  11  16  ar  
 26  11  35  1   
 27  12  17  ar  
 28  12  36  1   
 29  13  15  1   
 30  13  37  1   
 31  13  38  1   
 32  14  18  1   
 33  14  39  1   
 34  14  40  1   
 35  16  19  ar  
 36  16  41  1   
 37  17  19  ar  
 38  17  42  1   
 39  18  20  ar  
 40  18  21  ar  
 41  19  22  1   
 42  20  23  ar  
 43  20  43  1   
 44  21  24  ar  
 45  21  44  1   
 46  22  45  1   
 47  22  46  1   
 48  22  47  1   
 49  23  25  ar  
 50  23  48  1   
 51  24  25  ar  
 52  24  49  1   
@<TRIPOS>SUBSTRUCTURE
  1 ****   9 GROUP 4 **** **** 0

# MOE 2024.06 (io_trps.svl 2023.06)
