@<TRIPOS>MOLECULE
NONAME
50 51 1 0 0 
SMALL
USER_CHARGES


@<TRIPOS>ATOM
  1 S        0.6670     0.2010     0.3310 S.3   1 <1>  -0.4600 
  2 C        0.2160    -1.4120     1.0310 C.3   1 <1>   0.2140 
  3 C        2.2580     0.5930     1.1490 C.3   1 <1>   0.1310 
  4 C       -1.1060    -1.8480     0.4240 C.ar  1 <1>  -0.1440 
  5 C        2.7760     1.9740     0.7620 C.2   1 <1>   0.5690 
  6 C       -2.2730    -1.1690     0.7360 C.ar  1 <1>  -0.1500 
  7 C       -1.1600    -2.9300    -0.4420 C.ar  1 <1>  -0.1500 
  8 O        3.7480     2.4070     1.3330 O.2   1 <1>  -0.5700 
  9 N        2.1380     2.6910    -0.1990 N.am  1 <1>  -0.7300 
 10 C       -3.4850    -1.5640     0.1950 C.ar  1 <1>  -0.1430 
 11 C       -2.3670    -3.3370    -0.9860 C.ar  1 <1>  -0.1430 
 12 C        2.5560     4.0260    -0.6890 C.3   1 <1>   0.1400 
 13 C       -3.5260    -2.6500    -0.6640 C.ar  1 <1>  -0.1500 
 14 C       -4.7580    -0.8120     0.5400 C.3   1 <1>  -0.0970 
 15 C       -2.4190    -4.5220    -1.9330 C.3   1 <1>  -0.0970 
 16 C        2.1400     5.1110     0.3080 C.3   1 <1>   0.1400 
 17 N        2.7670     6.4170    -0.0600 N.am  1 <1>  -0.4690 
 18 C        2.1170     7.2080    -1.0020 C.2   1 <1>   0.8410 
 19 C        3.9650     6.8320     0.4810 C.2   1 <1>  -0.0290 
 20 O        1.0870     6.8210    -1.5280 O.2   1 <1>  -0.5700 
 21 N        2.6210     8.4250    -1.3770 N.2   1 <1>  -0.6610 
 22 C        4.4470     8.0340     0.0850 C.2   1 <1>  -0.1360 
 23 C        4.7160     5.9630     1.4820 C.3   1 <1>  -0.1020 
 24 C        3.7260     8.8040    -0.8530 C.2   1 <1>   0.3750 
 25 C        4.2930    10.1460    -1.2590 C.3   1 <1>  -0.1790 
 26 H        0.1310    -1.2920     2.0960 H     1 <1>   0.0800 
 27 H        1.0080    -2.1000     0.7960 H     1 <1>   0.0800 
 28 H        2.9660    -0.1590     0.8550 H     1 <1>   0.0800 
 29 H        2.0940     0.5490     2.2090 H     1 <1>   0.0800 
 30 H       -2.2350    -0.3250     1.4010 H     1 <1>   0.1500 
 31 H       -0.2590    -3.4590    -0.6960 H     1 <1>   0.1500 
 32 H        1.2920     2.2830    -0.6170 H     1 <1>   0.3700 
 33 H        2.1060     4.2150    -1.6480 H     1 <1>   0.0800 
 34 H        3.6270     4.0330    -0.7990 H     1 <1>   0.0800 
 35 H       -4.4640    -2.9600    -1.0860 H     1 <1>   0.1500 
 36 H       -4.5410     0.2220     0.7350 H     1 <1>   0.0800 
 37 H       -5.2090    -1.2450     1.4150 H     1 <1>   0.0800 
 38 H       -5.4570    -0.8640    -0.2740 H     1 <1>   0.0800 
 39 H       -1.6570    -5.2380    -1.6820 H     1 <1>   0.0800 
 40 H       -2.2630    -4.1860    -2.9420 H     1 <1>   0.0800 
 41 H       -3.3750    -5.0100    -1.8730 H     1 <1>   0.0800 
 42 H        2.4350     4.8250     1.3000 H     1 <1>   0.0800 
 43 H        1.0680     5.2080     0.3050 H     1 <1>   0.0800 
 44 H        5.3720     8.4290     0.4610 H     1 <1>   0.1500 
 45 H        4.9140     4.9920     1.0650 H     1 <1>   0.0800 
 46 H        4.1380     5.8460     2.3810 H     1 <1>   0.0800 
 47 H        5.6570     6.4110     1.7460 H     1 <1>   0.0800 
 48 H        4.3850    10.7800    -0.3960 H     1 <1>   0.0800 
 49 H        3.6430    10.6250    -1.9690 H     1 <1>   0.0800 
 50 H        5.2580    10.0140    -1.7110 H     1 <1>   0.0800 
@<TRIPOS>BOND
  1   1   2  1   
  2   1   3  1   
  3   2   4  1   
  4   2  26  1   
  5   2  27  1   
  6   3   5  1   
  7   3  28  1   
  8   3  29  1   
  9   4   6  ar  
 10   4   7  ar  
 11   5   8  2   
 12   5   9  am  
 13   6  10  ar  
 14   6  30  1   
 15   7  11  ar  
 16   7  31  1   
 17   9  12  1   
 18   9  32  1   
 19  10  13  ar  
 20  10  14  1   
 21  11  13  ar  
 22  11  15  1   
 23  12  16  1   
 24  12  33  1   
 25  12  34  1   
 26  13  35  1   
 27  14  36  1   
 28  14  37  1   
 29  14  38  1   
 30  15  39  1   
 31  15  40  1   
 32  15  41  1   
 33  16  17  1   
 34  16  42  1   
 35  16  43  1   
 36  17  18  am  
 37  17  19  1   
 38  18  20  2   
 39  18  21  1   
 40  19  22  2   
 41  19  23  1   
 42  21  24  2   
 43  22  24  1   
 44  22  44  1   
 45  23  45  1   
 46  23  46  1   
 47  23  47  1   
 48  24  25  1   
 49  25  48  1   
 50  25  49  1   
 51  25  50  1   
@<TRIPOS>SUBSTRUCTURE
  1 ****   9 GROUP 4 **** **** 0

# MOE 2024.06 (io_trps.svl 2023.06)
