@<TRIPOS>MOLECULE
NONAME
52 54 1 0 0 
SMALL
USER_CHARGES


@<TRIPOS>ATOM
  1 O        0.4950    -0.9820    -0.2750 O.3   1 <1>  -0.5600 
  2 C       -0.0360    -2.2620     0.0200 C.3   1 <1>   0.2800 
  3 C       -0.2410     0.1590     0.0740 C.3   1 <1>   0.1200 
  4 C       -1.4150    -2.1850     0.7450 C.3   1 <1>   0.2000 
  5 C        1.0020    -2.9570     0.9290 C.3   1 <1>  -0.1600 
  6 C       -0.0910    -3.0120    -1.3270 C.3   1 <1>  -0.1600 
  7 C       -1.6520     0.0340    -0.5010 C.3   1 <1>  -0.1600 
  8 O       -1.9970    -3.4530     0.8530 O.3   1 <1>  -0.6800 
  9 C       -2.4050    -1.1410     0.1440 C.3   1 <1>   0.2800 
 10 C        2.2310    -3.5010     0.1930 C.3   1 <1>   0.3430 
 11 C        1.2650    -3.0910    -2.0390 C.3   1 <1>   0.3430 
 12 O       -3.1220    -0.6310     1.2080 O.3   1 <1>  -0.6800 
 13 C       -3.4650    -1.6960    -0.8200 C.3   1 <1>  -0.2400 
 14 N        2.3820    -2.7960    -1.1030 N.4   1 <1>  -0.9590 
 15 C        3.7250    -2.9450    -1.7080 C.3   1 <1>   0.5240 
 16 C        4.7460    -2.3840    -0.7350 C.2   1 <1>  -0.1810 
 17 C        5.6800    -3.0470     0.0030 C.2   1 <1>  -0.3320 
 18 C        4.8790    -1.0270    -0.4330 C.2   1 <1>  -0.1500 
 19 N        6.3830    -2.1450     0.7500 N.pl3 1 <1>   0.0480 
 20 C        5.9670    -4.5420     0.0360 C.3   1 <1>  -0.0600 
 21 C        5.8860    -0.9010     0.4770 C.2   1 <1>  -0.1320 
 22 C        7.5120    -2.4340     1.6670 C.3   1 <1>   0.0160 
 23 C        6.3890     0.2980     1.0790 C.1   1 <1>   0.5370 
 24 N        6.7970     1.2370     1.5780 N.1   1 <1>  -0.5570 
 25 H       -0.2570     0.2550     1.1470 H     1 <1>   0.0800 
 26 H        0.2620     1.0150    -0.3430 H     1 <1>   0.0800 
 27 H       -1.2040    -1.8770     1.7550 H     1 <1>   0.0800 
 28 H        1.3150    -2.2730     1.6970 H     1 <1>   0.0800 
 29 H        0.5440    -3.7910     1.4300 H     1 <1>   0.0800 
 30 H       -0.4410    -4.0150    -1.1580 H     1 <1>   0.0800 
 31 H       -0.7980    -2.5470    -1.9860 H     1 <1>   0.0800 
 32 H       -1.5580    -0.1210    -1.5610 H     1 <1>   0.0800 
 33 H       -2.1890     0.9540    -0.3600 H     1 <1>   0.0800 
 34 H       -2.8360    -3.3660     1.3530 H     1 <1>   0.4000 
 35 H        2.1110    -4.5570     0.0150 H     1 <1>   0.0800 
 36 H        3.1050    -3.3570     0.8090 H     1 <1>   0.0800 
 37 H        1.2800    -2.3690    -2.8400 H     1 <1>   0.0800 
 38 H        1.3860    -4.0730    -2.4690 H     1 <1>   0.0800 
 39 H       -3.8380    -0.0530     0.8810 H     1 <1>   0.4000 
 40 H       -2.9990    -2.1900    -1.6510 H     1 <1>   0.0800 
 41 H       -4.0790    -0.9040    -1.2080 H     1 <1>   0.0800 
 42 H       -4.0970    -2.4120    -0.3250 H     1 <1>   0.0800 
 43 H        2.2630    -1.7970    -0.8530 H     1 <1>   0.4500 
 44 H        3.9330    -3.9840    -1.9020 H     1 <1>   0.0800 
 45 H        3.7810    -2.4010    -2.6360 H     1 <1>   0.0800 
 46 H        4.2940    -0.2240    -0.8490 H     1 <1>   0.1500 
 47 H        5.3320    -5.0790    -0.6430 H     1 <1>   0.0800 
 48 H        5.8080    -4.9310     1.0270 H     1 <1>   0.0800 
 49 H        6.9890    -4.7270    -0.2450 H     1 <1>   0.0800 
 50 H        7.5130    -3.4710     1.9440 H     1 <1>   0.0800 
 51 H        7.4200    -1.8380     2.5560 H     1 <1>   0.0800 
 52 H        8.4370    -2.1960     1.1730 H     1 <1>   0.0800 
@<TRIPOS>BOND
  1   1   2  1   
  2   1   3  1   
  3   2   4  1   
  4   2   5  1   
  5   2   6  1   
  6   3   7  1   
  7   3  25  1   
  8   3  26  1   
  9   4   8  1   
 10   4   9  1   
 11   4  27  1   
 12   5  10  1   
 13   5  28  1   
 14   5  29  1   
 15   6  11  1   
 16   6  30  1   
 17   6  31  1   
 18   7   9  1   
 19   7  32  1   
 20   7  33  1   
 21   8  34  1   
 22   9  12  1   
 23   9  13  1   
 24  10  14  1   
 25  10  35  1   
 26  10  36  1   
 27  11  14  1   
 28  11  37  1   
 29  11  38  1   
 30  12  39  1   
 31  13  40  1   
 32  13  41  1   
 33  13  42  1   
 34  14  15  1   
 35  14  43  1   
 36  15  16  1   
 37  15  44  1   
 38  15  45  1   
 39  16  17  2   
 40  16  18  1   
 41  17  19  1   
 42  17  20  1   
 43  18  21  2   
 44  18  46  1   
 45  19  21  1   
 46  19  22  1   
 47  20  47  1   
 48  20  48  1   
 49  20  49  1   
 50  21  23  1   
 51  22  50  1   
 52  22  51  1   
 53  22  52  1   
 54  23  24  3   
@<TRIPOS>SUBSTRUCTURE
  1 ****  14 GROUP 4 **** **** 0

# MOE 2024.06 (io_trps.svl 2023.06)
