@<TRIPOS>MOLECULE
NONAME
51 53 1 0 0 
SMALL
USER_CHARGES


@<TRIPOS>ATOM
  1 CL      -0.9830     1.5940    -2.5130 Cl    1 <1>  -0.1770 
  2 C       -0.4470     2.7970    -1.3710 C.ar  1 <1>   0.1770 
  3 C        0.4010     3.8130    -1.7740 C.ar  1 <1>   0.1600 
  4 C       -0.8690     2.7360    -0.0640 C.ar  1 <1>  -0.1500 
  5 N        0.8580     4.7640    -0.9740 N.ar  1 <1>  -0.6200 
  6 C       -0.3990     3.7260     0.7740 C.ar  1 <1>  -0.1500 
  7 C        0.4610     4.7310     0.3160 C.ar  1 <1>   0.3960 
  8 C        0.9050     5.7550     1.2720 C.2   1 <1>   0.5440 
  9 O        0.1120     6.1270     2.1230 O.2   1 <1>  -0.5700 
 10 N        2.1800     6.3100     1.3030 N.am  1 <1>  -0.6600 
 11 C        3.3300     5.7350     0.5330 C.3   1 <1>   0.1400 
 12 C        2.4920     7.4160     2.2630 C.3   1 <1>   0.1400 
 13 C        3.5810     6.5100    -0.7680 C.3   1 <1>   0.1400 
 14 C        3.5430     8.4230     1.7770 C.3   1 <1>  -0.1600 
 15 N        4.2340     7.8270    -0.5090 N.am  1 <1>  -0.6600 
 16 C        3.4330     8.7880     0.2940 C.3   1 <1>   0.1400 
 17 C        5.5640     8.0470    -0.8120 C.2   1 <1>   0.7160 
 18 O        6.2360     7.1180    -1.2270 O.2   1 <1>  -0.5700 
 19 C        6.1720     9.3490    -0.6230 C.2   1 <1>  -0.0860 
 20 C        5.9350    10.5160    -1.3110 C.2   1 <1>  -0.3320 
 21 C        7.1440     9.6800     0.3360 C.2   1 <1>  -0.1810 
 22 N        6.6990    11.5030    -0.8110 N.pl3 1 <1>   0.0330 
 23 C        4.9830    10.7300    -2.4750 C.3   1 <1>  -0.0600 
 24 C        7.4550    11.0140     0.2220 C.2   1 <1>  -0.2370 
 25 C        7.7250     8.6720     1.3160 C.3   1 <1>  -0.0590 
 26 C        8.3610    11.8380     0.9760 C.2   1 <1>   0.5940 
 27 O        8.9100    11.4920     1.9900 O.2   1 <1>  -0.5700 
 28 C        8.6540    13.2430     0.4930 C.3   1 <1>  -0.1790 
 29 H        0.7110     3.8360    -2.8050 H     1 <1>   0.1500 
 30 H       -1.5300     1.9580     0.2750 H     1 <1>   0.1500 
 31 H       -0.7010     3.7340     1.8080 H     1 <1>   0.1500 
 32 H        3.1230     4.7090     0.2910 H     1 <1>   0.0800 
 33 H        4.2220     5.7420     1.1350 H     1 <1>   0.0800 
 34 H        2.8130     6.9850     3.1960 H     1 <1>   0.0800 
 35 H        1.5870     7.9650     2.4610 H     1 <1>   0.0800 
 36 H        2.6520     6.6680    -1.2860 H     1 <1>   0.0800 
 37 H        4.2050     5.9120    -1.4080 H     1 <1>   0.0800 
 38 H        4.5310     8.0590     1.9940 H     1 <1>   0.0800 
 39 H        3.4150     9.3210     2.3550 H     1 <1>   0.0800 
 40 H        3.8010     9.7870     0.1470 H     1 <1>   0.0800 
 41 H        2.4040     8.7700    -0.0260 H     1 <1>   0.0800 
 42 H        6.7170    12.4700    -1.1510 H     1 <1>   0.2700 
 43 H        4.4830     9.8120    -2.7290 H     1 <1>   0.0800 
 44 H        5.5260    11.0680    -3.3400 H     1 <1>   0.0800 
 45 H        4.2390    11.4630    -2.2190 H     1 <1>   0.0800 
 46 H        7.9040     7.7350     0.8220 H     1 <1>   0.0800 
 47 H        7.0410     8.5140     2.1280 H     1 <1>   0.0800 
 48 H        8.6610     9.0160     1.7160 H     1 <1>   0.0800 
 49 H        8.9630    13.2220    -0.5340 H     1 <1>   0.0800 
 50 H        9.4470    13.6700     1.0810 H     1 <1>   0.0800 
 51 H        7.7780    13.8550     0.6020 H     1 <1>   0.0800 
@<TRIPOS>BOND
  1   1   2  1   
  2   2   3  ar  
  3   2   4  ar  
  4   3   5  ar  
  5   3  29  1   
  6   4   6  ar  
  7   4  30  1   
  8   5   7  ar  
  9   6   7  ar  
 10   6  31  1   
 11   7   8  1   
 12   8   9  2   
 13   8  10  am  
 14  10  11  1   
 15  10  12  1   
 16  11  13  1   
 17  11  32  1   
 18  11  33  1   
 19  12  14  1   
 20  12  34  1   
 21  12  35  1   
 22  13  15  1   
 23  13  36  1   
 24  13  37  1   
 25  14  16  1   
 26  14  38  1   
 27  14  39  1   
 28  15  16  1   
 29  15  17  am  
 30  16  40  1   
 31  16  41  1   
 32  17  18  2   
 33  17  19  1   
 34  19  20  2   
 35  19  21  1   
 36  20  22  1   
 37  20  23  1   
 38  21  24  2   
 39  21  25  1   
 40  22  24  1   
 41  22  42  1   
 42  23  43  1   
 43  23  44  1   
 44  23  45  1   
 45  24  26  1   
 46  25  46  1   
 47  25  47  1   
 48  25  48  1   
 49  26  27  2   
 50  26  28  1   
 51  28  49  1   
 52  28  50  1   
 53  28  51  1   
@<TRIPOS>SUBSTRUCTURE
  1 ****  15 GROUP 4 **** **** 0

# MOE 2024.06 (io_trps.svl 2023.06)
