@<TRIPOS>MOLECULE
NONAME
47 48 1 0 0 
SMALL
USER_CHARGES


@<TRIPOS>ATOM
  1 O        2.7360     0.9510     1.8270 O.2   1 <1>  -0.5700 
  2 C        3.1430     0.5230     0.7750 C.2   1 <1>   0.5690 
  3 N        2.9190    -0.7180     0.2890 N.am  1 <1>  -0.6600 
  4 C        3.9790     1.3250    -0.1800 C.3   1 <1>  -0.0990 
  5 C        3.5270    -0.9370    -1.0310 C.3   1 <1>   0.1400 
  6 C        2.1980    -1.8050     1.0000 C.3   1 <1>   0.1400 
  7 C        3.9920     0.4650    -1.4630 C.3   1 <1>  -0.0800 
  8 C        0.7040    -1.4940     1.0790 C.3   1 <1>   0.1200 
  9 C        5.3520     0.4290    -2.1700 C.3   1 <1>   0.2090 
 10 O        0.0400    -2.6250     1.5520 O.3   1 <1>  -0.5600 
 11 N        5.7300     1.7920    -2.5990 N.pl3 1 <1>  -0.8690 
 12 C       -1.3210    -2.4300     1.7590 C.3   1 <1>   0.0400 
 13 C        6.6070     2.5590    -1.9010 C.ar  1 <1>   0.4100 
 14 N        6.1500     3.7640    -1.6150 N.ar  1 <1>  -0.6200 
 15 C        7.8660     2.1050    -1.5200 C.ar  1 <1>  -0.1500 
 16 C        6.9660     4.5400    -0.9210 C.ar  1 <1>   0.1600 
 17 C        8.7000     2.9260    -0.8000 C.ar  1 <1>  -0.1500 
 18 C        8.2480     4.2060    -0.4820 C.ar  1 <1>   0.0860 
 19 C        9.0410     5.1600     0.2600 C.2   1 <1>   0.5440 
 20 O        8.5110     6.0970     0.8260 O.2   1 <1>  -0.5700 
 21 N       10.4030     5.0450     0.3320 N.am  1 <1>  -0.7300 
 22 C       11.2920     5.9490     1.0850 C.3   1 <1>   0.1400 
 23 C       12.4370     5.1310     1.6690 C.3   1 <1>  -0.2400 
 24 H        4.9610     1.4390     0.2390 H     1 <1>   0.0800 
 25 H        3.5460     2.2930    -0.3520 H     1 <1>   0.0800 
 26 H        2.8040    -1.3400    -1.7200 H     1 <1>   0.0800 
 27 H        4.3550    -1.6170    -0.9280 H     1 <1>   0.0800 
 28 H        2.5920    -1.8940     1.9980 H     1 <1>   0.0800 
 29 H        2.3450    -2.7350     0.4800 H     1 <1>   0.0800 
 30 H        3.2560     0.8490    -2.1460 H     1 <1>   0.0800 
 31 H        0.3180    -1.2570     0.1030 H     1 <1>   0.0800 
 32 H        0.5340    -0.6760     1.7590 H     1 <1>   0.0800 
 33 H        5.2980    -0.2050    -3.0390 H     1 <1>   0.0800 
 34 H        6.0990     0.0290    -1.5050 H     1 <1>   0.0800 
 35 H        4.9310     2.3580    -2.8980 H     1 <1>   0.4000 
 36 H       -1.7410    -3.3540     2.1140 H     1 <1>   0.0800 
 37 H       -1.7860    -2.1520     0.8290 H     1 <1>   0.0800 
 38 H       -1.4610    -1.6610     2.4990 H     1 <1>   0.0800 
 39 H        8.1720     1.1160    -1.8010 H     1 <1>   0.1500 
 40 H        6.5990     5.5230    -0.6770 H     1 <1>   0.1500 
 41 H        9.6710     2.5860    -0.4890 H     1 <1>   0.1500 
 42 H       10.8800     4.3620    -0.2560 H     1 <1>   0.3700 
 43 H       10.7420     6.4310     1.8780 H     1 <1>   0.0800 
 44 H       11.6730     6.7090     0.4240 H     1 <1>   0.0800 
 45 H       12.0530     4.3750     2.3310 H     1 <1>   0.0800 
 46 H       13.0880     5.7750     2.2330 H     1 <1>   0.0800 
 47 H       13.0110     4.6700     0.8850 H     1 <1>   0.0800 
@<TRIPOS>BOND
  1   1   2  2   
  2   2   3  am  
  3   2   4  1   
  4   3   5  1   
  5   3   6  1   
  6   4   7  1   
  7   4  24  1   
  8   4  25  1   
  9   5   7  1   
 10   5  26  1   
 11   5  27  1   
 12   6   8  1   
 13   6  28  1   
 14   6  29  1   
 15   7   9  1   
 16   7  30  1   
 17   8  10  1   
 18   8  31  1   
 19   8  32  1   
 20   9  11  1   
 21   9  33  1   
 22   9  34  1   
 23  10  12  1   
 24  11  13  1   
 25  11  35  1   
 26  12  36  1   
 27  12  37  1   
 28  12  38  1   
 29  13  14  ar  
 30  13  15  ar  
 31  14  16  ar  
 32  15  17  ar  
 33  15  39  1   
 34  16  18  ar  
 35  16  40  1   
 36  17  18  ar  
 37  17  41  1   
 38  18  19  1   
 39  19  20  2   
 40  19  21  am  
 41  21  22  1   
 42  21  42  1   
 43  22  23  1   
 44  22  43  1   
 45  22  44  1   
 46  23  45  1   
 47  23  46  1   
 48  23  47  1   
@<TRIPOS>SUBSTRUCTURE
  1 ****   4 GROUP 4 **** **** 0

# MOE 2024.06 (io_trps.svl 2023.06)
