@<TRIPOS>MOLECULE
NONAME
33 34 1 0 0 
SMALL
USER_CHARGES


@<TRIPOS>ATOM
  1 CL      -0.0650    -0.3710    -1.3050 Cl    1 <1>  -0.1770 
  2 C        1.2790    -1.2070    -0.5650 C.ar  1 <1>   0.1770 
  3 C        1.0830    -2.1670     0.4220 C.ar  1 <1>  -0.0090 
  4 C        2.5440    -0.8600    -1.0140 C.ar  1 <1>  -0.1500 
  5 S       -0.5710    -2.6180     0.9940 S.o2  1 <1>   1.4470 
  6 C        2.2150    -2.7780     0.9540 C.ar  1 <1>  -0.1500 
  7 C        3.6570    -1.4780    -0.4740 C.ar  1 <1>  -0.1500 
  8 O       -0.4270    -3.6890     1.9570 O.2   1 <1>  -0.6500 
  9 O       -1.2620    -1.4100     1.3910 O.2   1 <1>  -0.6500 
 10 N       -1.2850    -3.2460    -0.4110 N.am  1 <1>  -0.8490 
 11 C        3.4780    -2.4330     0.5070 C.ar  1 <1>   0.1770 
 12 C       -1.0280    -4.6880    -0.6750 C.3   1 <1>   0.1960 
 13 C       -2.6970    -2.8910    -0.5890 C.3   1 <1>   0.1960 
 14 CL       4.8720    -3.2210     1.1970 Cl    1 <1>  -0.1770 
 15 C       -2.2360    -5.6310    -0.4520 C.3   1 <1>   0.2000 
 16 C       -3.6110    -3.6480     0.3890 C.3   1 <1>  -0.1600 
 17 O       -2.9560    -5.7350    -1.6340 O.3   1 <1>  -0.6800 
 18 C       -3.1780    -5.1150     0.6420 C.3   1 <1>  -0.1860 
 19 C       -4.3530    -6.0580     0.8170 C.2   1 <1>   0.9060 
 20 O       -4.5730    -6.5430     1.9290 O.co2 1 <1>  -0.9000 
 21 O       -5.0400    -6.3330    -0.1780 O.co2 1 <1>  -0.9000 
 22 H        2.6500    -0.1110    -1.7800 H     1 <1>   0.1500 
 23 H        2.1190    -3.5270     1.7220 H     1 <1>   0.1500 
 24 H        4.6500    -1.2270    -0.8060 H     1 <1>   0.1500 
 25 H       -0.7060    -4.7980    -1.6960 H     1 <1>   0.0800 
 26 H       -0.2180    -5.0310    -0.0560 H     1 <1>   0.0800 
 27 H       -2.8360    -1.8280    -0.4800 H     1 <1>   0.0800 
 28 H       -2.9840    -3.1440    -1.5960 H     1 <1>   0.0800 
 29 H       -1.8950    -6.6220    -0.2080 H     1 <1>   0.0800 
 30 H       -3.6530    -3.1260     1.3280 H     1 <1>   0.0800 
 31 H       -4.6060    -3.6370    -0.0200 H     1 <1>   0.0800 
 32 H       -3.8770    -6.0360    -1.3620 H     1 <1>   0.4000 
 33 H       -2.6300    -5.1400     1.5660 H     1 <1>   0.0800 
@<TRIPOS>BOND
  1   1   2  1   
  2   2   3  ar  
  3   2   4  ar  
  4   3   5  1   
  5   3   6  ar  
  6   4   7  ar  
  7   4  22  1   
  8   5   8  2   
  9   5   9  2   
 10   5  10  am  
 11   6  11  ar  
 12   6  23  1   
 13   7  11  ar  
 14   7  24  1   
 15  10  12  1   
 16  10  13  1   
 17  11  14  1   
 18  12  15  1   
 19  12  25  1   
 20  12  26  1   
 21  13  16  1   
 22  13  27  1   
 23  13  28  1   
 24  15  17  1   
 25  15  18  1   
 26  15  29  1   
 27  16  18  1   
 28  16  30  1   
 29  16  31  1   
 30  17  32  1   
 31  18  19  1   
 32  18  33  1   
 33  19  20  ar  
 34  19  21  ar  
@<TRIPOS>SUBSTRUCTURE
  1 ****  10 GROUP 4 **** **** 0

# MOE 2024.06 (io_trps.svl 2023.06)
