@<TRIPOS>MOLECULE
NONAME
35 37 1 0 0 
SMALL
USER_CHARGES


@<TRIPOS>ATOM
  1 CL      -2.2250    -0.6860     2.6620 Cl    1 <1>  -0.1770 
  2 C       -2.7380     0.2120     1.2500 C.ar  1 <1>   0.1770 
  3 C       -3.3780    -0.4350     0.1970 C.ar  1 <1>   0.0820 
  4 C       -2.4830     1.5710     1.2150 C.ar  1 <1>  -0.1500 
  5 O       -3.5910    -1.7740     0.2950 O.3   1 <1>  -0.3630 
  6 C       -3.7660     0.3200    -0.9090 C.ar  1 <1>  -0.1500 
  7 C       -2.8710     2.3090     0.1100 C.ar  1 <1>  -0.1500 
  8 C       -4.0970    -2.5260    -0.7980 C.3   1 <1>   0.1810 
  9 C       -3.5110     1.6820    -0.9480 C.ar  1 <1>  -0.1500 
 10 C       -4.1540    -4.0190    -0.4870 C.2   1 <1>   0.5690 
 11 O       -3.4030    -4.7400    -1.1070 O.2   1 <1>  -0.5700 
 12 N       -5.0530    -4.5120     0.4140 N.am  1 <1>  -0.6600 
 13 C       -6.0810    -3.7310     1.1610 C.3   1 <1>   0.2350 
 14 C       -5.3590    -5.9640     0.5490 C.3   1 <1>   0.2350 
 15 C       -7.3070    -4.6260     1.1820 C.3   1 <1>  -0.2420 
 16 C       -6.8550    -6.0210     0.8190 C.3   1 <1>  -0.2420 
 17 C       -8.3310    -4.0990     2.1890 C.2   1 <1>   0.9470 
 18 C       -7.8170    -5.2820    -0.0770 C.3   1 <1>  -0.2000 
 19 C       -7.2590    -7.3880     1.3790 C.2   1 <1>   0.9470 
 20 O       -9.4420    -3.7300     1.7840 O.co2 1 <1>  -0.9000 
 21 O       -7.9710    -3.8820     3.3530 O.co2 1 <1>  -0.9000 
 22 O       -8.1370    -8.0480     0.8060 O.co2 1 <1>  -0.9000 
 23 O       -6.5930    -7.8780     2.3020 O.co2 1 <1>  -0.9000 
 24 H       -1.9860     2.0400     2.0440 H     1 <1>   0.1500 
 25 H       -4.2670    -0.1270    -1.7460 H     1 <1>   0.1500 
 26 H       -2.6760     3.3670     0.0730 H     1 <1>   0.1500 
 27 H       -5.0830    -2.1720    -1.0330 H     1 <1>   0.0800 
 28 H       -3.4460    -2.3720    -1.6380 H     1 <1>   0.0800 
 29 H       -3.8120     2.2600    -1.8050 H     1 <1>   0.1500 
 30 H       -5.7360    -3.5590     2.1670 H     1 <1>   0.0800 
 31 H       -6.3110    -2.7930     0.6930 H     1 <1>   0.0800 
 32 H       -5.1090    -6.5080    -0.3450 H     1 <1>   0.0800 
 33 H       -4.8120    -6.3670     1.3850 H     1 <1>   0.0800 
 34 H       -7.4850    -4.9300    -1.0360 H     1 <1>   0.1000 
 35 H       -8.8420    -5.6120    -0.0910 H     1 <1>   0.1000 
@<TRIPOS>BOND
  1   1   2  1   
  2   2   3  ar  
  3   2   4  ar  
  4   3   5  1   
  5   3   6  ar  
  6   4   7  ar  
  7   4  24  1   
  8   5   8  1   
  9   6   9  ar  
 10   6  25  1   
 11   7   9  ar  
 12   7  26  1   
 13   8  10  1   
 14   8  27  1   
 15   8  28  1   
 16   9  29  1   
 17  10  11  2   
 18  10  12  am  
 19  12  13  1   
 20  12  14  1   
 21  13  15  1   
 22  13  30  1   
 23  13  31  1   
 24  14  16  1   
 25  14  32  1   
 26  14  33  1   
 27  15  16  1   
 28  15  17  1   
 29  15  18  1   
 30  16  18  1   
 31  16  19  1   
 32  17  20  ar  
 33  17  21  ar  
 34  18  34  1   
 35  18  35  1   
 36  19  22  ar  
 37  19  23  ar  
@<TRIPOS>SUBSTRUCTURE
  1 ****  13 GROUP 4 **** **** 0

# MOE 2024.06 (io_trps.svl 2023.06)
