@<TRIPOS>MOLECULE
NONAME
21 22 1 0 0 
SMALL
USER_CHARGES


@<TRIPOS>ATOM
  1 O        0.0830    -0.3850     0.8850 O.2   1 <1>  -0.5700 
  2 C        0.2890    -1.5260     0.5190 C.2   1 <1>   0.7160 
  3 N        1.5980    -1.8730     0.4180 N.am  1 <1>  -0.7300 
  4 C       -0.8030    -2.4240     0.2030 C.2   1 <1>  -0.0860 
  5 C        2.1860    -3.1000    -0.1460 C.3   1 <1>   0.1400 
  6 C       -0.8410    -3.7750    -0.0730 C.2   1 <1>  -0.3320 
  7 C       -2.1450    -1.9980     0.1180 C.2   1 <1>  -0.1500 
  8 C        1.5920    -4.3430     0.5170 C.3   1 <1>  -0.1600 
  9 N       -2.1180    -4.1560    -0.3230 N.pl3 1 <1>   0.0330 
 10 C        0.2790    -4.8010    -0.1270 C.3   1 <1>   0.0200 
 11 C       -2.9130    -3.0650    -0.2030 C.2   1 <1>  -0.3020 
 12 H        2.2420    -1.1150     0.6410 H     1 <1>   0.3700 
 13 H        3.2470    -3.0780     0.0370 H     1 <1>   0.0800 
 14 H        2.0280    -3.1220    -1.2120 H     1 <1>   0.0800 
 15 H       -2.4620    -0.9820     0.2870 H     1 <1>   0.1500 
 16 H        1.4500    -4.1670     1.5700 H     1 <1>   0.0800 
 17 H        2.3010    -5.1450     0.4170 H     1 <1>   0.0800 
 18 H       -2.4370    -5.1020    -0.5560 H     1 <1>   0.2700 
 19 H        0.4590    -5.0610    -1.1560 H     1 <1>   0.0800 
 20 H       -0.0460    -5.6930     0.3800 H     1 <1>   0.0800 
 21 H       -3.9770    -3.1060    -0.3500 H     1 <1>   0.1500 
@<TRIPOS>BOND
  1   1   2  2   
  2   2   3  am  
  3   2   4  1   
  4   3   5  1   
  5   3  12  1   
  6   4   6  2   
  7   4   7  1   
  8   5   8  1   
  9   5  13  1   
 10   5  14  1   
 11   6   9  1   
 12   6  10  1   
 13   7  11  2   
 14   7  15  1   
 15   8  10  1   
 16   8  16  1   
 17   8  17  1   
 18   9  11  1   
 19   9  18  1   
 20  10  19  1   
 21  10  20  1   
 22  11  21  1   
@<TRIPOS>SUBSTRUCTURE
  1 ****   4 GROUP 4 **** **** 0

# MOE 2024.06 (io_trps.svl 2023.06)
