@<TRIPOS>MOLECULE
NONAME
46 48 1 0 0 
SMALL
USER_CHARGES


@<TRIPOS>ATOM
  1 S       -0.2020     0.0090     0.1390 S.o2  1 <1>   1.3330 
  2 O       -0.3740    -0.6770     1.4000 O.2   1 <1>  -0.6500 
  3 O       -0.7690     1.3260    -0.0390 O.2   1 <1>  -0.6500 
  4 N       -0.8160    -1.0000    -1.0820 N.am  1 <1>  -0.8490 
  5 C        1.5390     0.1090    -0.2810 C.3   1 <1>  -0.0550 
  6 C       -0.6460    -2.4290    -0.7940 C.3   1 <1>   0.1160 
  7 C       -2.2220    -0.7160    -1.3810 C.3   1 <1>   0.1160 
  8 C        2.3510     1.0370     0.6440 C.3   1 <1>  -0.0800 
  9 C        3.7510     1.2610     0.0970 C.3   1 <1>   0.2200 
 10 C        2.6590     0.3720     1.9850 C.3   1 <1>   0.1200 
 11 N        4.2910     2.5270     0.6370 N.am  1 <1>  -0.7300 
 12 C        4.5270     0.0750     0.6700 C.3   1 <1>   0.1200 
 13 O        3.8010    -0.3980     1.7690 O.3   1 <1>  -0.5600 
 14 C        4.6850     3.6200    -0.0790 C.2   1 <1>   0.7160 
 15 O        4.5640     3.5930    -1.2930 O.2   1 <1>  -0.5700 
 16 C        5.2330     4.7690     0.6280 C.2   1 <1>   0.2030 
 17 N        5.3570     4.8610     1.9460 N.2   1 <1>  -0.7070 
 18 C        5.7100     5.9420     0.0270 C.2   1 <1>  -0.1810 
 19 N        5.9000     6.0700     2.1750 N.pl3 1 <1>   0.3000 
 20 C        6.1110     6.7380     1.0280 C.2   1 <1>  -0.3320 
 21 C        5.8080     6.3490    -1.4370 C.3   1 <1>   0.3010 
 22 C        6.6920     8.1150     0.7860 C.3   1 <1>   0.0200 
 23 O        6.6470     7.4750    -1.5570 O.3   1 <1>  -0.5600 
 24 C        6.3800     8.5300    -0.6680 C.3   1 <1>   0.1200 
 25 H        1.9670    -0.8750    -0.2680 H     1 <1>   0.0800 
 26 H        1.6100     0.4820    -1.2840 H     1 <1>   0.0800 
 27 H       -0.9660    -3.0160    -1.6390 H     1 <1>   0.0800 
 28 H       -1.2270    -2.7120     0.0690 H     1 <1>   0.0800 
 29 H        0.3890    -2.6500    -0.6000 H     1 <1>   0.0800 
 30 H       -2.5750    -1.3620    -2.1680 H     1 <1>   0.0800 
 31 H       -2.3310     0.3040    -1.7110 H     1 <1>   0.0800 
 32 H       -2.8290    -0.8620    -0.5030 H     1 <1>   0.0800 
 33 H        1.8230     1.9680     0.7700 H     1 <1>   0.0800 
 34 H        3.7840     1.2740    -0.9800 H     1 <1>   0.0800 
 35 H        1.8720    -0.2620     2.3530 H     1 <1>   0.0800 
 36 H        2.8990     1.1100     2.7310 H     1 <1>   0.0800 
 37 H        4.4330     2.5880     1.6490 H     1 <1>   0.3700 
 38 H        5.5180     0.3480     0.9880 H     1 <1>   0.0800 
 39 H        4.5830    -0.7250    -0.0470 H     1 <1>   0.0800 
 40 H        6.1150     6.4110     3.1200 H     1 <1>   0.2700 
 41 H        4.8380     6.5980    -1.8290 H     1 <1>   0.0800 
 42 H        6.2360     5.5560    -2.0250 H     1 <1>   0.0800 
 43 H        7.7570     8.0940     0.9320 H     1 <1>   0.0800 
 44 H        6.2660     8.8340     1.4620 H     1 <1>   0.0800 
 45 H        6.9880     9.3680    -0.9570 H     1 <1>   0.0800 
 46 H        5.3430     8.7980    -0.7700 H     1 <1>   0.0800 
@<TRIPOS>BOND
  1   1   2  2   
  2   1   3  2   
  3   1   4  am  
  4   1   5  1   
  5   4   6  1   
  6   4   7  1   
  7   5   8  1   
  8   5  25  1   
  9   5  26  1   
 10   6  27  1   
 11   6  28  1   
 12   6  29  1   
 13   7  30  1   
 14   7  31  1   
 15   7  32  1   
 16   8   9  1   
 17   8  10  1   
 18   8  33  1   
 19   9  11  1   
 20   9  12  1   
 21   9  34  1   
 22  10  13  1   
 23  10  35  1   
 24  10  36  1   
 25  11  14  am  
 26  11  37  1   
 27  12  13  1   
 28  12  38  1   
 29  12  39  1   
 30  14  15  2   
 31  14  16  1   
 32  16  17  2   
 33  16  18  1   
 34  17  19  1   
 35  18  20  2   
 36  18  21  1   
 37  19  20  1   
 38  19  40  1   
 39  20  22  1   
 40  21  23  1   
 41  21  41  1   
 42  21  42  1   
 43  22  24  1   
 44  22  43  1   
 45  22  44  1   
 46  23  24  1   
 47  24  45  1   
 48  24  46  1   
@<TRIPOS>SUBSTRUCTURE
  1 ****  11 GROUP 4 **** **** 0

# MOE 2024.06 (io_trps.svl 2023.06)
