@<TRIPOS>MOLECULE
NONAME
55 57 1 0 0 
SMALL
USER_CHARGES


@<TRIPOS>ATOM
  1 O        0.9560     0.0830     0.9350 O.3   1 <1>  -0.6800 
  2 C        1.4660    -0.3220    -0.2930 C.3   1 <1>   0.2000 
  3 C        2.2430    -1.6210    -0.0720 C.3   1 <1>  -0.0800 
  4 C        2.5580     0.6750    -0.6730 C.3   1 <1>   0.3430 
  5 C        3.6590    -1.1550     0.3160 C.3   1 <1>   0.3430 
  6 C        2.2520    -2.5030    -1.3390 C.3   1 <1>  -0.0170 
  7 N        3.6620     0.3440     0.2770 N.4   1 <1>  -0.9590 
  8 C        3.0120    -3.8070    -1.1310 C.ar  1 <1>   0.1670 
  9 C        4.9840     0.9830     0.0170 C.3   1 <1>   0.4230 
 10 N        4.3320    -3.7140    -1.0560 N.ar  1 <1>  -0.6200 
 11 C        2.3180    -5.0130    -1.0380 C.ar  1 <1>   0.1600 
 12 C        5.9960     0.5500     1.0800 C.3   1 <1>  -0.1600 
 13 C        4.8490     2.5070     0.0650 C.3   1 <1>  -0.1600 
 14 C        4.9030    -4.9010    -0.8980 C.ar  1 <1>   0.1600 
 15 N        2.8880    -6.1910    -0.8650 N.ar  1 <1>  -0.6200 
 16 C        7.3730     1.1930     0.8670 C.3   1 <1>   0.5030 
 17 C        6.1880     3.2180    -0.1780 C.3   1 <1>   0.5030 
 18 C        4.2040    -6.0980    -0.8040 C.ar  1 <1>   0.1600 
 19 N        7.2580     2.6420     0.6480 N.4   1 <1>  -0.9060 
 20 C        8.2180     1.0330     2.1300 C.3   1 <1>  -0.2400 
 21 C        8.1270     0.5480    -0.2990 C.3   1 <1>  -0.2400 
 22 C        6.5920     3.1780    -1.6540 C.3   1 <1>  -0.2400 
 23 C        6.0800     4.6810     0.2490 C.3   1 <1>  -0.2400 
 24 H        0.1330    -0.4040     1.1610 H     1 <1>   0.4000 
 25 H        0.6650    -0.3800    -1.0120 H     1 <1>   0.0800 
 26 H        1.8110    -2.1950     0.7310 H     1 <1>   0.0800 
 27 H        2.2070     1.6880    -0.5570 H     1 <1>   0.0800 
 28 H        2.8720     0.5070    -1.6890 H     1 <1>   0.0800 
 29 H        4.3760    -1.5330    -0.3930 H     1 <1>   0.0800 
 30 H        3.9190    -1.5160     1.2980 H     1 <1>   0.0800 
 31 H        2.7020    -1.9780    -2.1640 H     1 <1>   0.0800 
 32 H        1.2390    -2.7300    -1.6210 H     1 <1>   0.0800 
 33 H        3.2840     0.6380     1.1930 H     1 <1>   0.4500 
 34 H        5.3350     0.6800    -0.9580 H     1 <1>   0.0800 
 35 H        1.2440    -5.0100    -1.1100 H     1 <1>   0.1500 
 36 H        6.1250    -0.5170     1.0640 H     1 <1>   0.0800 
 37 H        5.6250     0.8180     2.0540 H     1 <1>   0.0800 
 38 H        4.4610     2.7980     1.0250 H     1 <1>   0.0800 
 39 H        4.1540     2.8460    -0.6820 H     1 <1>   0.0800 
 40 H        5.9770    -4.9340    -0.8410 H     1 <1>   0.1500 
 41 H        4.7560    -7.0130    -0.6750 H     1 <1>   0.1500 
 42 H        8.1540     2.9710     0.2710 H     1 <1>   0.4500 
 43 H        7.1910     3.0790     1.5720 H     1 <1>   0.4500 
 44 H        8.3480    -0.0110     2.3580 H     1 <1>   0.0800 
 45 H        7.7480     1.4930     2.9820 H     1 <1>   0.0800 
 46 H        9.1980     1.4580     1.9990 H     1 <1>   0.0800 
 47 H        8.3930    -0.4630    -0.0430 H     1 <1>   0.0800 
 48 H        9.0420     1.0740    -0.5100 H     1 <1>   0.0800 
 49 H        7.5400     0.4900    -1.1930 H     1 <1>   0.0800 
 50 H        5.9120     3.7800    -2.2330 H     1 <1>   0.0800 
 51 H        6.5550     2.1920    -2.0700 H     1 <1>   0.0800 
 52 H        7.5780     3.5860    -1.7990 H     1 <1>   0.0800 
 53 H        5.3100     5.1760    -0.3180 H     1 <1>   0.0800 
 54 H        7.0010     5.2090     0.0690 H     1 <1>   0.0800 
 55 H        5.8230     4.7720     1.2900 H     1 <1>   0.0800 
@<TRIPOS>BOND
  1   1   2  1   
  2   1  24  1   
  3   2   3  1   
  4   2   4  1   
  5   2  25  1   
  6   3   5  1   
  7   3   6  1   
  8   3  26  1   
  9   4   7  1   
 10   4  27  1   
 11   4  28  1   
 12   5   7  1   
 13   5  29  1   
 14   5  30  1   
 15   6   8  1   
 16   6  31  1   
 17   6  32  1   
 18   7   9  1   
 19   7  33  1   
 20   8  10  ar  
 21   8  11  ar  
 22   9  12  1   
 23   9  13  1   
 24   9  34  1   
 25  10  14  ar  
 26  11  15  ar  
 27  11  35  1   
 28  12  16  1   
 29  12  36  1   
 30  12  37  1   
 31  13  17  1   
 32  13  38  1   
 33  13  39  1   
 34  14  18  ar  
 35  14  40  1   
 36  15  18  ar  
 37  16  19  1   
 38  16  20  1   
 39  16  21  1   
 40  17  19  1   
 41  17  22  1   
 42  17  23  1   
 43  18  41  1   
 44  19  42  1   
 45  19  43  1   
 46  20  44  1   
 47  20  45  1   
 48  20  46  1   
 49  21  47  1   
 50  21  48  1   
 51  21  49  1   
 52  22  50  1   
 53  22  51  1   
 54  22  52  1   
 55  23  53  1   
 56  23  54  1   
 57  23  55  1   
@<TRIPOS>SUBSTRUCTURE
  1 ****   5 GROUP 4 **** **** 0

# MOE 2024.06 (io_trps.svl 2023.06)
