@<TRIPOS>MOLECULE
NONAME
47 48 1 0 0 
SMALL
USER_CHARGES


@<TRIPOS>ATOM
  1 O       -0.6650    -1.5870    -1.6300 O.2   1 <1>  -0.5700 
  2 C       -0.6930    -2.2040    -0.5820 C.2   1 <1>   0.5440 
  3 N        0.4770    -2.3700     0.1080 N.am  1 <1>  -0.7300 
  4 C       -1.9390    -2.7340    -0.0760 C.ar  1 <1>   0.0860 
  5 C        1.8000    -1.8910    -0.3370 C.3   1 <1>   0.1400 
  6 C       -3.1560    -2.1920    -0.4850 C.ar  1 <1>   0.1600 
  7 C       -2.0030    -3.7910     0.8280 C.ar  1 <1>  -0.1500 
  8 C        2.8510    -2.9160     0.0710 C.3   1 <1>  -0.2400 
  9 N       -4.3560    -2.5810    -0.0900 N.ar  1 <1>  -0.6200 
 10 C       -3.2420    -4.2100     1.2480 C.ar  1 <1>  -0.1500 
 11 C       -4.3940    -3.5920     0.7680 C.ar  1 <1>   0.4100 
 12 N       -5.6430    -4.0210     1.1540 N.pl3 1 <1>  -0.8380 
 13 C       -6.0610    -5.4560     1.0910 C.3   1 <1>   0.2090 
 14 C       -6.6810    -3.0170     1.5260 C.3   1 <1>   0.1290 
 15 C       -6.3450    -5.9960    -0.3430 C.3   1 <1>   0.0000 
 16 C       -5.0530    -6.1520    -1.1830 C.3   1 <1>  -0.1600 
 17 C       -6.9620    -7.4100    -0.2120 C.3   1 <1>  -0.1600 
 18 C       -7.3290    -5.0270    -1.0430 C.3   1 <1>   0.1200 
 19 C       -4.1270    -7.2370    -0.6220 C.3   1 <1>   0.1200 
 20 C       -5.9420    -8.4430     0.2900 C.3   1 <1>   0.1200 
 21 O       -7.7530    -5.5110    -2.2740 O.3   1 <1>  -0.6800 
 22 O       -4.8230    -8.4430    -0.5410 O.3   1 <1>  -0.5600 
 23 H        0.4510    -2.7510     1.0530 H     1 <1>   0.3700 
 24 H        2.0080    -0.9380     0.1210 H     1 <1>   0.0800 
 25 H        1.8050    -1.7640    -1.4080 H     1 <1>   0.0800 
 26 H       -3.1250    -1.3760    -1.1880 H     1 <1>   0.1500 
 27 H       -1.1100    -4.2710     1.1850 H     1 <1>   0.1500 
 28 H        2.8760    -3.0270     1.1400 H     1 <1>   0.0800 
 29 H        3.8200    -2.5880    -0.2590 H     1 <1>   0.0800 
 30 H        2.6400    -3.8660    -0.3880 H     1 <1>   0.0800 
 31 H       -3.3380    -5.0120     1.9540 H     1 <1>   0.1500 
 32 H       -6.9560    -5.5670     1.6800 H     1 <1>   0.0800 
 33 H       -5.3100    -6.0550     1.5700 H     1 <1>   0.0800 
 34 H       -6.2170    -2.0680     1.7330 H     1 <1>   0.0800 
 35 H       -7.2090    -3.3390     2.4060 H     1 <1>   0.0800 
 36 H       -7.3780    -2.8850     0.7180 H     1 <1>   0.0800 
 37 H       -4.5240    -5.2210    -1.2500 H     1 <1>   0.0800 
 38 H       -5.3000    -6.4400    -2.1880 H     1 <1>   0.0800 
 39 H       -7.3170    -7.7530    -1.1680 H     1 <1>   0.0800 
 40 H       -7.8110    -7.3900     0.4480 H     1 <1>   0.0800 
 41 H       -6.8590    -4.0720    -1.2110 H     1 <1>   0.0800 
 42 H       -8.2060    -4.8800    -0.4370 H     1 <1>   0.0800 
 43 H       -3.7540    -6.9860     0.3550 H     1 <1>   0.0800 
 44 H       -3.2910    -7.3880    -1.2810 H     1 <1>   0.0800 
 45 H       -6.3680    -9.4310     0.2580 H     1 <1>   0.0800 
 46 H       -5.6220    -8.2400     1.2970 H     1 <1>   0.0800 
 47 H       -6.9840    -5.6320    -2.8630 H     1 <1>   0.4000 
@<TRIPOS>BOND
  1   1   2  2   
  2   2   3  am  
  3   2   4  1   
  4   3   5  1   
  5   3  23  1   
  6   4   6  ar  
  7   4   7  ar  
  8   5   8  1   
  9   5  24  1   
 10   5  25  1   
 11   6   9  ar  
 12   6  26  1   
 13   7  10  ar  
 14   7  27  1   
 15   8  28  1   
 16   8  29  1   
 17   8  30  1   
 18   9  11  ar  
 19  10  11  ar  
 20  10  31  1   
 21  11  12  1   
 22  12  13  1   
 23  12  14  1   
 24  13  15  1   
 25  13  32  1   
 26  13  33  1   
 27  14  34  1   
 28  14  35  1   
 29  14  36  1   
 30  15  16  1   
 31  15  17  1   
 32  15  18  1   
 33  16  19  1   
 34  16  37  1   
 35  16  38  1   
 36  17  20  1   
 37  17  39  1   
 38  17  40  1   
 39  18  21  1   
 40  18  41  1   
 41  18  42  1   
 42  19  22  1   
 43  19  43  1   
 44  19  44  1   
 45  20  22  1   
 46  20  45  1   
 47  20  46  1   
 48  21  47  1   
@<TRIPOS>SUBSTRUCTURE
  1 ****  11 GROUP 4 **** **** 0

# MOE 2024.06 (io_trps.svl 2023.06)
