@<TRIPOS>MOLECULE
NONAME
42 44 1 0 0 
SMALL
USER_CHARGES


@<TRIPOS>ATOM
  1 F        0.2700    -0.8380     0.7340 F     1 <1>  -0.1900 
  2 C       -0.4320    -1.8850     0.3820 C.ar  1 <1>   0.1900 
  3 C        0.0930    -2.8900    -0.4390 C.ar  1 <1>   0.0820 
  4 C       -1.7260    -1.9470     0.8610 C.ar  1 <1>  -0.1500 
  5 O        1.3490    -2.9430    -0.9710 O.3   1 <1>  -0.3630 
  6 C       -0.7330    -3.9560    -0.7560 C.ar  1 <1>  -0.1500 
  7 C       -2.5230    -3.0240     0.5220 C.ar  1 <1>  -0.1500 
  8 C        2.3390    -1.9750    -0.7020 C.3   1 <1>   0.0400 
  9 C       -2.0470    -4.0560    -0.2910 C.ar  1 <1>   0.0530 
 10 C       -2.8730    -5.1860    -0.6480 C.2   1 <1>   0.0870 
 11 O       -2.6040    -5.8900    -1.7230 O.3   1 <1>  -0.0190 
 12 C       -3.9690    -5.7500    -0.0810 C.2   1 <1>  -0.2330 
 13 N       -3.4450    -6.8740    -1.9110 N.2   1 <1>  -0.4100 
 14 C       -4.2800    -6.8080    -0.9350 C.2   1 <1>   0.3720 
 15 C       -4.6750    -5.4020     1.1040 C.2   1 <1>   1.0330 
 16 N       -5.3410    -7.7070    -0.8030 N.pl3 1 <1>  -0.8210 
 17 O       -4.3970    -5.9350     2.1910 O.co2 1 <1>  -0.9000 
 18 O       -5.5700    -4.5390     1.0690 O.co2 1 <1>  -0.9000 
 19 C       -5.2120    -8.6010     0.3780 C.3   1 <1>   0.2090 
 20 C       -6.6800    -7.0670    -0.8510 C.3   1 <1>   0.2090 
 21 C       -6.2380    -9.7420     0.2720 C.3   1 <1>  -0.0800 
 22 C       -7.7460    -8.1560    -1.0010 C.3   1 <1>  -0.1600 
 23 C       -7.6660    -9.1790     0.1440 C.3   1 <1>  -0.1600 
 24 C       -6.1400   -10.6810     1.4820 C.3   1 <1>  -0.2400 
 25 H       -2.1080    -1.1640     1.4900 H     1 <1>   0.1500 
 26 H       -0.3400    -4.7360    -1.3830 H     1 <1>   0.1500 
 27 H       -3.5330    -3.0600     0.8950 H     1 <1>   0.1500 
 28 H        3.2380    -2.2660    -1.2130 H     1 <1>   0.0800 
 29 H        2.5160    -1.9420     0.3590 H     1 <1>   0.0800 
 30 H        2.0040    -1.0210    -1.0680 H     1 <1>   0.0800 
 31 H       -5.3830    -8.0420     1.2820 H     1 <1>   0.0800 
 32 H       -4.2140    -9.0020     0.4120 H     1 <1>   0.0800 
 33 H       -6.7220    -6.3850    -1.6830 H     1 <1>   0.0800 
 34 H       -6.8570    -6.5100     0.0540 H     1 <1>   0.0800 
 35 H       -6.0050   -10.3060    -0.6160 H     1 <1>   0.0800 
 36 H       -7.5980    -8.6510    -1.9450 H     1 <1>   0.0800 
 37 H       -8.7180    -7.6980    -1.0120 H     1 <1>   0.0800 
 38 H       -7.9380    -8.6900     1.0640 H     1 <1>   0.0800 
 39 H       -8.3630    -9.9780    -0.0330 H     1 <1>   0.0800 
 40 H       -6.3470   -10.1430     2.3920 H     1 <1>   0.0800 
 41 H       -5.1500   -11.0960     1.5480 H     1 <1>   0.0800 
 42 H       -6.8440   -11.4880     1.3880 H     1 <1>   0.0800 
@<TRIPOS>BOND
  1   1   2  1   
  2   2   3  ar  
  3   2   4  ar  
  4   3   5  1   
  5   3   6  ar  
  6   4   7  ar  
  7   4  25  1   
  8   5   8  1   
  9   6   9  ar  
 10   6  26  1   
 11   7   9  ar  
 12   7  27  1   
 13   8  28  1   
 14   8  29  1   
 15   8  30  1   
 16   9  10  1   
 17  10  11  1   
 18  10  12  2   
 19  11  13  1   
 20  12  14  1   
 21  12  15  1   
 22  13  14  2   
 23  14  16  1   
 24  15  17  ar  
 25  15  18  ar  
 26  16  19  1   
 27  16  20  1   
 28  19  21  1   
 29  19  31  1   
 30  19  32  1   
 31  20  22  1   
 32  20  33  1   
 33  20  34  1   
 34  21  23  1   
 35  21  24  1   
 36  21  35  1   
 37  22  23  1   
 38  22  36  1   
 39  22  37  1   
 40  23  38  1   
 41  23  39  1   
 42  24  40  1   
 43  24  41  1   
 44  24  42  1   
@<TRIPOS>SUBSTRUCTURE
  1 ****  12 GROUP 4 **** **** 0

# MOE 2024.06 (io_trps.svl 2023.06)
