@<TRIPOS>MOLECULE
NONAME
55 58 1 0 0 
SMALL
USER_CHARGES


@<TRIPOS>ATOM
  1 O       -4.6230     2.2340    -2.0030 O.2   1 <1>  -0.5700 
  2 C       -3.8880     1.5690    -1.2970 C.2   1 <1>   0.5440 
  3 N       -4.0900     0.2030    -1.2260 N.am  1 <1>  -0.6600 
  4 C       -2.8350     2.2340    -0.5590 C.ar  1 <1>   0.0860 
  5 C       -3.2100    -0.7050    -0.3960 C.3   1 <1>   0.3640 
  6 C       -5.3270    -0.3770    -1.8330 C.3   1 <1>   0.1400 
  7 C       -1.6790     2.6730    -1.1990 C.ar  1 <1>  -0.1500 
  8 C       -2.9150     2.4240     0.8190 C.ar  1 <1>  -0.1500 
  9 C       -1.7500    -0.5330    -0.8330 C.ar  1 <1>  -0.1430 
 10 C       -3.5650    -2.2250    -0.4310 C.3   1 <1>   0.2000 
 11 C       -5.2320    -1.8880    -2.0380 C.3   1 <1>   0.1200 
 12 C       -0.6250     3.2140    -0.4900 C.ar  1 <1>  -0.1500 
 13 C       -1.8630     2.9730     1.5280 C.ar  1 <1>  -0.1500 
 14 C       -0.7690    -0.2530     0.1090 C.ar  1 <1>  -0.1500 
 15 C       -1.3910    -0.6210    -2.1690 C.ar  1 <1>  -0.1500 
 16 O       -4.8810    -2.4880    -0.8340 O.3   1 <1>  -0.5600 
 17 C       -3.3990    -2.9010     0.9400 C.3   1 <1>   0.1200 
 18 C       -0.6830     3.3580     0.8950 C.ar  1 <1>   0.0530 
 19 C        0.5580    -0.0420    -0.2610 C.ar  1 <1>   0.0830 
 20 C       -0.0770    -0.4270    -2.5510 C.ar  1 <1>  -0.1500 
 21 O       -2.1270    -2.6930     1.4670 O.3   1 <1>  -0.6800 
 22 C        0.4470     3.8620     1.6390 C.2   1 <1>   0.0870 
 23 O        1.5060     0.2820     0.6680 O.3   1 <1>  -0.3620 
 24 C        0.9050    -0.1400    -1.6190 C.ar  1 <1>   0.0830 
 25 O        0.3270     4.2540     2.8860 O.3   1 <1>  -0.2800 
 26 C        1.7510     4.0270     1.3260 C.2   1 <1>   0.0770 
 27 C        1.2260     0.3320     2.0510 C.3   1 <1>   0.0400 
 28 O        2.1520     0.0310    -2.1450 O.3   1 <1>  -0.3630 
 29 C        1.5190     4.6390     3.2680 C.2   1 <1>   0.3280 
 30 N        2.4320     4.5260     2.3730 N.2   1 <1>  -0.5650 
 31 C        3.3200    -0.2190    -1.3940 C.3   1 <1>   0.0400 
 32 H       -3.3000    -0.3800     0.6250 H     1 <1>   0.0800 
 33 H       -6.1630    -0.1610    -1.1910 H     1 <1>   0.0800 
 34 H       -5.5160     0.0900    -2.7850 H     1 <1>   0.0800 
 35 H       -1.6060     2.5600    -2.2670 H     1 <1>   0.1500 
 36 H       -3.8130     2.1280     1.3330 H     1 <1>   0.1500 
 37 H       -2.9230    -2.7250    -1.1350 H     1 <1>   0.0800 
 38 H       -4.5030    -2.1360    -2.7900 H     1 <1>   0.0800 
 39 H       -6.1880    -2.2800    -2.3360 H     1 <1>   0.0800 
 40 H        0.2600     3.5160    -1.0210 H     1 <1>   0.1500 
 41 H       -1.9520     3.0980     2.5930 H     1 <1>   0.1500 
 42 H       -1.0660    -0.1870     1.1380 H     1 <1>   0.1500 
 43 H       -2.1360    -0.8280    -2.9180 H     1 <1>   0.1500 
 44 H       -3.5570    -3.9620     0.8550 H     1 <1>   0.0800 
 45 H       -4.1080    -2.4910     1.6380 H     1 <1>   0.0800 
 46 H        0.1960    -0.4930    -3.5890 H     1 <1>   0.1500 
 47 H       -1.4430    -3.1240     0.9140 H     1 <1>   0.4000 
 48 H        2.2390     3.8030     0.3930 H     1 <1>   0.1500 
 49 H        2.1320     0.5990     2.5650 H     1 <1>   0.0800 
 50 H        0.8920    -0.6370     2.3750 H     1 <1>   0.0800 
 51 H        0.4740     1.0790     2.2320 H     1 <1>   0.0800 
 52 H        1.6490     5.0090     4.2700 H     1 <1>   0.1500 
 53 H        4.1420    -0.3260    -2.0780 H     1 <1>   0.0800 
 54 H        3.1880    -1.1250    -0.8300 H     1 <1>   0.0800 
 55 H        3.4980     0.6160    -0.7410 H     1 <1>   0.0800 
@<TRIPOS>BOND
  1   1   2  2   
  2   2   3  am  
  3   2   4  1   
  4   3   5  1   
  5   3   6  1   
  6   4   7  ar  
  7   4   8  ar  
  8   5   9  1   
  9   5  10  1   
 10   5  32  1   
 11   6  11  1   
 12   6  33  1   
 13   6  34  1   
 14   7  12  ar  
 15   7  35  1   
 16   8  13  ar  
 17   8  36  1   
 18   9  14  ar  
 19   9  15  ar  
 20  10  16  1   
 21  10  17  1   
 22  10  37  1   
 23  11  16  1   
 24  11  38  1   
 25  11  39  1   
 26  12  18  ar  
 27  12  40  1   
 28  13  18  ar  
 29  13  41  1   
 30  14  19  ar  
 31  14  42  1   
 32  15  20  ar  
 33  15  43  1   
 34  17  21  1   
 35  17  44  1   
 36  17  45  1   
 37  18  22  1   
 38  19  23  1   
 39  19  24  ar  
 40  20  24  ar  
 41  20  46  1   
 42  21  47  1   
 43  22  25  1   
 44  22  26  2   
 45  23  27  1   
 46  24  28  1   
 47  25  29  1   
 48  26  30  1   
 49  26  48  1   
 50  27  49  1   
 51  27  50  1   
 52  27  51  1   
 53  28  31  1   
 54  29  30  2   
 55  29  52  1   
 56  31  53  1   
 57  31  54  1   
 58  31  55  1   
@<TRIPOS>SUBSTRUCTURE
  1 ****  14 GROUP 4 **** **** 0

# MOE 2024.06 (io_trps.svl 2023.06)
