@<TRIPOS>MOLECULE
NONAME
49 51 1 0 0 
SMALL
USER_CHARGES


@<TRIPOS>ATOM
  1 O       -2.9850     4.4960    -2.0630 O.2   1 <1>  -0.5700 
  2 C       -2.2800     4.1520    -1.1290 C.2   1 <1>   0.5440 
  3 N       -1.7080     2.8900    -1.1960 N.am  1 <1>  -0.6600 
  4 C       -2.0930     5.0760    -0.0100 C.ar  1 <1>   0.3960 
  5 C       -1.6890     2.0860    -2.4590 C.3   1 <1>   0.1400 
  6 C       -1.1190     2.1630    -0.0270 C.3   1 <1>   0.1400 
  7 N       -0.9250     5.1260     0.6520 N.ar  1 <1>  -0.6200 
  8 C       -3.1590     5.9080     0.3400 C.ar  1 <1>   0.1600 
  9 C       -2.2040     0.6600    -2.2140 C.3   1 <1>   0.1200 
 10 C       -1.6510     0.7220     0.0590 C.3   1 <1>   0.1200 
 11 C       -0.8820     6.0120     1.6320 C.ar  1 <1>   0.4100 
 12 N       -3.1560     6.7880     1.3300 N.ar  1 <1>  -0.6200 
 13 O       -1.5020     0.0610    -1.1630 O.3   1 <1>  -0.5600 
 14 N        0.3360     6.1190     2.3050 N.pl3 1 <1>  -0.8380 
 15 C       -1.9950     6.8120     1.9520 C.ar  1 <1>   0.1600 
 16 C        1.5990     5.4780     1.8020 C.3   1 <1>   0.3890 
 17 C        0.5320     6.9770     3.5110 C.3   1 <1>   0.1290 
 18 C        2.6130     6.5210     1.3550 C.2   1 <1>   0.0070 
 19 N        3.7770     6.6530     1.8950 N.2   1 <1>  -0.3380 
 20 N        2.4310     7.4060     0.3640 N.pl3 1 <1>   0.0480 
 21 N        4.3960     7.6470     1.2600 N.2   1 <1>  -0.3380 
 22 C        3.5830     8.0770     0.3610 C.2   1 <1>   0.0360 
 23 C        1.2740     7.6490    -0.5240 C.3   1 <1>   0.0960 
 24 C        1.1690     6.5660    -1.5950 C.3   1 <1>   0.1200 
 25 O        0.0610     6.8640    -2.3780 O.3   1 <1>  -0.5600 
 26 C       -0.2070     5.9210    -3.3670 C.3   1 <1>   0.0400 
 27 H       -0.6790     2.0350    -2.8260 H     1 <1>   0.0800 
 28 H       -2.2910     2.5500    -3.2210 H     1 <1>   0.0800 
 29 H       -1.3570     2.6620     0.8940 H     1 <1>   0.0800 
 30 H       -0.0480     2.1410    -0.1290 H     1 <1>   0.0800 
 31 H       -4.0660     5.8330    -0.2360 H     1 <1>   0.1500 
 32 H       -2.0590     0.0570    -3.0930 H     1 <1>   0.0800 
 33 H       -3.2530     0.6720    -1.9720 H     1 <1>   0.0800 
 34 H       -2.6940     0.7200     0.3270 H     1 <1>   0.0800 
 35 H       -1.1040     0.1680     0.8010 H     1 <1>   0.0800 
 36 H       -1.9040     7.5110     2.7600 H     1 <1>   0.1500 
 37 H        1.4150     4.8010     0.9890 H     1 <1>   0.0800 
 38 H        2.0290     4.8960     2.5980 H     1 <1>   0.0800 
 39 H       -0.2960     6.8660     4.1890 H     1 <1>   0.0800 
 40 H        0.6200     8.0090     3.2150 H     1 <1>   0.0800 
 41 H        1.4320     6.6940     4.0310 H     1 <1>   0.0800 
 42 H        3.7940     8.8830    -0.3180 H     1 <1>   0.1500 
 43 H        1.3970     8.6050    -0.9980 H     1 <1>   0.0800 
 44 H        0.3780     7.6720     0.0640 H     1 <1>   0.0800 
 45 H        1.0230     5.5980    -1.1490 H     1 <1>   0.0800 
 46 H        2.0430     6.5630    -2.2240 H     1 <1>   0.0800 
 47 H       -1.1300     6.1930    -3.8480 H     1 <1>   0.0800 
 48 H       -0.3100     4.9480    -2.9200 H     1 <1>   0.0800 
 49 H        0.5940     5.9240    -4.0860 H     1 <1>   0.0800 
@<TRIPOS>BOND
  1   1   2  2   
  2   2   3  am  
  3   2   4  1   
  4   3   5  1   
  5   3   6  1   
  6   4   7  ar  
  7   4   8  ar  
  8   5   9  1   
  9   5  27  1   
 10   5  28  1   
 11   6  10  1   
 12   6  29  1   
 13   6  30  1   
 14   7  11  ar  
 15   8  12  ar  
 16   8  31  1   
 17   9  13  1   
 18   9  32  1   
 19   9  33  1   
 20  10  13  1   
 21  10  34  1   
 22  10  35  1   
 23  11  14  1   
 24  11  15  ar  
 25  12  15  ar  
 26  14  16  1   
 27  14  17  1   
 28  15  36  1   
 29  16  18  1   
 30  16  37  1   
 31  16  38  1   
 32  17  39  1   
 33  17  40  1   
 34  17  41  1   
 35  18  19  2   
 36  18  20  1   
 37  19  21  1   
 38  20  22  1   
 39  20  23  1   
 40  21  22  2   
 41  22  42  1   
 42  23  24  1   
 43  23  43  1   
 44  23  44  1   
 45  24  25  1   
 46  24  45  1   
 47  24  46  1   
 48  25  26  1   
 49  26  47  1   
 50  26  48  1   
 51  26  49  1   
@<TRIPOS>SUBSTRUCTURE
  1 ****   7 GROUP 4 **** **** 0

# MOE 2024.06 (io_trps.svl 2023.06)
