@<TRIPOS>MOLECULE
NONAME
49 50 1 0 0 
SMALL
USER_CHARGES


@<TRIPOS>ATOM
  1 O       -0.2070     1.8890    -1.5860 O.2   1 <1>  -0.5700 
  2 C       -0.2600     3.0550    -1.2880 C.2   1 <1>   0.5690 
  3 N       -1.0920     3.4850    -0.3150 N.am  1 <1>  -0.7300 
  4 C        0.5960     4.0810    -2.0280 C.3   1 <1>   0.1810 
  5 C       -1.2640     4.9110     0.0580 C.3   1 <1>   0.3640 
  6 O        0.8050     5.2480    -1.2650 O.3   1 <1>  -0.5600 
  7 C       -2.7460     5.2520    -0.0740 C.ar  1 <1>  -0.1440 
  8 C       -0.3860     5.8740    -0.7920 C.3   1 <1>   0.2610 
  9 C       -3.4610     4.9150    -1.2140 C.ar  1 <1>  -0.1500 
 10 C       -3.4040     5.9150     0.9500 C.ar  1 <1>  -0.1500 
 11 C       -0.0280     7.1220     0.0280 C.2   1 <1>   0.5690 
 12 C       -4.8040     5.2250    -1.3470 C.ar  1 <1>   0.0830 
 13 C       -4.7440     6.2410     0.8330 C.ar  1 <1>  -0.1500 
 14 O       -0.8950     7.7190     0.6200 O.2   1 <1>  -0.5700 
 15 N        1.2730     7.5160     0.0800 N.am  1 <1>  -0.7300 
 16 O       -5.3670     4.8190    -2.5200 O.3   1 <1>  -0.3630 
 17 C       -5.4620     5.9130    -0.3140 C.ar  1 <1>   0.0830 
 18 C        1.8620     8.7030     0.7320 C.3   1 <1>   0.3000 
 19 C       -6.7260     4.4480    -2.5910 C.3   1 <1>   0.0400 
 20 O       -6.7740     6.2650    -0.4500 O.3   1 <1>  -0.3630 
 21 C        1.4840     8.7750     2.2350 C.3   1 <1>   0.1200 
 22 C        1.3790     9.9520    -0.0080 C.3   1 <1>  -0.2400 
 23 C        3.3790     8.5770     0.5660 C.3   1 <1>  -0.2400 
 24 C       -7.3870     7.2040     0.4060 C.3   1 <1>   0.0400 
 25 O        1.7530     7.5710     2.8790 O.3   1 <1>  -0.6800 
 26 H       -1.7180     2.8090     0.1260 H     1 <1>   0.3700 
 27 H        0.1170     4.3540    -2.9510 H     1 <1>   0.0800 
 28 H        1.5570     3.6520    -2.2460 H     1 <1>   0.0800 
 29 H       -0.9750     5.0120     1.0910 H     1 <1>   0.0800 
 30 H       -0.9430     6.1970    -1.6530 H     1 <1>   0.0800 
 31 H       -2.9840     4.3950    -2.0260 H     1 <1>   0.1500 
 32 H       -2.8740     6.1960     1.8450 H     1 <1>   0.1500 
 33 H       -5.2050     6.7570     1.6520 H     1 <1>   0.1500 
 34 H        1.9400     6.9420    -0.4440 H     1 <1>   0.3700 
 35 H       -6.8640     3.8440    -3.4680 H     1 <1>   0.0800 
 36 H       -7.3250     5.3380    -2.6650 H     1 <1>   0.0800 
 37 H       -6.9840     3.8860    -1.7100 H     1 <1>   0.0800 
 38 H        0.4360     8.9870     2.3490 H     1 <1>   0.0800 
 39 H        2.0430     9.5490     2.7300 H     1 <1>   0.0800 
 40 H        1.8430    10.8300     0.4020 H     1 <1>   0.0800 
 41 H        0.3130    10.0590     0.0920 H     1 <1>   0.0800 
 42 H        1.6260     9.8920    -1.0530 H     1 <1>   0.0800 
 43 H        3.8690     9.4220     1.0160 H     1 <1>   0.0800 
 44 H        3.6500     8.5450    -0.4740 H     1 <1>   0.0800 
 45 H        3.7400     7.6890     1.0530 H     1 <1>   0.0800 
 46 H       -8.3710     7.4100     0.0260 H     1 <1>   0.0800 
 47 H       -6.8010     8.1070     0.4110 H     1 <1>   0.0800 
 48 H       -7.4580     6.7840     1.3930 H     1 <1>   0.0800 
 49 H        1.3440     6.8510     2.3600 H     1 <1>   0.4000 
@<TRIPOS>BOND
  1   1   2  2   
  2   2   3  am  
  3   2   4  1   
  4   3   5  1   
  5   3  26  1   
  6   4   6  1   
  7   4  27  1   
  8   4  28  1   
  9   5   7  1   
 10   5   8  1   
 11   5  29  1   
 12   6   8  1   
 13   7   9  ar  
 14   7  10  ar  
 15   8  11  1   
 16   8  30  1   
 17   9  12  ar  
 18   9  31  1   
 19  10  13  ar  
 20  10  32  1   
 21  11  14  2   
 22  11  15  am  
 23  12  16  1   
 24  12  17  ar  
 25  13  17  ar  
 26  13  33  1   
 27  15  18  1   
 28  15  34  1   
 29  16  19  1   
 30  17  20  1   
 31  18  21  1   
 32  18  22  1   
 33  18  23  1   
 34  19  35  1   
 35  19  36  1   
 36  19  37  1   
 37  20  24  1   
 38  21  25  1   
 39  21  38  1   
 40  21  39  1   
 41  22  40  1   
 42  22  41  1   
 43  22  42  1   
 44  23  43  1   
 45  23  44  1   
 46  23  45  1   
 47  24  46  1   
 48  24  47  1   
 49  24  48  1   
 50  25  49  1   
@<TRIPOS>SUBSTRUCTURE
  1 ****   5 GROUP 4 **** **** 0

# MOE 2024.06 (io_trps.svl 2023.06)
