@<TRIPOS>MOLECULE
NONAME
43 45 1 0 0 
SMALL
USER_CHARGES


@<TRIPOS>ATOM
  1 O       -1.7210    -0.8460    -2.7580 O.2   1 <1>  -0.5700 
  2 C       -1.9690    -1.0690    -1.6000 C.2   1 <1>   0.5690 
  3 N       -1.9850    -0.0840    -0.6540 N.am  1 <1>  -0.6600 
  4 C       -2.3180    -2.4870    -1.2290 C.3   1 <1>  -0.0190 
  5 C       -2.3530    -0.3320     0.7690 C.3   1 <1>   0.2200 
  6 C       -1.5730     1.3160    -0.9860 C.3   1 <1>   0.0600 
  7 C       -1.3480    -3.0770    -0.1830 C.3   1 <1>   0.1200 
  8 C       -3.8160    -2.5510    -0.9090 C.3   1 <1>   0.3430 
  9 C       -1.3610    -1.3180     1.4330 C.3   1 <1>   0.1200 
 10 C       -3.8450    -0.7510     0.8920 C.3   1 <1>   0.3430 
 11 O       -1.6340    -2.6600     1.1250 O.3   1 <1>  -0.5600 
 12 N       -4.1470    -2.1770     0.5080 N.4   1 <1>  -0.9590 
 13 C       -5.5120    -2.6050     0.9240 C.3   1 <1>   0.4860 
 14 C       -5.6660    -4.0940     0.6920 C.ar  1 <1>  -0.1440 
 15 C       -4.9090    -4.9980     1.4210 C.ar  1 <1>   0.1600 
 16 C       -6.5480    -4.5770    -0.2570 C.ar  1 <1>  -0.1500 
 17 N       -4.9430    -6.3050     1.2630 N.ar  1 <1>  -0.6200 
 18 C       -6.6030    -5.9440    -0.4220 C.ar  1 <1>  -0.1500 
 19 C       -5.7860    -6.7660     0.3520 C.ar  1 <1>   0.3930 
 20 O       -5.7900    -8.1090     0.2340 O.3   1 <1>  -0.3620 
 21 C       -6.7340    -8.8110    -0.5430 C.3   1 <1>   0.0400 
 22 H       -2.1750    -3.0640    -2.1260 H     1 <1>   0.0800 
 23 H       -2.2490     0.6060     1.2890 H     1 <1>   0.0800 
 24 H       -0.7250     1.6010    -0.3870 H     1 <1>   0.0800 
 25 H       -2.3850     1.9960    -0.7990 H     1 <1>   0.0800 
 26 H       -1.2940     1.4020    -2.0230 H     1 <1>   0.0800 
 27 H       -0.3270    -2.8190    -0.4160 H     1 <1>   0.0800 
 28 H       -1.4260    -4.1510    -0.1890 H     1 <1>   0.0800 
 29 H       -4.1340    -3.5660    -1.0860 H     1 <1>   0.0800 
 30 H       -4.3540    -1.9180    -1.5960 H     1 <1>   0.0800 
 31 H       -1.4370    -1.2290     2.5030 H     1 <1>   0.0800 
 32 H       -0.3460    -1.0890     1.1540 H     1 <1>   0.0800 
 33 H       -4.4390    -0.0770     0.2960 H     1 <1>   0.0800 
 34 H       -4.1310    -0.6110     1.9210 H     1 <1>   0.0800 
 35 H       -3.4600    -2.7330     1.0570 H     1 <1>   0.4500 
 36 H       -5.6640    -2.3920     1.9700 H     1 <1>   0.0800 
 37 H       -6.2550    -2.0700     0.3560 H     1 <1>   0.0800 
 38 H       -4.2280    -4.6400     2.1750 H     1 <1>   0.1500 
 39 H       -7.1720    -3.9300    -0.8500 H     1 <1>   0.1500 
 40 H       -7.2740    -6.3590    -1.1480 H     1 <1>   0.1500 
 41 H       -6.5600    -9.8630    -0.4040 H     1 <1>   0.0800 
 42 H       -6.5990    -8.5550    -1.5790 H     1 <1>   0.0800 
 43 H       -7.7240    -8.5590    -0.2050 H     1 <1>   0.0800 
@<TRIPOS>BOND
  1   1   2  2   
  2   2   3  am  
  3   2   4  1   
  4   3   5  1   
  5   3   6  1   
  6   4   7  1   
  7   4   8  1   
  8   4  22  1   
  9   5   9  1   
 10   5  10  1   
 11   5  23  1   
 12   6  24  1   
 13   6  25  1   
 14   6  26  1   
 15   7  11  1   
 16   7  27  1   
 17   7  28  1   
 18   8  12  1   
 19   8  29  1   
 20   8  30  1   
 21   9  11  1   
 22   9  31  1   
 23   9  32  1   
 24  10  12  1   
 25  10  33  1   
 26  10  34  1   
 27  12  13  1   
 28  12  35  1   
 29  13  14  1   
 30  13  36  1   
 31  13  37  1   
 32  14  15  ar  
 33  14  16  ar  
 34  15  17  ar  
 35  15  38  1   
 36  16  18  ar  
 37  16  39  1   
 38  17  19  ar  
 39  18  19  ar  
 40  18  40  1   
 41  19  20  1   
 42  20  21  1   
 43  21  41  1   
 44  21  42  1   
 45  21  43  1   
@<TRIPOS>SUBSTRUCTURE
  1 ****   8 GROUP 4 **** **** 0

# MOE 2024.06 (io_trps.svl 2023.06)
