@<TRIPOS>MOLECULE
NONAME
35 36 1 0 0 
SMALL
USER_CHARGES


@<TRIPOS>ATOM
  1 O        0.2200    -0.2640     0.9050 O.2   1 <1>  -0.5700 
  2 C        1.2140    -0.6730     0.3350 C.2   1 <1>   0.7160 
  3 N        2.2150     0.1950    -0.0020 N.am  1 <1>  -0.4930 
  4 C        1.3610    -2.0700    -0.0060 C.2   1 <1>  -0.0860 
  5 C        2.3310     1.5870     0.2410 C.2   1 <1>   0.0630 
  6 C        0.4190    -3.0460    -0.1550 C.2   1 <1>  -0.0400 
  7 C        2.5810    -2.7360    -0.2660 C.2   1 <1>  -0.1500 
  8 C        1.4780     2.4470     0.9360 C.2   1 <1>   0.1390 
  9 C        3.3400     2.3790    -0.1740 C.2   1 <1>  -0.3020 
 10 O        0.9710    -4.1900    -0.4760 O.3   1 <1>  -0.2800 
 11 C       -1.0910    -3.0170    -0.0200 C.3   1 <1>  -0.0600 
 12 C        2.2700    -4.0170    -0.5450 C.2   1 <1>  -0.0400 
 13 N        1.9170     3.6700     0.9530 N.2   1 <1>  -0.7070 
 14 N        3.0730     3.6320     0.2640 N.pl3 1 <1>   0.3140 
 15 C        3.1400    -5.2040    -0.8950 C.3   1 <1>  -0.0600 
 16 C        3.8960     4.8560     0.0540 C.3   1 <1>   0.1760 
 17 C        4.0190     5.1790    -1.4410 C.3   1 <1>  -0.2400 
 18 C        5.2800     4.6990     0.7000 C.3   1 <1>  -0.2400 
 19 H        2.9700    -0.2120    -0.5460 H     1 <1>   0.3700 
 20 H        3.5600    -2.2950    -0.2320 H     1 <1>   0.1500 
 21 H        0.5590     2.1400     1.4060 H     1 <1>   0.1500 
 22 H        4.2150     2.1360    -0.7430 H     1 <1>   0.1500 
 23 H       -1.4450    -2.0270     0.1990 H     1 <1>   0.0800 
 24 H       -1.3940    -3.6760     0.7730 H     1 <1>   0.0800 
 25 H       -1.5410    -3.3480    -0.9380 H     1 <1>   0.0800 
 26 H        4.1750    -4.9180    -0.9110 H     1 <1>   0.0800 
 27 H        2.8640    -5.5810    -1.8630 H     1 <1>   0.0800 
 28 H        3.0010    -5.9810    -0.1660 H     1 <1>   0.0800 
 29 H        3.3820     5.6680     0.5390 H     1 <1>   0.0800 
 30 H        4.5450     4.3980    -1.9610 H     1 <1>   0.0800 
 31 H        4.5570     6.1010    -1.5740 H     1 <1>   0.0800 
 32 H        3.0400     5.2960    -1.8710 H     1 <1>   0.0800 
 33 H        5.8350     3.9070     0.2310 H     1 <1>   0.0800 
 34 H        5.1710     4.4840     1.7490 H     1 <1>   0.0800 
 35 H        5.8370     5.6130     0.6000 H     1 <1>   0.0800 
@<TRIPOS>BOND
  1   1   2  2   
  2   2   3  am  
  3   2   4  1   
  4   3   5  1   
  5   3  19  1   
  6   4   6  2   
  7   4   7  1   
  8   5   8  1   
  9   5   9  2   
 10   6  10  1   
 11   6  11  1   
 12   7  12  2   
 13   7  20  1   
 14   8  13  2   
 15   8  21  1   
 16   9  14  1   
 17   9  22  1   
 18  10  12  1   
 19  11  23  1   
 20  11  24  1   
 21  11  25  1   
 22  12  15  1   
 23  13  14  1   
 24  14  16  1   
 25  15  26  1   
 26  15  27  1   
 27  15  28  1   
 28  16  17  1   
 29  16  18  1   
 30  16  29  1   
 31  17  30  1   
 32  17  31  1   
 33  17  32  1   
 34  18  33  1   
 35  18  34  1   
 36  18  35  1   
@<TRIPOS>SUBSTRUCTURE
  1 ****   3 GROUP 4 **** **** 0

# MOE 2024.06 (io_trps.svl 2023.06)
