@<TRIPOS>MOLECULE
NONAME
45 46 1 0 0 
SMALL
USER_CHARGES


@<TRIPOS>ATOM
  1 S        0.2700     0.0740     0.0340 S.o2  1 <1>   1.3330 
  2 O       -0.2310     0.1950    -1.3120 O.2   1 <1>  -0.6500 
  3 O        1.0530    -1.0680     0.4310 O.2   1 <1>  -0.6500 
  4 N        1.3240     1.3950     0.3520 N.am  1 <1>  -0.7570 
  5 C       -1.0580     0.2810     1.2330 C.3   1 <1>  -0.0550 
  6 C        1.2920     2.7180    -0.0580 C.ar  1 <1>   0.1990 
  7 C       -1.9170     1.5500     1.0780 C.3   1 <1>  -0.2400 
  8 C        2.2570     3.5880     0.4360 C.ar  1 <1>  -0.1500 
  9 C        0.3450     3.2370    -0.9370 C.ar  1 <1>  -0.1500 
 10 C        2.2750     4.9220     0.0740 C.ar  1 <1>  -0.1500 
 11 C        0.3640     4.5710    -1.2970 C.ar  1 <1>  -0.1500 
 12 C        1.3300     5.4520    -0.8080 C.ar  1 <1>   0.0860 
 13 C        1.3370     6.8470    -1.2040 C.2   1 <1>   0.5440 
 14 O        0.3140     7.4080    -1.5430 O.2   1 <1>  -0.5700 
 15 N        2.4950     7.5670    -1.2150 N.am  1 <1>  -0.7300 
 16 C        2.5860     9.0050    -1.5110 C.3   1 <1>   0.3200 
 17 C        3.7370     9.5800    -0.7150 C.2   1 <1>  -0.1400 
 18 S        5.3520     9.1540    -1.2110 S.3   1 <1>  -0.0800 
 19 C        3.8150    10.3940     0.3520 C.2   1 <1>   0.0460 
 20 C        5.9820    10.1400     0.0880 C.2   1 <1>   0.1980 
 21 N        5.0910    10.7040     0.7970 N.2   1 <1>  -0.5650 
 22 C        2.6510    11.0000     1.1200 C.3   1 <1>   0.0210 
 23 C        7.4820    10.2230     0.2370 C.3   1 <1>  -0.0600 
 24 C        2.5270    12.5030     0.8500 C.3   1 <1>  -0.2400 
 25 H        2.1680     1.0450     0.7950 H     1 <1>   0.4200 
 26 H       -0.6370     0.2730     2.2200 H     1 <1>   0.0800 
 27 H       -1.7080    -0.5710     1.1600 H     1 <1>   0.0800 
 28 H       -1.3220     2.4310     1.2410 H     1 <1>   0.0800 
 29 H       -2.7180     1.5440     1.7960 H     1 <1>   0.0800 
 30 H       -2.3420     1.5940     0.0900 H     1 <1>   0.0800 
 31 H        3.0000     3.2160     1.1170 H     1 <1>   0.1500 
 32 H       -0.4150     2.6050    -1.3530 H     1 <1>   0.1500 
 33 H        3.0300     5.5650     0.4890 H     1 <1>   0.1500 
 34 H       -0.3830     4.9480    -1.9760 H     1 <1>   0.1500 
 35 H        3.3900     7.1220    -1.0120 H     1 <1>   0.3700 
 36 H        1.6650     9.4940    -1.2440 H     1 <1>   0.0800 
 37 H        2.7560     9.1490    -2.5640 H     1 <1>   0.0800 
 38 H        2.8070    10.8320     2.1710 H     1 <1>   0.0800 
 39 H        1.7350    10.5110     0.8420 H     1 <1>   0.0800 
 40 H        7.8860     9.2430     0.4120 H     1 <1>   0.0800 
 41 H        7.7280    10.8580     1.0680 H     1 <1>   0.0800 
 42 H        7.9140    10.6330    -0.6570 H     1 <1>   0.0800 
 43 H        3.4290    13.0050     1.1550 H     1 <1>   0.0800 
 44 H        1.6990    12.9120     1.4000 H     1 <1>   0.0800 
 45 H        2.3730    12.6800    -0.1990 H     1 <1>   0.0800 
@<TRIPOS>BOND
  1   1   2  2   
  2   1   3  2   
  3   1   4  am  
  4   1   5  1   
  5   4   6  1   
  6   4  25  1   
  7   5   7  1   
  8   5  26  1   
  9   5  27  1   
 10   6   8  ar  
 11   6   9  ar  
 12   7  28  1   
 13   7  29  1   
 14   7  30  1   
 15   8  10  ar  
 16   8  31  1   
 17   9  11  ar  
 18   9  32  1   
 19  10  12  ar  
 20  10  33  1   
 21  11  12  ar  
 22  11  34  1   
 23  12  13  1   
 24  13  14  2   
 25  13  15  am  
 26  15  16  1   
 27  15  35  1   
 28  16  17  1   
 29  16  36  1   
 30  16  37  1   
 31  17  18  1   
 32  17  19  2   
 33  18  20  1   
 34  19  21  1   
 35  19  22  1   
 36  20  21  2   
 37  20  23  1   
 38  22  24  1   
 39  22  38  1   
 40  22  39  1   
 41  23  40  1   
 42  23  41  1   
 43  23  42  1   
 44  24  43  1   
 45  24  44  1   
 46  24  45  1   
@<TRIPOS>SUBSTRUCTURE
  1 ****  10 GROUP 4 **** **** 0

# MOE 2024.06 (io_trps.svl 2023.06)
