@<TRIPOS>MOLECULE
NONAME
45 47 1 0 0 
SMALL
USER_CHARGES


@<TRIPOS>ATOM
  1 O       -1.6080     0.7540    -2.2530 O.2   1 <1>  -0.5700 
  2 C       -1.8870     1.0550    -1.0960 C.2   1 <1>   0.5440 
  3 N       -2.7230     0.1600    -0.4470 N.am  1 <1>  -0.6600 
  4 C       -1.4240     2.3100    -0.5490 C.ar  1 <1>   0.0860 
  5 C       -3.5120     0.5320     0.7590 C.3   1 <1>   0.1400 
  6 C       -2.6050    -1.2990    -0.6760 C.3   1 <1>   0.1400 
  7 C       -1.1190     2.5750     0.8100 C.ar  1 <1>  -0.1710 
  8 C       -1.2360     3.4000    -1.3970 C.ar  1 <1>  -0.1500 
  9 C       -4.9090    -0.1020     0.7300 C.3   1 <1>   0.4230 
 10 C       -4.0020    -1.9360    -0.7180 C.3   1 <1>   0.3430 
 11 O       -1.1900     1.7010     1.7100 O.3   1 <1>  -0.8290 
 12 C       -0.7020     3.8750     1.1680 C.ar  1 <1>   0.1600 
 13 C       -0.8200     4.6230    -0.9260 C.ar  1 <1>   0.1600 
 14 N       -4.8410    -1.6040     0.5000 N.4   1 <1>  -0.9590 
 15 C       -5.7990     0.5800    -0.3330 C.3   1 <1>   0.1200 
 16 N       -0.5560     4.8880     0.3530 N.ar  1 <1>  -0.6200 
 17 C       -6.2380    -2.1470     0.4380 C.3   1 <1>   0.4230 
 18 O       -7.0720    -0.0100    -0.3570 O.3   1 <1>  -0.5600 
 19 C       -7.0870    -1.3870    -0.6120 C.3   1 <1>   0.1200 
 20 C       -6.2150    -3.6670     0.2040 C.3   1 <1>  -0.1600 
 21 C       -7.5720    -4.3270     0.4950 C.3   1 <1>  -0.1600 
 22 C       -7.4850    -5.8460     0.3310 C.3   1 <1>  -0.2400 
 23 H       -2.9940     0.1890     1.6370 H     1 <1>   0.0800 
 24 H       -3.5990     1.6020     0.8330 H     1 <1>   0.0800 
 25 H       -2.0950    -1.4950    -1.6030 H     1 <1>   0.0800 
 26 H       -2.0200    -1.7310     0.1170 H     1 <1>   0.0800 
 27 H       -1.4220     3.2760    -2.4470 H     1 <1>   0.1500 
 28 H       -5.3630     0.0880     1.6870 H     1 <1>   0.0800 
 29 H       -3.8890    -3.0030    -0.8070 H     1 <1>   0.0800 
 30 H       -4.4980    -1.5820    -1.6070 H     1 <1>   0.0800 
 31 H       -0.4880     4.0210     2.2110 H     1 <1>   0.1500 
 32 H       -0.6910     5.4370    -1.6170 H     1 <1>   0.1500 
 33 H       -4.3620    -1.9950     1.3180 H     1 <1>   0.4500 
 34 H       -5.3600     0.5110    -1.3140 H     1 <1>   0.0800 
 35 H       -5.9250     1.6210    -0.0940 H     1 <1>   0.0800 
 36 H       -6.7040    -1.9790     1.3960 H     1 <1>   0.0800 
 37 H       -8.1140    -1.7050    -0.5640 H     1 <1>   0.0800 
 38 H       -6.7260    -1.5580    -1.6100 H     1 <1>   0.0800 
 39 H       -5.9410    -3.8830    -0.8140 H     1 <1>   0.0800 
 40 H       -5.4840    -4.1100     0.8580 H     1 <1>   0.0800 
 41 H       -7.8830    -4.1040     1.5030 H     1 <1>   0.0800 
 42 H       -8.3270    -3.9550    -0.1760 H     1 <1>   0.0800 
 43 H       -6.7660    -6.2660     1.0140 H     1 <1>   0.0800 
 44 H       -7.2020    -6.1070    -0.6740 H     1 <1>   0.0800 
 45 H       -8.4430    -6.2930     0.5360 H     1 <1>   0.0800 
@<TRIPOS>BOND
  1   1   2  2   
  2   2   3  am  
  3   2   4  1   
  4   3   5  1   
  5   3   6  1   
  6   4   7  ar  
  7   4   8  ar  
  8   5   9  1   
  9   5  23  1   
 10   5  24  1   
 11   6  10  1   
 12   6  25  1   
 13   6  26  1   
 14   7  11  1   
 15   7  12  ar  
 16   8  13  ar  
 17   8  27  1   
 18   9  14  1   
 19   9  15  1   
 20   9  28  1   
 21  10  14  1   
 22  10  29  1   
 23  10  30  1   
 24  12  16  ar  
 25  12  31  1   
 26  13  16  ar  
 27  13  32  1   
 28  14  17  1   
 29  14  33  1   
 30  15  18  1   
 31  15  34  1   
 32  15  35  1   
 33  17  19  1   
 34  17  20  1   
 35  17  36  1   
 36  18  19  1   
 37  19  37  1   
 38  19  38  1   
 39  20  21  1   
 40  20  39  1   
 41  20  40  1   
 42  21  22  1   
 43  21  41  1   
 44  21  42  1   
 45  22  43  1   
 46  22  44  1   
 47  22  45  1   
@<TRIPOS>SUBSTRUCTURE
  1 ****   5 GROUP 4 **** **** 0

# MOE 2024.06 (io_trps.svl 2023.06)
