@<TRIPOS>MOLECULE
NONAME
35 36 1 0 0 
SMALL
USER_CHARGES


@<TRIPOS>ATOM
  1 S        0.9780    -0.1260     0.7040 S.o2  1 <1>   1.3330 
  2 O        2.0340     0.0460     1.6710 O.2   1 <1>  -0.6500 
  3 O        0.8080    -1.3550    -0.0290 O.2   1 <1>  -0.6500 
  4 N        1.1610     1.0750    -0.4550 N.am  1 <1>  -0.9140 
  5 C       -0.5760     0.2640     1.4850 C.3   1 <1>  -0.1350 
  6 C        1.2570     2.4390     0.0370 C.3   1 <1>   0.1960 
  7 C        1.7230     3.3420    -1.1000 C.3   1 <1>  -0.0990 
  8 C        1.8530     4.7640    -0.6070 C.2   1 <1>   0.5690 
  9 O        0.8610     5.3000    -0.1780 O.2   1 <1>  -0.5700 
 10 N        3.0800     5.3640    -0.6630 N.am  1 <1>  -0.4940 
 11 C        3.4950     6.6660    -0.2800 C.2   1 <1>  -0.0880 
 12 N        2.7860     7.8360    -0.3440 N.pl3 1 <1>   0.3140 
 13 C        4.7110     7.0040     0.2080 C.2   1 <1>  -0.1810 
 14 N        3.5250     8.8900     0.0840 N.2   1 <1>  -0.7070 
 15 C        1.4350     8.0720    -0.8720 C.3   1 <1>   0.0160 
 16 C        4.6630     8.3670     0.4100 C.2   1 <1>   0.1080 
 17 C        6.0010     6.3000     0.5620 C.3   1 <1>   0.2510 
 18 C        5.9020     9.0350     0.9600 C.3   1 <1>   0.2510 
 19 S        7.0750     7.6530     1.1310 S.3   1 <1>  -0.4600 
 20 H        0.4290     0.9490    -1.1500 H     1 <1>   0.4200 
 21 H       -0.8090    -0.4850     2.2160 H     1 <1>   0.0800 
 22 H       -1.3650     0.2870     0.7590 H     1 <1>   0.0800 
 23 H       -0.5230     1.2130     1.9800 H     1 <1>   0.0800 
 24 H        1.9750     2.4850     0.8420 H     1 <1>   0.0800 
 25 H        0.3020     2.7740     0.4090 H     1 <1>   0.0800 
 26 H        1.0030     3.3260    -1.8970 H     1 <1>   0.0800 
 27 H        2.6670     2.9900    -1.4740 H     1 <1>   0.0800 
 28 H        3.8410     4.7570    -0.9660 H     1 <1>   0.3700 
 29 H        1.2600     7.4250    -1.7100 H     1 <1>   0.0800 
 30 H        1.3520     9.0960    -1.1830 H     1 <1>   0.0800 
 31 H        0.7180     7.8730    -0.0980 H     1 <1>   0.0800 
 32 H        6.4680     5.8410    -0.2900 H     1 <1>   0.0800 
 33 H        5.8790     5.6060     1.3740 H     1 <1>   0.0800 
 34 H        5.7320     9.4630     1.9310 H     1 <1>   0.0800 
 35 H        6.3130     9.7520     0.2740 H     1 <1>   0.0800 
@<TRIPOS>BOND
  1   1   2  2   
  2   1   3  2   
  3   1   4  am  
  4   1   5  1   
  5   4   6  1   
  6   4  20  1   
  7   5  21  1   
  8   5  22  1   
  9   5  23  1   
 10   6   7  1   
 11   6  24  1   
 12   6  25  1   
 13   7   8  1   
 14   7  26  1   
 15   7  27  1   
 16   8   9  2   
 17   8  10  am  
 18  10  11  1   
 19  10  28  1   
 20  11  12  1   
 21  11  13  2   
 22  12  14  1   
 23  12  15  1   
 24  13  16  1   
 25  13  17  1   
 26  14  16  2   
 27  15  29  1   
 28  15  30  1   
 29  15  31  1   
 30  16  18  1   
 31  17  19  1   
 32  17  32  1   
 33  17  33  1   
 34  18  19  1   
 35  18  34  1   
 36  18  35  1   
@<TRIPOS>SUBSTRUCTURE
  1 ****  10 GROUP 4 **** **** 0

# MOE 2024.06 (io_trps.svl 2023.06)
