@<TRIPOS>MOLECULE
NONAME
58 61 1 0 0 
SMALL
USER_CHARGES


@<TRIPOS>ATOM
  1 O       -0.5350    -0.0770    -1.6650 O.2   1 <1>  -0.5700 
  2 C        0.0130     0.9200    -1.2500 C.2   1 <1>   0.5690 
  3 N       -0.6010     1.7570    -0.3480 N.am  1 <1>  -0.6600 
  4 C        1.4250     1.2180    -1.7900 C.3   1 <1>   0.1710 
  5 C       -1.9960     1.5110     0.1230 C.3   1 <1>   0.1400 
  6 C        0.0780     2.9510     0.2380 C.3   1 <1>   0.1400 
  7 N        2.5130     1.3150    -0.7730 N.3   1 <1>  -0.8100 
  8 C       -2.9280     2.7120    -0.1970 C.3   1 <1>   0.0000 
  9 C       -0.9250     3.9230     0.8770 C.3   1 <1>  -0.1600 
 10 C        2.6590     0.0350    -0.0380 C.3   1 <1>   0.1100 
 11 C        3.7990     1.6600    -1.4180 C.3   1 <1>   0.1100 
 12 C       -4.2180     2.5540     0.6410 C.3   1 <1>   0.2000 
 13 C       -2.1800     4.0660     0.0030 C.3   1 <1>  -0.1600 
 14 C       -3.4570     2.5790    -1.6360 C.3   1 <1>  -0.1600 
 15 C        3.7840     0.0820     1.0140 C.3   1 <1>   0.2090 
 16 C        4.9500     1.7750    -0.4020 C.3   1 <1>   0.2090 
 17 O       -4.9610     3.7400     0.6230 O.3   1 <1>  -0.5600 
 18 C       -5.0290     1.4830    -0.1000 C.3   1 <1>  -0.1600 
 19 C       -4.6300     1.5930    -1.5780 C.3   1 <1>  -0.1600 
 20 N        5.0810     0.5240     0.4090 N.pl3 1 <1>  -0.8380 
 21 C       -5.8210     3.9170     1.7040 C.3   1 <1>   0.0400 
 22 C        6.2940    -0.0610     0.7090 C.ar  1 <1>   0.7200 
 23 N        7.3740     0.4230     0.0930 N.ar  1 <1>  -0.6200 
 24 N        6.2880    -1.0610     1.5910 N.ar  1 <1>  -0.6200 
 25 C        8.5190    -0.1410     0.3890 C.ar  1 <1>   0.1600 
 26 C        7.4470    -1.6060     1.8680 C.ar  1 <1>   0.1600 
 27 C        8.6130    -1.1770     1.2850 C.ar  1 <1>  -0.1500 
 28 H        1.3700     2.1440    -2.3310 H     1 <1>   0.0800 
 29 H        1.6740     0.4470    -2.4980 H     1 <1>   0.0800 
 30 H       -2.3850     0.6090    -0.3150 H     1 <1>   0.0800 
 31 H       -1.9590     1.3560     1.1870 H     1 <1>   0.0800 
 32 H        0.7970     2.6280     0.9720 H     1 <1>   0.0800 
 33 H        0.6090     3.4670    -0.5420 H     1 <1>   0.0800 
 34 H       -1.1990     3.5700     1.8560 H     1 <1>   0.0800 
 35 H       -0.4540     4.8820     1.0010 H     1 <1>   0.0800 
 36 H        1.7360    -0.1990     0.4630 H     1 <1>   0.0800 
 37 H        2.8710    -0.7620    -0.7300 H     1 <1>   0.0800 
 38 H        4.0590     0.9080    -2.1440 H     1 <1>   0.0800 
 39 H        3.6990     2.6000    -1.9300 H     1 <1>   0.0800 
 40 H       -4.0010     2.2870     1.6610 H     1 <1>   0.0800 
 41 H       -1.8620     4.4350    -0.9570 H     1 <1>   0.0800 
 42 H       -2.8230     4.8170     0.4230 H     1 <1>   0.0800 
 43 H       -3.8340     3.5330    -1.9640 H     1 <1>   0.0800 
 44 H       -2.6920     2.2560    -2.3220 H     1 <1>   0.0800 
 45 H        3.8740    -0.8950     1.4540 H     1 <1>   0.0800 
 46 H        3.5090     0.7710     1.7930 H     1 <1>   0.0800 
 47 H        4.7550     2.6010     0.2600 H     1 <1>   0.0800 
 48 H        5.8560     1.9910    -0.9380 H     1 <1>   0.0800 
 49 H       -4.7480     0.5120     0.2680 H     1 <1>   0.0800 
 50 H       -6.0880     1.6060     0.0370 H     1 <1>   0.0800 
 51 H       -4.3320     0.6290    -1.9550 H     1 <1>   0.0800 
 52 H       -5.4510     1.9610    -2.1690 H     1 <1>   0.0800 
 53 H       -6.3520     4.8400     1.5580 H     1 <1>   0.0800 
 54 H       -5.2420     3.9700     2.6090 H     1 <1>   0.0800 
 55 H       -6.5190     3.1000     1.7470 H     1 <1>   0.0800 
 56 H        9.4050     0.2320    -0.0960 H     1 <1>   0.1500 
 57 H        7.4670    -2.4150     2.5780 H     1 <1>   0.1500 
 58 H        9.5570    -1.6310     1.5190 H     1 <1>   0.1500 
@<TRIPOS>BOND
  1   1   2  2   
  2   2   3  am  
  3   2   4  1   
  4   3   5  1   
  5   3   6  1   
  6   4   7  1   
  7   4  28  1   
  8   4  29  1   
  9   5   8  1   
 10   5  30  1   
 11   5  31  1   
 12   6   9  1   
 13   6  32  1   
 14   6  33  1   
 15   7  10  1   
 16   7  11  1   
 17   8  12  1   
 18   8  13  1   
 19   8  14  1   
 20   9  13  1   
 21   9  34  1   
 22   9  35  1   
 23  10  15  1   
 24  10  36  1   
 25  10  37  1   
 26  11  16  1   
 27  11  38  1   
 28  11  39  1   
 29  12  17  1   
 30  12  18  1   
 31  12  40  1   
 32  13  41  1   
 33  13  42  1   
 34  14  19  1   
 35  14  43  1   
 36  14  44  1   
 37  15  20  1   
 38  15  45  1   
 39  15  46  1   
 40  16  20  1   
 41  16  47  1   
 42  16  48  1   
 43  17  21  1   
 44  18  19  1   
 45  18  49  1   
 46  18  50  1   
 47  19  51  1   
 48  19  52  1   
 49  20  22  1   
 50  21  53  1   
 51  21  54  1   
 52  21  55  1   
 53  22  23  ar  
 54  22  24  ar  
 55  23  25  ar  
 56  24  26  ar  
 57  25  27  ar  
 58  25  56  1   
 59  26  27  ar  
 60  26  57  1   
 61  27  58  1   
@<TRIPOS>SUBSTRUCTURE
  1 ****   7 GROUP 4 **** **** 0

# MOE 2024.06 (io_trps.svl 2023.06)
