@<TRIPOS>MOLECULE
NONAME
47 48 1 0 0 
SMALL
USER_CHARGES


@<TRIPOS>ATOM
  1 O       -2.2560     1.6400     2.5130 O.2   1 <1>  -0.5700 
  2 C       -2.6840     2.2200     1.5420 C.2   1 <1>   0.5690 
  3 N       -3.9770     1.9930     1.1240 N.am  1 <1>  -0.6600 
  4 C       -1.7450     3.2080     0.8500 C.3   1 <1>   0.0440 
  5 C       -4.9530     1.4420     2.1100 C.3   1 <1>   0.3200 
  6 C       -4.5440     2.3890    -0.2120 C.3   1 <1>   0.1400 
  7 C       -1.1230     2.7070    -0.4570 C.ar  1 <1>  -0.1440 
  8 C       -4.9070    -0.0650     2.0110 C.2   1 <1>  -0.3320 
  9 C       -5.1170     1.2010    -1.0230 C.3   1 <1>   0.3430 
 10 C       -0.2690     1.6050    -0.5120 C.ar  1 <1>  -0.1440 
 11 C       -1.4130     3.3950    -1.6300 C.ar  1 <1>  -0.1500 
 12 N       -3.8060    -0.7680     2.3360 N.pl3 1 <1>   0.0330 
 13 C       -5.8370    -0.9630     1.6230 C.2   1 <1>   0.0770 
 14 N       -4.2310    -0.0060    -1.0050 N.4   1 <1>  -0.9590 
 15 C        0.2420     1.1960    -1.7350 C.ar  1 <1>  -0.1500 
 16 C        0.1540     0.8240     0.7260 C.3   1 <1>  -0.0970 
 17 C       -0.8990     2.9790    -2.8440 C.ar  1 <1>  -0.1500 
 18 C       -4.1230    -2.0530     2.0750 C.2   1 <1>   0.0360 
 19 N       -5.3260    -2.2070     1.6220 N.2   1 <1>  -0.5650 
 20 C       -2.9690     0.1840    -1.7790 C.3   1 <1>   0.2630 
 21 C       -4.9430    -1.2390    -1.4600 C.3   1 <1>   0.2630 
 22 C       -0.0740     1.8730    -2.8980 C.ar  1 <1>  -0.1500 
 23 H       -0.9510     3.4550     1.5310 H     1 <1>   0.0800 
 24 H       -2.2860     4.1200     0.6820 H     1 <1>   0.0800 
 25 H       -5.9440     1.8070     1.9040 H     1 <1>   0.0800 
 26 H       -4.6890     1.7510     3.1100 H     1 <1>   0.0800 
 27 H       -3.7930     2.8670    -0.8070 H     1 <1>   0.0800 
 28 H       -5.3250     3.1140    -0.0600 H     1 <1>   0.0800 
 29 H       -5.2950     1.5110    -2.0400 H     1 <1>   0.0800 
 30 H       -6.0690     0.9370    -0.5940 H     1 <1>   0.0800 
 31 H       -2.0350     4.2730    -1.6120 H     1 <1>   0.1500 
 32 H       -2.9260    -0.3750     2.7060 H     1 <1>   0.2700 
 33 H       -6.8590    -0.7840     1.3280 H     1 <1>   0.1500 
 34 H       -3.9910    -0.1450    -0.0020 H     1 <1>   0.4500 
 35 H        0.9040     0.3480    -1.7910 H     1 <1>   0.1500 
 36 H        0.3580     1.4870     1.5470 H     1 <1>   0.0800 
 37 H        1.0520     0.2640     0.5350 H     1 <1>   0.0800 
 38 H       -0.6180     0.1350     1.0150 H     1 <1>   0.0800 
 39 H       -1.1270     3.5230    -3.7460 H     1 <1>   0.1500 
 40 H       -3.4260    -2.8580     2.2380 H     1 <1>   0.1500 
 41 H       -3.1800     0.2600    -2.8330 H     1 <1>   0.0800 
 42 H       -2.3000    -0.6440    -1.6170 H     1 <1>   0.0800 
 43 H       -2.4750     1.0840    -1.4680 H     1 <1>   0.0800 
 44 H       -5.2120    -1.1590    -2.5000 H     1 <1>   0.0800 
 45 H       -5.8370    -1.3930    -0.8790 H     1 <1>   0.0800 
 46 H       -4.3100    -2.1020    -1.3290 H     1 <1>   0.0800 
 47 H        0.3370     1.5500    -3.8400 H     1 <1>   0.1500 
@<TRIPOS>BOND
  1   1   2  2   
  2   2   3  am  
  3   2   4  1   
  4   3   5  1   
  5   3   6  1   
  6   4   7  1   
  7   4  23  1   
  8   4  24  1   
  9   5   8  1   
 10   5  25  1   
 11   5  26  1   
 12   6   9  1   
 13   6  27  1   
 14   6  28  1   
 15   7  10  ar  
 16   7  11  ar  
 17   8  12  1   
 18   8  13  2   
 19   9  14  1   
 20   9  29  1   
 21   9  30  1   
 22  10  15  ar  
 23  10  16  1   
 24  11  17  ar  
 25  11  31  1   
 26  12  18  1   
 27  12  32  1   
 28  13  19  1   
 29  13  33  1   
 30  14  20  1   
 31  14  21  1   
 32  14  34  1   
 33  15  22  ar  
 34  15  35  1   
 35  16  36  1   
 36  16  37  1   
 37  16  38  1   
 38  17  22  ar  
 39  17  39  1   
 40  18  19  2   
 41  18  40  1   
 42  20  41  1   
 43  20  42  1   
 44  20  43  1   
 45  21  44  1   
 46  21  45  1   
 47  21  46  1   
 48  22  47  1   
@<TRIPOS>SUBSTRUCTURE
  1 ****   3 GROUP 4 **** **** 0

# MOE 2024.06 (io_trps.svl 2023.06)
