@<TRIPOS>MOLECULE
NONAME
57 60 1 0 0 
SMALL
USER_CHARGES


@<TRIPOS>ATOM
  1 O       -0.6250     1.1760    -0.7090 O.2   1 <1>  -0.5700 
  2 C       -1.7850     1.4610    -0.5060 C.2   1 <1>   0.5690 
  3 N       -2.8090     0.6350    -0.8910 N.am  1 <1>  -0.6600 
  4 C       -2.0420     2.7780     0.2260 C.3   1 <1>  -0.0190 
  5 C       -2.5510    -0.5680    -1.7400 C.3   1 <1>   0.1400 
  6 C       -4.2440     0.7650    -0.4980 C.3   1 <1>   0.1400 
  7 C       -0.9690     3.8030    -0.1830 C.3   1 <1>   0.3430 
  8 C       -2.0850     2.5510     1.7590 C.3   1 <1>  -0.1600 
  9 C       -2.9690    -1.8310    -0.9830 C.3   1 <1>  -0.1600 
 10 C       -4.6720    -0.4830     0.2790 C.3   1 <1>  -0.1600 
 11 N        0.3040     3.5050     0.5370 N.4   1 <1>  -0.9590 
 12 C       -1.2460     3.5890     2.5240 C.3   1 <1>  -0.1600 
 13 C       -4.4340    -1.7690    -0.5310 C.3   1 <1>   0.4240 
 14 C        0.2070     3.6640     2.0230 C.3   1 <1>   0.3430 
 15 C        1.4670     4.2390    -0.0390 C.3   1 <1>   0.2630 
 16 O       -5.1860    -1.6750    -1.7180 O.3   1 <1>  -0.5600 
 17 C       -4.8010    -3.0260     0.2880 C.ar  1 <1>  -0.1430 
 18 C       -6.5240    -2.0610    -1.6680 C.3   1 <1>   0.1200 
 19 C       -5.8260    -3.8750    -0.1180 C.ar  1 <1>  -0.1430 
 20 C       -4.1140    -3.3310     1.4590 C.ar  1 <1>  -0.1500 
 21 C       -6.5960    -3.5580    -1.3840 C.3   1 <1>  -0.0170 
 22 C       -6.1470    -5.0030     0.6220 C.ar  1 <1>  -0.1500 
 23 C       -4.4350    -4.4540     2.1990 C.ar  1 <1>  -0.1500 
 24 C       -5.4500    -5.2980     1.7880 C.ar  1 <1>   0.0820 
 25 O       -5.7010    -6.3790     2.5690 O.3   1 <1>  -0.3630 
 26 C       -6.7010    -7.3130     2.2290 C.3   1 <1>   0.0400 
 27 H       -2.9780     3.1840    -0.1070 H     1 <1>   0.0800 
 28 H       -1.5100    -0.6370    -2.0060 H     1 <1>   0.0800 
 29 H       -3.1180    -0.4840    -2.6520 H     1 <1>   0.0800 
 30 H       -4.8450     0.8650    -1.3870 H     1 <1>   0.0800 
 31 H       -4.4130     1.6290     0.1160 H     1 <1>   0.0800 
 32 H       -1.3000     4.7980     0.0650 H     1 <1>   0.0800 
 33 H       -0.8150     3.7480    -1.2490 H     1 <1>   0.0800 
 34 H       -1.7000     1.5700     1.9900 H     1 <1>   0.0800 
 35 H       -3.1050     2.5800     2.1040 H     1 <1>   0.0800 
 36 H       -2.3200    -1.9450    -0.1360 H     1 <1>   0.0800 
 37 H       -2.8330    -2.6920    -1.6110 H     1 <1>   0.0800 
 38 H       -5.7070    -0.4110     0.5530 H     1 <1>   0.0800 
 39 H       -4.1070    -0.5240     1.1920 H     1 <1>   0.0800 
 40 H        0.4430     2.4900     0.3380 H     1 <1>   0.4500 
 41 H       -1.2410     3.3500     3.5740 H     1 <1>   0.0800 
 42 H       -1.6990     4.5600     2.4280 H     1 <1>   0.0800 
 43 H        0.6260     4.6120     2.3210 H     1 <1>   0.0800 
 44 H        0.7860     2.8860     2.4950 H     1 <1>   0.0800 
 45 H        1.3460     5.3010     0.1000 H     1 <1>   0.0800 
 46 H        1.5500     4.0340    -1.0950 H     1 <1>   0.0800 
 47 H        2.3800     3.9270     0.4410 H     1 <1>   0.0800 
 48 H       -6.9680    -1.8390    -2.6230 H     1 <1>   0.0800 
 49 H       -7.0290    -1.4980    -0.9040 H     1 <1>   0.0800 
 50 H       -3.3180    -2.6980     1.8080 H     1 <1>   0.1500 
 51 H       -6.1740    -4.1000    -2.2110 H     1 <1>   0.0800 
 52 H       -7.6250    -3.8490    -1.2770 H     1 <1>   0.0800 
 53 H       -6.9390    -5.6400     0.2790 H     1 <1>   0.1500 
 54 H       -3.8990    -4.6840     3.1010 H     1 <1>   0.1500 
 55 H       -6.7120    -8.0790     2.9820 H     1 <1>   0.0800 
 56 H       -6.4650    -7.7440     1.2720 H     1 <1>   0.0800 
 57 H       -7.6520    -6.8120     2.2030 H     1 <1>   0.0800 
@<TRIPOS>BOND
  1   1   2  2   
  2   2   3  am  
  3   2   4  1   
  4   3   5  1   
  5   3   6  1   
  6   4   7  1   
  7   4   8  1   
  8   4  27  1   
  9   5   9  1   
 10   5  28  1   
 11   5  29  1   
 12   6  10  1   
 13   6  30  1   
 14   6  31  1   
 15   7  11  1   
 16   7  32  1   
 17   7  33  1   
 18   8  12  1   
 19   8  34  1   
 20   8  35  1   
 21   9  13  1   
 22   9  36  1   
 23   9  37  1   
 24  10  13  1   
 25  10  38  1   
 26  10  39  1   
 27  11  14  1   
 28  11  15  1   
 29  11  40  1   
 30  12  14  1   
 31  12  41  1   
 32  12  42  1   
 33  13  16  1   
 34  13  17  1   
 35  14  43  1   
 36  14  44  1   
 37  15  45  1   
 38  15  46  1   
 39  15  47  1   
 40  16  18  1   
 41  17  19  ar  
 42  17  20  ar  
 43  18  21  1   
 44  18  48  1   
 45  18  49  1   
 46  19  21  1   
 47  19  22  ar  
 48  20  23  ar  
 49  20  50  1   
 50  21  51  1   
 51  21  52  1   
 52  22  24  ar  
 53  22  53  1   
 54  23  24  ar  
 55  23  54  1   
 56  24  25  1   
 57  25  26  1   
 58  26  55  1   
 59  26  56  1   
 60  26  57  1   
@<TRIPOS>SUBSTRUCTURE
  1 ****  10 GROUP 4 **** **** 0

# MOE 2024.06 (io_trps.svl 2023.06)
