@<TRIPOS>MOLECULE
NONAME
49 51 1 0 0 
SMALL
USER_CHARGES


@<TRIPOS>ATOM
  1 S        0.0640     0.2860     0.9430 S.o2  1 <1>   1.3330 
  2 O       -0.6880     1.0630     1.8930 O.2   1 <1>  -0.6500 
  3 O        1.1860    -0.5170     1.3670 O.2   1 <1>  -0.6500 
  4 N        0.6510     1.4560    -0.1020 N.am  1 <1>  -0.9140 
  5 C       -1.0240    -0.6770    -0.0840 C.3   1 <1>  -0.1350 
  6 C        1.9100     2.0080     0.3330 C.3   1 <1>   0.2760 
  7 C        1.9360     3.4960    -0.0080 C.3   1 <1>  -0.1600 
  8 C        3.0480     1.2840    -0.3900 C.3   1 <1>  -0.1600 
  9 C        3.2950     4.0990     0.3400 C.3   1 <1>   0.3430 
 10 C        4.3940     1.9040    -0.0350 C.3   1 <1>   0.3430 
 11 N        4.3790     3.3550    -0.3740 N.4   1 <1>  -0.9590 
 12 C        5.7050     3.9790    -0.1500 C.3   1 <1>   0.5230 
 13 C        5.6980     5.3620    -0.7620 C.2   1 <1>  -0.3320 
 14 N        6.4660     6.3940    -0.3310 N.pl3 1 <1>   0.0480 
 15 C        4.9800     5.8360    -1.8090 C.2   1 <1>   0.0770 
 16 C        6.1320     7.4240    -1.1430 C.2   1 <1>   0.0360 
 17 C        7.4490     6.4450     0.7840 C.3   1 <1>   0.2390 
 18 N        5.2440     7.1270    -2.0330 N.2   1 <1>  -0.5650 
 19 C        8.5340     7.4800     0.5320 C.ar  1 <1>  -0.1440 
 20 C        9.4880     7.2690    -0.4530 C.ar  1 <1>  -0.1500 
 21 C        8.5790     8.6470     1.2830 C.ar  1 <1>  -0.1500 
 22 C       10.4750     8.2110    -0.6830 C.ar  1 <1>  -0.1500 
 23 C        9.5660     9.5880     1.0510 C.ar  1 <1>  -0.1500 
 24 C       10.5150     9.3710     0.0690 C.ar  1 <1>  -0.1500 
 25 H       -0.0490     2.1910     0.0060 H     1 <1>   0.4200 
 26 H       -1.4840    -1.4530     0.4970 H     1 <1>   0.0800 
 27 H       -0.4730    -1.1290    -0.8850 H     1 <1>   0.0800 
 28 H       -1.7940    -0.0570    -0.4980 H     1 <1>   0.0800 
 29 H        2.0200     1.8980     1.4030 H     1 <1>   0.0800 
 30 H        1.1800     4.0080     0.5600 H     1 <1>   0.0800 
 31 H        1.7350     3.6480    -1.0540 H     1 <1>   0.0800 
 32 H        2.9000     1.3260    -1.4550 H     1 <1>   0.0800 
 33 H        3.0690     0.2490    -0.1020 H     1 <1>   0.0800 
 34 H        3.4520     4.0420     1.4060 H     1 <1>   0.0800 
 35 H        3.3060     5.1400     0.0550 H     1 <1>   0.0800 
 36 H        5.1740     1.4000    -0.5840 H     1 <1>   0.0800 
 37 H        4.5800     1.7720     1.0200 H     1 <1>   0.0800 
 38 H        4.1960     3.4400    -1.3820 H     1 <1>   0.4500 
 39 H        6.4810     3.3880    -0.6110 H     1 <1>   0.0800 
 40 H        5.9010     4.0420     0.9080 H     1 <1>   0.0800 
 41 H        4.2680     5.3270    -2.4370 H     1 <1>   0.1500 
 42 H        6.5800     8.4000    -1.0460 H     1 <1>   0.1500 
 43 H        7.9090     5.4810     0.8940 H     1 <1>   0.0800 
 44 H        6.9230     6.6790     1.6930 H     1 <1>   0.0800 
 45 H        9.4720     6.3750    -1.0520 H     1 <1>   0.1500 
 46 H        7.8500     8.8370     2.0520 H     1 <1>   0.1500 
 47 H       11.2120     8.0430    -1.4500 H     1 <1>   0.1500 
 48 H        9.5970    10.4920     1.6350 H     1 <1>   0.1500 
 49 H       11.2820    10.1040    -0.1120 H     1 <1>   0.1500 
@<TRIPOS>BOND
  1   1   2  2   
  2   1   3  2   
  3   1   4  am  
  4   1   5  1   
  5   4   6  1   
  6   4  25  1   
  7   5  26  1   
  8   5  27  1   
  9   5  28  1   
 10   6   7  1   
 11   6   8  1   
 12   6  29  1   
 13   7   9  1   
 14   7  30  1   
 15   7  31  1   
 16   8  10  1   
 17   8  32  1   
 18   8  33  1   
 19   9  11  1   
 20   9  34  1   
 21   9  35  1   
 22  10  11  1   
 23  10  36  1   
 24  10  37  1   
 25  11  12  1   
 26  11  38  1   
 27  12  13  1   
 28  12  39  1   
 29  12  40  1   
 30  13  14  1   
 31  13  15  2   
 32  14  16  1   
 33  14  17  1   
 34  15  18  1   
 35  15  41  1   
 36  16  18  2   
 37  16  42  1   
 38  17  19  1   
 39  17  43  1   
 40  17  44  1   
 41  19  20  ar  
 42  19  21  ar  
 43  20  22  ar  
 44  20  45  1   
 45  21  23  ar  
 46  21  46  1   
 47  22  24  ar  
 48  22  47  1   
 49  23  24  ar  
 50  23  48  1   
 51  24  49  1   
@<TRIPOS>SUBSTRUCTURE
  1 ****  12 GROUP 4 **** **** 0

# MOE 2024.06 (io_trps.svl 2023.06)
