@<TRIPOS>MOLECULE
NONAME
24 24 1 0 0 
SMALL
USER_CHARGES


@<TRIPOS>ATOM
  1 N        6.6700    -1.2040    -0.1000 N.4   1 <1>  -0.8530 
  2 C        5.2970    -0.7970    -0.4360 C.3   1 <1>   0.4230 
  3 C        4.2830    -1.7250     0.2640 C.3   1 <1>  -0.0800 
  4 C        5.1060     0.6660    -0.0230 C.3   1 <1>  -0.1600 
  5 C        2.8490    -1.2520    -0.0320 C.3   1 <1>  -0.1600 
  6 C        4.4330    -3.1970    -0.1620 C.3   1 <1>  -0.2400 
  7 C        3.6730     1.1330    -0.3120 C.3   1 <1>  -0.1600 
  8 C        2.6460     0.2170     0.3650 C.3   1 <1>  -0.1600 
  9 H        7.3530    -0.6110    -0.5810 H     1 <1>   0.4500 
 10 H        6.8200    -2.1790    -0.3790 H     1 <1>   0.4500 
 11 H        6.8190    -1.1290     0.9100 H     1 <1>   0.4500 
 12 H        5.1490    -0.8740    -1.5020 H     1 <1>   0.0800 
 13 H        4.4270    -1.6610     1.3300 H     1 <1>   0.0800 
 14 H        5.2960     0.7830     1.0300 H     1 <1>   0.0800 
 15 H        5.7870     1.2980    -0.5680 H     1 <1>   0.0800 
 16 H        2.6310    -1.3660    -1.0810 H     1 <1>   0.0800 
 17 H        2.1440    -1.8590     0.5120 H     1 <1>   0.0800 
 18 H        4.3320    -3.3020    -1.2300 H     1 <1>   0.0800 
 19 H        3.6640    -3.7930     0.3010 H     1 <1>   0.0800 
 20 H        5.3790    -3.6080     0.1420 H     1 <1>   0.0800 
 21 H        3.5400     2.1410     0.0440 H     1 <1>   0.0800 
 22 H        3.4970     1.1390    -1.3750 H     1 <1>   0.0800 
 23 H        1.6520     0.5280     0.0890 H     1 <1>   0.0800 
 24 H        2.7260     0.3140     1.4350 H     1 <1>   0.0800 
@<TRIPOS>BOND
  1   1   2  1   
  2   1   9  1   
  3   1  10  1   
  4   1  11  1   
  5   2   3  1   
  6   2   4  1   
  7   2  12  1   
  8   3   5  1   
  9   3   6  1   
 10   3  13  1   
 11   4   7  1   
 12   4  14  1   
 13   4  15  1   
 14   5   8  1   
 15   5  16  1   
 16   5  17  1   
 17   6  18  1   
 18   6  19  1   
 19   6  20  1   
 20   7   8  1   
 21   7  21  1   
 22   7  22  1   
 23   8  23  1   
 24   8  24  1   
@<TRIPOS>SUBSTRUCTURE
  1 ****   2 GROUP 4 **** **** 0

# MOE 2024.06 (io_trps.svl 2023.06)
