@<TRIPOS>MOLECULE
NONAME
50 51 1 0 0 
SMALL
USER_CHARGES


@<TRIPOS>ATOM
  1 O        3.5530     0.0020    -1.5110 O.2   1 <1>  -0.5700 
  2 C        2.7980    -0.5820    -0.7570 C.2   1 <1>   0.5440 
  3 N        2.4640     0.0820     0.3980 N.am  1 <1>  -0.6600 
  4 C        2.4210    -1.9630    -0.9960 C.ar  1 <1>   0.0860 
  5 C        3.1050    -0.3340     1.6830 C.3   1 <1>   0.1400 
  6 C        1.9370     1.4770     0.3640 C.3   1 <1>   0.1400 
  7 C        1.1800    -2.5210    -0.6790 C.ar  1 <1>  -0.1440 
  8 C        3.3670    -2.8120    -1.5720 C.ar  1 <1>   0.1600 
  9 C        4.6170    -0.0060     1.6910 C.3   1 <1>   0.3430 
 10 C        3.0390     2.5350     0.1820 C.3   1 <1>  -0.1600 
 11 C        1.0120    -3.8680    -0.9280 C.ar  1 <1>  -0.1500 
 12 C        0.0190    -1.7210    -0.1000 C.3   1 <1>  -0.0960 
 13 N        3.2220    -4.1040    -1.8050 N.ar  1 <1>  -0.6200 
 14 N        4.9560     1.1060     0.7440 N.4   1 <1>  -0.9590 
 15 C        4.2660     2.3780     1.0840 C.3   1 <1>   0.3430 
 16 C        2.0440    -4.6060    -1.4780 C.ar  1 <1>   0.1600 
 17 C        6.4240     1.2460     0.5300 C.3   1 <1>   0.3430 
 18 C        6.7240     1.9700    -0.7830 C.3   1 <1>  -0.0220 
 19 C        8.2290     2.0390    -0.9780 C.2   1 <1>  -0.2880 
 20 C        9.0400     3.0890    -0.8040 C.2   1 <1>  -0.2760 
 21 C       10.5350     2.9830    -1.0620 C.3   1 <1>  -0.1020 
 22 C        8.6420     4.4880    -0.3480 C.3   1 <1>  -0.1020 
 23 H        2.6250     0.1690     2.5050 H     1 <1>   0.0800 
 24 H        2.9680    -1.3920     1.8320 H     1 <1>   0.0800 
 25 H        1.2360     1.5630    -0.4510 H     1 <1>   0.0800 
 26 H        1.3930     1.6690     1.2740 H     1 <1>   0.0800 
 27 H        4.3160    -2.3880    -1.8540 H     1 <1>   0.1500 
 28 H        5.1500    -0.8940     1.3900 H     1 <1>   0.0800 
 29 H        4.9320     0.2380     2.6920 H     1 <1>   0.0800 
 30 H        2.6030     3.4990     0.3750 H     1 <1>   0.0800 
 31 H        3.3540     2.5490    -0.8470 H     1 <1>   0.0800 
 32 H        0.0820    -4.3600    -0.7030 H     1 <1>   0.1500 
 33 H       -0.9030    -2.2710    -0.1820 H     1 <1>   0.0800 
 34 H       -0.1010    -0.7960    -0.6340 H     1 <1>   0.0800 
 35 H        0.1940    -1.5080     0.9390 H     1 <1>   0.0800 
 36 H        4.5310     0.8090    -0.1640 H     1 <1>   0.4500 
 37 H        3.9730     2.3840     2.1210 H     1 <1>   0.0800 
 38 H        4.9300     3.2110     0.9170 H     1 <1>   0.0800 
 39 H        1.8930    -5.6570    -1.6620 H     1 <1>   0.1500 
 40 H        6.8720     1.7850     1.3490 H     1 <1>   0.0800 
 41 H        6.8780     0.2700     0.4840 H     1 <1>   0.0800 
 42 H        6.2930     1.4320    -1.6100 H     1 <1>   0.0800 
 43 H        6.3020     2.9560    -0.7740 H     1 <1>   0.0800 
 44 H        8.6240     1.0880    -1.3000 H     1 <1>   0.1500 
 45 H       10.8300     3.6790    -1.8270 H     1 <1>   0.0800 
 46 H       10.8020     1.9940    -1.3890 H     1 <1>   0.0800 
 47 H       11.0860     3.2020    -0.1650 H     1 <1>   0.0800 
 48 H        9.2000     4.7590     0.5310 H     1 <1>   0.0800 
 49 H        7.5990     4.5650    -0.1140 H     1 <1>   0.0800 
 50 H        8.8650     5.1990    -1.1240 H     1 <1>   0.0800 
@<TRIPOS>BOND
  1   1   2  2   
  2   2   3  am  
  3   2   4  1   
  4   3   5  1   
  5   3   6  1   
  6   4   7  ar  
  7   4   8  ar  
  8   5   9  1   
  9   5  23  1   
 10   5  24  1   
 11   6  10  1   
 12   6  25  1   
 13   6  26  1   
 14   7  11  ar  
 15   7  12  1   
 16   8  13  ar  
 17   8  27  1   
 18   9  14  1   
 19   9  28  1   
 20   9  29  1   
 21  10  15  1   
 22  10  30  1   
 23  10  31  1   
 24  11  16  ar  
 25  11  32  1   
 26  12  33  1   
 27  12  34  1   
 28  12  35  1   
 29  13  16  ar  
 30  14  15  1   
 31  14  17  1   
 32  14  36  1   
 33  15  37  1   
 34  15  38  1   
 35  16  39  1   
 36  17  18  1   
 37  17  40  1   
 38  17  41  1   
 39  18  19  1   
 40  18  42  1   
 41  18  43  1   
 42  19  20  2   
 43  19  44  1   
 44  20  21  1   
 45  20  22  1   
 46  21  45  1   
 47  21  46  1   
 48  21  47  1   
 49  22  48  1   
 50  22  49  1   
 51  22  50  1   
@<TRIPOS>SUBSTRUCTURE
  1 ****   1 GROUP 4 **** **** 0

# MOE 2024.06 (io_trps.svl 2023.06)
