@<TRIPOS>MOLECULE
NONAME
39 41 1 0 0 
SMALL
USER_CHARGES


@<TRIPOS>ATOM
  1 CL       0.2700     2.7520    -0.9510 Cl    1 <1>  -0.1770 
  2 C        1.9640     2.6140    -0.5460 C.ar  1 <1>   0.1770 
  3 C        2.6940     3.7490    -0.2320 C.ar  1 <1>   0.1600 
  4 C        2.5620     1.3720    -0.5470 C.ar  1 <1>  -0.1500 
  5 N        3.9870     3.7560     0.0860 N.ar  1 <1>  -0.6200 
  6 C        3.8950     1.3750    -0.2150 C.ar  1 <1>   0.1900 
  7 C        4.5830     2.5620     0.1020 C.ar  1 <1>   0.4100 
  8 F        4.5230     0.2230    -0.1980 F     1 <1>  -0.1900 
  9 N        5.9300     2.5960     0.4370 N.pl3 1 <1>  -0.8380 
 10 C        6.3990     3.3700     1.6500 C.3   1 <1>   0.2090 
 11 C        6.9630     2.0840    -0.5190 C.3   1 <1>   0.2090 
 12 C        7.0980     4.7040     1.2770 C.3   1 <1>   0.4230 
 13 C        7.9610     3.1450    -1.0480 C.3   1 <1>  -0.0800 
 14 N        6.6230     5.1000    -0.0990 N.4   1 <1>  -0.9590 
 15 C        8.6350     4.6030     1.4540 C.3   1 <1>   0.1200 
 16 C        9.3000     3.1600    -0.2920 C.3   1 <1>   0.1200 
 17 C        7.4310     4.5770    -1.2340 C.3   1 <1>   0.3430 
 18 C        6.4630     6.6070    -0.2070 C.3   1 <1>   0.2370 
 19 O        9.1260     3.3470     1.0700 O.3   1 <1>  -0.5600 
 20 C        7.7510     7.3910     0.0500 C.2   1 <1>   0.9060 
 21 O        8.5500     7.5160    -0.8830 O.co2 1 <1>  -0.9000 
 22 O        8.0060     7.7060     1.2160 O.co2 1 <1>  -0.9000 
 23 H        2.1820     4.6960    -0.2440 H     1 <1>   0.1500 
 24 H        2.0250     0.4730    -0.7870 H     1 <1>   0.1500 
 25 H        5.5480     3.6020     2.2650 H     1 <1>   0.0800 
 26 H        7.0490     2.7520     2.2460 H     1 <1>   0.0800 
 27 H        7.5050     1.2840    -0.0430 H     1 <1>   0.0800 
 28 H        6.4540     1.6550    -1.3650 H     1 <1>   0.0800 
 29 H        6.7650     5.4560     1.9720 H     1 <1>   0.0800 
 30 H        8.2310     2.8190    -2.0360 H     1 <1>   0.0800 
 31 H        5.7010     4.6190    -0.1580 H     1 <1>   0.4500 
 32 H        8.8610     4.7100     2.4990 H     1 <1>   0.0800 
 33 H        9.1630     5.3800     0.9290 H     1 <1>   0.0800 
 34 H        9.9560     3.9310    -0.6640 H     1 <1>   0.0800 
 35 H        9.7970     2.2130    -0.4130 H     1 <1>   0.0800 
 36 H        6.8220     4.6080    -2.1220 H     1 <1>   0.0800 
 37 H        8.2710     5.2340    -1.4010 H     1 <1>   0.0800 
 38 H        6.1160     6.8690    -1.1890 H     1 <1>   0.0800 
 39 H        5.7400     6.9460     0.5120 H     1 <1>   0.0800 
@<TRIPOS>BOND
  1   1   2  1   
  2   2   3  ar  
  3   2   4  ar  
  4   3   5  ar  
  5   3  23  1   
  6   4   6  ar  
  7   4  24  1   
  8   5   7  ar  
  9   6   7  ar  
 10   6   8  1   
 11   7   9  1   
 12   9  10  1   
 13   9  11  1   
 14  10  12  1   
 15  10  25  1   
 16  10  26  1   
 17  11  13  1   
 18  11  27  1   
 19  11  28  1   
 20  12  14  1   
 21  12  15  1   
 22  12  29  1   
 23  13  16  1   
 24  13  17  1   
 25  13  30  1   
 26  14  17  1   
 27  14  18  1   
 28  14  31  1   
 29  15  19  1   
 30  15  32  1   
 31  15  33  1   
 32  16  19  1   
 33  16  34  1   
 34  16  35  1   
 35  17  36  1   
 36  17  37  1   
 37  18  20  1   
 38  18  38  1   
 39  18  39  1   
 40  20  21  ar  
 41  20  22  ar  
@<TRIPOS>SUBSTRUCTURE
  1 ****   9 GROUP 4 **** **** 0

# MOE 2024.06 (io_trps.svl 2023.06)
