@<TRIPOS>MOLECULE
NONAME
31 31 1 0 0 
SMALL
USER_CHARGES


@<TRIPOS>ATOM
  1 O        4.0050    -2.2790     1.3760 O.2   1 <1>  -0.5700 
  2 C        3.3810    -1.5450     0.6120 C.2   1 <1>   0.5440 
  3 N        4.1270    -0.5710    -0.0670 N.am  1 <1>  -0.6600 
  4 C        2.0000    -1.8610     0.3540 C.ar  1 <1>   0.0860 
  5 C        3.5620     0.5800    -0.8360 C.3   1 <1>   0.2200 
  6 C        5.5850    -0.4290     0.2190 C.3   1 <1>   0.0600 
  7 C        0.8560    -1.1740     0.8280 C.ar  1 <1>  -0.1710 
  8 C        1.7170    -2.9690    -0.4400 C.ar  1 <1>  -0.1500 
  9 C        3.1020     1.6750     0.1400 C.3   1 <1>  -0.0990 
 10 C        2.5590     0.1270    -1.9060 C.3   1 <1>  -0.2400 
 11 O        0.9250    -0.1650     1.5720 O.3   1 <1>  -0.8290 
 12 C       -0.4170    -1.6470     0.4480 C.ar  1 <1>   0.1600 
 13 C        0.4260    -3.3300    -0.7430 C.ar  1 <1>   0.1600 
 14 C        1.9240     2.4760    -0.3550 C.2   1 <1>   0.5690 
 15 N       -0.6590    -2.6810    -0.3170 N.ar  1 <1>  -0.6200 
 16 O        2.0890     3.3990    -1.1150 O.2   1 <1>  -0.5700 
 17 N        0.7050     2.1290     0.0760 N.am  1 <1>  -0.8000 
 18 H        4.3690     1.0140    -1.4000 H     1 <1>   0.0800 
 19 H        6.0130    -1.3770     0.4960 H     1 <1>   0.0800 
 20 H        5.7230     0.2630     1.0310 H     1 <1>   0.0800 
 21 H        6.1050    -0.0720    -0.6520 H     1 <1>   0.0800 
 22 H        2.5380    -3.5470    -0.8150 H     1 <1>   0.1500 
 23 H        3.9160     2.3510     0.3150 H     1 <1>   0.0800 
 24 H        2.8440     1.2400     1.0860 H     1 <1>   0.0800 
 25 H        1.5960    -0.0870    -1.4840 H     1 <1>   0.0800 
 26 H        2.9280    -0.7420    -2.4180 H     1 <1>   0.0800 
 27 H        2.4230     0.9130    -2.6260 H     1 <1>   0.0800 
 28 H       -1.2510    -1.0920     0.8360 H     1 <1>   0.1500 
 29 H        0.2520    -4.1910    -1.3620 H     1 <1>   0.1500 
 30 H       -0.1500     2.5640    -0.2480 H     1 <1>   0.3700 
 31 H        0.6090     1.2660     0.6660 H     1 <1>   0.3700 
@<TRIPOS>BOND
  1   1   2  2   
  2   2   3  am  
  3   2   4  1   
  4   3   5  1   
  5   3   6  1   
  6   4   7  ar  
  7   4   8  ar  
  8   5   9  1   
  9   5  10  1   
 10   5  18  1   
 11   6  19  1   
 12   6  20  1   
 13   6  21  1   
 14   7  11  1   
 15   7  12  ar  
 16   8  13  ar  
 17   8  22  1   
 18   9  14  1   
 19   9  23  1   
 20   9  24  1   
 21  10  25  1   
 22  10  26  1   
 23  10  27  1   
 24  12  15  ar  
 25  12  28  1   
 26  13  15  ar  
 27  13  29  1   
 28  14  16  2   
 29  14  17  am  
 30  17  30  1   
 31  17  31  1   
@<TRIPOS>SUBSTRUCTURE
  1 ****   4 GROUP 4 **** **** 0

# MOE 2024.06 (io_trps.svl 2023.06)
