@<TRIPOS>MOLECULE
NONAME
53 55 1 0 0 
SMALL
USER_CHARGES


@<TRIPOS>ATOM
  1 O       -1.2200    -0.1440     3.0180 O.2   1 <1>  -0.5700 
  2 C       -1.5360     0.6950     2.2070 C.2   1 <1>   0.5690 
  3 N       -2.2610     0.3690     1.0930 N.am  1 <1>  -0.6600 
  4 C       -1.1080     2.1330     2.4670 C.3   1 <1>   0.0440 
  5 C       -2.5730     1.2570    -0.0570 C.3   1 <1>   0.1400 
  6 C       -2.7190    -1.0070     0.8040 C.3   1 <1>   0.1400 
  7 C       -0.1440     2.6710     1.4140 C.ar  1 <1>  -0.1440 
  8 C       -3.3570     0.3910    -1.0520 C.3   1 <1>   0.2000 
  9 C       -2.9210    -1.0380    -0.7120 C.3   1 <1>  -0.0800 
 10 C       -0.4180     3.8580     0.7480 C.ar  1 <1>  -0.1500 
 11 C        1.0110     1.9690     1.1040 C.ar  1 <1>  -0.1500 
 12 O       -4.7310     0.5130    -0.8140 O.3   1 <1>  -0.5600 
 13 C       -3.8930    -2.1350    -1.1810 C.3   1 <1>   0.0200 
 14 C        0.4400     4.3380    -0.2270 C.ar  1 <1>   0.0830 
 15 C        1.8860     2.4490     0.1450 C.ar  1 <1>  -0.1500 
 16 C       -5.3520     1.5850    -1.4520 C.3   1 <1>   0.0400 
 17 C       -3.3450    -3.5390    -0.9890 C.2   1 <1>  -0.0400 
 18 O        0.0670     5.4820    -0.8580 O.3   1 <1>  -0.3630 
 19 C        1.6180     3.6370    -0.5130 C.ar  1 <1>   0.0830 
 20 O       -4.1130    -4.5580    -1.2710 O.3   1 <1>  -0.0190 
 21 C       -2.1640    -4.0240    -0.5700 C.2   1 <1>  -0.1500 
 22 C        0.0320     5.4780    -2.2700 C.3   1 <1>   0.0400 
 23 O        2.5340     4.0760    -1.4080 O.3   1 <1>  -0.3630 
 24 N       -3.5130    -5.6940    -1.0620 N.2   1 <1>  -0.4100 
 25 C       -2.3370    -5.4030    -0.6370 C.2   1 <1>   0.1080 
 26 C        3.3110     5.1760    -0.9890 C.3   1 <1>   0.0400 
 27 C       -1.2900    -6.4270    -0.2620 C.3   1 <1>  -0.0590 
 28 H       -1.9910     2.7420     2.5160 H     1 <1>   0.0800 
 29 H       -0.6290     2.1810     3.4280 H     1 <1>   0.0800 
 30 H       -3.1370     2.1170     0.2580 H     1 <1>   0.0800 
 31 H       -1.6510     1.5720    -0.5130 H     1 <1>   0.0800 
 32 H       -1.9960    -1.7320     1.1340 H     1 <1>   0.0800 
 33 H       -3.6530    -1.1730     1.3140 H     1 <1>   0.0800 
 34 H       -3.1480     0.6420    -2.0780 H     1 <1>   0.0800 
 35 H       -1.9620    -1.2040    -1.1690 H     1 <1>   0.0800 
 36 H       -1.3040     4.4220     0.9720 H     1 <1>   0.1500 
 37 H        1.2350     1.0440     1.6110 H     1 <1>   0.1500 
 38 H       -4.1090    -1.9970    -2.2260 H     1 <1>   0.0800 
 39 H       -4.8230    -2.0530    -0.6440 H     1 <1>   0.0800 
 40 H        2.7840     1.9080    -0.0910 H     1 <1>   0.1500 
 41 H       -6.3930     1.5750    -1.1810 H     1 <1>   0.0800 
 42 H       -5.2550     1.4690    -2.5170 H     1 <1>   0.0800 
 43 H       -4.9040     2.5080    -1.1270 H     1 <1>   0.0800 
 44 H       -1.2740    -3.5150    -0.2520 H     1 <1>   0.1500 
 45 H       -0.5840     6.2980    -2.5910 H     1 <1>   0.0800 
 46 H       -0.3860     4.5470    -2.6090 H     1 <1>   0.0800 
 47 H        1.0280     5.6030    -2.6510 H     1 <1>   0.0800 
 48 H        4.0010     5.4210    -1.7760 H     1 <1>   0.0800 
 49 H        3.8480     4.9020    -0.0980 H     1 <1>   0.0800 
 50 H        2.6640     6.0120    -0.7920 H     1 <1>   0.0800 
 51 H       -1.0060    -6.2980     0.7660 H     1 <1>   0.0800 
 52 H       -0.4250    -6.3100    -0.8880 H     1 <1>   0.0800 
 53 H       -1.6830    -7.4190    -0.3930 H     1 <1>   0.0800 
@<TRIPOS>BOND
  1   1   2  2   
  2   2   3  am  
  3   2   4  1   
  4   3   5  1   
  5   3   6  1   
  6   4   7  1   
  7   4  28  1   
  8   4  29  1   
  9   5   8  1   
 10   5  30  1   
 11   5  31  1   
 12   6   9  1   
 13   6  32  1   
 14   6  33  1   
 15   7  10  ar  
 16   7  11  ar  
 17   8   9  1   
 18   8  12  1   
 19   8  34  1   
 20   9  13  1   
 21   9  35  1   
 22  10  14  ar  
 23  10  36  1   
 24  11  15  ar  
 25  11  37  1   
 26  12  16  1   
 27  13  17  1   
 28  13  38  1   
 29  13  39  1   
 30  14  18  1   
 31  14  19  ar  
 32  15  19  ar  
 33  15  40  1   
 34  16  41  1   
 35  16  42  1   
 36  16  43  1   
 37  17  20  1   
 38  17  21  2   
 39  18  22  1   
 40  19  23  1   
 41  20  24  1   
 42  21  25  1   
 43  21  44  1   
 44  22  45  1   
 45  22  46  1   
 46  22  47  1   
 47  23  26  1   
 48  24  25  2   
 49  25  27  1   
 50  26  48  1   
 51  26  49  1   
 52  26  50  1   
 53  27  51  1   
 54  27  52  1   
 55  27  53  1   
@<TRIPOS>SUBSTRUCTURE
  1 ****   5 GROUP 4 **** **** 0

# MOE 2024.06 (io_trps.svl 2023.06)
