@<TRIPOS>MOLECULE
NONAME
59 62 1 0 0 
SMALL
USER_CHARGES


@<TRIPOS>ATOM
  1 F        0.2710    -1.1020     0.5130 F     1 <1>  -0.1900 
  2 C       -0.4980    -2.1490     0.3480 C.ar  1 <1>   0.1900 
  3 C        0.0260    -3.4280     0.1310 C.ar  1 <1>   0.0820 
  4 C       -1.8590    -1.9260     0.4050 C.ar  1 <1>  -0.1500 
  5 O        1.3450    -3.7730     0.0550 O.3   1 <1>  -0.3630 
  6 C       -0.8720    -4.4710    -0.0250 C.ar  1 <1>  -0.1500 
  7 C       -2.7260    -2.9910     0.2460 C.ar  1 <1>  -0.1500 
  8 C        2.3900    -2.8270     0.1070 C.3   1 <1>   0.0400 
  9 C       -2.2580    -4.2900     0.0260 C.ar  1 <1>   0.0530 
 10 C       -3.1560    -5.4120    -0.1380 C.2   1 <1>   0.0870 
 11 O       -2.7140    -6.6360     0.0210 O.3   1 <1>  -0.0190 
 12 C       -4.4750    -5.5140    -0.4430 C.2   1 <1>  -0.2330 
 13 N       -3.6410    -7.5390    -0.1530 N.2   1 <1>  -0.4100 
 14 C       -4.7220    -6.8910    -0.4270 C.2   1 <1>   0.3720 
 15 C       -5.3940    -4.4670    -0.7490 C.2   1 <1>   1.0330 
 16 N       -5.9440    -7.5410    -0.6810 N.pl3 1 <1>  -0.8210 
 17 O       -5.3280    -3.8590    -1.8300 O.co2 1 <1>  -0.9000 
 18 O       -6.2260    -4.0870     0.0950 O.co2 1 <1>  -0.9000 
 19 C       -5.9840    -8.9890    -1.0250 C.3   1 <1>   0.2090 
 20 C       -7.2240    -6.8890    -0.2760 C.3   1 <1>   0.2090 
 21 C       -6.6560    -9.8660     0.0710 C.3   1 <1>   0.0000 
 22 C       -8.3290    -7.9230    -0.0230 C.3   1 <1>  -0.1600 
 23 C       -7.2920   -11.0750    -0.6750 C.3   1 <1>   0.1400 
 24 C       -5.5900   -10.3140     1.1150 C.3   1 <1>  -0.1600 
 25 C       -7.7740    -9.0820     0.8160 C.3   1 <1>  -0.1600 
 26 N       -7.2940   -12.3390     0.1210 N.am  1 <1>  -0.6600 
 27 C       -5.0160   -11.7080     0.8250 C.3   1 <1>  -0.0990 
 28 C       -6.1500   -12.7120     0.7720 C.2   1 <1>   0.5690 
 29 C       -8.4770   -13.2370     0.0580 C.3   1 <1>   0.2200 
 30 O       -6.0050   -13.7850     1.3070 O.2   1 <1>  -0.5700 
 31 C       -8.7650   -13.6390    -1.3880 C.3   1 <1>  -0.2400 
 32 C       -9.6820   -12.5620     0.7110 C.3   1 <1>  -0.2400 
 33 H       -2.2410    -0.9350     0.5690 H     1 <1>   0.1500 
 34 H       -0.4790    -5.4560    -0.1960 H     1 <1>   0.1500 
 35 H       -3.7860    -2.8040     0.2940 H     1 <1>   0.1500 
 36 H        3.3200    -3.3510    -0.0200 H     1 <1>   0.0800 
 37 H        2.3740    -2.3410     1.0670 H     1 <1>   0.0800 
 38 H        2.2590    -2.1160    -0.6890 H     1 <1>   0.0800 
 39 H       -4.9940    -9.3550    -1.2360 H     1 <1>   0.0800 
 40 H       -6.5430    -9.0670    -1.9410 H     1 <1>   0.0800 
 41 H       -7.5320    -6.1910    -1.0360 H     1 <1>   0.0800 
 42 H       -7.0540    -6.3370     0.6340 H     1 <1>   0.0800 
 43 H       -8.7140    -8.2790    -0.9610 H     1 <1>   0.0800 
 44 H       -9.1340    -7.4410     0.5020 H     1 <1>   0.0800 
 45 H       -6.7310   -11.2790    -1.5710 H     1 <1>   0.0800 
 46 H       -8.2900   -10.8210    -0.9840 H     1 <1>   0.0800 
 47 H       -6.0400   -10.3710     2.0910 H     1 <1>   0.0800 
 48 H       -4.7970    -9.5890     1.1810 H     1 <1>   0.0800 
 49 H       -7.3730    -8.6410     1.7140 H     1 <1>   0.0800 
 50 H       -8.5660    -9.7440     1.1180 H     1 <1>   0.0800 
 51 H       -4.3310   -11.9880     1.6040 H     1 <1>   0.0800 
 52 H       -4.4890   -11.7160    -0.1100 H     1 <1>   0.0800 
 53 H       -8.2640   -14.1360     0.6140 H     1 <1>   0.0800 
 54 H       -9.0680   -12.7950    -1.9790 H     1 <1>   0.0800 
 55 H       -9.5560   -14.3660    -1.4090 H     1 <1>   0.0800 
 56 H       -7.8880   -14.0860    -1.8220 H     1 <1>   0.0800 
 57 H      -10.0020   -11.7020     0.1540 H     1 <1>   0.0800 
 58 H       -9.4320   -12.2670     1.7140 H     1 <1>   0.0800 
 59 H      -10.5010   -13.2560     0.7590 H     1 <1>   0.0800 
@<TRIPOS>BOND
  1   1   2  1   
  2   2   3  ar  
  3   2   4  ar  
  4   3   5  1   
  5   3   6  ar  
  6   4   7  ar  
  7   4  33  1   
  8   5   8  1   
  9   6   9  ar  
 10   6  34  1   
 11   7   9  ar  
 12   7  35  1   
 13   8  36  1   
 14   8  37  1   
 15   8  38  1   
 16   9  10  1   
 17  10  11  1   
 18  10  12  2   
 19  11  13  1   
 20  12  14  1   
 21  12  15  1   
 22  13  14  2   
 23  14  16  1   
 24  15  17  ar  
 25  15  18  ar  
 26  16  19  1   
 27  16  20  1   
 28  19  21  1   
 29  19  39  1   
 30  19  40  1   
 31  20  22  1   
 32  20  41  1   
 33  20  42  1   
 34  21  23  1   
 35  21  24  1   
 36  21  25  1   
 37  22  25  1   
 38  22  43  1   
 39  22  44  1   
 40  23  26  1   
 41  23  45  1   
 42  23  46  1   
 43  24  27  1   
 44  24  47  1   
 45  24  48  1   
 46  25  49  1   
 47  25  50  1   
 48  26  28  am  
 49  26  29  1   
 50  27  28  1   
 51  27  51  1   
 52  27  52  1   
 53  28  30  2   
 54  29  31  1   
 55  29  32  1   
 56  29  53  1   
 57  31  54  1   
 58  31  55  1   
 59  31  56  1   
 60  32  57  1   
 61  32  58  1   
 62  32  59  1   
@<TRIPOS>SUBSTRUCTURE
  1 ****  14 GROUP 4 **** **** 0

# MOE 2024.06 (io_trps.svl 2023.06)
