@<TRIPOS>MOLECULE
NONAME
42 43 1 0 0 
SMALL
USER_CHARGES


@<TRIPOS>ATOM
  1 O       -2.1650     1.2090    -2.2930 O.2   1 <1>  -0.5700 
  2 C       -2.2920     0.9730    -1.1160 C.2   1 <1>   0.5690 
  3 N       -2.5820    -0.2740    -0.6760 N.am  1 <1>  -0.7300 
  4 C       -2.1230     2.0890    -0.0860 C.3   1 <1>  -0.0190 
  5 C       -2.8540    -1.4430    -1.5400 C.3   1 <1>   0.2840 
  6 C       -2.6820     3.4400    -0.5780 C.3   1 <1>  -0.1600 
  7 C       -0.6430     2.2320     0.3390 C.3   1 <1>  -0.1600 
  8 C       -4.0490    -2.2120    -0.9890 C.ar  1 <1>   0.1660 
  9 C       -2.6450     4.5220     0.5230 C.3   1 <1>   0.2000 
 10 C       -0.3030     3.6010     0.9630 C.3   1 <1>  -0.1600 
 11 N       -3.9200    -2.7200     0.2320 N.ar  1 <1>  -0.6200 
 12 C       -5.1930    -2.3390    -1.7620 C.ar  1 <1>  -0.1500 
 13 O       -2.4210     5.7710    -0.0850 O.3   1 <1>  -0.5600 
 14 C       -1.5370     4.2650     1.5800 C.3   1 <1>   0.2000 
 15 C       -4.9640    -3.3850     0.6980 C.ar  1 <1>   0.1670 
 16 C       -6.2760    -3.0310    -1.2660 C.ar  1 <1>  -0.1500 
 17 C       -3.5300     6.3360    -0.7120 C.3   1 <1>   0.0400 
 18 O       -1.1460     5.4680     2.1310 O.3   1 <1>  -0.6800 
 19 C       -6.1460    -3.5640    -0.0020 C.ar  1 <1>  -0.1500 
 20 C       -4.8070    -3.9670     2.0860 C.3   1 <1>  -0.0970 
 21 H       -2.7340    -0.4800     0.3140 H     1 <1>   0.3700 
 22 H       -2.6940     1.8070     0.7810 H     1 <1>   0.0800 
 23 H       -3.0430    -1.1210    -2.5490 H     1 <1>   0.0800 
 24 H       -1.9920    -2.0860    -1.5430 H     1 <1>   0.0800 
 25 H       -3.6950     3.3070    -0.9130 H     1 <1>   0.0800 
 26 H       -2.0900     3.7620    -1.4180 H     1 <1>   0.0800 
 27 H       -0.4110     1.4490     1.0410 H     1 <1>   0.0800 
 28 H       -0.0080     2.0880    -0.5200 H     1 <1>   0.0800 
 29 H       -3.5880     4.5560     1.0410 H     1 <1>   0.0800 
 30 H        0.0790     4.2480     0.1910 H     1 <1>   0.0800 
 31 H        0.4610     3.4790     1.7100 H     1 <1>   0.0800 
 32 H       -5.2410    -1.8990    -2.7420 H     1 <1>   0.1500 
 33 H       -1.9150     3.6460     2.3750 H     1 <1>   0.0800 
 34 H       -7.1800    -3.1490    -1.8380 H     1 <1>   0.1500 
 35 H       -3.2380     7.2910    -1.1110 H     1 <1>   0.0800 
 36 H       -4.3170     6.4720     0.0100 H     1 <1>   0.0800 
 37 H       -3.8560     5.6970    -1.5140 H     1 <1>   0.0800 
 38 H       -1.2650     6.1370     1.4180 H     1 <1>   0.4000 
 39 H       -6.9600    -4.1150     0.4330 H     1 <1>   0.1500 
 40 H       -5.6920    -4.4970     2.3880 H     1 <1>   0.0800 
 41 H       -4.6190    -3.1760     2.7880 H     1 <1>   0.0800 
 42 H       -3.9740    -4.6460     2.0980 H     1 <1>   0.0800 
@<TRIPOS>BOND
  1   1   2  2   
  2   2   3  am  
  3   2   4  1   
  4   3   5  1   
  5   3  21  1   
  6   4   6  1   
  7   4   7  1   
  8   4  22  1   
  9   5   8  1   
 10   5  23  1   
 11   5  24  1   
 12   6   9  1   
 13   6  25  1   
 14   6  26  1   
 15   7  10  1   
 16   7  27  1   
 17   7  28  1   
 18   8  11  ar  
 19   8  12  ar  
 20   9  13  1   
 21   9  14  1   
 22   9  29  1   
 23  10  14  1   
 24  10  30  1   
 25  10  31  1   
 26  11  15  ar  
 27  12  16  ar  
 28  12  32  1   
 29  13  17  1   
 30  14  18  1   
 31  14  33  1   
 32  15  19  ar  
 33  15  20  1   
 34  16  19  ar  
 35  16  34  1   
 36  17  35  1   
 37  17  36  1   
 38  17  37  1   
 39  18  38  1   
 40  19  39  1   
 41  20  40  1   
 42  20  41  1   
 43  20  42  1   
@<TRIPOS>SUBSTRUCTURE
  1 ****   2 GROUP 4 **** **** 0

# MOE 2024.06 (io_trps.svl 2023.06)
