@<TRIPOS>MOLECULE
Untitled Document
40 43 1 0 0 
SMALL
USER_CHARGES


@<TRIPOS>ATOM
  1 S        2.5690     1.5330    -1.0140 S.3   1 <1>   0.1810 
  2 N        2.6660    -0.0040    -0.3380 N.2   1 <1>  -0.5100 
  3 C        1.0160     1.8440    -0.2950 C.2   1 <1>   0.3780 
  4 C        1.5980    -0.1590     0.3330 C.2   1 <1>   0.3350 
  5 N        0.6430     0.8290     0.3970 N.2   1 <1>  -0.5650 
  6 C        0.3760     3.1060    -0.5360 C.2   1 <1>   0.1860 
  7 C        1.3150    -1.4310     1.0980 C.3   1 <1>  -0.0590 
  8 N        0.8670     4.0860    -1.2490 N.2   1 <1>  -0.3380 
  9 N       -0.8290     3.4640    -0.0550 N.pl3 1 <1>   0.0480 
 10 N       -0.0090     5.0840    -1.2320 N.2   1 <1>  -0.3380 
 11 C       -1.0060     4.6930    -0.5140 C.2   1 <1>   0.0070 
 12 C       -1.8430     2.7670     0.7560 C.3   1 <1>   0.0960 
 13 C       -2.2610     5.4890    -0.1790 C.3   1 <1>   0.4000 
 14 C       -3.2400     3.1190     0.2280 C.3   1 <1>   0.1400 
 15 N       -3.4530     4.5860    -0.0260 N.am  1 <1>  -0.6600 
 16 C       -2.0490     6.2580     1.1270 C.3   1 <1>  -0.2400 
 17 C       -4.7130     5.0980    -0.2540 C.2   1 <1>   0.5440 
 18 O       -4.8520     6.2970    -0.3900 O.2   1 <1>  -0.5700 
 19 C       -5.8800     4.2410    -0.3250 C.ar  1 <1>   0.0860 
 20 C       -6.0580     3.3480    -1.3870 C.ar  1 <1>  -0.1500 
 21 C       -6.8580     4.2870     0.6710 C.ar  1 <1>  -0.1500 
 22 C       -7.1610     2.5140    -1.4460 C.ar  1 <1>  -0.1500 
 23 C       -7.9670     3.4610     0.6280 C.ar  1 <1>  -0.1500 
 24 C       -8.0970     2.5840    -0.4320 C.ar  1 <1>   0.1900 
 25 F       -9.1360     1.7980    -0.4780 F     1 <1>  -0.1900 
 26 H        0.4130    -1.8800     0.7310 H     1 <1>   0.0800 
 27 H        1.2010    -1.2060     2.1420 H     1 <1>   0.0800 
 28 H        2.1270    -2.1250     0.9770 H     1 <1>   0.0800 
 29 H       -1.7000     1.7050     0.7020 H     1 <1>   0.0800 
 30 H       -1.7450     3.0780     1.7800 H     1 <1>   0.0800 
 31 H       -2.4400     6.1900    -0.9770 H     1 <1>   0.0800 
 32 H       -3.9760     2.7670     0.9310 H     1 <1>   0.0800 
 33 H       -3.3930     2.5890    -0.6970 H     1 <1>   0.0800 
 34 H       -1.8830     5.5860     1.9470 H     1 <1>   0.0800 
 35 H       -2.9050     6.8750     1.3360 H     1 <1>   0.0800 
 36 H       -1.1910     6.8980     1.0270 H     1 <1>   0.0800 
 37 H       -5.3240     3.3190    -2.1740 H     1 <1>   0.1500 
 38 H       -6.7390     4.9850     1.4830 H     1 <1>   0.1500 
 39 H       -7.3010     1.8250    -2.2600 H     1 <1>   0.1500 
 40 H       -8.7210     3.4940     1.3950 H     1 <1>   0.1500 
@<TRIPOS>BOND
  1   1   2  1   
  2   1   3  1   
  3   2   4  2   
  4   3   5  2   
  5   3   6  1   
  6   4   5  1   
  7   4   7  1   
  8   6   8  2   
  9   6   9  1   
 10   7  26  1   
 11   7  27  1   
 12   7  28  1   
 13   8  10  1   
 14   9  11  1   
 15   9  12  1   
 16  10  11  2   
 17  11  13  1   
 18  12  14  1   
 19  12  29  1   
 20  12  30  1   
 21  13  15  1   
 22  13  16  1   
 23  13  31  1   
 24  14  15  1   
 25  14  32  1   
 26  14  33  1   
 27  15  17  am  
 28  16  34  1   
 29  16  35  1   
 30  16  36  1   
 31  17  18  2   
 32  17  19  1   
 33  19  20  ar  
 34  19  21  ar  
 35  20  22  ar  
 36  20  37  1   
 37  21  23  ar  
 38  21  38  1   
 39  22  24  ar  
 40  22  39  1   
 41  23  24  ar  
 42  23  40  1   
 43  24  25  1   
@<TRIPOS>SUBSTRUCTURE
  1 ****  14 GROUP 4 **** **** 0

# MOE 2024.06 (io_trps.svl 2023.06)
