@<TRIPOS>MOLECULE
NONAME
49 51 1 0 0 
SMALL
USER_CHARGES


@<TRIPOS>ATOM
  1 O       -1.4250    -0.8450    -0.9820 O.co2 1 <1>  -0.9000 
  2 C       -0.7090    -1.4120    -0.1350 C.2   1 <1>   1.0330 
  3 O       -0.9290    -1.1910     1.0700 O.co2 1 <1>  -0.9000 
  4 C        0.3790    -2.2410    -0.5400 C.2   1 <1>  -0.2330 
  5 C        0.2840    -3.5620    -0.9830 C.2   1 <1>   0.3720 
  6 C        1.7090    -1.9700    -0.6040 C.2   1 <1>   0.0870 
  7 N        1.4480    -4.0300    -1.2800 N.2   1 <1>  -0.4100 
  8 N       -0.9020    -4.3080    -1.1070 N.pl3 1 <1>  -0.8210 
  9 O        2.2910    -3.0600    -1.0450 O.3   1 <1>  -0.0190 
 10 C        2.5080    -0.8020    -0.3100 C.ar  1 <1>   0.0530 
 11 C       -0.8110    -5.7820    -1.2440 C.3   1 <1>   0.2090 
 12 C       -1.9930    -3.6540    -1.8870 C.3   1 <1>   0.1290 
 13 C        3.7730    -0.6410    -0.8820 C.ar  1 <1>  -0.1500 
 14 C        2.0720     0.2090     0.5480 C.ar  1 <1>  -0.1500 
 15 C       -1.8870    -6.4230    -0.3660 C.3   1 <1>  -0.1600 
 16 C        4.5550     0.4670    -0.6150 C.ar  1 <1>  -0.1500 
 17 C        2.8460     1.3230     0.8190 C.ar  1 <1>  -0.1500 
 18 C       -1.8480    -7.9570    -0.4530 C.3   1 <1>  -0.1600 
 19 C        4.1010     1.4600     0.2360 C.ar  1 <1>   0.0820 
 20 C       -2.8660    -8.6140     0.4820 C.3   1 <1>   0.2000 
 21 O        4.9220     2.5170     0.4470 O.3   1 <1>  -0.3630 
 22 O       -2.7680    -9.9890     0.3460 O.3   1 <1>  -0.5600 
 23 C       -4.3240    -8.3120     0.1640 C.3   1 <1>  -0.1600 
 24 C        4.5310     3.5920     1.2720 C.3   1 <1>   0.0400 
 25 C       -3.9420   -10.6040     0.7730 C.3   1 <1>   0.1200 
 26 C       -5.0450    -9.5530     0.6640 C.3   1 <1>  -0.1600 
 27 H        0.1550    -6.1280    -0.9180 H     1 <1>   0.0800 
 28 H       -0.9400    -6.0610    -2.2760 H     1 <1>   0.0800 
 29 H       -1.5850    -2.8980    -2.5370 H     1 <1>   0.0800 
 30 H       -2.6810    -3.1800    -1.2070 H     1 <1>   0.0800 
 31 H       -2.5250    -4.3710    -2.4830 H     1 <1>   0.0800 
 32 H        4.1450    -1.3970    -1.5500 H     1 <1>   0.1500 
 33 H        1.1090     0.1260     1.0180 H     1 <1>   0.1500 
 34 H       -2.8520    -6.0660    -0.6760 H     1 <1>   0.0800 
 35 H       -1.7190    -6.1150     0.6510 H     1 <1>   0.0800 
 36 H        5.5250     0.5710    -1.0670 H     1 <1>   0.1500 
 37 H        2.4500     2.0640     1.4850 H     1 <1>   0.1500 
 38 H       -0.8660    -8.3000    -0.1770 H     1 <1>   0.0800 
 39 H       -2.0440    -8.2670    -1.4650 H     1 <1>   0.0800 
 40 H       -2.6490    -8.3740     1.5100 H     1 <1>   0.0800 
 41 H       -4.4520    -8.2140    -0.9000 H     1 <1>   0.0800 
 42 H       -4.6600    -7.4130     0.6490 H     1 <1>   0.0800 
 43 H        5.3280     4.3130     1.2810 H     1 <1>   0.0800 
 44 H        4.3600     3.2220     2.2670 H     1 <1>   0.0800 
 45 H        3.6390     4.0350     0.8660 H     1 <1>   0.0800 
 46 H       -3.8030   -10.9240     1.7910 H     1 <1>   0.0800 
 47 H       -4.1280   -11.4540     0.1400 H     1 <1>   0.0800 
 48 H       -5.8170    -9.8670    -0.0150 H     1 <1>   0.0800 
 49 H       -5.4770    -9.3840     1.6350 H     1 <1>   0.0800 
@<TRIPOS>BOND
  1   1   2  ar  
  2   2   3  ar  
  3   2   4  1   
  4   4   5  1   
  5   4   6  2   
  6   5   7  2   
  7   5   8  1   
  8   6   9  1   
  9   6  10  1   
 10   7   9  1   
 11   8  11  1   
 12   8  12  1   
 13  10  13  ar  
 14  10  14  ar  
 15  11  15  1   
 16  11  27  1   
 17  11  28  1   
 18  12  29  1   
 19  12  30  1   
 20  12  31  1   
 21  13  16  ar  
 22  13  32  1   
 23  14  17  ar  
 24  14  33  1   
 25  15  18  1   
 26  15  34  1   
 27  15  35  1   
 28  16  19  ar  
 29  16  36  1   
 30  17  19  ar  
 31  17  37  1   
 32  18  20  1   
 33  18  38  1   
 34  18  39  1   
 35  19  21  1   
 36  20  22  1   
 37  20  23  1   
 38  20  40  1   
 39  21  24  1   
 40  22  25  1   
 41  23  26  1   
 42  23  41  1   
 43  23  42  1   
 44  24  43  1   
 45  24  44  1   
 46  24  45  1   
 47  25  26  1   
 48  25  46  1   
 49  25  47  1   
 50  26  48  1   
 51  26  49  1   
@<TRIPOS>SUBSTRUCTURE
  1 ****   5 GROUP 4 **** **** 0

# MOE 2024.06 (io_trps.svl 2023.06)
