@<TRIPOS>MOLECULE
NONAME
56 59 1 0 0 
SMALL
USER_CHARGES


@<TRIPOS>ATOM
  1 F       -1.6920    -1.4930    -1.1300 F     1 <1>  -0.1900 
  2 C       -2.7850    -0.7800    -1.0340 C.ar  1 <1>   0.1900 
  3 C       -2.7780     0.6120    -1.1820 C.ar  1 <1>   0.0830 
  4 C       -3.9520    -1.4740    -0.7820 C.ar  1 <1>  -0.1500 
  5 O       -1.6970     1.4060    -1.4310 O.3   1 <1>  -0.3630 
  6 C       -3.9880     1.2760    -1.0660 C.ar  1 <1>  -0.1500 
  7 C       -5.1420    -0.7800    -0.6730 C.ar  1 <1>  -0.1500 
  8 C       -0.3820     0.9070    -1.5320 C.3   1 <1>   0.0400 
  9 C       -5.1900     0.6100    -0.8090 C.ar  1 <1>   0.0530 
 10 C       -6.4280     1.3430    -0.7000 C.2   1 <1>   0.0870 
 11 O       -6.5770     2.4880    -1.3180 O.3   1 <1>  -0.0190 
 12 C       -7.5990     1.0930    -0.0570 C.2   1 <1>  -0.0860 
 13 N       -7.7590     3.0170    -1.1370 N.2   1 <1>  -0.4100 
 14 C       -8.3930     2.1990    -0.3720 C.2   1 <1>   0.3720 
 15 C       -7.9760    -0.0160     0.7590 C.2   1 <1>   0.7160 
 16 N       -9.7090     2.4020     0.0750 N.pl3 1 <1>  -0.8210 
 17 O       -7.3780    -0.2020     1.8030 O.2   1 <1>  -0.5700 
 18 N       -8.9600    -0.9140     0.3840 N.am  1 <1>  -0.6600 
 19 C      -10.5160     3.3660    -0.7250 C.3   1 <1>   0.1290 
 20 C       -9.8180     2.6690     1.5360 C.3   1 <1>   0.1290 
 21 C       -9.2950    -2.0730     1.2520 C.3   1 <1>   0.1400 
 22 C       -9.7560    -0.7370    -0.8650 C.3   1 <1>   0.1400 
 23 C       -8.3770    -3.2470     0.9020 C.3   1 <1>  -0.1600 
 24 C      -10.0400    -2.0560    -1.5960 C.3   1 <1>  -0.1600 
 25 C       -8.7000    -3.9520    -0.4280 C.3   1 <1>   0.2800 
 26 C       -8.8380    -3.0220    -1.6520 C.3   1 <1>  -0.1600 
 27 O       -7.5950    -4.7980    -0.6930 O.3   1 <1>  -0.4300 
 28 C       -9.8940    -4.9330    -0.2890 C.3   1 <1>   0.1400 
 29 C       -7.9350    -6.0740    -0.6350 C.2   1 <1>   0.7800 
 30 N       -9.2310    -6.2310    -0.3470 N.am  1 <1>  -0.7300 
 31 O       -7.1530    -6.9680    -0.8520 O.2   1 <1>  -0.5700 
 32 H       -3.9280    -2.5440    -0.6740 H     1 <1>   0.1500 
 33 H       -3.9920     2.3450    -1.1760 H     1 <1>   0.1500 
 34 H       -6.0430    -1.3320    -0.4810 H     1 <1>   0.1500 
 35 H        0.2780     1.7380    -1.7040 H     1 <1>   0.0800 
 36 H       -0.3290     0.2220    -2.3600 H     1 <1>   0.0800 
 37 H       -0.1210     0.4190    -0.6090 H     1 <1>   0.0800 
 38 H      -10.4320     3.1320    -1.7720 H     1 <1>   0.0800 
 39 H      -10.1600     4.3700    -0.5640 H     1 <1>   0.0800 
 40 H      -11.5520     3.3060    -0.4400 H     1 <1>   0.0800 
 41 H       -9.2330     1.9610     2.0960 H     1 <1>   0.0800 
 42 H      -10.8450     2.5860     1.8470 H     1 <1>   0.0800 
 43 H       -9.4600     3.6610     1.7550 H     1 <1>   0.0800 
 44 H      -10.3320    -2.3380     1.1440 H     1 <1>   0.0800 
 45 H       -9.1400    -1.8000     2.2830 H     1 <1>   0.0800 
 46 H       -9.2230    -0.0980    -1.5470 H     1 <1>   0.0800 
 47 H      -10.6830    -0.2440    -0.6240 H     1 <1>   0.0800 
 48 H       -8.4390    -3.9690     1.6970 H     1 <1>   0.0800 
 49 H       -7.3620    -2.8900     0.8830 H     1 <1>   0.0800 
 50 H      -10.3180    -1.8010    -2.6040 H     1 <1>   0.0800 
 51 H      -10.9010    -2.5280    -1.1590 H     1 <1>   0.0800 
 52 H       -7.9300    -2.4580    -1.7770 H     1 <1>   0.0800 
 53 H       -8.9510    -3.6430    -2.5240 H     1 <1>   0.0800 
 54 H      -10.5860    -4.8370    -1.1080 H     1 <1>   0.0800 
 55 H      -10.4160    -4.8080     0.6440 H     1 <1>   0.0800 
 56 H       -9.6980    -7.1320    -0.4470 H     1 <1>   0.3700 
@<TRIPOS>BOND
  1   1   2  1   
  2   2   3  ar  
  3   2   4  ar  
  4   3   5  1   
  5   3   6  ar  
  6   4   7  ar  
  7   4  32  1   
  8   5   8  1   
  9   6   9  ar  
 10   6  33  1   
 11   7   9  ar  
 12   7  34  1   
 13   8  35  1   
 14   8  36  1   
 15   8  37  1   
 16   9  10  1   
 17  10  11  1   
 18  10  12  2   
 19  11  13  1   
 20  12  14  1   
 21  12  15  1   
 22  13  14  2   
 23  14  16  1   
 24  15  17  2   
 25  15  18  am  
 26  16  19  1   
 27  16  20  1   
 28  18  21  1   
 29  18  22  1   
 30  19  38  1   
 31  19  39  1   
 32  19  40  1   
 33  20  41  1   
 34  20  42  1   
 35  20  43  1   
 36  21  23  1   
 37  21  44  1   
 38  21  45  1   
 39  22  24  1   
 40  22  46  1   
 41  22  47  1   
 42  23  25  1   
 43  23  48  1   
 44  23  49  1   
 45  24  26  1   
 46  24  50  1   
 47  24  51  1   
 48  25  26  1   
 49  25  27  1   
 50  25  28  1   
 51  26  52  1   
 52  26  53  1   
 53  27  29  1   
 54  28  30  1   
 55  28  54  1   
 56  28  55  1   
 57  29  30  am  
 58  29  31  2   
 59  30  56  1   
@<TRIPOS>SUBSTRUCTURE
  1 ****  15 GROUP 4 **** **** 0

# MOE 2024.06 (io_trps.svl 2023.06)
