@<TRIPOS>MOLECULE
NONAME
34 35 1 0 0 
SMALL
USER_CHARGES


@<TRIPOS>ATOM
  1 N        0.0140    -0.0740    -0.2250 N.4   1 <1>  -0.9590 
  2 C        0.0720     1.3800     0.2360 C.3   1 <1>   0.4230 
  3 C       -1.2800    -0.7620     0.1000 C.3   1 <1>   0.3430 
  4 C        1.0340    -1.0020     0.3470 C.3   1 <1>   0.3430 
  5 C        1.3060     2.2220    -0.2930 C.3   1 <1>   0.4230 
  6 C       -1.2290     2.1100    -0.1690 C.3   1 <1>  -0.1600 
  7 C       -1.0030    -2.2440    -0.0910 C.3   1 <1>  -0.1600 
  8 C        0.5080    -2.3990     0.0580 C.3   1 <1>  -0.1600 
  9 N        2.6770     1.7040     0.0160 N.4   1 <1>  -0.8530 
 10 C        1.2640     3.6600     0.2350 C.3   1 <1>  -0.1600 
 11 C       -1.2570     3.5650     0.3190 C.3   1 <1>  -0.1600 
 12 C       -0.0410     4.3550    -0.1660 C.3   1 <1>  -0.1600 
 13 H        0.0690    -0.1270    -1.2530 H     1 <1>   0.4500 
 14 H        0.1080     1.3920     1.3130 H     1 <1>   0.0800 
 15 H       -1.5470    -0.5790     1.1290 H     1 <1>   0.0800 
 16 H       -2.0850    -0.4320    -0.5390 H     1 <1>   0.0800 
 17 H        2.0070    -0.8670    -0.0940 H     1 <1>   0.0800 
 18 H        1.0950    -0.8660     1.4160 H     1 <1>   0.0800 
 19 H        1.2040     2.2860    -1.3650 H     1 <1>   0.0800 
 20 H       -1.3390     2.1020    -1.2410 H     1 <1>   0.0800 
 21 H       -2.0930     1.6370     0.2620 H     1 <1>   0.0800 
 22 H       -1.5400    -2.8240     0.6400 H     1 <1>   0.0800 
 23 H       -1.3220    -2.5570    -1.0720 H     1 <1>   0.0800 
 24 H        0.9380    -2.7780    -0.8540 H     1 <1>   0.0800 
 25 H        0.7620    -3.0740     0.8580 H     1 <1>   0.0800 
 26 H        2.8380     1.5870     1.0240 H     1 <1>   0.4500 
 27 H        3.3680     2.4040    -0.2930 H     1 <1>   0.4500 
 28 H        2.9130     0.8440    -0.4860 H     1 <1>   0.4500 
 29 H        1.3430     3.6700     1.3100 H     1 <1>   0.0800 
 30 H        2.0800     4.2350    -0.1700 H     1 <1>   0.0800 
 31 H       -2.1540     4.0460    -0.0370 H     1 <1>   0.0800 
 32 H       -1.2940     3.5890     1.3970 H     1 <1>   0.0800 
 33 H       -0.0690     5.3460     0.2600 H     1 <1>   0.0800 
 34 H       -0.0880     4.4690    -1.2370 H     1 <1>   0.0800 
@<TRIPOS>BOND
  1   1   2  1   
  2   1   3  1   
  3   1   4  1   
  4   1  13  1   
  5   2   5  1   
  6   2   6  1   
  7   2  14  1   
  8   3   7  1   
  9   3  15  1   
 10   3  16  1   
 11   4   8  1   
 12   4  17  1   
 13   4  18  1   
 14   5   9  1   
 15   5  10  1   
 16   5  19  1   
 17   6  11  1   
 18   6  20  1   
 19   6  21  1   
 20   7   8  1   
 21   7  22  1   
 22   7  23  1   
 23   8  24  1   
 24   8  25  1   
 25   9  26  1   
 26   9  27  1   
 27   9  28  1   
 28  10  12  1   
 29  10  29  1   
 30  10  30  1   
 31  11  12  1   
 32  11  31  1   
 33  11  32  1   
 34  12  33  1   
 35  12  34  1   
@<TRIPOS>SUBSTRUCTURE
  1 ****   2 GROUP 4 **** **** 0

# MOE 2024.06 (io_trps.svl 2023.06)
