@<TRIPOS>MOLECULE
NONAME
50 52 1 0 0 
SMALL
USER_CHARGES


@<TRIPOS>ATOM
  1 F        1.6270    -0.0800     2.3620 F     1 <1>  -0.1900 
  2 C        2.3100     0.4740     1.3970 C.ar  1 <1>   0.1900 
  3 C        2.5570    -0.2610     0.2420 C.ar  1 <1>   0.0860 
  4 C        2.7350     1.7770     1.5710 C.ar  1 <1>  -0.1500 
  5 C        3.2670     0.4090    -0.7480 C.ar  1 <1>   0.1900 
  6 C        2.1060    -1.6160     0.0880 C.2   1 <1>   0.5440 
  7 C        3.4430     2.4060     0.5570 C.ar  1 <1>   0.0830 
  8 F        3.5310    -0.2140    -1.8640 F     1 <1>  -0.1900 
  9 C        3.7120     1.7110    -0.6200 C.ar  1 <1>  -0.1500 
 10 O        2.7330    -2.5320     0.5940 O.2   1 <1>  -0.5700 
 11 N        0.9360    -1.9220    -0.5730 N.am  1 <1>  -0.6600 
 12 O        3.8310     3.6790     0.7820 O.3   1 <1>  -0.3630 
 13 C        0.5960    -3.3300    -0.8430 C.3   1 <1>   0.1400 
 14 C       -0.2930    -1.1060    -0.4130 C.3   1 <1>   0.1400 
 15 C        4.5830     4.4080    -0.1630 C.3   1 <1>   0.0400 
 16 C       -0.2250    -3.7580     0.3850 C.3   1 <1>   0.4230 
 17 C       -1.2320    -1.7640     0.6340 C.3   1 <1>  -0.1600 
 18 N        0.0690    -5.1530     0.8830 N.4   1 <1>  -0.9590 
 19 C       -1.7410    -3.2570     0.2320 C.3   1 <1>   0.0000 
 20 C       -0.1650    -6.1760    -0.1510 C.3   1 <1>   0.3430 
 21 C        1.4600    -5.2320     1.4380 C.3   1 <1>   0.2630 
 22 C       -2.2770    -4.7080    -0.2440 C.3   1 <1>  -0.1600 
 23 C       -3.2470    -2.7170     0.1610 C.3   1 <1>   0.1200 
 24 C       -1.3850    -5.7590    -0.9530 C.3   1 <1>  -0.1600 
 25 O       -3.4380    -2.0550    -1.0500 O.3   1 <1>  -0.6800 
 26 H        2.5210     2.3060     2.4820 H     1 <1>   0.1500 
 27 H        4.2540     2.1560    -1.4320 H     1 <1>   0.1500 
 28 H        0.0170    -3.3890    -1.7480 H     1 <1>   0.0800 
 29 H        1.4930    -3.9110    -0.9610 H     1 <1>   0.0800 
 30 H       -0.0450    -0.1050    -0.1030 H     1 <1>   0.0800 
 31 H       -0.8000    -1.0370    -1.3630 H     1 <1>   0.0800 
 32 H        4.7800     5.3820     0.2470 H     1 <1>   0.0800 
 33 H        4.0110     4.5020    -1.0690 H     1 <1>   0.0800 
 34 H        5.5110     3.8940    -0.3440 H     1 <1>   0.0800 
 35 H        0.2230    -3.1840     1.1750 H     1 <1>   0.0800 
 36 H       -0.7660    -1.7420     1.6070 H     1 <1>   0.0800 
 37 H       -1.9610    -0.9790     0.7510 H     1 <1>   0.0800 
 38 H       -0.5960    -5.3240     1.6470 H     1 <1>   0.4500 
 39 H        0.6880    -6.2580    -0.8050 H     1 <1>   0.0800 
 40 H       -0.3350    -7.1340     0.3160 H     1 <1>   0.0800 
 41 H        2.1880    -5.0510     0.6630 H     1 <1>   0.0800 
 42 H        1.6430    -6.2040     1.8650 H     1 <1>   0.0800 
 43 H        1.6010    -4.4850     2.2030 H     1 <1>   0.0800 
 44 H       -2.7270    -5.1970     0.6060 H     1 <1>   0.0800 
 45 H       -3.0480    -4.6270    -1.0000 H     1 <1>   0.0800 
 46 H       -3.5220    -2.0560     0.9660 H     1 <1>   0.0800 
 47 H       -4.0350    -3.4510     0.2420 H     1 <1>   0.0800 
 48 H       -1.0640    -5.3770    -1.9070 H     1 <1>   0.0800 
 49 H       -1.9660    -6.6400    -1.1670 H     1 <1>   0.0800 
 50 H       -4.3580    -1.7270    -1.1340 H     1 <1>   0.4000 
@<TRIPOS>BOND
  1   1   2  1   
  2   2   3  ar  
  3   2   4  ar  
  4   3   5  ar  
  5   3   6  1   
  6   4   7  ar  
  7   4  26  1   
  8   5   8  1   
  9   5   9  ar  
 10   6  10  2   
 11   6  11  am  
 12   7   9  ar  
 13   7  12  1   
 14   9  27  1   
 15  11  13  1   
 16  11  14  1   
 17  12  15  1   
 18  13  16  1   
 19  13  28  1   
 20  13  29  1   
 21  14  17  1   
 22  14  30  1   
 23  14  31  1   
 24  15  32  1   
 25  15  33  1   
 26  15  34  1   
 27  16  18  1   
 28  16  19  1   
 29  16  35  1   
 30  17  19  1   
 31  17  36  1   
 32  17  37  1   
 33  18  20  1   
 34  18  21  1   
 35  18  38  1   
 36  19  22  1   
 37  19  23  1   
 38  20  24  1   
 39  20  39  1   
 40  20  40  1   
 41  21  41  1   
 42  21  42  1   
 43  21  43  1   
 44  22  24  1   
 45  22  44  1   
 46  22  45  1   
 47  23  25  1   
 48  23  46  1   
 49  23  47  1   
 50  24  48  1   
 51  24  49  1   
 52  25  50  1   
@<TRIPOS>SUBSTRUCTURE
  1 ****  11 GROUP 4 **** **** 0

# MOE 2024.06 (io_trps.svl 2023.06)
