@<TRIPOS>MOLECULE
NONAME
46 47 1 0 0 
SMALL
USER_CHARGES


@<TRIPOS>ATOM
  1 S        0.0850     0.5950     0.8660 S.o2  1 <1>   1.3330 
  2 O        0.3680     1.7100     1.7400 O.2   1 <1>  -0.6500 
  3 O       -0.1500     0.8430    -0.5330 O.2   1 <1>  -0.6500 
  4 N        1.4270    -0.4860     1.0090 N.am  1 <1>  -0.6930 
  5 C       -1.2500    -0.3600     1.5530 C.3   1 <1>  -0.1350 
  6 C        1.5530    -1.5350     0.1030 C.ar  1 <1>   0.1990 
  7 C        2.6600     0.0710     1.6590 C.3   1 <1>   0.3370 
  8 C        1.2040    -2.8260     0.4830 C.ar  1 <1>  -0.1500 
  9 C        2.0260    -1.3220    -1.1860 C.ar  1 <1>  -0.1500 
 10 C        3.4250     1.0720     0.7580 C.2   1 <1>   0.5690 
 11 C        3.5400    -1.0770     2.1830 C.3   1 <1>  -0.2400 
 12 C        1.3240    -3.8810    -0.4040 C.ar  1 <1>  -0.1500 
 13 C        2.1480    -2.3740    -2.0760 C.ar  1 <1>  -0.1500 
 14 O        4.4540     0.7300     0.2180 O.2   1 <1>  -0.5700 
 15 N        2.9050     2.3300     0.6020 N.am  1 <1>  -0.4940 
 16 C        1.7960    -3.6550    -1.6860 C.ar  1 <1>  -0.1500 
 17 C        3.2850     3.3620    -0.2880 C.2   1 <1>  -0.0880 
 18 N        4.5440     3.8080    -0.5700 N.pl3 1 <1>   0.3140 
 19 C        2.4380     4.1030    -1.0410 C.2   1 <1>  -0.1810 
 20 N        4.5110     4.8050    -1.4910 N.2   1 <1>  -0.7070 
 21 C        5.8200     3.3460     0.0320 C.3   1 <1>   0.0960 
 22 C        3.2540     4.9670    -1.7610 C.2   1 <1>   0.1390 
 23 C        0.9250     4.0190    -1.1260 C.3   1 <1>  -0.0590 
 24 C        6.8040     4.4950     0.3070 C.3   1 <1>  -0.2400 
 25 H       -2.1530     0.2170     1.5510 H     1 <1>   0.0800 
 26 H       -1.0230    -0.6430     2.5620 H     1 <1>   0.0800 
 27 H       -1.4080    -1.2460     0.9700 H     1 <1>   0.0800 
 28 H        2.3540     0.6190     2.5330 H     1 <1>   0.0800 
 29 H        0.8440    -3.0020     1.4790 H     1 <1>   0.1500 
 30 H        2.2960    -0.3280    -1.4950 H     1 <1>   0.1500 
 31 H        3.9420    -1.6520     1.3670 H     1 <1>   0.0800 
 32 H        2.9740    -1.7190     2.8320 H     1 <1>   0.0800 
 33 H        4.3670    -0.6720     2.7380 H     1 <1>   0.0800 
 34 H        1.0520    -4.8770    -0.1010 H     1 <1>   0.1500 
 35 H        2.5160    -2.1940    -3.0710 H     1 <1>   0.1500 
 36 H        1.9770     2.4670     1.0270 H     1 <1>   0.3700 
 37 H        1.8910    -4.4740    -2.3790 H     1 <1>   0.1500 
 38 H        6.2620     2.6320    -0.6380 H     1 <1>   0.0800 
 39 H        5.5990     2.8520     0.9590 H     1 <1>   0.0800 
 40 H        2.8940     5.6940    -2.4690 H     1 <1>   0.1500 
 41 H        0.5090     3.7580    -0.1710 H     1 <1>   0.0800 
 42 H        0.6440     3.2670    -1.8420 H     1 <1>   0.0800 
 43 H        0.5160     4.9640    -1.4310 H     1 <1>   0.0800 
 44 H        7.0900     4.9680    -0.6160 H     1 <1>   0.0800 
 45 H        7.6890     4.1120     0.7820 H     1 <1>   0.0800 
 46 H        6.3510     5.2250     0.9540 H     1 <1>   0.0800 
@<TRIPOS>BOND
  1   1   2  2   
  2   1   3  2   
  3   1   4  am  
  4   1   5  1   
  5   4   6  1   
  6   4   7  1   
  7   5  25  1   
  8   5  26  1   
  9   5  27  1   
 10   6   8  ar  
 11   6   9  ar  
 12   7  10  1   
 13   7  11  1   
 14   7  28  1   
 15   8  12  ar  
 16   8  29  1   
 17   9  13  ar  
 18   9  30  1   
 19  10  14  2   
 20  10  15  am  
 21  11  31  1   
 22  11  32  1   
 23  11  33  1   
 24  12  16  ar  
 25  12  34  1   
 26  13  16  ar  
 27  13  35  1   
 28  15  17  1   
 29  15  36  1   
 30  16  37  1   
 31  17  18  1   
 32  17  19  2   
 33  18  20  1   
 34  18  21  1   
 35  19  22  1   
 36  19  23  1   
 37  20  22  2   
 38  21  24  1   
 39  21  38  1   
 40  21  39  1   
 41  22  40  1   
 42  23  41  1   
 43  23  42  1   
 44  23  43  1   
 45  24  44  1   
 46  24  45  1   
 47  24  46  1   
@<TRIPOS>SUBSTRUCTURE
  1 ****  10 GROUP 4 **** **** 0

# MOE 2024.06 (io_trps.svl 2023.06)
