@<TRIPOS>MOLECULE
NONAME
44 46 1 0 0 
SMALL
USER_CHARGES


@<TRIPOS>ATOM
  1 O       -0.0180     1.1050    -0.7820 O.co2 1 <1>  -0.9000 
  2 C       -0.0230     1.5730     0.3680 C.2   1 <1>   0.9060 
  3 O        0.8770     1.3560     1.1830 O.co2 1 <1>  -0.9000 
  4 C       -1.3330     2.2450     0.8470 C.3   1 <1>   0.4600 
  5 N       -2.5640     1.5220     0.3190 N.4   1 <1>  -0.9590 
  6 C       -1.4320     3.7180     0.4520 C.ar  1 <1>  -0.1430 
  7 C       -3.8440     2.2240     0.5900 C.3   1 <1>   0.3430 
  8 C       -2.5220     0.0930     0.7290 C.3   1 <1>   0.3430 
  9 C       -1.2710     4.1170    -0.8680 C.ar  1 <1>  -0.1500 
 10 C       -1.7090     4.6750     1.4180 C.ar  1 <1>  -0.1500 
 11 C       -4.9940     1.4660    -0.0660 C.3   1 <1>  -0.1600 
 12 C       -3.6730    -0.6690     0.0780 C.3   1 <1>  -0.1600 
 13 C       -1.4040     5.4500    -1.2170 C.ar  1 <1>  -0.1500 
 14 C       -1.8410     6.0070     1.0660 C.ar  1 <1>  -0.1500 
 15 C       -5.0290    -0.0100     0.3640 C.3   1 <1>   0.1000 
 16 C       -1.6940     6.4010    -0.2530 C.ar  1 <1>  -0.1430 
 17 C       -6.1340    -0.7690    -0.3610 C.2   1 <1>   0.0060 
 18 C       -1.8340     7.8620    -0.6390 C.3   1 <1>  -0.0970 
 19 N       -6.5200    -0.5480    -1.5680 N.2   1 <1>  -0.3380 
 20 N       -6.8250    -1.7810     0.1830 N.pl3 1 <1>   0.0330 
 21 N       -7.4880    -1.4320    -1.8480 N.2   1 <1>  -0.3380 
 22 C       -7.6520    -2.1520    -0.7910 C.2   1 <1>   0.2700 
 23 N       -8.5640    -3.1770    -0.6900 N.pl3 1 <1>  -0.8840 
 24 H       -1.3210     2.1840     1.9190 H     1 <1>   0.0800 
 25 H       -2.3700     1.5180    -0.6970 H     1 <1>   0.4500 
 26 H       -3.8070     3.2270     0.1950 H     1 <1>   0.0800 
 27 H       -4.0050     2.2850     1.6530 H     1 <1>   0.0800 
 28 H       -2.5920     0.0200     1.8020 H     1 <1>   0.0800 
 29 H       -1.5860    -0.3510     0.4210 H     1 <1>   0.0800 
 30 H       -1.0310     3.3950    -1.6330 H     1 <1>   0.1500 
 31 H       -1.8190     4.3940     2.4510 H     1 <1>   0.1500 
 32 H       -4.8860     1.5380    -1.1350 H     1 <1>   0.0800 
 33 H       -5.9250     1.9390     0.1930 H     1 <1>   0.0800 
 34 H       -3.6740    -1.6800     0.4430 H     1 <1>   0.0800 
 35 H       -3.5060    -0.7120    -0.9850 H     1 <1>   0.0800 
 36 H       -1.2720     5.7420    -2.2440 H     1 <1>   0.1500 
 37 H       -2.0530     6.7400     1.8260 H     1 <1>   0.1500 
 38 H       -5.2230    -0.0500     1.4220 H     1 <1>   0.0800 
 39 H       -2.2200     7.9530    -1.6390 H     1 <1>   0.0800 
 40 H       -0.8730     8.3420    -0.5940 H     1 <1>   0.0800 
 41 H       -2.5060     8.3680     0.0310 H     1 <1>   0.0800 
 42 H       -6.7480    -2.2230     1.0980 H     1 <1>   0.2700 
 43 H       -8.8710    -3.4580    -1.6270 H     1 <1>   0.4000 
 44 H       -9.4010    -2.9190    -0.1620 H     1 <1>   0.4000 
@<TRIPOS>BOND
  1   1   2  ar  
  2   2   3  ar  
  3   2   4  1   
  4   4   5  1   
  5   4   6  1   
  6   4  24  1   
  7   5   7  1   
  8   5   8  1   
  9   5  25  1   
 10   6   9  ar  
 11   6  10  ar  
 12   7  11  1   
 13   7  26  1   
 14   7  27  1   
 15   8  12  1   
 16   8  28  1   
 17   8  29  1   
 18   9  13  ar  
 19   9  30  1   
 20  10  14  ar  
 21  10  31  1   
 22  11  15  1   
 23  11  32  1   
 24  11  33  1   
 25  12  15  1   
 26  12  34  1   
 27  12  35  1   
 28  13  16  ar  
 29  13  36  1   
 30  14  16  ar  
 31  14  37  1   
 32  15  17  1   
 33  15  38  1   
 34  16  18  1   
 35  17  19  2   
 36  17  20  1   
 37  18  39  1   
 38  18  40  1   
 39  18  41  1   
 40  19  21  1   
 41  20  22  1   
 42  20  42  1   
 43  21  22  2   
 44  22  23  1   
 45  23  43  1   
 46  23  44  1   
@<TRIPOS>SUBSTRUCTURE
  1 ****   5 GROUP 4 **** **** 0

# MOE 2024.06 (io_trps.svl 2023.06)
