@<TRIPOS>MOLECULE
NONAME
54 57 1 0 0 
SMALL
USER_CHARGES


@<TRIPOS>ATOM
  1 O       -1.3620     2.0090     2.0750 O.2   1 <1>  -0.5700 
  2 C       -2.1700     1.9740     1.1760 C.2   1 <1>   0.5690 
  3 N       -3.2050     1.0600     1.1960 N.am  1 <1>  -0.6600 
  4 C       -1.9900     2.9990     0.0560 C.3   1 <1>   0.0820 
  5 C       -4.4550     1.0910     0.3840 C.3   1 <1>   0.1400 
  6 C       -3.2140    -0.0460     2.1970 C.3   1 <1>   0.1400 
  7 C       -0.6570     2.8630    -0.6730 C.2   1 <1>  -0.1810 
  8 C       -4.5950    -0.2260    -0.3830 C.3   1 <1>  -0.1600 
  9 C       -3.3290    -1.3850     1.4640 C.3   1 <1>  -0.1600 
 10 C       -0.2840     1.8190    -1.5180 C.2   1 <1>   0.1080 
 11 C        0.4110     3.6930    -0.6650 C.2   1 <1>  -0.3320 
 12 C       -4.5680    -1.4430     0.5580 C.3   1 <1>   0.4240 
 13 N        0.9030     1.9800    -2.0100 N.2   1 <1>  -0.7070 
 14 C       -1.1230     0.6090    -1.8540 C.3   1 <1>  -0.0590 
 15 N        1.3340     3.1360    -1.4770 N.pl3 1 <1>   0.3000 
 16 C        0.6510     4.9980     0.0760 C.3   1 <1>  -0.0600 
 17 O       -5.6690    -1.3400     1.4300 O.3   1 <1>  -0.5600 
 18 C       -4.5860    -2.7640    -0.2420 C.ar  1 <1>  -0.1430 
 19 C       -6.8980    -1.8220     0.9820 C.3   1 <1>   0.1200 
 20 C       -5.6440    -3.6600    -0.1290 C.ar  1 <1>  -0.1430 
 21 C       -3.5390    -3.0800    -1.1020 C.ar  1 <1>  -0.1500 
 22 C       -6.7990    -3.3330     0.7950 C.3   1 <1>  -0.0170 
 23 C       -5.6500    -4.8430    -0.8510 C.ar  1 <1>  -0.1500 
 24 C       -3.5450    -4.2580    -1.8250 C.ar  1 <1>  -0.1500 
 25 C       -4.5970    -5.1490    -1.7060 C.ar  1 <1>   0.0820 
 26 O       -4.5250    -6.2820    -2.4490 O.3   1 <1>  -0.3630 
 27 C       -5.5330    -7.2660    -2.3830 C.3   1 <1>   0.0400 
 28 H       -2.0610     3.9730     0.4980 H     1 <1>   0.0800 
 29 H       -2.7630     2.9300    -0.6780 H     1 <1>   0.0800 
 30 H       -4.4770     1.9160    -0.3000 H     1 <1>   0.0800 
 31 H       -5.2940     1.2060     1.0510 H     1 <1>   0.0800 
 32 H       -4.0480     0.0850     2.8650 H     1 <1>   0.0800 
 33 H       -2.3130    -0.0420     2.7870 H     1 <1>   0.0800 
 34 H       -3.7890    -0.2970    -1.0850 H     1 <1>   0.0800 
 35 H       -5.5040    -0.2240    -0.9530 H     1 <1>   0.0800 
 36 H       -3.3790    -2.1870     2.1770 H     1 <1>   0.0800 
 37 H       -2.4350    -1.5240     0.8870 H     1 <1>   0.0800 
 38 H       -2.0490     0.9210    -2.2980 H     1 <1>   0.0800 
 39 H       -1.3170     0.0480    -0.9590 H     1 <1>   0.0800 
 40 H       -0.5960    -0.0180    -2.5490 H     1 <1>   0.0800 
 41 H        2.2660     3.5150    -1.6810 H     1 <1>   0.2700 
 42 H       -0.1700     5.2240     0.7300 H     1 <1>   0.0800 
 43 H        0.7660     5.8060    -0.6240 H     1 <1>   0.0800 
 44 H        1.5420     4.9220     0.6740 H     1 <1>   0.0800 
 45 H       -7.1570    -1.3350     0.0590 H     1 <1>   0.0800 
 46 H       -7.6370    -1.5830     1.7260 H     1 <1>   0.0800 
 47 H       -2.7040    -2.4130    -1.2190 H     1 <1>   0.1500 
 48 H       -7.7220    -3.6990     0.3840 H     1 <1>   0.0800 
 49 H       -6.6440    -3.8020     1.7500 H     1 <1>   0.0800 
 50 H       -6.4780    -5.5160    -0.7390 H     1 <1>   0.1500 
 51 H       -2.7320    -4.4970    -2.4870 H     1 <1>   0.1500 
 52 H       -5.2590    -8.0680    -3.0440 H     1 <1>   0.0800 
 53 H       -6.4650    -6.8330    -2.7020 H     1 <1>   0.0800 
 54 H       -5.6000    -7.6300    -1.3740 H     1 <1>   0.0800 
@<TRIPOS>BOND
  1   1   2  2   
  2   2   3  am  
  3   2   4  1   
  4   3   5  1   
  5   3   6  1   
  6   4   7  1   
  7   4  28  1   
  8   4  29  1   
  9   5   8  1   
 10   5  30  1   
 11   5  31  1   
 12   6   9  1   
 13   6  32  1   
 14   6  33  1   
 15   7  10  1   
 16   7  11  2   
 17   8  12  1   
 18   8  34  1   
 19   8  35  1   
 20   9  12  1   
 21   9  36  1   
 22   9  37  1   
 23  10  13  2   
 24  10  14  1   
 25  11  15  1   
 26  11  16  1   
 27  12  17  1   
 28  12  18  1   
 29  13  15  1   
 30  14  38  1   
 31  14  39  1   
 32  14  40  1   
 33  15  41  1   
 34  16  42  1   
 35  16  43  1   
 36  16  44  1   
 37  17  19  1   
 38  18  20  ar  
 39  18  21  ar  
 40  19  22  1   
 41  19  45  1   
 42  19  46  1   
 43  20  22  1   
 44  20  23  ar  
 45  21  24  ar  
 46  21  47  1   
 47  22  48  1   
 48  22  49  1   
 49  23  25  ar  
 50  23  50  1   
 51  24  25  ar  
 52  24  51  1   
 53  25  26  1   
 54  26  27  1   
 55  27  52  1   
 56  27  53  1   
 57  27  54  1   
@<TRIPOS>SUBSTRUCTURE
  1 ****   8 GROUP 4 **** **** 0

# MOE 2024.06 (io_trps.svl 2023.06)
