@<TRIPOS>MOLECULE
NONAME
42 44 1 0 0 
SMALL
USER_CHARGES


@<TRIPOS>ATOM
  1 S        1.2470     0.0880     1.6280 S.3   1 <1>  -0.0800 
  2 C        1.3820     1.2600     0.3120 C.2   1 <1>  -0.0450 
  3 C        1.0220    -1.2460     0.5190 C.2   1 <1>  -0.1100 
  4 C        1.6000     2.6490     0.6390 C.2   1 <1>   0.7150 
  5 C        1.2460     0.5980    -0.8670 C.2   1 <1>  -0.1500 
  6 C        1.0470    -0.8090    -0.7530 C.2   1 <1>  -0.1500 
  7 O        1.1660     3.1130     1.6790 O.2   1 <1>  -0.5700 
  8 N        2.2980     3.4830    -0.2090 N.am  1 <1>  -0.6600 
  9 C        2.2560     4.9680    -0.0550 C.3   1 <1>   0.1400 
 10 C        3.4540     3.0200    -1.0320 C.3   1 <1>   0.1400 
 11 C        3.6000     5.4980     0.4690 C.3   1 <1>   0.1100 
 12 C        4.7730     3.6030    -0.4920 C.3   1 <1>   0.1100 
 13 N        4.7280     5.0770    -0.3980 N.3   1 <1>  -0.8100 
 14 C        6.0120     5.6050     0.1080 C.3   1 <1>   0.2480 
 15 C        6.0780     7.1260    -0.0170 C.2   1 <1>  -0.0380 
 16 N        5.5610     7.6810    -1.1590 N.pl3 1 <1>  -0.6000 
 17 C        6.6170     7.9380     0.9330 C.2   1 <1>  -0.1360 
 18 C        5.5820     9.0440    -1.3720 C.2   1 <1>  -0.0500 
 19 C        6.6670     9.3470     0.7720 C.2   1 <1>   0.5410 
 20 C        6.1250     9.8850    -0.4490 C.2   1 <1>   0.0910 
 21 O        7.1630    10.0280     1.6730 O.2   1 <1>  -0.5700 
 22 O        6.1060    11.2280    -0.7390 O.3   1 <1>  -0.3570 
 23 C        7.2470    12.0030    -0.4340 C.3   1 <1>   0.0400 
 24 H        0.8920    -2.2270     0.9400 H     1 <1>   0.1500 
 25 H        1.2730     1.0700    -1.8340 H     1 <1>   0.1500 
 26 H        0.9290    -1.4280    -1.6250 H     1 <1>   0.1500 
 27 H        1.4700     5.2580     0.6200 H     1 <1>   0.0800 
 28 H        2.0490     5.4170    -1.0100 H     1 <1>   0.0800 
 29 H        3.3150     3.3410    -2.0500 H     1 <1>   0.0800 
 30 H        3.5250     1.9480    -1.0240 H     1 <1>   0.0800 
 31 H        3.7480     5.1380     1.4730 H     1 <1>   0.0800 
 32 H        3.5500     6.5730     0.5050 H     1 <1>   0.0800 
 33 H        5.5730     3.3130    -1.1510 H     1 <1>   0.0800 
 34 H        4.9690     3.1800     0.4790 H     1 <1>   0.0800 
 35 H        6.8140     5.1930    -0.4790 H     1 <1>   0.0800 
 36 H        6.1580     5.3090     1.1330 H     1 <1>   0.0800 
 37 H        5.0940     7.0330    -1.8130 H     1 <1>   0.4000 
 38 H        7.0290     7.5520     1.8450 H     1 <1>   0.1500 
 39 H        5.1550     9.4170    -2.2870 H     1 <1>   0.1500 
 40 H        7.2020    12.9080    -1.0120 H     1 <1>   0.0800 
 41 H        8.1330    11.4470    -0.6870 H     1 <1>   0.0800 
 42 H        7.2370    12.2440     0.6140 H     1 <1>   0.0800 
@<TRIPOS>BOND
  1   1   2  1   
  2   1   3  1   
  3   2   4  1   
  4   2   5  2   
  5   3   6  2   
  6   3  24  1   
  7   4   7  2   
  8   4   8  am  
  9   5   6  1   
 10   5  25  1   
 11   6  26  1   
 12   8   9  1   
 13   8  10  1   
 14   9  11  1   
 15   9  27  1   
 16   9  28  1   
 17  10  12  1   
 18  10  29  1   
 19  10  30  1   
 20  11  13  1   
 21  11  31  1   
 22  11  32  1   
 23  12  13  1   
 24  12  33  1   
 25  12  34  1   
 26  13  14  1   
 27  14  15  1   
 28  14  35  1   
 29  14  36  1   
 30  15  16  1   
 31  15  17  2   
 32  16  18  1   
 33  16  37  1   
 34  17  19  1   
 35  17  38  1   
 36  18  20  2   
 37  18  39  1   
 38  19  20  1   
 39  19  21  2   
 40  20  22  1   
 41  22  23  1   
 42  23  40  1   
 43  23  41  1   
 44  23  42  1   
@<TRIPOS>SUBSTRUCTURE
  1 ****  11 GROUP 4 **** **** 0

# MOE 2024.06 (io_trps.svl 2023.06)
