@<TRIPOS>MOLECULE
NONAME
54 57 1 0 0 
SMALL
USER_CHARGES


@<TRIPOS>ATOM
  1 O        0.5670     0.2160     0.4590 O.3   1 <1>  -0.6800 
  2 C        1.5090    -0.1050    -0.5100 C.3   1 <1>   0.2000 
  3 C        2.2110    -1.3890    -0.0690 C.3   1 <1>  -0.0800 
  4 C        2.6110     0.9670    -0.4750 C.3   1 <1>   0.3430 
  5 C        3.2090    -0.8550     0.9590 C.3   1 <1>   0.3430 
  6 C        2.9060    -2.0930    -1.2580 C.3   1 <1>  -0.0160 
  7 N        3.7160     0.3980     0.3560 N.4   1 <1>  -0.9590 
  8 C        3.7500    -3.2750    -0.8100 C.ar  1 <1>   0.1670 
  9 C        4.3510     1.3390     1.3070 C.3   1 <1>   0.4860 
 10 N        4.9570    -2.9890    -0.3430 N.ar  1 <1>  -0.6200 
 11 C        3.2390    -4.5610    -0.9080 C.ar  1 <1>  -0.1500 
 12 C        4.7110     2.6420     0.5960 C.ar  1 <1>  -0.1430 
 13 C        5.6850    -4.0290     0.0370 C.ar  1 <1>   0.1600 
 14 C        4.0070    -5.6320    -0.5030 C.ar  1 <1>  -0.1500 
 15 C        5.7440     2.6780    -0.3530 C.ar  1 <1>  -0.0230 
 16 C        4.0070     3.8060     0.8950 C.ar  1 <1>  -0.1430 
 17 C        5.2650    -5.3460    -0.0190 C.ar  1 <1>  -0.1500 
 18 N        6.5090     1.5300    -0.7000 N.pl3 1 <1>   0.5930 
 19 C        6.0400     3.8790    -0.9870 C.ar  1 <1>  -0.1500 
 20 C        4.3280     4.9870     0.2450 C.ar  1 <1>  -0.1500 
 21 C        2.8870     3.8440     1.9310 C.3   1 <1>  -0.0970 
 22 N        5.9740     0.4380    -1.3100 N.2   1 <1>  -0.7070 
 23 C        7.8150     1.3070    -0.4270 C.2   1 <1>  -0.3020 
 24 C        5.3380     5.0310    -0.6970 C.ar  1 <1>  -0.1430 
 25 C        6.9440    -0.4190    -1.4060 C.2   1 <1>   0.1390 
 26 C        8.1270     0.0710    -0.8670 C.2   1 <1>  -0.1500 
 27 C        5.6700     6.3380    -1.3960 C.3   1 <1>  -0.0970 
 28 H       -0.2380    -0.3360     0.3700 H     1 <1>   0.4000 
 29 H        1.0170    -0.1650    -1.4670 H     1 <1>   0.0800 
 30 H        1.5280    -2.0810     0.3920 H     1 <1>   0.0800 
 31 H        2.2230     1.8800    -0.0560 H     1 <1>   0.0800 
 32 H        2.9790     1.1610    -1.4690 H     1 <1>   0.0800 
 33 H        4.0030    -1.5500     1.1730 H     1 <1>   0.0800 
 34 H        2.6800    -0.6290     1.8710 H     1 <1>   0.0800 
 35 H        3.5440    -1.4100    -1.7930 H     1 <1>   0.0800 
 36 H        2.1590    -2.4360    -1.9530 H     1 <1>   0.0800 
 37 H        4.4680     0.1280    -0.3120 H     1 <1>   0.4500 
 38 H        3.6760     1.5380     2.1210 H     1 <1>   0.0800 
 39 H        5.2440     0.8940     1.7150 H     1 <1>   0.0800 
 40 H        2.2520    -4.7330    -1.2970 H     1 <1>   0.1500 
 41 H        6.6720    -3.8240     0.4160 H     1 <1>   0.1500 
 42 H        3.6430    -6.6440    -0.5650 H     1 <1>   0.1500 
 43 H        5.9150    -6.1370     0.3100 H     1 <1>   0.1500 
 44 H        6.8290     3.9110    -1.7200 H     1 <1>   0.1500 
 45 H        3.7900     5.8920     0.4730 H     1 <1>   0.1500 
 46 H        2.4240     4.8140     1.9610 H     1 <1>   0.0800 
 47 H        3.2810     3.6390     2.9110 H     1 <1>   0.0800 
 48 H        2.1220     3.1250     1.6990 H     1 <1>   0.0800 
 49 H        8.4320     2.0400     0.0590 H     1 <1>   0.1500 
 50 H        6.8380    -1.3980    -1.8510 H     1 <1>   0.1500 
 51 H        9.0680    -0.4500    -0.8280 H     1 <1>   0.1500 
 52 H        4.7690     6.8810    -1.6190 H     1 <1>   0.0800 
 53 H        6.1920     6.1570    -2.3180 H     1 <1>   0.0800 
 54 H        6.2910     6.9440    -0.7610 H     1 <1>   0.0800 
@<TRIPOS>BOND
  1   1   2  1   
  2   1  28  1   
  3   2   3  1   
  4   2   4  1   
  5   2  29  1   
  6   3   5  1   
  7   3   6  1   
  8   3  30  1   
  9   4   7  1   
 10   4  31  1   
 11   4  32  1   
 12   5   7  1   
 13   5  33  1   
 14   5  34  1   
 15   6   8  1   
 16   6  35  1   
 17   6  36  1   
 18   7   9  1   
 19   7  37  1   
 20   8  10  ar  
 21   8  11  ar  
 22   9  12  1   
 23   9  38  1   
 24   9  39  1   
 25  10  13  ar  
 26  11  14  ar  
 27  11  40  1   
 28  12  15  ar  
 29  12  16  ar  
 30  13  17  ar  
 31  13  41  1   
 32  14  17  ar  
 33  14  42  1   
 34  15  18  1   
 35  15  19  ar  
 36  16  20  ar  
 37  16  21  1   
 38  17  43  1   
 39  18  22  1   
 40  18  23  1   
 41  19  24  ar  
 42  19  44  1   
 43  20  24  ar  
 44  20  45  1   
 45  21  46  1   
 46  21  47  1   
 47  21  48  1   
 48  22  25  2   
 49  23  26  2   
 50  23  49  1   
 51  24  27  1   
 52  25  26  1   
 53  25  50  1   
 54  26  51  1   
 55  27  52  1   
 56  27  53  1   
 57  27  54  1   
@<TRIPOS>SUBSTRUCTURE
  1 ****   7 GROUP 4 **** **** 0

# MOE 2024.06 (io_trps.svl 2023.06)
