@<TRIPOS>MOLECULE
NONAME
49 51 1 0 0 
SMALL
USER_CHARGES


@<TRIPOS>ATOM
  1 O        2.1740    -0.0290     1.2590 O.2   1 <1>  -0.5700 
  2 C        2.8490    -1.0190     1.0410 C.2   1 <1>   0.5440 
  3 N        4.2100    -0.8340     0.9830 N.am  1 <1>  -0.6600 
  4 C        2.2300    -2.3090     0.7850 C.ar  1 <1>   0.0860 
  5 C        4.8790     0.1680     1.8950 C.3   1 <1>   0.1400 
  6 C        4.9860    -1.2870    -0.2120 C.3   1 <1>   0.1400 
  7 C        0.9430    -2.3970     0.2580 C.ar  1 <1>  -0.1500 
  8 C        2.8980    -3.5050     1.0520 C.ar  1 <1>  -0.1500 
  9 C        5.1300     1.5400     1.2190 C.3   1 <1>   0.4230 
 10 C        5.4510    -0.1460    -1.1540 C.3   1 <1>  -0.0800 
 11 C        0.3480    -3.6240    -0.0120 C.ar  1 <1>   0.0830 
 12 C        2.3180    -4.7300     0.7860 C.ar  1 <1>  -0.1500 
 13 N        4.1450     1.6900     0.0870 N.4   1 <1>  -0.9590 
 14 C        6.6260     1.7150     0.8500 C.3   1 <1>   0.1200 
 15 C        6.9260     0.2320    -0.9530 C.3   1 <1>   0.1200 
 16 C        4.5750     1.1210    -1.2260 C.3   1 <1>   0.3430 
 17 O       -0.9050    -3.7360    -0.5270 O.3   1 <1>  -0.3630 
 18 C        1.0440    -4.8000     0.2490 C.ar  1 <1>  -0.1430 
 19 C        3.7240     3.1430    -0.0820 C.3   1 <1>   0.2370 
 20 O        7.1950     0.5270     0.3740 O.3   1 <1>  -0.5600 
 21 C       -1.7600    -2.6220    -0.6570 C.3   1 <1>   0.0400 
 22 C        0.4150    -6.1560    -0.0410 C.3   1 <1>  -0.0970 
 23 C        4.8680     4.1040    -0.4090 C.2   1 <1>   0.9060 
 24 O        5.4490     4.6450     0.5360 O.co2 1 <1>  -0.9000 
 25 O        5.2650     4.1560    -1.5770 O.co2 1 <1>  -0.9000 
 26 H        4.2450     0.3320     2.7490 H     1 <1>   0.0800 
 27 H        5.7990    -0.2440     2.2710 H     1 <1>   0.0800 
 28 H        5.8410    -1.8520     0.1230 H     1 <1>   0.0800 
 29 H        4.3720    -1.9600    -0.7860 H     1 <1>   0.0800 
 30 H        0.4200    -1.4810     0.0630 H     1 <1>   0.1500 
 31 H        3.8850    -3.4750     1.4800 H     1 <1>   0.1500 
 32 H        4.9120     2.3060     1.9450 H     1 <1>   0.0800 
 33 H        5.4250    -0.5570    -2.1470 H     1 <1>   0.0800 
 34 H        2.8620    -5.6340     1.0020 H     1 <1>   0.1500 
 35 H        3.3270     1.1330     0.4060 H     1 <1>   0.4500 
 36 H        7.1650     1.9710     1.7440 H     1 <1>   0.0800 
 37 H        6.7920     2.5070     0.1400 H     1 <1>   0.0800 
 38 H        7.2100     1.0760    -1.5630 H     1 <1>   0.0800 
 39 H        7.5560    -0.6000    -1.2190 H     1 <1>   0.0800 
 40 H        3.6910     0.8980    -1.8010 H     1 <1>   0.0800 
 41 H        5.1230     1.8730    -1.7720 H     1 <1>   0.0800 
 42 H        3.0020     3.2240    -0.8740 H     1 <1>   0.0800 
 43 H        3.2690     3.4940     0.8250 H     1 <1>   0.0800 
 44 H       -2.7130    -2.9730    -1.0100 H     1 <1>   0.0800 
 45 H       -1.3380    -1.9380    -1.3700 H     1 <1>   0.0800 
 46 H       -1.8770    -2.1570     0.3060 H     1 <1>   0.0800 
 47 H        1.0850    -6.9590     0.2070 H     1 <1>   0.0800 
 48 H        0.1660    -6.2250    -1.0850 H     1 <1>   0.0800 
 49 H       -0.4860    -6.2690     0.5350 H     1 <1>   0.0800 
@<TRIPOS>BOND
  1   1   2  2   
  2   2   3  am  
  3   2   4  1   
  4   3   5  1   
  5   3   6  1   
  6   4   7  ar  
  7   4   8  ar  
  8   5   9  1   
  9   5  26  1   
 10   5  27  1   
 11   6  10  1   
 12   6  28  1   
 13   6  29  1   
 14   7  11  ar  
 15   7  30  1   
 16   8  12  ar  
 17   8  31  1   
 18   9  13  1   
 19   9  14  1   
 20   9  32  1   
 21  10  15  1   
 22  10  16  1   
 23  10  33  1   
 24  11  17  1   
 25  11  18  ar  
 26  12  18  ar  
 27  12  34  1   
 28  13  16  1   
 29  13  19  1   
 30  13  35  1   
 31  14  20  1   
 32  14  36  1   
 33  14  37  1   
 34  15  20  1   
 35  15  38  1   
 36  15  39  1   
 37  16  40  1   
 38  16  41  1   
 39  17  21  1   
 40  18  22  1   
 41  19  23  1   
 42  19  42  1   
 43  19  43  1   
 44  21  44  1   
 45  21  45  1   
 46  21  46  1   
 47  22  47  1   
 48  22  48  1   
 49  22  49  1   
 50  23  24  ar  
 51  23  25  ar  
@<TRIPOS>SUBSTRUCTURE
  1 ****   2 GROUP 4 **** **** 0

# MOE 2024.06 (io_trps.svl 2023.06)
