@<TRIPOS>MOLECULE
NONAME
38 40 1 0 0 
SMALL
USER_CHARGES


@<TRIPOS>ATOM
  1 O       -0.0420     0.0700    -1.3360 O.3   1 <1>  -0.0190 
  2 N       -0.6340    -0.9680    -0.8300 N.2   1 <1>  -0.4100 
  3 C       -0.7390     1.0850    -0.8950 C.2   1 <1>   0.2980 
  4 C       -1.6270    -0.5490    -0.1270 C.2   1 <1>   0.5150 
  5 N       -1.7280     0.7840    -0.1570 N.2   1 <1>  -0.5650 
  6 C       -0.3350     2.4990    -1.3070 C.3   1 <1>   0.2900 
  7 C       -2.5360    -1.4020     0.6090 C.2   1 <1>   0.1410 
  8 N        0.9580     2.9330    -0.7090 N.3   1 <1>  -0.8100 
  9 O       -3.5570    -0.8990     1.3000 O.3   1 <1>  -0.2800 
 10 C       -2.5510    -2.7560     0.7430 C.2   1 <1>  -0.1500 
 11 C        0.9850     4.3900    -0.4710 C.3   1 <1>   0.1100 
 12 C        2.1070     2.4840    -1.5070 C.3   1 <1>   0.1100 
 13 C       -4.2130    -1.8910     1.8660 C.2   1 <1>  -0.0100 
 14 C       -3.6400    -3.0730     1.5600 C.2   1 <1>  -0.1500 
 15 C        0.2580     4.7290     0.8320 C.3   1 <1>   0.0960 
 16 C        3.3110     2.2870    -0.5910 C.3   1 <1>  -0.2400 
 17 N        0.3390     6.1770     1.0820 N.pl3 1 <1>   0.3140 
 18 N       -0.2360     7.0750     0.2600 N.2   1 <1>  -0.7070 
 19 C        0.9710     6.7880     2.1050 C.2   1 <1>  -0.3020 
 20 C        0.0410     8.2310     0.7820 C.2   1 <1>   0.1390 
 21 C        0.7970     8.1160     1.9420 C.2   1 <1>  -0.1500 
 22 H       -1.1240     3.1540    -0.9840 H     1 <1>   0.0800 
 23 H       -0.2870     2.5610    -2.3800 H     1 <1>   0.0800 
 24 H       -1.8640    -3.4620     0.3110 H     1 <1>   0.1500 
 25 H        0.5330     4.9130    -1.2990 H     1 <1>   0.0800 
 26 H        2.0030     4.7290    -0.3790 H     1 <1>   0.0800 
 27 H        2.3310     3.1980    -2.2840 H     1 <1>   0.0800 
 28 H        1.8910     1.5390    -1.9760 H     1 <1>   0.0800 
 29 H       -5.0750    -1.6660     2.4690 H     1 <1>   0.1500 
 30 H       -3.9330    -4.0620     1.8630 H     1 <1>   0.1500 
 31 H        0.7160     4.2070     1.6510 H     1 <1>   0.0800 
 32 H       -0.7780     4.4600     0.7720 H     1 <1>   0.0800 
 33 H        3.6190     3.2140    -0.1450 H     1 <1>   0.0800 
 34 H        4.1350     1.8950    -1.1580 H     1 <1>   0.0800 
 35 H        3.0670     1.5820     0.1850 H     1 <1>   0.0800 
 36 H        1.4970     6.2550     2.8760 H     1 <1>   0.1500 
 37 H       -0.2840     9.1660     0.3560 H     1 <1>   0.1500 
 38 H        1.1500     8.9280     2.5530 H     1 <1>   0.1500 
@<TRIPOS>BOND
  1   1   2  1   
  2   1   3  1   
  3   2   4  2   
  4   3   5  2   
  5   3   6  1   
  6   4   5  1   
  7   4   7  1   
  8   6   8  1   
  9   6  22  1   
 10   6  23  1   
 11   7   9  1   
 12   7  10  2   
 13   8  11  1   
 14   8  12  1   
 15   9  13  1   
 16  10  14  1   
 17  10  24  1   
 18  11  15  1   
 19  11  25  1   
 20  11  26  1   
 21  12  16  1   
 22  12  27  1   
 23  12  28  1   
 24  13  14  2   
 25  13  29  1   
 26  14  30  1   
 27  15  17  1   
 28  15  31  1   
 29  15  32  1   
 30  16  33  1   
 31  16  34  1   
 32  16  35  1   
 33  17  18  1   
 34  17  19  1   
 35  18  20  2   
 36  19  21  2   
 37  19  36  1   
 38  20  21  1   
 39  20  37  1   
 40  21  38  1   
@<TRIPOS>SUBSTRUCTURE
  1 ****   6 GROUP 4 **** **** 0

# MOE 2024.06 (io_trps.svl 2023.06)
