@<TRIPOS>MOLECULE
NONAME
38 39 1 0 0 
SMALL
USER_CHARGES


@<TRIPOS>ATOM
  1 S       -0.5580    -0.1660     1.1940 S.o2  1 <1>   1.3330 
  2 O       -1.3290    -1.3520     1.4900 O.2   1 <1>  -0.6500 
  3 O        0.0410     0.5940     2.2660 O.2   1 <1>  -0.6500 
  4 N       -1.5350     0.8740     0.2790 N.am  1 <1>  -0.8490 
  5 C        0.7350    -0.5840     0.0450 C.3   1 <1>  -0.1350 
  6 C       -2.4910     0.1470    -0.5620 C.3   1 <1>   0.1960 
  7 C       -2.2050     1.8720     1.1180 C.3   1 <1>   0.1960 
  8 C       -3.2400     1.1200    -1.4730 C.3   1 <1>  -0.1600 
  9 C       -2.9660     2.8780     0.2500 C.3   1 <1>  -0.1600 
 10 C       -3.9920     2.1890    -0.6700 C.3   1 <1>   0.2800 
 11 O       -4.4470     3.1060    -1.6230 O.3   1 <1>  -0.5600 
 12 C       -5.2110     1.5610     0.0530 C.3   1 <1>  -0.1600 
 13 C       -5.2910     4.1400    -1.2120 C.3   1 <1>   0.1200 
 14 C       -6.2930     2.5570     0.4850 C.3   1 <1>   0.2800 
 15 C       -6.5810     3.5510    -0.6380 C.3   1 <1>  -0.1600 
 16 O       -5.8410     3.2600     1.5740 O.3   1 <1>  -0.6800 
 17 C       -7.5620     1.8430     0.9450 C.3   1 <1>  -0.2400 
 18 H        1.4470    -1.2310     0.5170 H     1 <1>   0.0800 
 19 H        1.2380     0.3060    -0.2790 H     1 <1>   0.0800 
 20 H        0.3290    -1.0840    -0.8110 H     1 <1>   0.0800 
 21 H       -3.1880    -0.3970     0.0560 H     1 <1>   0.0800 
 22 H       -1.9650    -0.5670    -1.1720 H     1 <1>   0.0800 
 23 H       -1.4700     2.4130     1.6920 H     1 <1>   0.0800 
 24 H       -2.8700     1.3830     1.8110 H     1 <1>   0.0800 
 25 H       -3.9260     0.5720    -2.0930 H     1 <1>   0.0800 
 26 H       -2.5230     1.5960    -2.1190 H     1 <1>   0.0800 
 27 H       -2.2460     3.3990    -0.3570 H     1 <1>   0.0800 
 28 H       -3.4240     3.5960     0.8960 H     1 <1>   0.0800 
 29 H       -4.9040     0.9770     0.9010 H     1 <1>   0.0800 
 30 H       -5.6740     0.8760    -0.6340 H     1 <1>   0.0800 
 31 H       -5.5120     4.7390    -2.0780 H     1 <1>   0.0800 
 32 H       -4.7770     4.7560    -0.4960 H     1 <1>   0.0800 
 33 H       -7.0980     3.0480    -1.4350 H     1 <1>   0.0800 
 34 H       -7.2230     4.3370    -0.2820 H     1 <1>   0.0800 
 35 H       -5.0880     3.8140     1.3060 H     1 <1>   0.4000 
 36 H       -7.9850     1.2740     0.1370 H     1 <1>   0.0800 
 37 H       -8.2940     2.5590     1.2740 H     1 <1>   0.0800 
 38 H       -7.3400     1.1720     1.7550 H     1 <1>   0.0800 
@<TRIPOS>BOND
  1   1   2  2   
  2   1   3  2   
  3   1   4  am  
  4   1   5  1   
  5   4   6  1   
  6   4   7  1   
  7   5  18  1   
  8   5  19  1   
  9   5  20  1   
 10   6   8  1   
 11   6  21  1   
 12   6  22  1   
 13   7   9  1   
 14   7  23  1   
 15   7  24  1   
 16   8  10  1   
 17   8  25  1   
 18   8  26  1   
 19   9  10  1   
 20   9  27  1   
 21   9  28  1   
 22  10  11  1   
 23  10  12  1   
 24  11  13  1   
 25  12  14  1   
 26  12  29  1   
 27  12  30  1   
 28  13  15  1   
 29  13  31  1   
 30  13  32  1   
 31  14  15  1   
 32  14  16  1   
 33  14  17  1   
 34  15  33  1   
 35  15  34  1   
 36  16  35  1   
 37  17  36  1   
 38  17  37  1   
 39  17  38  1   
@<TRIPOS>SUBSTRUCTURE
  1 ****  10 GROUP 4 **** **** 0

# MOE 2024.06 (io_trps.svl 2023.06)
