@<TRIPOS>MOLECULE
NONAME
45 47 1 0 0 
SMALL
USER_CHARGES


@<TRIPOS>ATOM
  1 O        2.0590    -1.4920     2.5870 O.2   1 <1>  -0.5700 
  2 C        2.1890    -1.7410     1.3940 C.2   1 <1>   0.6160 
  3 N        2.4630    -0.7360     0.4820 N.am  1 <1>  -0.4690 
  4 C        2.0580    -3.0690     0.9170 C.2   1 <1>  -0.1360 
  5 C        2.5980    -1.0420    -0.8560 C.2   1 <1>  -0.0410 
  6 C        2.6040     0.6720     0.9320 C.3   1 <1>   0.1400 
  7 C        2.1930    -3.3980    -0.4060 C.2   1 <1>   0.0140 
  8 C        2.4710    -2.3190    -1.2990 C.2   1 <1>  -0.1500 
  9 C        1.2530     1.3790     0.8380 C.3   1 <1>  -0.2400 
 10 C        2.0640    -4.7510    -0.9190 C.2   1 <1>   0.6160 
 11 O        1.9920    -4.9660    -2.1130 O.2   1 <1>  -0.5700 
 12 N        2.0100    -5.8190    -0.0740 N.am  1 <1>  -0.7300 
 13 C        1.9180    -7.2400    -0.4850 C.3   1 <1>   0.2200 
 14 C        0.5230    -7.7980    -0.2350 C.3   1 <1>  -0.0800 
 15 C        2.7300    -8.0810     0.4900 C.3   1 <1>   0.1200 
 16 C        0.5720    -8.2050     1.2430 C.3   1 <1>   0.1200 
 17 C       -0.6500    -6.8700    -0.6000 C.3   1 <1>  -0.0170 
 18 O        1.9200    -8.1990     1.6190 O.3   1 <1>  -0.5600 
 19 C       -1.9820    -7.5760    -0.3960 C.ar  1 <1>  -0.1430 
 20 C       -2.7500    -7.3840     0.7350 C.ar  1 <1>  -0.1500 
 21 C       -2.4890    -8.4500    -1.3360 C.ar  1 <1>  -0.1500 
 22 C       -3.9510    -8.0610     0.8690 C.ar  1 <1>   0.1600 
 23 C       -3.7030    -9.0760    -1.1040 C.ar  1 <1>   0.1600 
 24 N       -4.4450    -8.9050    -0.0220 N.ar  1 <1>  -0.6200 
 25 H        1.8410    -3.7980     1.6710 H     1 <1>   0.1500 
 26 H        2.8060    -0.2300    -1.5340 H     1 <1>   0.1500 
 27 H        2.9640     0.6990     1.9470 H     1 <1>   0.0800 
 28 H        3.3260     1.1750     0.3120 H     1 <1>   0.0800 
 29 H        2.5770    -2.5470    -2.3470 H     1 <1>   0.1500 
 30 H        0.5380     0.8910     1.4780 H     1 <1>   0.0800 
 31 H        0.8920     1.3710    -0.1740 H     1 <1>   0.0800 
 32 H        1.3550     2.3990     1.1590 H     1 <1>   0.0800 
 33 H        2.0820    -5.6940     0.9370 H     1 <1>   0.3700 
 34 H        2.2430    -7.3690    -1.5050 H     1 <1>   0.0800 
 35 H        0.4250    -8.7010    -0.8120 H     1 <1>   0.0800 
 36 H        3.6670    -7.6250     0.7580 H     1 <1>   0.0800 
 37 H        2.9000    -9.0680     0.0970 H     1 <1>   0.0800 
 38 H        0.1690    -9.1910     1.3980 H     1 <1>   0.0800 
 39 H        0.0570    -7.4990     1.8700 H     1 <1>   0.0800 
 40 H       -0.5600    -6.5690    -1.6290 H     1 <1>   0.0800 
 41 H       -0.6260    -5.9770     0.0000 H     1 <1>   0.0800 
 42 H       -2.4290    -6.7150     1.5120 H     1 <1>   0.1500 
 43 H       -1.9540    -8.6490    -2.2460 H     1 <1>   0.1500 
 44 H       -4.5370    -7.9000     1.7580 H     1 <1>   0.1500 
 45 H       -4.0830    -9.7550    -1.8480 H     1 <1>   0.1500 
@<TRIPOS>BOND
  1   1   2  2   
  2   2   3  am  
  3   2   4  1   
  4   3   5  1   
  5   3   6  1   
  6   4   7  2   
  7   4  25  1   
  8   5   8  2   
  9   5  26  1   
 10   6   9  1   
 11   6  27  1   
 12   6  28  1   
 13   7   8  1   
 14   7  10  1   
 15   8  29  1   
 16   9  30  1   
 17   9  31  1   
 18   9  32  1   
 19  10  11  2   
 20  10  12  am  
 21  12  13  1   
 22  12  33  1   
 23  13  14  1   
 24  13  15  1   
 25  13  34  1   
 26  14  16  1   
 27  14  17  1   
 28  14  35  1   
 29  15  18  1   
 30  15  36  1   
 31  15  37  1   
 32  16  18  1   
 33  16  38  1   
 34  16  39  1   
 35  17  19  1   
 36  17  40  1   
 37  17  41  1   
 38  19  20  ar  
 39  19  21  ar  
 40  20  22  ar  
 41  20  42  1   
 42  21  23  ar  
 43  21  43  1   
 44  22  24  ar  
 45  22  44  1   
 46  23  24  ar  
 47  23  45  1   
@<TRIPOS>SUBSTRUCTURE
  1 ****  12 GROUP 4 **** **** 0

# MOE 2024.06 (io_trps.svl 2023.06)
