@<TRIPOS>MOLECULE
NONAME
47 49 1 0 0 
SMALL
USER_CHARGES


@<TRIPOS>ATOM
  1 CL       0.6850     1.1520    -2.0360 Cl    1 <1>  -0.1770 
  2 C        1.7520     1.6640    -0.7490 C.ar  1 <1>   0.1770 
  3 C        2.4620     0.7290    -0.0070 C.ar  1 <1>   0.0830 
  4 C        1.8670     3.0170    -0.4910 C.ar  1 <1>  -0.1500 
  5 O        2.3500    -0.5890    -0.2930 O.3   1 <1>  -0.3630 
  6 C        3.3020     1.1710     1.0070 C.ar  1 <1>  -0.1500 
  7 C        2.7100     3.4580     0.5210 C.ar  1 <1>  -0.1430 
  8 C        1.8920    -1.4760     0.7040 C.3   1 <1>   0.2000 
  9 C        3.4200     2.5260     1.2710 C.ar  1 <1>  -0.1500 
 10 C        2.8630     4.9450     0.7890 C.3   1 <1>   0.4870 
 11 C        2.2310    -2.8900     0.2380 C.3   1 <1>  -0.2400 
 12 C        0.3830    -1.2910     0.8720 C.3   1 <1>  -0.2400 
 13 N        4.2420     5.3560     0.4150 N.4   1 <1>  -0.9590 
 14 C        4.6050     6.7230     0.9410 C.3   1 <1>   0.3430 
 15 C        4.5570     5.0920    -1.0330 C.3   1 <1>   0.3430 
 16 C        6.1130     7.0920     0.8410 C.3   1 <1>   0.2200 
 17 C        6.0570     5.1130    -1.3600 C.3   1 <1>  -0.0190 
 18 N        6.4760     7.4080    -0.5590 N.am  1 <1>  -0.7300 
 19 C        7.0580     6.0040     1.4100 C.3   1 <1>   0.1200 
 20 C        6.4760     6.5400    -1.5850 C.2   1 <1>   0.5690 
 21 C        6.9980     4.3940    -0.3670 C.3   1 <1>   0.1200 
 22 O        6.7300     4.7070     0.9750 O.3   1 <1>  -0.5600 
 23 O        6.7770     6.9040    -2.6880 O.2   1 <1>  -0.5700 
 24 H        1.2920     3.7020    -1.0900 H     1 <1>   0.1500 
 25 H        3.8670     0.4570     1.5800 H     1 <1>   0.1500 
 26 H        2.4050    -1.2660     1.6260 H     1 <1>   0.0800 
 27 H        4.0770     2.8380     2.0660 H     1 <1>   0.1500 
 28 H        2.6900     5.1340     1.8360 H     1 <1>   0.0800 
 29 H        2.1390     5.5010     0.2160 H     1 <1>   0.0800 
 30 H        1.7420    -3.1030    -0.6950 H     1 <1>   0.0800 
 31 H        1.9050    -3.6070     0.9690 H     1 <1>   0.0800 
 32 H        3.2940    -2.9890     0.1140 H     1 <1>   0.0800 
 33 H       -0.1190    -1.4510    -0.0660 H     1 <1>   0.0800 
 34 H        0.1630    -0.3020     1.2290 H     1 <1>   0.0800 
 35 H        0.0050    -1.9980     1.5890 H     1 <1>   0.0800 
 36 H        4.8920     4.7130     0.9100 H     1 <1>   0.4500 
 37 H        4.0320     7.4770     0.4260 H     1 <1>   0.0800 
 38 H        4.3330     6.7670     1.9830 H     1 <1>   0.0800 
 39 H        4.1890     4.1130    -1.2940 H     1 <1>   0.0800 
 40 H        4.0460     5.8070    -1.6580 H     1 <1>   0.0800 
 41 H        6.2700     7.9900     1.4140 H     1 <1>   0.0800 
 42 H        6.1750     4.6210    -2.3090 H     1 <1>   0.0800 
 43 H        6.8280     8.3500    -0.7680 H     1 <1>   0.3700 
 44 H        6.9810     5.9950     2.4840 H     1 <1>   0.0800 
 45 H        8.0850     6.2120     1.1570 H     1 <1>   0.0800 
 46 H        8.0300     4.6250    -0.5790 H     1 <1>   0.0800 
 47 H        6.8730     3.3290    -0.4670 H     1 <1>   0.0800 
@<TRIPOS>BOND
  1   1   2  1   
  2   2   3  ar  
  3   2   4  ar  
  4   3   5  1   
  5   3   6  ar  
  6   4   7  ar  
  7   4  24  1   
  8   5   8  1   
  9   6   9  ar  
 10   6  25  1   
 11   7   9  ar  
 12   7  10  1   
 13   8  11  1   
 14   8  12  1   
 15   8  26  1   
 16   9  27  1   
 17  10  13  1   
 18  10  28  1   
 19  10  29  1   
 20  11  30  1   
 21  11  31  1   
 22  11  32  1   
 23  12  33  1   
 24  12  34  1   
 25  12  35  1   
 26  13  14  1   
 27  13  15  1   
 28  13  36  1   
 29  14  16  1   
 30  14  37  1   
 31  14  38  1   
 32  15  17  1   
 33  15  39  1   
 34  15  40  1   
 35  16  18  1   
 36  16  19  1   
 37  16  41  1   
 38  17  20  1   
 39  17  21  1   
 40  17  42  1   
 41  18  20  am  
 42  18  43  1   
 43  19  22  1   
 44  19  44  1   
 45  19  45  1   
 46  20  23  2   
 47  21  22  1   
 48  21  46  1   
 49  21  47  1   
@<TRIPOS>SUBSTRUCTURE
  1 ****   7 GROUP 4 **** **** 0

# MOE 2024.06 (io_trps.svl 2023.06)
