@<TRIPOS>MOLECULE
NONAME
57 60 1 0 0 
SMALL
USER_CHARGES


@<TRIPOS>ATOM
  1 CL       0.6100     1.7550     2.3890 Cl    1 <1>  -0.1770 
  2 C       -0.7080     0.7450     1.8380 C.ar  1 <1>   0.1770 
  3 C       -1.6190     1.2100     0.8860 C.ar  1 <1>   0.0540 
  4 C       -0.8090    -0.5160     2.3960 C.ar  1 <1>  -0.1500 
  5 C       -1.5340     2.5150     0.2690 C.2   1 <1>   0.2350 
  6 C       -2.6570     0.3460     0.5360 C.ar  1 <1>  -0.1500 
  7 C       -1.8430    -1.3540     2.0200 C.ar  1 <1>  -0.1500 
  8 N       -2.5620     3.3130     0.1170 N.2   1 <1>  -0.7070 
  9 C       -0.3810     3.0950    -0.2720 C.2   1 <1>  -0.1500 
 10 C       -2.7690    -0.9170     1.0890 C.ar  1 <1>  -0.1500 
 11 N       -2.0770     4.4030    -0.4970 N.pl3 1 <1>   0.3000 
 12 C       -0.7560     4.3010    -0.7480 C.2   1 <1>  -0.3320 
 13 C        0.0480     5.3940    -1.4360 C.3   1 <1>   0.1000 
 14 C        1.3640     4.8500    -2.0120 C.3   1 <1>  -0.1600 
 15 C        0.3330     6.5350    -0.4490 C.3   1 <1>  -0.1600 
 16 C        2.2060     5.9630    -2.6400 C.3   1 <1>   0.1400 
 17 C        1.1920     7.6280    -1.0930 C.3   1 <1>   0.1400 
 18 N        2.4470     7.0250    -1.6210 N.am  1 <1>  -0.6600 
 19 C        3.7310     7.3590    -1.2500 C.2   1 <1>   0.5690 
 20 O        4.6830     6.9500    -1.8740 O.2   1 <1>  -0.5700 
 21 C        4.0010     8.2680    -0.0390 C.3   1 <1>  -0.0190 
 22 C        4.0230     9.7540    -0.4490 C.3   1 <1>  -0.1600 
 23 C        5.3020     7.9070     0.7250 C.3   1 <1>  -0.1600 
 24 C        4.0930    10.6960     0.7720 C.3   1 <1>   0.2000 
 25 C        5.8130     9.0290     1.6530 C.3   1 <1>  -0.1600 
 26 O        4.8730    11.8140     0.4270 O.3   1 <1>  -0.5600 
 27 C        4.7050    10.0170     2.0250 C.3   1 <1>   0.2000 
 28 C        4.2280    12.7770    -0.3470 C.3   1 <1>   0.0400 
 29 O        5.2470    10.9830     2.8460 O.3   1 <1>  -0.6800 
 30 H       -0.0840    -0.8350     3.1240 H     1 <1>   0.1500 
 31 H       -3.3840     0.6830    -0.1830 H     1 <1>   0.1500 
 32 H       -1.9290    -2.3380     2.4500 H     1 <1>   0.1500 
 33 H        0.5900     2.6350    -0.2820 H     1 <1>   0.1500 
 34 H       -3.5810    -1.5610     0.7950 H     1 <1>   0.1500 
 35 H       -2.6780     5.2010    -0.7350 H     1 <1>   0.2700 
 36 H       -0.5340     5.7810    -2.2570 H     1 <1>   0.0800 
 37 H        1.1510     4.1020    -2.7540 H     1 <1>   0.0800 
 38 H        1.9450     4.3870    -1.2330 H     1 <1>   0.0800 
 39 H        0.8460     6.1460     0.4130 H     1 <1>   0.0800 
 40 H       -0.5930     6.9650    -0.1130 H     1 <1>   0.0800 
 41 H        1.6920     6.3910    -3.4830 H     1 <1>   0.0800 
 42 H        3.1360     5.5500    -2.9930 H     1 <1>   0.0800 
 43 H        1.3900     8.4050    -0.3790 H     1 <1>   0.0800 
 44 H        0.6540     8.0730    -1.9130 H     1 <1>   0.0800 
 45 H        3.2000     8.1200     0.6590 H     1 <1>   0.0800 
 46 H        3.1470     9.9860    -1.0270 H     1 <1>   0.0800 
 47 H        4.8860     9.9090    -1.0750 H     1 <1>   0.0800 
 48 H        5.1230     7.0150     1.3010 H     1 <1>   0.0800 
 49 H        6.0920     7.6780     0.0290 H     1 <1>   0.0800 
 50 H        3.1060    11.0350     1.0360 H     1 <1>   0.0800 
 51 H        6.5910     9.5710     1.1410 H     1 <1>   0.0800 
 52 H        6.2340     8.5970     2.5440 H     1 <1>   0.0800 
 53 H        3.9420     9.5020     2.5830 H     1 <1>   0.0800 
 54 H        4.9200    13.5820    -0.5230 H     1 <1>   0.0800 
 55 H        3.3710    13.1490     0.1880 H     1 <1>   0.0800 
 56 H        3.9330    12.3460    -1.2880 H     1 <1>   0.0800 
 57 H        5.5850    11.6850     2.2440 H     1 <1>   0.4000 
@<TRIPOS>BOND
  1   1   2  1   
  2   2   3  ar  
  3   2   4  ar  
  4   3   5  1   
  5   3   6  ar  
  6   4   7  ar  
  7   4  30  1   
  8   5   8  2   
  9   5   9  1   
 10   6  10  ar  
 11   6  31  1   
 12   7  10  ar  
 13   7  32  1   
 14   8  11  1   
 15   9  12  2   
 16   9  33  1   
 17  10  34  1   
 18  11  12  1   
 19  11  35  1   
 20  12  13  1   
 21  13  14  1   
 22  13  15  1   
 23  13  36  1   
 24  14  16  1   
 25  14  37  1   
 26  14  38  1   
 27  15  17  1   
 28  15  39  1   
 29  15  40  1   
 30  16  18  1   
 31  16  41  1   
 32  16  42  1   
 33  17  18  1   
 34  17  43  1   
 35  17  44  1   
 36  18  19  am  
 37  19  20  2   
 38  19  21  1   
 39  21  22  1   
 40  21  23  1   
 41  21  45  1   
 42  22  24  1   
 43  22  46  1   
 44  22  47  1   
 45  23  25  1   
 46  23  48  1   
 47  23  49  1   
 48  24  26  1   
 49  24  27  1   
 50  24  50  1   
 51  25  27  1   
 52  25  51  1   
 53  25  52  1   
 54  26  28  1   
 55  27  29  1   
 56  27  53  1   
 57  28  54  1   
 58  28  55  1   
 59  28  56  1   
 60  29  57  1   
@<TRIPOS>SUBSTRUCTURE
  1 ****  15 GROUP 4 **** **** 0

# MOE 2024.06 (io_trps.svl 2023.06)
