@<TRIPOS>MOLECULE
NONAME
42 45 1 0 0 
SMALL
USER_CHARGES


@<TRIPOS>ATOM
  1 S       -0.4160    -0.0700     1.5670 S.3   1 <1>  -0.0800 
  2 C       -1.1050     0.9370     0.2950 C.2   1 <1>   0.3250 
  3 C       -1.8840    -0.9880     1.6400 C.2   1 <1>  -0.1100 
  4 N       -2.3100     0.5820    -0.0090 N.2   1 <1>  -0.5650 
  5 C       -0.3080     2.0090    -0.2660 C.ar  1 <1>   0.3630 
  6 C       -2.7480    -0.4960     0.7390 C.2   1 <1>   0.0460 
  7 N        0.9420     2.2220     0.1720 N.ar  1 <1>  -0.6200 
  8 C       -0.8680     2.8120    -1.2700 C.ar  1 <1>   0.1600 
  9 C       -4.1590    -1.0100     0.4690 C.3   1 <1>   0.3900 
 10 C        1.5440     3.2300    -0.4310 C.ar  1 <1>   0.1600 
 11 N       -0.2670     3.8220    -1.8760 N.ar  1 <1>  -0.6200 
 12 N       -4.3400    -2.3790     1.0030 N.pl3 1 <1>  -0.8690 
 13 C        0.9610     4.0060    -1.4230 C.ar  1 <1>   0.1600 
 14 C       -5.4950    -3.0490     0.8150 C.ar  1 <1>   0.7200 
 15 N       -5.3410    -4.3580     0.7370 N.ar  1 <1>  -0.6200 
 16 N       -6.6140    -2.3390     0.7170 N.ar  1 <1>  -0.6200 
 17 C       -6.4420    -5.0660     0.5600 C.ar  1 <1>   0.4100 
 18 C       -7.7110    -3.0510     0.5430 C.ar  1 <1>   0.1600 
 19 N       -6.3010    -6.4450     0.4720 N.pl3 1 <1>  -0.8380 
 20 C       -7.6700    -4.4140     0.4580 C.ar  1 <1>   0.1900 
 21 C       -6.7250    -7.1470    -0.7750 C.3   1 <1>   0.2090 
 22 C       -5.1660    -7.1410     1.1560 C.3   1 <1>   0.2090 
 23 F       -8.7920    -5.0820     0.2840 F     1 <1>  -0.1900 
 24 C       -5.5090    -7.4740    -1.6630 C.3   1 <1>   0.1200 
 25 C       -4.0370    -7.4590     0.1600 C.3   1 <1>   0.1200 
 26 O       -4.5280    -8.1700    -0.9440 O.3   1 <1>  -0.5600 
 27 H       -1.9470    -1.7940     2.3490 H     1 <1>   0.1500 
 28 H       -1.8750     2.5940    -1.5810 H     1 <1>   0.1500 
 29 H       -4.3330    -1.0220    -0.5930 H     1 <1>   0.0800 
 30 H       -4.8710    -0.3420     0.9220 H     1 <1>   0.0800 
 31 H        2.5510     3.4550    -0.1270 H     1 <1>   0.1500 
 32 H       -3.5420    -2.9890     0.8420 H     1 <1>   0.4000 
 33 H        1.5310     4.8080    -1.8580 H     1 <1>   0.1500 
 34 H       -8.6530    -2.5360     0.4680 H     1 <1>   0.1500 
 35 H       -7.4130    -6.5370    -1.3330 H     1 <1>   0.0800 
 36 H       -7.2300    -8.0610    -0.5140 H     1 <1>   0.0800 
 37 H       -5.5250    -8.0600     1.5870 H     1 <1>   0.0800 
 38 H       -4.7830    -6.5330     1.9580 H     1 <1>   0.0800 
 39 H       -5.0730    -6.5680    -2.0470 H     1 <1>   0.0800 
 40 H       -5.8090    -8.0920    -2.4900 H     1 <1>   0.0800 
 41 H       -3.2840    -8.0620     0.6330 H     1 <1>   0.0800 
 42 H       -3.5830    -6.5470    -0.1890 H     1 <1>   0.0800 
@<TRIPOS>BOND
  1   1   2  1   
  2   1   3  1   
  3   2   4  2   
  4   2   5  1   
  5   3   6  2   
  6   3  27  1   
  7   4   6  1   
  8   5   7  ar  
  9   5   8  ar  
 10   6   9  1   
 11   7  10  ar  
 12   8  11  ar  
 13   8  28  1   
 14   9  12  1   
 15   9  29  1   
 16   9  30  1   
 17  10  13  ar  
 18  10  31  1   
 19  11  13  ar  
 20  12  14  1   
 21  12  32  1   
 22  13  33  1   
 23  14  15  ar  
 24  14  16  ar  
 25  15  17  ar  
 26  16  18  ar  
 27  17  19  1   
 28  17  20  ar  
 29  18  20  ar  
 30  18  34  1   
 31  19  21  1   
 32  19  22  1   
 33  20  23  1   
 34  21  24  1   
 35  21  35  1   
 36  21  36  1   
 37  22  25  1   
 38  22  37  1   
 39  22  38  1   
 40  24  26  1   
 41  24  39  1   
 42  24  40  1   
 43  25  26  1   
 44  25  41  1   
 45  25  42  1   
@<TRIPOS>SUBSTRUCTURE
  1 ****  12 GROUP 4 **** **** 0

# MOE 2024.06 (io_trps.svl 2023.06)
