@<TRIPOS>MOLECULE
NONAME
45 46 1 0 0 
SMALL
USER_CHARGES


@<TRIPOS>ATOM
  1 O        1.8610     2.1820     0.8190 O.co2 1 <1>  -0.9000 
  2 C        1.7590     1.7240    -0.3200 C.2   1 <1>   0.9060 
  3 O        1.6050     2.4350    -1.3110 O.co2 1 <1>  -0.9000 
  4 C        2.2650     0.3360    -0.5030 C.3   1 <1>  -0.2660 
  5 C        3.7510     0.4080    -0.8220 C.3   1 <1>   0.3430 
  6 N        4.4120     1.4730    -0.0100 N.4   1 <1>  -0.9590 
  7 C        4.6200     2.6940    -0.8440 C.3   1 <1>   0.3430 
  8 C        5.6250     1.0270     0.7160 C.3   1 <1>   0.3430 
  9 C        5.0810     3.8980     0.0020 C.3   1 <1>   0.0000 
 10 C        6.2020     2.1830     1.5450 C.3   1 <1>  -0.1600 
 11 C        5.3250     5.0610    -0.9820 C.3   1 <1>   0.3430 
 12 C        6.3810     3.4890     0.7400 C.3   1 <1>  -0.1600 
 13 C        3.9640     4.3340     0.9830 C.3   1 <1>  -0.1600 
 14 N        5.6460     6.3460    -0.2790 N.4   1 <1>  -0.9590 
 15 C        4.2360     5.6940     1.6390 C.3   1 <1>  -0.1600 
 16 C        4.5060     6.7700     0.5910 C.3   1 <1>   0.3430 
 17 C        6.0090     7.4010    -1.2600 C.3   1 <1>   0.3430 
 18 C        6.7330     8.5370    -0.5470 C.3   1 <1>  -0.2400 
 19 H        1.7280    -0.1360    -1.3030 H     1 <1>   0.0800 
 20 H        2.0990    -0.2200     0.4010 H     1 <1>   0.0800 
 21 H        3.8670     0.6320    -1.8700 H     1 <1>   0.0800 
 22 H        4.2030    -0.5510    -0.6290 H     1 <1>   0.0800 
 23 H        3.6690     1.7580     0.6800 H     1 <1>   0.4500 
 24 H        3.7020     2.9540    -1.3450 H     1 <1>   0.0800 
 25 H        5.3560     2.4800    -1.6000 H     1 <1>   0.0800 
 26 H        6.3630     0.6910     0.0070 H     1 <1>   0.0800 
 27 H        5.3790     0.2030     1.3670 H     1 <1>   0.0800 
 28 H        7.1550     1.8760     1.9400 H     1 <1>   0.0800 
 29 H        5.5610     2.3520     2.3920 H     1 <1>   0.0800 
 30 H        4.4360     5.2010    -1.5780 H     1 <1>   0.0800 
 31 H        6.1330     4.8000    -1.6470 H     1 <1>   0.0800 
 32 H        6.7100     4.2660     1.4060 H     1 <1>   0.0800 
 33 H        7.1660     3.3330     0.0180 H     1 <1>   0.0800 
 34 H        3.7990     3.6010     1.7530 H     1 <1>   0.0800 
 35 H        3.0350     4.4130     0.4390 H     1 <1>   0.0800 
 36 H        6.4550     6.1840     0.3320 H     1 <1>   0.4500 
 37 H        5.0620     5.6320     2.3250 H     1 <1>   0.0800 
 38 H        3.3710     5.9800     2.2130 H     1 <1>   0.0800 
 39 H        3.6210     6.9140    -0.0080 H     1 <1>   0.0800 
 40 H        4.7360     7.7000     1.0870 H     1 <1>   0.0800 
 41 H        5.1250     7.7740    -1.7530 H     1 <1>   0.0800 
 42 H        6.6660     6.9900    -2.0100 H     1 <1>   0.0800 
 43 H        6.0890     9.0420     0.1500 H     1 <1>   0.0800 
 44 H        7.0530     9.2600    -1.2760 H     1 <1>   0.0800 
 45 H        7.6080     8.1740    -0.0370 H     1 <1>   0.0800 
@<TRIPOS>BOND
  1   1   2  ar  
  2   2   3  ar  
  3   2   4  1   
  4   4   5  1   
  5   4  19  1   
  6   4  20  1   
  7   5   6  1   
  8   5  21  1   
  9   5  22  1   
 10   6   7  1   
 11   6   8  1   
 12   6  23  1   
 13   7   9  1   
 14   7  24  1   
 15   7  25  1   
 16   8  10  1   
 17   8  26  1   
 18   8  27  1   
 19   9  11  1   
 20   9  12  1   
 21   9  13  1   
 22  10  12  1   
 23  10  28  1   
 24  10  29  1   
 25  11  14  1   
 26  11  30  1   
 27  11  31  1   
 28  12  32  1   
 29  12  33  1   
 30  13  15  1   
 31  13  34  1   
 32  13  35  1   
 33  14  16  1   
 34  14  17  1   
 35  14  36  1   
 36  15  16  1   
 37  15  37  1   
 38  15  38  1   
 39  16  39  1   
 40  16  40  1   
 41  17  18  1   
 42  17  41  1   
 43  17  42  1   
 44  18  43  1   
 45  18  44  1   
 46  18  45  1   
@<TRIPOS>SUBSTRUCTURE
  1 ****   9 GROUP 4 **** **** 0

# MOE 2024.06 (io_trps.svl 2023.06)
