@<TRIPOS>MOLECULE
NONAME
56 59 1 0 0 
SMALL
USER_CHARGES


@<TRIPOS>ATOM
  1 O        0.1030     0.3620    -0.9470 O.2   1 <1>  -0.5700 
  2 C        0.0860     1.4990    -0.5380 C.2   1 <1>   0.5690 
  3 N       -1.0820     2.1590    -0.2150 N.am  1 <1>  -0.4770 
  4 C        1.4430     2.1990    -0.3650 C.3   1 <1>   0.2700 
  5 C       -2.3660     1.5990    -0.3500 C.ar  1 <1>   0.1170 
  6 C       -0.9910     3.5220     0.3730 C.3   1 <1>   0.1400 
  7 N        1.4490     3.7140    -0.2410 N.pl3 1 <1>  -0.8380 
  8 C       -2.6880     0.4030     0.2800 C.ar  1 <1>  -0.1500 
  9 C       -3.3410     2.2380    -1.1100 C.ar  1 <1>  -0.1500 
 10 C        0.0910     4.3580    -0.3220 C.3   1 <1>   0.2090 
 11 C        2.5940     4.4560    -0.2170 C.ar  1 <1>   0.4100 
 12 C       -3.9630    -0.1400     0.1660 C.ar  1 <1>   0.0830 
 13 C       -4.6130     1.7070    -1.2240 C.ar  1 <1>  -0.1500 
 14 N        2.4800     5.7640    -0.3510 N.ar  1 <1>  -0.6200 
 15 C        3.8600     3.8570    -0.0570 C.ar  1 <1>  -0.1500 
 16 O       -4.3400    -1.3060     0.7500 O.3   1 <1>  -0.3630 
 17 C       -4.9230     0.5210    -0.5830 C.ar  1 <1>  -0.1500 
 18 C        3.5730     6.5130    -0.3460 C.ar  1 <1>   0.7710 
 19 C        4.9700     4.6340    -0.0480 C.ar  1 <1>   0.2180 
 20 C       -3.3860    -2.1580     1.3460 C.3   1 <1>   0.0400 
 21 N        4.7910     5.9660    -0.1950 N.ar  1 <1>  -0.1790 
 22 N        3.4690     7.8640    -0.4870 N.pl3 1 <1>  -0.8380 
 23 C        6.3790     4.0940     0.1200 C.3   1 <1>  -0.0970 
 24 C        2.1370     8.5540    -0.5140 C.3   1 <1>   0.2090 
 25 C        4.5860     8.8550    -0.5910 C.3   1 <1>   0.2090 
 26 C        2.0350     9.4890     0.6960 C.3   1 <1>  -0.1600 
 27 C        4.5450     9.7830     0.6270 C.3   1 <1>  -0.1600 
 28 C        3.1910    10.4990     0.7370 C.3   1 <1>  -0.1600 
 29 H        2.0480     1.9230    -1.2100 H     1 <1>   0.0800 
 30 H        1.8960     1.7810     0.5150 H     1 <1>   0.0800 
 31 H       -0.7620     3.4390     1.4210 H     1 <1>   0.0800 
 32 H       -1.9370     4.0260     0.2830 H     1 <1>   0.0800 
 33 H       -1.9260    -0.0870     0.8520 H     1 <1>   0.1500 
 34 H       -3.1020     3.1510    -1.6220 H     1 <1>   0.1500 
 35 H        0.1090     5.3280     0.1460 H     1 <1>   0.0800 
 36 H       -0.1750     4.4960    -1.3560 H     1 <1>   0.0800 
 37 H       -5.3610     2.2100    -1.8120 H     1 <1>   0.1500 
 38 H        3.9340     2.7940     0.0600 H     1 <1>   0.1500 
 39 H       -5.9070     0.0960    -0.6630 H     1 <1>   0.1500 
 40 H       -3.8890    -3.0560     1.6570 H     1 <1>   0.0800 
 41 H       -2.9610    -1.6620     2.2000 H     1 <1>   0.0800 
 42 H       -2.6280    -2.3950     0.6200 H     1 <1>   0.0800 
 43 H        5.5610     6.6200    -0.1800 H     1 <1>   0.4570 
 44 H        6.3620     3.0230     0.2260 H     1 <1>   0.0800 
 45 H        6.8390     4.5090     1.0000 H     1 <1>   0.0800 
 46 H        6.9800     4.3360    -0.7390 H     1 <1>   0.0800 
 47 H        1.3140     7.8600    -0.4920 H     1 <1>   0.0800 
 48 H        2.0500     9.1260    -1.4230 H     1 <1>   0.0800 
 49 H        4.4540     9.4400    -1.4880 H     1 <1>   0.0800 
 50 H        5.5480     8.3820    -0.6550 H     1 <1>   0.0800 
 51 H        2.0350     8.8960     1.5940 H     1 <1>   0.0800 
 52 H        1.0990    10.0180     0.6570 H     1 <1>   0.0800 
 53 H        5.3270    10.5180     0.5430 H     1 <1>   0.0800 
 54 H        4.7260     9.2110     1.5200 H     1 <1>   0.0800 
 55 H        3.1490    11.0640     1.6530 H     1 <1>   0.0800 
 56 H        3.0860    11.1910    -0.0810 H     1 <1>   0.0800 
@<TRIPOS>BOND
  1   1   2  2   
  2   2   3  am  
  3   2   4  1   
  4   3   5  1   
  5   3   6  1   
  6   4   7  1   
  7   4  29  1   
  8   4  30  1   
  9   5   8  ar  
 10   5   9  ar  
 11   6  10  1   
 12   6  31  1   
 13   6  32  1   
 14   7  10  1   
 15   7  11  1   
 16   8  12  ar  
 17   8  33  1   
 18   9  13  ar  
 19   9  34  1   
 20  10  35  1   
 21  10  36  1   
 22  11  14  ar  
 23  11  15  ar  
 24  12  16  1   
 25  12  17  ar  
 26  13  17  ar  
 27  13  37  1   
 28  14  18  ar  
 29  15  19  ar  
 30  15  38  1   
 31  16  20  1   
 32  17  39  1   
 33  18  21  ar  
 34  18  22  1   
 35  19  21  ar  
 36  19  23  1   
 37  20  40  1   
 38  20  41  1   
 39  20  42  1   
 40  21  43  1   
 41  22  24  1   
 42  22  25  1   
 43  23  44  1   
 44  23  45  1   
 45  23  46  1   
 46  24  26  1   
 47  24  47  1   
 48  24  48  1   
 49  25  27  1   
 50  25  49  1   
 51  25  50  1   
 52  26  28  1   
 53  26  51  1   
 54  26  52  1   
 55  27  28  1   
 56  27  53  1   
 57  27  54  1   
 58  28  55  1   
 59  28  56  1   
@<TRIPOS>SUBSTRUCTURE
  1 ****  10 GROUP 4 **** **** 0

# MOE 2024.06 (io_trps.svl 2023.06)
