@<TRIPOS>MOLECULE
NONAME
46 48 1 0 0 
SMALL
USER_CHARGES


@<TRIPOS>ATOM
  1 CL      -4.1240     3.8470    -3.3800 Cl    1 <1>  -0.1770 
  2 C       -3.8100     2.8980    -1.9520 C.ar  1 <1>   0.1770 
  3 C       -4.7040     1.9060    -1.5960 C.ar  1 <1>  -0.1500 
  4 C       -2.6820     3.1540    -1.1980 C.ar  1 <1>  -0.1500 
  5 C       -4.4740     1.1540    -0.4510 C.ar  1 <1>  -0.1440 
  6 C       -2.4470     2.4000    -0.0610 C.ar  1 <1>  -0.1500 
  7 C       -3.3390     1.4050     0.3090 C.ar  1 <1>  -0.1500 
  8 C       -5.4600     0.0800    -0.0280 C.3   1 <1>   0.4870 
  9 N       -6.7480     0.7360     0.3050 N.4   1 <1>  -0.9590 
 10 C       -6.6520     1.7370     1.4050 C.3   1 <1>   0.3430 
 11 C       -7.8880    -0.1940     0.4850 C.3   1 <1>   0.3430 
 12 C       -8.0050     2.4290     1.6290 C.3   1 <1>  -0.1600 
 13 C       -9.2060     0.5930     0.4540 C.3   1 <1>  -0.1600 
 14 C       -9.0410     2.1270     0.5290 C.3   1 <1>   0.2800 
 15 O       -8.5040     2.5220    -0.7170 O.3   1 <1>  -0.5600 
 16 C      -10.3970     2.8300     0.7910 C.3   1 <1>  -0.1600 
 17 C       -8.6200     3.8760    -1.0670 C.3   1 <1>   0.1200 
 18 C      -11.0590     3.3420    -0.4910 C.3   1 <1>   0.2800 
 19 C      -10.0960     4.2740    -1.2330 C.3   1 <1>  -0.1600 
 20 O      -11.2900     2.2660    -1.3060 O.3   1 <1>  -0.6800 
 21 C      -12.4150     3.9920    -0.2310 C.3   1 <1>  -0.2400 
 22 H       -5.5640     1.7420    -2.2220 H     1 <1>   0.1500 
 23 H       -2.0000     3.9300    -1.4980 H     1 <1>   0.1500 
 24 H       -1.5670     2.5880     0.5330 H     1 <1>   0.1500 
 25 H       -3.1310     0.8320     1.1980 H     1 <1>   0.1500 
 26 H       -5.0820    -0.4570     0.8270 H     1 <1>   0.0800 
 27 H       -5.5970    -0.6170    -0.8390 H     1 <1>   0.0800 
 28 H       -7.0220     1.3150    -0.5120 H     1 <1>   0.4500 
 29 H       -5.9200     2.4840     1.1410 H     1 <1>   0.0800 
 30 H       -6.3300     1.2610     2.3170 H     1 <1>   0.0800 
 31 H       -7.7920    -0.7070     1.4280 H     1 <1>   0.0800 
 32 H       -7.8980    -0.9290    -0.3040 H     1 <1>   0.0800 
 33 H       -7.8490     3.4880     1.7270 H     1 <1>   0.0800 
 34 H       -8.3980     2.0960     2.5730 H     1 <1>   0.0800 
 35 H       -9.7980     0.2560     1.2870 H     1 <1>   0.0800 
 36 H       -9.7560     0.3280    -0.4300 H     1 <1>   0.0800 
 37 H      -10.2390     3.6750     1.4360 H     1 <1>   0.0800 
 38 H      -11.0740     2.1800     1.3160 H     1 <1>   0.0800 
 39 H       -8.0870     4.0300    -1.9900 H     1 <1>   0.0800 
 40 H       -8.1520     4.4710    -0.3010 H     1 <1>   0.0800 
 41 H      -10.3560     4.3180    -2.2770 H     1 <1>   0.0800 
 42 H      -10.2020     5.2740    -0.8520 H     1 <1>   0.0800 
 43 H      -10.4270     1.9880    -1.6720 H     1 <1>   0.4000 
 44 H      -12.3060     4.8430     0.4160 H     1 <1>   0.0800 
 45 H      -13.0810     3.2910     0.2390 H     1 <1>   0.0800 
 46 H      -12.8520     4.3220    -1.1560 H     1 <1>   0.0800 
@<TRIPOS>BOND
  1   1   2  1   
  2   2   3  ar  
  3   2   4  ar  
  4   3   5  ar  
  5   3  22  1   
  6   4   6  ar  
  7   4  23  1   
  8   5   7  ar  
  9   5   8  1   
 10   6   7  ar  
 11   6  24  1   
 12   7  25  1   
 13   8   9  1   
 14   8  26  1   
 15   8  27  1   
 16   9  10  1   
 17   9  11  1   
 18   9  28  1   
 19  10  12  1   
 20  10  29  1   
 21  10  30  1   
 22  11  13  1   
 23  11  31  1   
 24  11  32  1   
 25  12  14  1   
 26  12  33  1   
 27  12  34  1   
 28  13  14  1   
 29  13  35  1   
 30  13  36  1   
 31  14  15  1   
 32  14  16  1   
 33  15  17  1   
 34  16  18  1   
 35  16  37  1   
 36  16  38  1   
 37  17  19  1   
 38  17  39  1   
 39  17  40  1   
 40  18  19  1   
 41  18  20  1   
 42  18  21  1   
 43  19  41  1   
 44  19  42  1   
 45  20  43  1   
 46  21  44  1   
 47  21  45  1   
 48  21  46  1   
@<TRIPOS>SUBSTRUCTURE
  1 ****  15 GROUP 4 **** **** 0

# MOE 2024.06 (io_trps.svl 2023.06)
