@<TRIPOS>MOLECULE
NONAME
40 42 1 0 0 
SMALL
USER_CHARGES


@<TRIPOS>ATOM
  1 CL       3.3870     0.4670     1.7590 Cl    1 <1>  -0.1400 
  2 C        3.1640    -0.9270     0.7260 C.2   1 <1>   0.1400 
  3 C        3.3650    -0.8400    -0.6170 C.2   1 <1>  -0.0410 
  4 C        2.7710    -2.1410     1.3230 C.2   1 <1>  -0.1500 
  5 N        3.1800    -1.9570    -1.3970 N.am  1 <1>  -0.5390 
  6 C        2.5750    -3.2580     0.5460 C.2   1 <1>   0.0290 
  7 C        2.7990    -3.1660    -0.8680 C.2   1 <1>   0.6160 
  8 C        2.1850    -4.5160     1.1160 C.2   1 <1>   0.6160 
  9 O        2.6700    -4.0900    -1.6570 O.2   1 <1>  -0.5700 
 10 O        2.8680    -4.9950     2.0010 O.2   1 <1>  -0.5700 
 11 N        1.0280    -5.1730     0.7630 N.am  1 <1>  -0.6600 
 12 C       -0.0250    -4.6830    -0.1630 C.3   1 <1>   0.1400 
 13 C        0.6750    -6.5190     1.2810 C.3   1 <1>   0.1400 
 14 C       -1.2110    -5.6170     0.0750 C.3   1 <1>   0.2000 
 15 C       -0.5700    -6.9440     0.4890 C.3   1 <1>  -0.0800 
 16 O       -1.9390    -5.1310     1.1500 O.3   1 <1>  -0.6800 
 17 C       -0.1890    -7.7800    -0.7490 C.3   1 <1>   0.0210 
 18 C        0.4480    -9.0970    -0.3540 C.2   1 <1>   0.1080 
 19 N       -0.2070   -10.0480     0.2370 N.2   1 <1>  -0.7070 
 20 C        1.7810    -9.4300    -0.5680 C.2   1 <1>  -0.1500 
 21 N        0.7020   -11.0250     0.4170 N.pl3 1 <1>   0.3000 
 22 C        1.9150   -10.6740    -0.0610 C.2   1 <1>  -0.3320 
 23 C        3.1460   -11.5580    -0.0030 C.3   1 <1>  -0.0600 
 24 H        3.6670     0.0800    -1.0910 H     1 <1>   0.1500 
 25 H        2.6350    -2.1730     2.3900 H     1 <1>   0.1500 
 26 H        3.3340    -1.9610    -2.4080 H     1 <1>   0.3700 
 27 H       -0.2820    -3.6550     0.0240 H     1 <1>   0.0800 
 28 H        0.3160    -4.7920    -1.1780 H     1 <1>   0.0800 
 29 H        1.4990    -7.2020     1.1620 H     1 <1>   0.0800 
 30 H        0.4410    -6.4410     2.3290 H     1 <1>   0.0800 
 31 H       -1.8710    -5.6940    -0.7720 H     1 <1>   0.0800 
 32 H       -1.2370    -7.5290     1.0980 H     1 <1>   0.0800 
 33 H       -1.3400    -5.0240     1.9150 H     1 <1>   0.4000 
 34 H        0.4920    -7.2350    -1.3780 H     1 <1>   0.0800 
 35 H       -1.0730    -7.9970    -1.3210 H     1 <1>   0.0800 
 36 H        2.5230    -8.8070    -1.0360 H     1 <1>   0.1500 
 37 H        0.4640   -11.9150     0.8690 H     1 <1>   0.2700 
 38 H        3.9860   -11.0510    -0.4430 H     1 <1>   0.0800 
 39 H        2.9750   -12.4710    -0.5450 H     1 <1>   0.0800 
 40 H        3.3870   -11.7940     1.0190 H     1 <1>   0.0800 
@<TRIPOS>BOND
  1   1   2  1   
  2   2   3  2   
  3   2   4  1   
  4   3   5  1   
  5   3  24  1   
  6   4   6  2   
  7   4  25  1   
  8   5   7  am  
  9   5  26  1   
 10   6   7  1   
 11   6   8  1   
 12   7   9  2   
 13   8  10  2   
 14   8  11  am  
 15  11  12  1   
 16  11  13  1   
 17  12  14  1   
 18  12  27  1   
 19  12  28  1   
 20  13  15  1   
 21  13  29  1   
 22  13  30  1   
 23  14  15  1   
 24  14  16  1   
 25  14  31  1   
 26  15  17  1   
 27  15  32  1   
 28  16  33  1   
 29  17  18  1   
 30  17  34  1   
 31  17  35  1   
 32  18  19  2   
 33  18  20  1   
 34  19  21  1   
 35  20  22  2   
 36  20  36  1   
 37  21  22  1   
 38  21  37  1   
 39  22  23  1   
 40  23  38  1   
 41  23  39  1   
 42  23  40  1   
@<TRIPOS>SUBSTRUCTURE
  1 ****  11 GROUP 4 **** **** 0

# MOE 2024.06 (io_trps.svl 2023.06)
