@<TRIPOS>MOLECULE
NONAME
48 52 1 0 0 
SMALL
USER_CHARGES


@<TRIPOS>ATOM
  1 S       -5.0990    -2.5480     3.4810 S.3   1 <1>  -0.4600 
  2 C       -4.2330    -1.1580     2.6820 C.3   1 <1>   0.2510 
  3 C       -5.0210    -3.7520     2.1210 C.3   1 <1>   0.2510 
  4 C       -3.9180    -1.6950     1.3050 C.2   1 <1>   0.1080 
  5 C       -4.3120    -2.9860     1.0280 C.2   1 <1>  -0.1810 
  6 N       -3.3210    -1.1210     0.3090 N.2   1 <1>  -0.7070 
  7 C       -3.9280    -3.2160    -0.2480 C.2   1 <1>  -0.0880 
  8 N       -3.3230    -2.0640    -0.6680 N.pl3 1 <1>   0.3140 
  9 N       -4.1300    -4.4230    -0.9540 N.am  1 <1>  -0.4940 
 10 C       -2.6550    -1.7910    -1.9480 C.3   1 <1>   0.0160 
 11 C       -4.3860    -4.6930    -2.2710 C.2   1 <1>   0.5690 
 12 O       -4.3070    -3.8750    -3.1570 O.2   1 <1>  -0.5700 
 13 C       -4.8360    -6.1190    -2.5950 C.3   1 <1>   0.1610 
 14 C       -5.7270    -6.6620    -1.4760 C.2   1 <1>  -0.3320 
 15 C       -3.6080    -7.0440    -2.7800 C.3   1 <1>  -0.1600 
 16 N       -6.8010    -6.0060    -0.9380 N.pl3 1 <1>   0.0330 
 17 C       -5.5650    -7.8490    -0.8540 C.2   1 <1>  -0.1810 
 18 C       -3.9480    -8.5420    -2.6250 C.3   1 <1>  -0.1600 
 19 C       -7.2960    -6.7770     0.0830 C.ar  1 <1>  -0.1520 
 20 C       -6.5430    -7.9460     0.1590 C.ar  1 <1>   0.0000 
 21 C       -4.5010    -8.8620    -1.2240 C.3   1 <1>   0.0210 
 22 C       -8.3530    -6.5490     0.9660 C.ar  1 <1>  -0.1500 
 23 C       -6.8510    -8.9030     1.1300 C.ar  1 <1>  -0.1500 
 24 C       -8.6410    -7.5000     1.9170 C.ar  1 <1>  -0.1500 
 25 C       -7.8920    -8.6820     2.0040 C.ar  1 <1>  -0.1430 
 26 C       -8.2510    -9.7010     3.0700 C.3   1 <1>  -0.0970 
 27 H       -3.3430    -0.9400     3.2420 H     1 <1>   0.0800 
 28 H       -4.8980    -0.3150     2.6440 H     1 <1>   0.0800 
 29 H       -6.0270    -4.0230     1.8510 H     1 <1>   0.0800 
 30 H       -4.4590    -4.6040     2.4590 H     1 <1>   0.0800 
 31 H       -4.3180    -5.2350    -0.3580 H     1 <1>   0.3700 
 32 H       -1.9530    -0.9900    -1.8160 H     1 <1>   0.0800 
 33 H       -3.3940    -1.5070    -2.6730 H     1 <1>   0.0800 
 34 H       -2.1410    -2.6740    -2.2760 H     1 <1>   0.0800 
 35 H       -5.4080    -6.1030    -3.5060 H     1 <1>   0.0800 
 36 H       -2.8620    -6.7940    -2.0460 H     1 <1>   0.0800 
 37 H       -3.1790    -6.8660    -3.7500 H     1 <1>   0.0800 
 38 H       -7.1780    -5.0950    -1.2250 H     1 <1>   0.2700 
 39 H       -3.0710    -9.1380    -2.8080 H     1 <1>   0.0800 
 40 H       -4.6890    -8.8090    -3.3600 H     1 <1>   0.0800 
 41 H       -4.9230    -9.8510    -1.2170 H     1 <1>   0.0800 
 42 H       -3.7120    -8.8230    -0.4940 H     1 <1>   0.0800 
 43 H       -8.9290    -5.6430     0.8960 H     1 <1>   0.1500 
 44 H       -6.2630    -9.8010     1.1740 H     1 <1>   0.1500 
 45 H       -9.4520    -7.3410     2.6050 H     1 <1>   0.1500 
 46 H       -7.5940   -10.5510     3.0250 H     1 <1>   0.0800 
 47 H       -9.2610   -10.0410     2.9250 H     1 <1>   0.0800 
 48 H       -8.1690    -9.2550     4.0450 H     1 <1>   0.0800 
@<TRIPOS>BOND
  1   1   2  1   
  2   1   3  1   
  3   2   4  1   
  4   2  27  1   
  5   2  28  1   
  6   3   5  1   
  7   3  29  1   
  8   3  30  1   
  9   4   5  1   
 10   4   6  2   
 11   5   7  2   
 12   6   8  1   
 13   7   8  1   
 14   7   9  1   
 15   8  10  1   
 16   9  11  am  
 17   9  31  1   
 18  10  32  1   
 19  10  33  1   
 20  10  34  1   
 21  11  12  2   
 22  11  13  1   
 23  13  14  1   
 24  13  15  1   
 25  13  35  1   
 26  14  16  1   
 27  14  17  2   
 28  15  18  1   
 29  15  36  1   
 30  15  37  1   
 31  16  19  1   
 32  16  38  1   
 33  17  20  1   
 34  17  21  1   
 35  18  21  1   
 36  18  39  1   
 37  18  40  1   
 38  19  20  ar  
 39  19  22  ar  
 40  20  23  ar  
 41  21  41  1   
 42  21  42  1   
 43  22  24  ar  
 44  22  43  1   
 45  23  25  ar  
 46  23  44  1   
 47  24  25  ar  
 48  24  45  1   
 49  25  26  1   
 50  26  46  1   
 51  26  47  1   
 52  26  48  1   
@<TRIPOS>SUBSTRUCTURE
  1 ****   9 GROUP 4 **** **** 0

# MOE 2024.06 (io_trps.svl 2023.06)
