@<TRIPOS>MOLECULE
NONAME
45 47 1 0 0 
SMALL
USER_CHARGES


@<TRIPOS>ATOM
  1 O       -3.9090     0.8210     0.0930 O.2   1 <1>  -0.5700 
  2 C       -2.9150     1.5040    -0.0080 C.2   1 <1>   0.5690 
  3 N       -1.6560     1.0150    -0.1700 N.am  1 <1>  -0.4930 
  4 C       -3.0500     3.0260     0.0560 C.3   1 <1>   0.1710 
  5 C       -1.1880    -0.3180    -0.2730 C.2   1 <1>   0.0630 
  6 N       -1.8530     3.7520    -0.4750 N.3   1 <1>  -0.8100 
  7 C        0.1270    -0.7300    -0.4970 C.2   1 <1>   0.1080 
  8 C       -1.8880    -1.4650    -0.1820 C.2   1 <1>  -0.3020 
  9 C       -1.7690     5.1210     0.0740 C.3   1 <1>   0.2900 
 10 C       -1.8550     3.7570    -1.9510 C.3   1 <1>   0.0300 
 11 N        0.2370    -2.0220    -0.5420 N.2   1 <1>  -0.7070 
 12 C        1.3130     0.1930    -0.6710 C.3   1 <1>  -0.0590 
 13 N       -1.0130    -2.4770    -0.3470 N.pl3 1 <1>   0.3140 
 14 C       -0.4230     5.7520    -0.2340 C.2   1 <1>  -0.0400 
 15 C       -1.3240    -3.9090    -0.3220 C.3   1 <1>   0.0160 
 16 O       -0.2470     6.4360    -1.3310 O.3   1 <1>  -0.0190 
 17 C        0.7320     5.7640     0.4410 C.2   1 <1>  -0.1500 
 18 N        0.9610     6.9000    -1.4300 N.2   1 <1>  -0.4100 
 19 C        1.6020     6.5120    -0.3650 C.2   1 <1>   0.2350 
 20 C        2.9930     6.7940    -0.0470 C.ar  1 <1>   0.3640 
 21 N        3.5030     6.2860     1.0830 N.ar  1 <1>  -0.6200 
 22 C        3.7650     7.5760    -0.9100 C.ar  1 <1>  -0.1500 
 23 C        4.7680     6.5590     1.3450 C.ar  1 <1>   0.1600 
 24 C        5.0830     7.8530    -0.6260 C.ar  1 <1>  -0.1500 
 25 C        5.5920     7.3250     0.5390 C.ar  1 <1>  -0.1500 
 26 H       -0.9600     1.7590    -0.2810 H     1 <1>   0.3700 
 27 H       -3.1960     3.2760     1.0910 H     1 <1>   0.0800 
 28 H       -3.9330     3.3230    -0.4830 H     1 <1>   0.0800 
 29 H       -2.9390    -1.6040    -0.0130 H     1 <1>   0.1500 
 30 H       -1.8710     5.0760     1.1440 H     1 <1>   0.0800 
 31 H       -2.5620     5.7360    -0.3160 H     1 <1>   0.0800 
 32 H       -1.9690     2.7560    -2.3330 H     1 <1>   0.0800 
 33 H       -0.9230     4.1460    -2.3240 H     1 <1>   0.0800 
 34 H       -2.6610     4.3640    -2.3280 H     1 <1>   0.0800 
 35 H        1.1400     0.8580    -1.4960 H     1 <1>   0.0800 
 36 H        2.1970    -0.3840    -0.8680 H     1 <1>   0.0800 
 37 H        1.4630     0.7650     0.2260 H     1 <1>   0.0800 
 38 H       -2.1940    -4.0920    -0.9230 H     1 <1>   0.0800 
 39 H       -1.5070    -4.2090     0.6930 H     1 <1>   0.0800 
 40 H       -0.4880    -4.4560    -0.7160 H     1 <1>   0.0800 
 41 H        0.9880     5.3160     1.3830 H     1 <1>   0.1500 
 42 H        3.3200     7.9660    -1.8070 H     1 <1>   0.1500 
 43 H        5.1760     6.1510     2.2540 H     1 <1>   0.1500 
 44 H        5.6880     8.4550    -1.2840 H     1 <1>   0.1500 
 45 H        6.6140     7.5020     0.8220 H     1 <1>   0.1500 
@<TRIPOS>BOND
  1   1   2  2   
  2   2   3  am  
  3   2   4  1   
  4   3   5  1   
  5   3  26  1   
  6   4   6  1   
  7   4  27  1   
  8   4  28  1   
  9   5   7  1   
 10   5   8  2   
 11   6   9  1   
 12   6  10  1   
 13   7  11  2   
 14   7  12  1   
 15   8  13  1   
 16   8  29  1   
 17   9  14  1   
 18   9  30  1   
 19   9  31  1   
 20  10  32  1   
 21  10  33  1   
 22  10  34  1   
 23  11  13  1   
 24  12  35  1   
 25  12  36  1   
 26  12  37  1   
 27  13  15  1   
 28  14  16  1   
 29  14  17  2   
 30  15  38  1   
 31  15  39  1   
 32  15  40  1   
 33  16  18  1   
 34  17  19  1   
 35  17  41  1   
 36  18  19  2   
 37  19  20  1   
 38  20  21  ar  
 39  20  22  ar  
 40  21  23  ar  
 41  22  24  ar  
 42  22  42  1   
 43  23  25  ar  
 44  23  43  1   
 45  24  25  ar  
 46  24  44  1   
 47  25  45  1   
@<TRIPOS>SUBSTRUCTURE
  1 ****   6 GROUP 4 **** **** 0

# MOE 2024.06 (io_trps.svl 2023.06)
