@<TRIPOS>MOLECULE
NONAME
41 42 1 0 0 
SMALL
USER_CHARGES


@<TRIPOS>ATOM
  1 CL      -4.5510    -0.7150    -0.8890 Cl    1 <1>  -0.1240 
  2 C       -3.4050    -2.0150    -1.0700 C.2   1 <1>   0.2640 
  3 O       -3.6760    -3.1560    -0.4850 O.3   1 <1>  -0.2800 
  4 C       -2.2400    -2.0560    -1.7430 C.2   1 <1>  -0.1500 
  5 C       -2.6800    -4.0030    -0.7530 C.2   1 <1>   0.0550 
  6 C       -1.7690    -3.3550    -1.5400 C.2   1 <1>  -0.1500 
  7 C       -2.6630    -5.3760    -0.2810 C.2   1 <1>   0.7150 
  8 O       -2.0070    -6.1820    -0.9140 O.2   1 <1>  -0.5700 
  9 N       -3.3610    -5.8320     0.8270 N.am  1 <1>  -0.6600 
 10 C       -3.2120    -7.2640     1.2620 C.3   1 <1>   0.3210 
 11 C       -4.0740    -4.9600     1.8200 C.3   1 <1>   0.1400 
 12 C       -4.4250    -8.1070     0.8770 C.2   1 <1>   0.0460 
 13 C       -5.6100    -4.8930     1.6390 C.3   1 <1>   0.3430 
 14 N       -5.5780    -8.0410     1.5790 N.2   1 <1>  -0.5650 
 15 C       -4.5270    -9.0120    -0.1250 C.2   1 <1>  -0.3320 
 16 N       -6.0530    -4.5580     0.2430 N.4   1 <1>  -0.9590 
 17 C       -6.3350    -8.9270     1.0170 C.2   1 <1>   0.0360 
 18 N       -5.7570    -9.5510    -0.0290 N.pl3 1 <1>   0.0330 
 19 C       -3.5260    -9.4430    -1.1860 C.3   1 <1>  -0.0600 
 20 C       -7.3400    -3.8050     0.2470 C.3   1 <1>   0.2630 
 21 C       -6.1680    -5.7930    -0.5920 C.3   1 <1>   0.2630 
 22 H       -1.7640    -1.2800    -2.3160 H     1 <1>   0.1500 
 23 H       -0.8540    -3.7590    -1.9410 H     1 <1>   0.1500 
 24 H       -3.0840    -7.3130     2.3280 H     1 <1>   0.0800 
 25 H       -2.3300    -7.7040     0.8320 H     1 <1>   0.0800 
 26 H       -3.6700    -3.9640     1.7920 H     1 <1>   0.0800 
 27 H       -3.8770    -5.3270     2.8120 H     1 <1>   0.0800 
 28 H       -5.9790    -4.1400     2.3150 H     1 <1>   0.0800 
 29 H       -6.0490    -5.8260     1.9450 H     1 <1>   0.0800 
 30 H       -5.3180    -3.9600    -0.1740 H     1 <1>   0.4500 
 31 H       -7.3350    -9.1680     1.3390 H     1 <1>   0.1500 
 32 H       -6.1590   -10.2960    -0.6080 H     1 <1>   0.2700 
 33 H       -2.6210    -8.8660    -1.1190 H     1 <1>   0.0800 
 34 H       -3.9400    -9.3010    -2.1690 H     1 <1>   0.0800 
 35 H       -3.2760   -10.4820    -1.0620 H     1 <1>   0.0800 
 36 H       -8.1210    -4.4040     0.6860 H     1 <1>   0.0800 
 37 H       -7.6240    -3.5490    -0.7610 H     1 <1>   0.0800 
 38 H       -7.2380    -2.8940     0.8150 H     1 <1>   0.0800 
 39 H       -6.8680    -6.4810    -0.1460 H     1 <1>   0.0800 
 40 H       -5.2150    -6.2880    -0.6690 H     1 <1>   0.0800 
 41 H       -6.5040    -5.5470    -1.5860 H     1 <1>   0.0800 
@<TRIPOS>BOND
  1   1   2  1   
  2   2   3  1   
  3   2   4  2   
  4   3   5  1   
  5   4   6  1   
  6   4  22  1   
  7   5   6  2   
  8   5   7  1   
  9   6  23  1   
 10   7   8  2   
 11   7   9  am  
 12   9  10  1   
 13   9  11  1   
 14  10  12  1   
 15  10  24  1   
 16  10  25  1   
 17  11  13  1   
 18  11  26  1   
 19  11  27  1   
 20  12  14  1   
 21  12  15  2   
 22  13  16  1   
 23  13  28  1   
 24  13  29  1   
 25  14  17  2   
 26  15  18  1   
 27  15  19  1   
 28  16  20  1   
 29  16  21  1   
 30  16  30  1   
 31  17  18  1   
 32  17  31  1   
 33  18  32  1   
 34  19  33  1   
 35  19  34  1   
 36  19  35  1   
 37  20  36  1   
 38  20  37  1   
 39  20  38  1   
 40  21  39  1   
 41  21  40  1   
 42  21  41  1   
@<TRIPOS>SUBSTRUCTURE
  1 ****   9 GROUP 4 **** **** 0

# MOE 2024.06 (io_trps.svl 2023.06)
