@<TRIPOS>MOLECULE
NONAME
46 48 1 0 0 
SMALL
USER_CHARGES


@<TRIPOS>ATOM
  1 O       -0.5550     0.2300    -0.2090 O.2   1 <1>  -0.5700 
  2 C       -1.5790     0.8310     0.0590 C.2   1 <1>   0.5440 
  3 N       -2.7400     0.1040     0.2090 N.am  1 <1>  -0.6600 
  4 C       -1.5520     2.2690     0.1870 C.ar  1 <1>   0.0860 
  5 C       -4.1040     0.6420    -0.0340 C.3   1 <1>   0.1400 
  6 C       -2.7460    -1.3780     0.1180 C.3   1 <1>   0.1400 
  7 C       -0.8030     3.0390    -0.6980 C.ar  1 <1>   0.1600 
  8 C       -2.2450     2.9560     1.1790 C.ar  1 <1>  -0.1500 
  9 C       -4.9220    -0.5580    -0.5090 C.3   1 <1>   0.2000 
 10 C       -4.2200    -1.7830     0.0720 C.3   1 <1>  -0.0800 
 11 N       -0.7160     4.3580    -0.7030 N.ar  1 <1>  -0.6200 
 12 C       -2.1620     4.3270     1.1940 C.ar  1 <1>  -0.1500 
 13 O       -6.2300    -0.4970    -0.0550 O.3   1 <1>  -0.6800 
 14 C       -4.4830    -3.0630    -0.7360 C.3   1 <1>  -0.0170 
 15 C       -1.4010     5.0000     0.2390 C.ar  1 <1>   0.4100 
 16 C       -3.7680    -4.2550    -0.1190 C.ar  1 <1>  -0.1430 
 17 N       -1.3330     6.3790     0.2450 N.pl3 1 <1>  -0.8380 
 18 C       -4.3220    -4.9720     0.9220 C.ar  1 <1>  -0.1500 
 19 C       -2.5320    -4.6820    -0.5620 C.ar  1 <1>  -0.1500 
 20 C       -2.5660     7.2040     0.3260 C.3   1 <1>   0.1290 
 21 C       -0.1490     7.0710    -0.3360 C.3   1 <1>   0.1290 
 22 C       -3.6330    -6.0470     1.4570 C.ar  1 <1>   0.1600 
 23 C       -1.9270    -5.7710     0.0430 C.ar  1 <1>   0.1600 
 24 N       -2.4470    -6.4640     1.0440 N.ar  1 <1>  -0.6200 
 25 H       -4.5000     1.0300     0.8870 H     1 <1>   0.0800 
 26 H       -4.0840     1.4120    -0.7870 H     1 <1>   0.0800 
 27 H       -2.2380    -1.6740    -0.7840 H     1 <1>   0.0800 
 28 H       -2.2420    -1.8130     0.9650 H     1 <1>   0.0800 
 29 H       -0.2400     2.5180    -1.4530 H     1 <1>   0.1500 
 30 H       -2.8170     2.4230     1.9170 H     1 <1>   0.1500 
 31 H       -4.9360    -0.5870    -1.5850 H     1 <1>   0.0800 
 32 H       -4.5400    -1.9310     1.0890 H     1 <1>   0.0800 
 33 H       -2.6690     4.9000     1.9460 H     1 <1>   0.1500 
 34 H       -6.2560    -0.5140     0.9210 H     1 <1>   0.4000 
 35 H       -4.1560    -2.9320    -1.7530 H     1 <1>   0.0800 
 36 H       -5.5410    -3.2580    -0.7600 H     1 <1>   0.0800 
 37 H       -5.2830    -4.7050     1.3230 H     1 <1>   0.1500 
 38 H       -2.0320    -4.1810    -1.3700 H     1 <1>   0.1500 
 39 H       -2.5100     7.8540     1.1820 H     1 <1>   0.0800 
 40 H       -3.4370     6.5790     0.4150 H     1 <1>   0.0800 
 41 H       -2.6660     7.8010    -0.5640 H     1 <1>   0.0800 
 42 H       -0.0100     8.0260     0.1390 H     1 <1>   0.0800 
 43 H       -0.2940     7.2120    -1.3930 H     1 <1>   0.0800 
 44 H        0.7360     6.4770    -0.1830 H     1 <1>   0.0800 
 45 H       -4.0810    -6.5950     2.2690 H     1 <1>   0.1500 
 46 H       -0.9620    -6.0890    -0.3140 H     1 <1>   0.1500 
@<TRIPOS>BOND
  1   1   2  2   
  2   2   3  am  
  3   2   4  1   
  4   3   5  1   
  5   3   6  1   
  6   4   7  ar  
  7   4   8  ar  
  8   5   9  1   
  9   5  25  1   
 10   5  26  1   
 11   6  10  1   
 12   6  27  1   
 13   6  28  1   
 14   7  11  ar  
 15   7  29  1   
 16   8  12  ar  
 17   8  30  1   
 18   9  10  1   
 19   9  13  1   
 20   9  31  1   
 21  10  14  1   
 22  10  32  1   
 23  11  15  ar  
 24  12  15  ar  
 25  12  33  1   
 26  13  34  1   
 27  14  16  1   
 28  14  35  1   
 29  14  36  1   
 30  15  17  1   
 31  16  18  ar  
 32  16  19  ar  
 33  17  20  1   
 34  17  21  1   
 35  18  22  ar  
 36  18  37  1   
 37  19  23  ar  
 38  19  38  1   
 39  20  39  1   
 40  20  40  1   
 41  20  41  1   
 42  21  42  1   
 43  21  43  1   
 44  21  44  1   
 45  22  24  ar  
 46  22  45  1   
 47  23  24  ar  
 48  23  46  1   
@<TRIPOS>SUBSTRUCTURE
  1 ****   3 GROUP 4 **** **** 0

# MOE 2024.06 (io_trps.svl 2023.06)
