@<TRIPOS>MOLECULE
NONAME
47 48 1 0 0 
SMALL
USER_CHARGES


@<TRIPOS>ATOM
  1 F       -1.3470    -1.7770    -2.4960 F     1 <1>  -0.1900 
  2 C       -1.6740    -2.8060    -1.7540 C.ar  1 <1>   0.1900 
  3 C       -0.8910    -3.2180    -0.6700 C.ar  1 <1>   0.0830 
  4 C       -2.8350    -3.4680    -2.1000 C.ar  1 <1>  -0.1500 
  5 O        0.2720    -2.6530    -0.2340 O.3   1 <1>  -0.3630 
  6 C       -1.3260    -4.3180     0.0520 C.ar  1 <1>  -0.1500 
  7 C       -3.2360    -4.5640    -1.3590 C.ar  1 <1>  -0.1500 
  8 C        0.8630    -1.5330    -0.8560 C.3   1 <1>   0.0400 
  9 C       -2.4960    -5.0120    -0.2640 C.ar  1 <1>   0.0530 
 10 C       -2.8900    -6.1530     0.5280 C.2   1 <1>   0.0870 
 11 O       -1.9610    -6.9660     0.9800 O.3   1 <1>  -0.0190 
 12 C       -4.0790    -6.6420     0.9720 C.2   1 <1>  -0.2330 
 13 N       -2.4420    -7.9460     1.6990 N.2   1 <1>  -0.4100 
 14 C       -3.7080    -7.7470     1.7320 C.2   1 <1>   0.3720 
 15 C       -5.4490    -6.3100     0.7430 C.2   1 <1>   1.0330 
 16 N       -4.6080    -8.5350     2.4360 N.pl3 1 <1>  -0.8520 
 17 O       -6.3130    -6.5180     1.6160 O.co2 1 <1>  -0.9000 
 18 O       -5.8630    -6.0830    -0.4060 O.co2 1 <1>  -0.9000 
 19 C       -4.7680    -9.9420     2.0270 C.3   1 <1>   0.2090 
 20 C       -6.0560   -10.1080     1.2090 C.3   1 <1>  -0.1600 
 21 C       -5.9860    -9.3810    -0.1490 C.3   1 <1>   0.4230 
 22 N       -7.3490    -9.1210    -0.7200 N.4   1 <1>  -0.9590 
 23 C       -5.1570   -10.2100    -1.1390 C.3   1 <1>  -0.2400 
 24 C       -7.2520    -8.4180    -2.0380 C.3   1 <1>   0.2630 
 25 C       -8.1580    -8.1960     0.1470 C.3   1 <1>   0.2630 
 26 H       -3.4180    -3.1310    -2.9380 H     1 <1>   0.1500 
 27 H       -0.7360    -4.6430     0.8900 H     1 <1>   0.1500 
 28 H       -4.1340    -5.0790    -1.6420 H     1 <1>   0.1500 
 29 H        1.7660    -1.2930    -0.3230 H     1 <1>   0.0800 
 30 H        0.1800    -0.7040    -0.8070 H     1 <1>   0.0800 
 31 H        1.0970    -1.7820    -1.8760 H     1 <1>   0.0800 
 32 H       -5.5080    -8.0120     2.4780 H     1 <1>   0.4000 
 33 H       -4.8290   -10.5430     2.9190 H     1 <1>   0.0800 
 34 H       -3.9010   -10.2660     1.4760 H     1 <1>   0.0800 
 35 H       -6.8540    -9.7450     1.8240 H     1 <1>   0.0800 
 36 H       -6.2240   -11.1570     1.0460 H     1 <1>   0.0800 
 37 H       -5.4910    -8.4410    -0.0100 H     1 <1>   0.0800 
 38 H       -7.8380   -10.0150    -0.8230 H     1 <1>   0.4500 
 39 H       -5.6700   -11.1140    -1.4130 H     1 <1>   0.0800 
 40 H       -4.2150   -10.4780    -0.6990 H     1 <1>   0.0800 
 41 H       -4.9230    -9.6400    -2.0190 H     1 <1>   0.0800 
 42 H       -6.6730    -7.5130    -1.9320 H     1 <1>   0.0800 
 43 H       -8.2330    -8.1510    -2.3940 H     1 <1>   0.0800 
 44 H       -6.7800    -9.0460    -2.7740 H     1 <1>   0.0800 
 45 H       -7.7620    -7.1950     0.0940 H     1 <1>   0.0800 
 46 H       -8.1510    -8.4990     1.1780 H     1 <1>   0.0800 
 47 H       -9.1780    -8.1620    -0.1930 H     1 <1>   0.0800 
@<TRIPOS>BOND
  1   1   2  1   
  2   2   3  ar  
  3   2   4  ar  
  4   3   5  1   
  5   3   6  ar  
  6   4   7  ar  
  7   4  26  1   
  8   5   8  1   
  9   6   9  ar  
 10   6  27  1   
 11   7   9  ar  
 12   7  28  1   
 13   8  29  1   
 14   8  30  1   
 15   8  31  1   
 16   9  10  1   
 17  10  11  1   
 18  10  12  2   
 19  11  13  1   
 20  12  14  1   
 21  12  15  1   
 22  13  14  2   
 23  14  16  1   
 24  15  17  ar  
 25  15  18  ar  
 26  16  19  1   
 27  16  32  1   
 28  19  20  1   
 29  19  33  1   
 30  19  34  1   
 31  20  21  1   
 32  20  35  1   
 33  20  36  1   
 34  21  22  1   
 35  21  23  1   
 36  21  37  1   
 37  22  24  1   
 38  22  25  1   
 39  22  38  1   
 40  23  39  1   
 41  23  40  1   
 42  23  41  1   
 43  24  42  1   
 44  24  43  1   
 45  24  44  1   
 46  25  45  1   
 47  25  46  1   
 48  25  47  1   
@<TRIPOS>SUBSTRUCTURE
  1 ****  10 GROUP 4 **** **** 0

# MOE 2024.06 (io_trps.svl 2023.06)
