@<TRIPOS>MOLECULE
NONAME
53 56 1 0 0 
SMALL
USER_CHARGES


@<TRIPOS>ATOM
  1 O       -0.0800     0.8980     0.2730 O.2   1 <1>  -0.5700 
  2 C       -0.7660     1.8490    -0.0190 C.2   1 <1>   0.5690 
  3 N       -2.1210     1.8430     0.1740 N.am  1 <1>  -0.6600 
  4 C       -0.0670     3.0630    -0.6250 C.3   1 <1>  -0.0990 
  5 C       -3.0540     2.9780    -0.1180 C.3   1 <1>   0.1400 
  6 C       -2.7810     0.5930     0.6710 C.3   1 <1>   0.1400 
  7 C        1.4420     2.8320    -0.8660 C.3   1 <1>  -0.1600 
  8 C       -3.8900     3.3660     1.1240 C.3   1 <1>   0.1440 
  9 C       -4.2300     0.8300     1.1270 C.3   1 <1>  -0.1600 
 10 C        2.1260     4.0380    -1.4990 C.3   1 <1>   0.3430 
 11 C       -5.0710     4.1850     0.6300 C.ar  1 <1>   0.1660 
 12 C       -4.3370     2.1250     1.9440 C.3   1 <1>  -0.1600 
 13 C       -3.1410     4.3860     2.0230 C.3   1 <1>  -0.1600 
 14 N        3.5580     3.7170    -1.6900 N.4   1 <1>  -0.8530 
 15 N       -6.1120     3.7060    -0.0070 N.ar  1 <1>  -0.6200 
 16 C       -4.9200     5.5090     0.9060 C.ar  1 <1>  -0.1440 
 17 C       -3.6230     5.7910     1.6200 C.3   1 <1>  -0.0170 
 18 C       -7.0470     4.5980    -0.3590 C.ar  1 <1>   0.6200 
 19 C       -5.9180     6.3610     0.5100 C.ar  1 <1>   0.1600 
 20 N       -6.9810     5.9160    -0.1200 N.ar  1 <1>  -0.6200 
 21 C       -8.2250     4.0960    -1.0560 C.ar  1 <1>   0.0000 
 22 C       -8.1820     2.9280    -1.8250 C.ar  1 <1>  -0.1500 
 23 C       -9.4550     4.7580    -0.9890 C.ar  1 <1>  -0.1500 
 24 C       -9.2980     2.4490    -2.4860 C.ar  1 <1>  -0.1500 
 25 C      -10.5750     4.2850    -1.6480 C.ar  1 <1>  -0.1500 
 26 C      -10.5000     3.1270    -2.3990 C.ar  1 <1>  -0.1500 
 27 H       -0.2040     3.8940     0.0430 H     1 <1>   0.0800 
 28 H       -0.5460     3.2890    -1.5610 H     1 <1>   0.0800 
 29 H       -3.7210     2.6610    -0.9020 H     1 <1>   0.0800 
 30 H       -2.5300     3.8420    -0.4820 H     1 <1>   0.0800 
 31 H       -2.2120     0.2140     1.5040 H     1 <1>   0.0800 
 32 H       -2.7610    -0.1530    -0.1060 H     1 <1>   0.0800 
 33 H        1.5520     1.9750    -1.5090 H     1 <1>   0.0800 
 34 H        1.9040     2.6090     0.0810 H     1 <1>   0.0800 
 35 H       -4.5540    -0.0060     1.7220 H     1 <1>   0.0800 
 36 H       -4.8780     0.8830     0.2690 H     1 <1>   0.0800 
 37 H        2.0200     4.8980    -0.8560 H     1 <1>   0.0800 
 38 H        1.6660     4.2610    -2.4500 H     1 <1>   0.0800 
 39 H       -5.3470     2.2570     2.2940 H     1 <1>   0.0800 
 40 H       -3.7070     2.0110     2.8080 H     1 <1>   0.0800 
 41 H       -2.0730     4.2860     1.9510 H     1 <1>   0.0800 
 42 H       -3.4220     4.2340     3.0510 H     1 <1>   0.0800 
 43 H        4.0020     3.4940    -0.7910 H     1 <1>   0.4500 
 44 H        4.0680     4.5010    -2.1150 H     1 <1>   0.4500 
 45 H        3.6660     2.8970    -2.2980 H     1 <1>   0.4500 
 46 H       -2.9290     6.2570     0.9420 H     1 <1>   0.0800 
 47 H       -3.7720     6.4200     2.4810 H     1 <1>   0.0800 
 48 H       -5.8460     7.4170     0.7080 H     1 <1>   0.1500 
 49 H       -7.2570     2.3850    -1.9060 H     1 <1>   0.1500 
 50 H       -9.5350     5.6600    -0.4080 H     1 <1>   0.1500 
 51 H       -9.2320     1.5470    -3.0690 H     1 <1>   0.1500 
 52 H      -11.5070     4.8190    -1.5750 H     1 <1>   0.1500 
 53 H      -11.3700     2.7570    -2.9130 H     1 <1>   0.1500 
@<TRIPOS>BOND
  1   1   2  2   
  2   2   3  am  
  3   2   4  1   
  4   3   5  1   
  5   3   6  1   
  6   4   7  1   
  7   4  27  1   
  8   4  28  1   
  9   5   8  1   
 10   5  29  1   
 11   5  30  1   
 12   6   9  1   
 13   6  31  1   
 14   6  32  1   
 15   7  10  1   
 16   7  33  1   
 17   7  34  1   
 18   8  11  1   
 19   8  12  1   
 20   8  13  1   
 21   9  12  1   
 22   9  35  1   
 23   9  36  1   
 24  10  14  1   
 25  10  37  1   
 26  10  38  1   
 27  11  15  ar  
 28  11  16  ar  
 29  12  39  1   
 30  12  40  1   
 31  13  17  1   
 32  13  41  1   
 33  13  42  1   
 34  14  43  1   
 35  14  44  1   
 36  14  45  1   
 37  15  18  ar  
 38  16  17  1   
 39  16  19  ar  
 40  17  46  1   
 41  17  47  1   
 42  18  20  ar  
 43  18  21  1   
 44  19  20  ar  
 45  19  48  1   
 46  21  22  ar  
 47  21  23  ar  
 48  22  24  ar  
 49  22  49  1   
 50  23  25  ar  
 51  23  50  1   
 52  24  26  ar  
 53  24  51  1   
 54  25  26  ar  
 55  25  52  1   
 56  26  53  1   
@<TRIPOS>SUBSTRUCTURE
  1 ****  11 GROUP 4 **** **** 0

# MOE 2024.06 (io_trps.svl 2023.06)
