@<TRIPOS>MOLECULE
NONAME
52 54 1 0 0 
SMALL
USER_CHARGES


@<TRIPOS>ATOM
  1 F        1.3510     0.8270     1.8460 F     1 <1>  -0.1900 
  2 C        2.3010     1.3330     1.0850 C.ar  1 <1>   0.1900 
  3 C        2.9690     0.5640     0.1310 C.ar  1 <1>   0.4100 
  4 C        2.6270     2.6530     1.2280 C.ar  1 <1>   0.1600 
  5 N        3.8970     1.1300    -0.6200 N.ar  1 <1>  -0.6200 
  6 N        2.7210    -0.7890    -0.0910 N.pl3 1 <1>  -0.8380 
  7 N        3.5600     3.2210     0.4860 N.ar  1 <1>  -0.6200 
  8 C        4.1380     2.4080    -0.3950 C.ar  1 <1>   0.7200 
  9 C        2.6000    -1.7410     1.0470 C.3   1 <1>   0.1290 
 10 C        3.0340    -1.4160    -1.4050 C.3   1 <1>   0.1290 
 11 N        5.1050     2.9240    -1.1900 N.pl3 1 <1>  -0.8690 
 12 C        5.1630     4.3470    -1.5720 C.3   1 <1>   0.2090 
 13 C        6.1180     5.0860    -0.6230 C.3   1 <1>  -0.0800 
 14 C        5.9710     6.5980    -0.8100 C.3   1 <1>   0.3430 
 15 C        7.5800     4.6440    -0.8220 C.3   1 <1>  -0.1600 
 16 N        6.8900     7.3310     0.1150 N.4   1 <1>  -0.9590 
 17 C        8.5220     5.4720     0.0620 C.3   1 <1>  -0.1600 
 18 C        6.5900     8.7960     0.1170 C.3   1 <1>   0.4230 
 19 C        8.3200     6.9750    -0.1380 C.3   1 <1>   0.3430 
 20 C        7.0720     9.5130    -1.1470 C.3   1 <1>  -0.1600 
 21 C        7.3200     9.5060     1.2560 C.3   1 <1>  -0.1600 
 22 C        8.4680    10.0720    -0.8490 C.3   1 <1>  -0.1600 
 23 C        8.6060    10.1120     0.6770 C.3   1 <1>  -0.1600 
 24 H        2.1140     3.2510     1.9600 H     1 <1>   0.1500 
 25 H        2.8480    -1.2560     1.9750 H     1 <1>   0.0800 
 26 H        3.2710    -2.5700     0.9080 H     1 <1>   0.0800 
 27 H        1.5900    -2.1080     1.1030 H     1 <1>   0.0800 
 28 H        2.9010    -0.7000    -2.1980 H     1 <1>   0.0800 
 29 H        2.3760    -2.2480    -1.5820 H     1 <1>   0.0800 
 30 H        4.0550    -1.7570    -1.4110 H     1 <1>   0.0800 
 31 H        5.3670     2.2470    -1.9090 H     1 <1>   0.4000 
 32 H        4.1720     4.7690    -1.5110 H     1 <1>   0.0800 
 33 H        5.4990     4.4300    -2.5920 H     1 <1>   0.0800 
 34 H        5.8130     4.8540     0.3830 H     1 <1>   0.0800 
 35 H        4.9490     6.8790    -0.6090 H     1 <1>   0.0800 
 36 H        6.2000     6.8560    -1.8310 H     1 <1>   0.0800 
 37 H        7.8610     4.7620    -1.8550 H     1 <1>   0.0800 
 38 H        7.6830     3.6000    -0.5720 H     1 <1>   0.0800 
 39 H        6.6760     6.9880     1.0590 H     1 <1>   0.4500 
 40 H        9.5420     5.2210    -0.1740 H     1 <1>   0.0800 
 41 H        8.3640     5.2250     1.0970 H     1 <1>   0.0800 
 42 H        5.5260     8.9340     0.2330 H     1 <1>   0.0800 
 43 H        8.9610     7.5110     0.5410 H     1 <1>   0.0800 
 44 H        8.5910     7.2450    -1.1450 H     1 <1>   0.0800 
 45 H        6.4140    10.3470    -1.3190 H     1 <1>   0.0800 
 46 H        7.0580     8.8950    -2.0270 H     1 <1>   0.0800 
 47 H        7.5120     8.8650     2.0980 H     1 <1>   0.0800 
 48 H        6.6960    10.3160     1.5910 H     1 <1>   0.0800 
 49 H        8.5830    11.0570    -1.2720 H     1 <1>   0.0800 
 50 H        9.2290     9.4380    -1.2710 H     1 <1>   0.0800 
 51 H        9.4690     9.5480     0.9870 H     1 <1>   0.0800 
 52 H        8.7300    11.1260     1.0210 H     1 <1>   0.0800 
@<TRIPOS>BOND
  1   1   2  1   
  2   2   3  ar  
  3   2   4  ar  
  4   3   5  ar  
  5   3   6  1   
  6   4   7  ar  
  7   4  24  1   
  8   5   8  ar  
  9   6   9  1   
 10   6  10  1   
 11   7   8  ar  
 12   8  11  1   
 13   9  25  1   
 14   9  26  1   
 15   9  27  1   
 16  10  28  1   
 17  10  29  1   
 18  10  30  1   
 19  11  12  1   
 20  11  31  1   
 21  12  13  1   
 22  12  32  1   
 23  12  33  1   
 24  13  14  1   
 25  13  15  1   
 26  13  34  1   
 27  14  16  1   
 28  14  35  1   
 29  14  36  1   
 30  15  17  1   
 31  15  37  1   
 32  15  38  1   
 33  16  18  1   
 34  16  19  1   
 35  16  39  1   
 36  17  19  1   
 37  17  40  1   
 38  17  41  1   
 39  18  20  1   
 40  18  21  1   
 41  18  42  1   
 42  19  43  1   
 43  19  44  1   
 44  20  22  1   
 45  20  45  1   
 46  20  46  1   
 47  21  23  1   
 48  21  47  1   
 49  21  48  1   
 50  22  23  1   
 51  22  49  1   
 52  22  50  1   
 53  23  51  1   
 54  23  52  1   
@<TRIPOS>SUBSTRUCTURE
  1 ****  13 GROUP 4 **** **** 0

# MOE 2024.06 (io_trps.svl 2023.06)
