@<TRIPOS>MOLECULE
NONAME
55 57 1 0 0 
SMALL
USER_CHARGES


@<TRIPOS>ATOM
  1 O       -0.0900    -1.1240    -1.1700 O.2   1 <1>  -0.5700 
  2 C        0.0050    -1.3030     0.0220 C.2   1 <1>   0.5690 
  3 N        1.1950    -1.3060     0.7050 N.am  1 <1>  -0.5470 
  4 C       -1.3090    -1.5330     0.7890 C.3   1 <1>   0.4040 
  5 C        2.5070    -1.0820     0.2530 C.ar  1 <1>   0.1170 
  6 N       -2.5210    -1.0020     0.0630 N.4   1 <1>  -0.9590 
  7 C        3.5800    -1.6110     0.9750 C.ar  1 <1>  -0.1430 
  8 C        2.7790    -0.3260    -0.8840 C.ar  1 <1>  -0.1500 
  9 C       -3.7970    -1.5700     0.5990 C.3   1 <1>   0.3430 
 10 C       -2.5390     0.4880     0.0200 C.3   1 <1>   0.3430 
 11 C        4.8790    -1.3780     0.5510 C.ar  1 <1>  -0.1500 
 12 C        3.3670    -2.4520     2.2280 C.3   1 <1>  -0.0970 
 13 C        4.0780    -0.1020    -1.2990 C.ar  1 <1>  -0.1500 
 14 C       -5.0140    -1.1350    -0.2450 C.3   1 <1>   0.0000 
 15 C       -3.7090     0.9680    -0.8410 C.3   1 <1>  -0.1600 
 16 C        5.1370    -0.6260    -0.5820 C.ar  1 <1>  -0.1430 
 17 C       -6.2950    -1.6940     0.3940 C.3   1 <1>   0.2000 
 18 C       -5.0520     0.4030    -0.3510 C.3   1 <1>  -0.1600 
 19 C       -4.9990    -1.8220    -1.6210 C.3   1 <1>  -0.1600 
 20 C        6.5660    -0.3850    -1.0330 C.3   1 <1>  -0.0970 
 21 O       -6.1680    -1.6990     1.7840 O.3   1 <1>  -0.5600 
 22 C       -6.4550    -3.1210    -0.1470 C.3   1 <1>  -0.1600 
 23 C       -5.5300    -3.2340    -1.3660 C.3   1 <1>  -0.1600 
 24 C       -7.3700    -1.8480     2.4780 C.3   1 <1>   0.0400 
 25 H        1.1760    -1.5690     1.6890 H     1 <1>   0.3700 
 26 H       -1.2370    -1.0710     1.7580 H     1 <1>   0.0800 
 27 H       -1.4180    -2.5940     0.9300 H     1 <1>   0.0800 
 28 H       -2.4110    -1.3080    -0.9180 H     1 <1>   0.4500 
 29 H        1.9800     0.1020    -1.4600 H     1 <1>   0.1500 
 30 H       -3.7500    -2.6470     0.6150 H     1 <1>   0.0800 
 31 H       -3.9400    -1.2310     1.6120 H     1 <1>   0.0800 
 32 H       -2.6440     0.8820     1.0180 H     1 <1>   0.0800 
 33 H       -1.6150     0.8570    -0.3990 H     1 <1>   0.0800 
 34 H        5.7070    -1.7870     1.1040 H     1 <1>   0.1500 
 35 H        4.3010    -2.8460     2.5880 H     1 <1>   0.0800 
 36 H        2.7210    -3.2840     2.0120 H     1 <1>   0.0800 
 37 H        2.9350    -1.8530     3.0090 H     1 <1>   0.0800 
 38 H        4.2600     0.4820    -2.1840 H     1 <1>   0.1500 
 39 H       -3.7460     2.0440    -0.8090 H     1 <1>   0.0800 
 40 H       -3.5370     0.6870    -1.8650 H     1 <1>   0.0800 
 41 H       -7.1420    -1.0880     0.1100 H     1 <1>   0.0800 
 42 H       -5.8410     0.7140    -1.0160 H     1 <1>   0.0800 
 43 H       -5.2720     0.8150     0.6200 H     1 <1>   0.0800 
 44 H       -5.6830    -1.3170    -2.2830 H     1 <1>   0.0800 
 45 H       -4.0310    -1.8400    -2.0900 H     1 <1>   0.0800 
 46 H        6.6350     0.5240    -1.6040 H     1 <1>   0.0800 
 47 H        6.8970    -1.2050    -1.6460 H     1 <1>   0.0800 
 48 H        7.2190    -0.3010    -0.1830 H     1 <1>   0.0800 
 49 H       -6.1800    -3.8520     0.5930 H     1 <1>   0.0800 
 50 H       -7.4770    -3.2830    -0.4410 H     1 <1>   0.0800 
 51 H       -4.7160    -3.9010    -1.1420 H     1 <1>   0.0800 
 52 H       -6.0550    -3.6140    -2.2270 H     1 <1>   0.0800 
 53 H       -7.1530    -1.8360     3.5320 H     1 <1>   0.0800 
 54 H       -7.8260    -2.7870     2.2160 H     1 <1>   0.0800 
 55 H       -8.0260    -1.0300     2.2360 H     1 <1>   0.0800 
@<TRIPOS>BOND
  1   1   2  2   
  2   2   3  am  
  3   2   4  1   
  4   3   5  1   
  5   3  25  1   
  6   4   6  1   
  7   4  26  1   
  8   4  27  1   
  9   5   7  ar  
 10   5   8  ar  
 11   6   9  1   
 12   6  10  1   
 13   6  28  1   
 14   7  11  ar  
 15   7  12  1   
 16   8  13  ar  
 17   8  29  1   
 18   9  14  1   
 19   9  30  1   
 20   9  31  1   
 21  10  15  1   
 22  10  32  1   
 23  10  33  1   
 24  11  16  ar  
 25  11  34  1   
 26  12  35  1   
 27  12  36  1   
 28  12  37  1   
 29  13  16  ar  
 30  13  38  1   
 31  14  17  1   
 32  14  18  1   
 33  14  19  1   
 34  15  18  1   
 35  15  39  1   
 36  15  40  1   
 37  16  20  1   
 38  17  21  1   
 39  17  22  1   
 40  17  41  1   
 41  18  42  1   
 42  18  43  1   
 43  19  23  1   
 44  19  44  1   
 45  19  45  1   
 46  20  46  1   
 47  20  47  1   
 48  20  48  1   
 49  21  24  1   
 50  22  23  1   
 51  22  49  1   
 52  22  50  1   
 53  23  51  1   
 54  23  52  1   
 55  24  53  1   
 56  24  54  1   
 57  24  55  1   
@<TRIPOS>SUBSTRUCTURE
  1 ****   4 GROUP 4 **** **** 0

# MOE 2024.06 (io_trps.svl 2023.06)
