@<TRIPOS>MOLECULE
NONAME
58 61 1 0 0 
SMALL
USER_CHARGES


@<TRIPOS>ATOM
  1 O       -1.7760    -1.0850    -1.7100 O.2   1 <1>  -0.5700 
  2 C       -2.2900    -1.4780    -0.6910 C.2   1 <1>   0.5690 
  3 N       -1.7820    -2.5900    -0.0930 N.am  1 <1>  -0.7300 
  4 C       -3.5310    -0.7520    -0.1440 C.3   1 <1>   0.1710 
  5 C       -2.2600    -3.3340     1.1050 C.3   1 <1>   0.1400 
  6 N       -3.5660     0.7140    -0.3620 N.3   1 <1>  -0.9000 
  7 C       -3.1170    -4.5440     0.6990 C.3   1 <1>   0.1200 
  8 C       -4.9300     1.2190    -0.2670 C.3   1 <1>   0.1100 
  9 O       -4.2770    -4.6140     1.5100 O.3   1 <1>  -0.3630 
 10 C       -4.9610     2.7200    -0.5440 C.3   1 <1>  -0.1600 
 11 C       -5.3720    -3.9900     1.0280 C.ar  1 <1>   0.0820 
 12 C       -6.3320     3.3450    -0.2380 C.3   1 <1>   0.1200 
 13 C       -6.2100    -4.6400     0.1380 C.ar  1 <1>  -0.1500 
 14 C       -5.6460    -2.6940     1.4260 C.ar  1 <1>  -0.1500 
 15 O       -7.3400     2.7630    -1.0490 O.3   1 <1>  -0.3620 
 16 C       -7.2930    -3.9650    -0.4090 C.ar  1 <1>   0.1170 
 17 C       -6.6900    -2.0020     0.8420 C.ar  1 <1>  -0.1500 
 18 C       -8.1660     1.8510    -0.4720 C.ar  1 <1>   0.0820 
 19 N       -8.2130    -4.6110    -1.2400 N.am  1 <1>  -0.5470 
 20 C       -7.4950    -2.6190    -0.1070 C.ar  1 <1>  -0.1430 
 21 C       -9.0000     2.1390     0.6140 C.ar  1 <1>   0.0820 
 22 C       -8.1310     0.5650    -0.9770 C.ar  1 <1>  -0.1500 
 23 C       -9.4420    -4.1190    -1.5480 C.2   1 <1>   0.5690 
 24 C       -8.5940    -1.8860    -0.8860 C.3   1 <1>   0.2070 
 25 O       -9.1300     3.3860     1.1280 O.3   1 <1>  -0.3630 
 26 C       -9.7210     1.1170     1.2090 C.ar  1 <1>  -0.1500 
 27 C       -8.8270    -0.4680    -0.3660 C.ar  1 <1>  -0.1430 
 28 O      -10.2020    -4.7350    -2.2480 O.2   1 <1>  -0.5700 
 29 C       -9.8440    -2.7670    -0.9870 C.3   1 <1>  -0.0990 
 30 C       -9.7030     4.3590     0.2820 C.3   1 <1>   0.0400 
 31 C       -9.6290    -0.1820     0.7310 C.ar  1 <1>  -0.1500 
 32 H       -0.9510    -2.9690    -0.5550 H     1 <1>   0.3700 
 33 H       -3.6060    -0.9220     0.9110 H     1 <1>   0.0800 
 34 H       -4.3820    -1.2050    -0.6210 H     1 <1>   0.0800 
 35 H       -2.8220    -2.6800     1.7450 H     1 <1>   0.0800 
 36 H       -1.4050    -3.6770     1.6620 H     1 <1>   0.0800 
 37 H       -3.2020     0.8800    -1.3130 H     1 <1>   0.3600 
 38 H       -2.5650    -5.4540     0.8490 H     1 <1>   0.0800 
 39 H       -3.4200    -4.4790    -0.3320 H     1 <1>   0.0800 
 40 H       -5.3160     1.0240     0.7200 H     1 <1>   0.0800 
 41 H       -5.5410     0.7110    -0.9880 H     1 <1>   0.0800 
 42 H       -4.7050     2.9090    -1.5710 H     1 <1>   0.0800 
 43 H       -4.2280     3.2000     0.0800 H     1 <1>   0.0800 
 44 H       -6.3130     4.3970    -0.4560 H     1 <1>   0.0800 
 45 H       -6.5820     3.2140     0.8010 H     1 <1>   0.0800 
 46 H       -6.0190    -5.6640    -0.1190 H     1 <1>   0.1500 
 47 H       -5.0370    -2.2240     2.1760 H     1 <1>   0.1500 
 48 H       -6.8550    -0.9790     1.1360 H     1 <1>   0.1500 
 49 H       -8.0160    -5.5490    -1.5900 H     1 <1>   0.3700 
 50 H       -7.5190     0.3770    -1.8400 H     1 <1>   0.1500 
 51 H       -8.2260    -1.7900    -1.8940 H     1 <1>   0.0800 
 52 H      -10.3480     1.3420     2.0530 H     1 <1>   0.1500 
 53 H      -10.2800    -2.9180    -0.0180 H     1 <1>   0.0800 
 54 H      -10.5700    -2.3090    -1.6320 H     1 <1>   0.0800 
 55 H       -9.8450     5.2590     0.8520 H     1 <1>   0.0800 
 56 H      -10.6500     3.9950    -0.0750 H     1 <1>   0.0800 
 57 H       -9.0420     4.5500    -0.5430 H     1 <1>   0.0800 
 58 H      -10.1750    -0.9620     1.2310 H     1 <1>   0.1500 
@<TRIPOS>BOND
  1   1   2  2   
  2   2   3  am  
  3   2   4  1   
  4   3   5  1   
  5   3  32  1   
  6   4   6  1   
  7   4  33  1   
  8   4  34  1   
  9   5   7  1   
 10   5  35  1   
 11   5  36  1   
 12   6   8  1   
 13   6  37  1   
 14   7   9  1   
 15   7  38  1   
 16   7  39  1   
 17   8  10  1   
 18   8  40  1   
 19   8  41  1   
 20   9  11  1   
 21  10  12  1   
 22  10  42  1   
 23  10  43  1   
 24  11  13  ar  
 25  11  14  ar  
 26  12  15  1   
 27  12  44  1   
 28  12  45  1   
 29  13  16  ar  
 30  13  46  1   
 31  14  17  ar  
 32  14  47  1   
 33  15  18  1   
 34  16  19  1   
 35  16  20  ar  
 36  17  20  ar  
 37  17  48  1   
 38  18  21  ar  
 39  18  22  ar  
 40  19  23  am  
 41  19  49  1   
 42  20  24  1   
 43  21  25  1   
 44  21  26  ar  
 45  22  27  ar  
 46  22  50  1   
 47  23  28  2   
 48  23  29  1   
 49  24  27  1   
 50  24  29  1   
 51  24  51  1   
 52  25  30  1   
 53  26  31  ar  
 54  26  52  1   
 55  27  31  ar  
 56  29  53  1   
 57  29  54  1   
 58  30  55  1   
 59  30  56  1   
 60  30  57  1   
 61  31  58  1   
@<TRIPOS>SUBSTRUCTURE
  1 ****  17 GROUP 4 **** **** 0

# MOE 2024.06 (io_trps.svl 2023.06)
