@<TRIPOS>MOLECULE
NONAME
54 56 1 0 0 
SMALL
USER_CHARGES


@<TRIPOS>ATOM
  1 O        1.4850     1.5750     2.6660 O.co2 1 <1>  -0.9000 
  2 C        1.4010     0.7440     1.7540 C.2   1 <1>   0.9060 
  3 O        1.0430    -0.4240     1.9690 O.co2 1 <1>  -0.9000 
  4 C        1.8520     1.1000     0.3350 C.3   1 <1>  -0.1060 
  5 C        3.1530     0.2770     0.1720 C.3   1 <1>   0.2000 
  6 C        2.1660     2.6180     0.1570 C.3   1 <1>  -0.1600 
  7 C        0.7550     0.6990    -0.6970 C.3   1 <1>  -0.0160 
  8 O        2.8530    -1.0340    -0.1630 O.3   1 <1>  -0.6800 
  9 C        4.1360     0.8930    -0.8320 C.3   1 <1>   0.1400 
 10 C        3.6030     2.9670     0.5420 C.3   1 <1>   0.1400 
 11 C       -0.4470     1.6410    -0.7470 C.ar  1 <1>  -0.1440 
 12 N        4.5570     2.2720    -0.3910 N.am  1 <1>  -0.6600 
 13 C       -1.3470     1.6850     0.3060 C.ar  1 <1>  -0.1500 
 14 C       -0.6540     2.4610    -1.8470 C.ar  1 <1>  -0.1500 
 15 C        5.7760     2.7660    -0.7940 C.2   1 <1>   0.5690 
 16 C       -2.4350     2.5390     0.2640 C.ar  1 <1>  -0.1500 
 17 C       -1.7430     3.3150    -1.8930 C.ar  1 <1>  -0.1500 
 18 O        6.4760     2.1350    -1.5550 O.2   1 <1>  -0.5700 
 19 C        6.3000     4.1230    -0.2830 C.3   1 <1>  -0.0190 
 20 C       -2.6340     3.3550    -0.8350 C.ar  1 <1>  -0.1500 
 21 C        7.3330     4.7460    -1.2510 C.3   1 <1>  -0.1600 
 22 C        6.8390     3.9760     1.1590 C.3   1 <1>  -0.1600 
 23 C        7.8740     6.1260    -0.8410 C.3   1 <1>  -0.1600 
 24 C        6.9300     5.3160     1.9070 C.3   1 <1>  -0.1600 
 25 C        8.8770     6.0390     0.3180 C.3   1 <1>  -0.1600 
 26 C        8.2520     6.0760     1.7200 C.3   1 <1>  -0.1600 
 27 H        3.6660     0.2290     1.1190 H     1 <1>   0.0800 
 28 H        1.4820     3.2010     0.7490 H     1 <1>   0.0800 
 29 H        2.0270     2.9160    -0.8660 H     1 <1>   0.0800 
 30 H        1.2010     0.6530    -1.6740 H     1 <1>   0.0800 
 31 H        0.3890    -0.2910    -0.4820 H     1 <1>   0.0800 
 32 H        2.1910    -1.3330     0.5130 H     1 <1>   0.4000 
 33 H        3.6720     0.9600    -1.7980 H     1 <1>   0.0800 
 34 H        5.0020     0.2570    -0.9040 H     1 <1>   0.0800 
 35 H        3.7890     2.6510     1.5560 H     1 <1>   0.0800 
 36 H        3.7160     4.0330     0.4950 H     1 <1>   0.0800 
 37 H       -1.1990     1.0540     1.1680 H     1 <1>   0.1500 
 38 H        0.0350     2.4360    -2.6720 H     1 <1>   0.1500 
 39 H       -3.1200     2.5650     1.0930 H     1 <1>   0.1500 
 40 H       -1.8940     3.9470    -2.7490 H     1 <1>   0.1500 
 41 H        5.4690     4.8000    -0.2740 H     1 <1>   0.0800 
 42 H       -3.4800     4.0190    -0.8660 H     1 <1>   0.1500 
 43 H        8.1590     4.0670    -1.3800 H     1 <1>   0.0800 
 44 H        6.8610     4.8430    -2.2130 H     1 <1>   0.0800 
 45 H        6.1600     3.3480     1.7090 H     1 <1>   0.0800 
 46 H        7.7900     3.4720     1.1540 H     1 <1>   0.0800 
 47 H        8.3930     6.5330    -1.6930 H     1 <1>   0.0800 
 48 H        7.0710     6.8020    -0.6050 H     1 <1>   0.0800 
 49 H        6.1100     5.9480     1.6130 H     1 <1>   0.0800 
 50 H        6.8080     5.1280     2.9600 H     1 <1>   0.0800 
 51 H        9.4660     5.1440     0.2140 H     1 <1>   0.0800 
 52 H        9.5620     6.8670     0.2430 H     1 <1>   0.0800 
 53 H        8.0830     7.1030     1.9960 H     1 <1>   0.0800 
 54 H        8.9760     5.6820     2.4130 H     1 <1>   0.0800 
@<TRIPOS>BOND
  1   1   2  ar  
  2   2   3  ar  
  3   2   4  1   
  4   4   5  1   
  5   4   6  1   
  6   4   7  1   
  7   5   8  1   
  8   5   9  1   
  9   5  27  1   
 10   6  10  1   
 11   6  28  1   
 12   6  29  1   
 13   7  11  1   
 14   7  30  1   
 15   7  31  1   
 16   8  32  1   
 17   9  12  1   
 18   9  33  1   
 19   9  34  1   
 20  10  12  1   
 21  10  35  1   
 22  10  36  1   
 23  11  13  ar  
 24  11  14  ar  
 25  12  15  am  
 26  13  16  ar  
 27  13  37  1   
 28  14  17  ar  
 29  14  38  1   
 30  15  18  2   
 31  15  19  1   
 32  16  20  ar  
 33  16  39  1   
 34  17  20  ar  
 35  17  40  1   
 36  19  21  1   
 37  19  22  1   
 38  19  41  1   
 39  20  42  1   
 40  21  23  1   
 41  21  43  1   
 42  21  44  1   
 43  22  24  1   
 44  22  45  1   
 45  22  46  1   
 46  23  25  1   
 47  23  47  1   
 48  23  48  1   
 49  24  26  1   
 50  24  49  1   
 51  24  50  1   
 52  25  26  1   
 53  25  51  1   
 54  25  52  1   
 55  26  53  1   
 56  26  54  1   
@<TRIPOS>SUBSTRUCTURE
  1 ****  10 GROUP 4 **** **** 0

# MOE 2024.06 (io_trps.svl 2023.06)
