@<TRIPOS>MOLECULE
NONAME
45 47 1 0 0 
SMALL
USER_CHARGES


@<TRIPOS>ATOM
  1 O       -0.6430     0.1350    -0.1300 O.2   1 <1>  -0.5700 
  2 C       -1.6730     0.7410    -0.3200 C.2   1 <1>   0.5690 
  3 N       -2.8290     0.0780    -0.6600 N.am  1 <1>  -0.6600 
  4 C       -1.6510     2.2720    -0.1570 C.3   1 <1>  -0.0190 
  5 C       -4.2010     0.6710    -0.7530 C.3   1 <1>   0.1400 
  6 C       -2.8380    -1.4030    -0.8780 C.3   1 <1>   0.1400 
  7 C       -0.2770     2.8880    -0.4810 C.3   1 <1>  -0.2400 
  8 C       -2.0690     2.6850     1.2650 C.3   1 <1>  -0.2400 
  9 C       -5.1780    -0.0610     0.1880 C.3   1 <1>   0.1900 
 10 C       -3.8530    -2.0920     0.0480 C.3   1 <1>   0.1100 
 11 N       -5.2080    -1.5140    -0.1070 N.3   1 <1>  -0.8100 
 12 C       -6.5920     0.5420     0.0720 C.3   1 <1>   0.1200 
 13 C       -6.1980    -2.1870     0.7680 C.3   1 <1>   0.3330 
 14 O       -7.4770    -0.1180     0.9300 O.3   1 <1>  -0.5600 
 15 C       -6.3480    -3.6620     0.3980 C.ar  1 <1>  -0.1440 
 16 C       -7.5740    -1.4930     0.6700 C.3   1 <1>   0.1200 
 17 C       -6.5060    -4.0520    -0.9250 C.ar  1 <1>  -0.1500 
 18 C       -6.3340    -4.6330     1.3890 C.ar  1 <1>  -0.1500 
 19 C       -6.6490    -5.3890    -1.2530 C.ar  1 <1>  -0.1500 
 20 C       -6.4770    -5.9710     1.0630 C.ar  1 <1>  -0.1500 
 21 C       -6.6350    -6.3490    -0.2580 C.ar  1 <1>  -0.1500 
 22 H       -2.3420     2.6950    -0.8610 H     1 <1>   0.0800 
 23 H       -4.1930     1.7120    -0.4950 H     1 <1>   0.0800 
 24 H       -4.5520     0.5800    -1.7660 H     1 <1>   0.0800 
 25 H       -3.1000    -1.6070    -1.9010 H     1 <1>   0.0800 
 26 H       -1.8620    -1.8220    -0.7020 H     1 <1>   0.0800 
 27 H        0.4680     2.5330     0.2100 H     1 <1>   0.0800 
 28 H       -0.3190     3.9610    -0.4240 H     1 <1>   0.0800 
 29 H        0.0250     2.6080    -1.4750 H     1 <1>   0.0800 
 30 H       -1.3660     2.2960     1.9820 H     1 <1>   0.0800 
 31 H       -3.0420     2.2940     1.5030 H     1 <1>   0.0800 
 32 H       -2.0970     3.7560     1.3550 H     1 <1>   0.0800 
 33 H       -4.8390     0.0920     1.1990 H     1 <1>   0.0800 
 34 H       -3.5220    -1.9930     1.0670 H     1 <1>   0.0800 
 35 H       -3.8740    -3.1400    -0.1950 H     1 <1>   0.0800 
 36 H       -6.9610     0.4560    -0.9360 H     1 <1>   0.0800 
 37 H       -6.5820     1.5800     0.3530 H     1 <1>   0.0800 
 38 H       -5.8660    -2.1160     1.7900 H     1 <1>   0.0800 
 39 H       -8.2500    -1.9180     1.3900 H     1 <1>   0.0800 
 40 H       -7.9900    -1.6280    -0.3120 H     1 <1>   0.0800 
 41 H       -6.5120    -3.3070    -1.7030 H     1 <1>   0.1500 
 42 H       -6.2130    -4.3540     2.4210 H     1 <1>   0.1500 
 43 H       -6.7700    -5.6790    -2.2820 H     1 <1>   0.1500 
 44 H       -6.4650    -6.7180     1.8380 H     1 <1>   0.1500 
 45 H       -6.7460    -7.3890    -0.5120 H     1 <1>   0.1500 
@<TRIPOS>BOND
  1   1   2  2   
  2   2   3  am  
  3   2   4  1   
  4   3   5  1   
  5   3   6  1   
  6   4   7  1   
  7   4   8  1   
  8   4  22  1   
  9   5   9  1   
 10   5  23  1   
 11   5  24  1   
 12   6  10  1   
 13   6  25  1   
 14   6  26  1   
 15   7  27  1   
 16   7  28  1   
 17   7  29  1   
 18   8  30  1   
 19   8  31  1   
 20   8  32  1   
 21   9  11  1   
 22   9  12  1   
 23   9  33  1   
 24  10  11  1   
 25  10  34  1   
 26  10  35  1   
 27  11  13  1   
 28  12  14  1   
 29  12  36  1   
 30  12  37  1   
 31  13  15  1   
 32  13  16  1   
 33  13  38  1   
 34  14  16  1   
 35  15  17  ar  
 36  15  18  ar  
 37  16  39  1   
 38  16  40  1   
 39  17  19  ar  
 40  17  41  1   
 41  18  20  ar  
 42  18  42  1   
 43  19  21  ar  
 44  19  43  1   
 45  20  21  ar  
 46  20  44  1   
 47  21  45  1   
@<TRIPOS>SUBSTRUCTURE
  1 ****  11 GROUP 4 **** **** 0

# MOE 2024.06 (io_trps.svl 2023.06)
