@<TRIPOS>MOLECULE
NONAME
55 57 1 0 0 
SMALL
USER_CHARGES


@<TRIPOS>ATOM
  1 O       -1.8150     2.1210    -0.8590 O.co2 1 <1>  -0.9000 
  2 C       -1.4590     2.8810     0.0510 C.2   1 <1>   0.9060 
  3 O       -2.2290     3.2730     0.9350 O.co2 1 <1>  -0.9000 
  4 C       -0.0280     3.4140     0.1060 C.3   1 <1>  -0.1060 
  5 C       -0.3860     4.6180    -0.9020 C.3   1 <1>   0.2000 
  6 C        1.4140     4.0060     0.2220 C.3   1 <1>   0.3430 
  7 C        0.3920     2.2020     1.0650 C.3   1 <1>  -0.0650 
  8 O       -1.3170     4.4280    -1.9180 O.3   1 <1>  -0.6800 
  9 C       -0.7790     5.8580    -0.1010 C.3   1 <1>  -0.1600 
 10 N        1.4130     5.3410     0.9430 N.4   1 <1>  -0.9590 
 11 C        1.2360     1.1470     0.3240 C.3   1 <1>  -0.1950 
 12 C        0.0310     5.8840     1.1920 C.3   1 <1>   0.3430 
 13 C        2.2470     5.3170     2.1770 C.3   1 <1>   0.3430 
 14 C        1.8750     0.0440     1.1060 C.3   1 <1>  -0.2000 
 15 C        2.7320     1.0550     0.4070 C.3   1 <1>  -0.2000 
 16 C        2.7070     6.7300     2.5640 C.3   1 <1>   0.1200 
 17 O        3.2090     7.3840     1.4110 O.3   1 <1>  -0.3630 
 18 C        2.4530     8.3630     0.8510 C.ar  1 <1>   0.0830 
 19 C        1.9900     8.2240    -0.4590 C.ar  1 <1>   0.0830 
 20 C        2.1480     9.5000     1.5830 C.ar  1 <1>  -0.1500 
 21 O        2.3200     7.0890    -1.1430 O.3   1 <1>  -0.3630 
 22 C        1.1960     9.2280    -1.0060 C.ar  1 <1>  -0.1500 
 23 C        1.3580    10.4900     1.0250 C.ar  1 <1>  -0.1500 
 24 C        2.1400     7.0140    -2.5440 C.3   1 <1>   0.0400 
 25 C        0.8760    10.3550    -0.2660 C.ar  1 <1>  -0.1430 
 26 C        0.0100    11.4440    -0.8750 C.3   1 <1>  -0.0970 
 27 H        0.4580     4.9210    -1.5010 H     1 <1>   0.0800 
 28 H        1.8500     4.1200    -0.7570 H     1 <1>   0.0800 
 29 H        2.1060     3.3640     0.7330 H     1 <1>   0.0800 
 30 H        0.9010     2.5340     1.9560 H     1 <1>   0.0800 
 31 H       -0.4220     1.6310     1.4970 H     1 <1>   0.0800 
 32 H       -1.7650     3.5390    -1.7660 H     1 <1>   0.4000 
 33 H       -0.5960     6.7450    -0.6770 H     1 <1>   0.0800 
 34 H       -1.8250     5.8210     0.1520 H     1 <1>   0.0800 
 35 H        1.8790     6.0260     0.3090 H     1 <1>   0.4500 
 36 H        0.7590     0.8400    -0.5960 H     1 <1>   0.1000 
 37 H       -0.4710     5.2580     1.9150 H     1 <1>   0.0800 
 38 H        0.0750     6.8900     1.5770 H     1 <1>   0.0800 
 39 H        1.6980     4.8680     2.9880 H     1 <1>   0.0800 
 40 H        3.1260     4.7200     2.0000 H     1 <1>   0.0800 
 41 H        1.8120     0.0640     2.1810 H     1 <1>   0.1000 
 42 H        1.8160    -0.9560     0.7120 H     1 <1>   0.1000 
 43 H        3.2760     0.7410    -0.4680 H     1 <1>   0.1000 
 44 H        3.3090     1.7100     1.0340 H     1 <1>   0.1000 
 45 H        3.5020     6.6780     3.2870 H     1 <1>   0.0800 
 46 H        1.8930     7.2950     2.9830 H     1 <1>   0.0800 
 47 H        2.5310     9.6220     2.5800 H     1 <1>   0.1500 
 48 H        0.8150     9.1500    -2.0070 H     1 <1>   0.1500 
 49 H        1.1260    11.3710     1.6000 H     1 <1>   0.1500 
 50 H        2.5830     6.0980    -2.8930 H     1 <1>   0.0800 
 51 H        2.6300     7.8530    -3.0060 H     1 <1>   0.0800 
 52 H        1.0870     7.0140    -2.7660 H     1 <1>   0.0800 
 53 H       -0.4900    12.0060    -0.1070 H     1 <1>   0.0800 
 54 H       -0.7360    11.0160    -1.5200 H     1 <1>   0.0800 
 55 H        0.6220    12.1170    -1.4500 H     1 <1>   0.0800 
@<TRIPOS>BOND
  1   1   2  ar  
  2   2   3  ar  
  3   2   4  1   
  4   4   5  1   
  5   4   6  1   
  6   4   7  1   
  7   5   8  1   
  8   5   9  1   
  9   5  27  1   
 10   6  10  1   
 11   6  28  1   
 12   6  29  1   
 13   7  11  1   
 14   7  30  1   
 15   7  31  1   
 16   8  32  1   
 17   9  12  1   
 18   9  33  1   
 19   9  34  1   
 20  10  12  1   
 21  10  13  1   
 22  10  35  1   
 23  11  14  1   
 24  11  15  1   
 25  11  36  1   
 26  12  37  1   
 27  12  38  1   
 28  13  16  1   
 29  13  39  1   
 30  13  40  1   
 31  14  15  1   
 32  14  41  1   
 33  14  42  1   
 34  15  43  1   
 35  15  44  1   
 36  16  17  1   
 37  16  45  1   
 38  16  46  1   
 39  17  18  1   
 40  18  19  ar  
 41  18  20  ar  
 42  19  21  1   
 43  19  22  ar  
 44  20  23  ar  
 45  20  47  1   
 46  21  24  1   
 47  22  25  ar  
 48  22  48  1   
 49  23  25  ar  
 50  23  49  1   
 51  24  50  1   
 52  24  51  1   
 53  24  52  1   
 54  25  26  1   
 55  26  53  1   
 56  26  54  1   
 57  26  55  1   
@<TRIPOS>SUBSTRUCTURE
  1 ****  10 GROUP 4 **** **** 0

# MOE 2024.06 (io_trps.svl 2023.06)
