@<TRIPOS>MOLECULE
NONAME
45 46 1 0 0 
SMALL
USER_CHARGES


@<TRIPOS>ATOM
  1 S        1.3400     1.5470     0.8680 S.o2  1 <1>   1.3330 
  2 O        1.4690     2.4390     1.9990 O.2   1 <1>  -0.6500 
  3 O        0.0270     1.2370     0.3490 O.2   1 <1>  -0.6500 
  4 N        2.0820     0.0810     1.3010 N.am  1 <1>  -0.8490 
  5 C        2.3360     2.1610    -0.4930 C.3   1 <1>  -0.0550 
  6 C        1.1500    -0.8260     1.9760 C.3   1 <1>   0.1160 
  7 C        3.2800     0.2600     2.1310 C.3   1 <1>   0.1160 
  8 C        2.2790     1.3050    -1.7800 C.3   1 <1>  -0.0800 
  9 C        2.9430     1.9340    -3.0030 C.3   1 <1>   0.2200 
 10 C        2.9790    -0.0570    -1.6660 C.3   1 <1>   0.1200 
 11 N        4.1810     2.6420    -2.6070 N.am  1 <1>  -0.7300 
 12 C        3.3190     0.6930    -3.7980 C.3   1 <1>   0.1200 
 13 O        3.7190    -0.2340    -2.8380 O.3   1 <1>  -0.5600 
 14 C        4.3400     3.9890    -2.5830 C.2   1 <1>   0.5690 
 15 O        3.5430     4.7340    -3.0980 O.2   1 <1>  -0.5700 
 16 C        5.5140     4.5630    -1.8130 C.3   1 <1>   0.0440 
 17 C        5.3430     4.2310    -0.3360 C.ar  1 <1>  -0.1440 
 18 C        4.3640     4.8880     0.3960 C.ar  1 <1>  -0.1500 
 19 C        6.1150     3.2470     0.2740 C.ar  1 <1>  -0.1500 
 20 C        4.1540     4.5240     1.7110 C.ar  1 <1>   0.1900 
 21 C        5.8930     2.8910     1.5960 C.ar  1 <1>  -0.1500 
 22 F        3.2270     5.1440     2.3970 F     1 <1>  -0.1900 
 23 C        4.8900     3.5160     2.3180 C.ar  1 <1>   0.0820 
 24 O        4.6260     3.1230     3.5780 O.3   1 <1>  -0.5330 
 25 H        1.9930     3.1480    -0.7360 H     1 <1>   0.0800 
 26 H        3.3520     2.2490    -0.1650 H     1 <1>   0.0800 
 27 H        1.6410    -1.7500     2.2270 H     1 <1>   0.0800 
 28 H        0.3200    -1.0530     1.3270 H     1 <1>   0.0800 
 29 H        0.7700    -0.3700     2.8760 H     1 <1>   0.0800 
 30 H        3.7440    -0.6920     2.3230 H     1 <1>   0.0800 
 31 H        3.0270     0.7210     3.0710 H     1 <1>   0.0800 
 32 H        3.9930     0.8840     1.6220 H     1 <1>   0.0800 
 33 H        1.2470     1.1220    -2.0240 H     1 <1>   0.0800 
 34 H        2.2840     2.5880    -3.5500 H     1 <1>   0.0800 
 35 H        2.2680    -0.8610    -1.5770 H     1 <1>   0.0800 
 36 H        3.6690    -0.0930    -0.8420 H     1 <1>   0.0800 
 37 H        4.8830     2.0270    -2.1890 H     1 <1>   0.3700 
 38 H        4.1200     0.8690    -4.4940 H     1 <1>   0.0800 
 39 H        2.4630     0.2920    -4.3120 H     1 <1>   0.0800 
 40 H        6.4270     4.1530    -2.2000 H     1 <1>   0.0800 
 41 H        5.5400     5.6300    -1.9480 H     1 <1>   0.0800 
 42 H        3.7580     5.6610    -0.0450 H     1 <1>   0.1500 
 43 H        6.8910     2.7450    -0.2780 H     1 <1>   0.1500 
 44 H        6.4860     2.1280     2.0680 H     1 <1>   0.1500 
 45 H        3.8400     3.5870     3.9330 H     1 <1>   0.4500 
@<TRIPOS>BOND
  1   1   2  2   
  2   1   3  2   
  3   1   4  am  
  4   1   5  1   
  5   4   6  1   
  6   4   7  1   
  7   5   8  1   
  8   5  25  1   
  9   5  26  1   
 10   6  27  1   
 11   6  28  1   
 12   6  29  1   
 13   7  30  1   
 14   7  31  1   
 15   7  32  1   
 16   8   9  1   
 17   8  10  1   
 18   8  33  1   
 19   9  11  1   
 20   9  12  1   
 21   9  34  1   
 22  10  13  1   
 23  10  35  1   
 24  10  36  1   
 25  11  14  am  
 26  11  37  1   
 27  12  13  1   
 28  12  38  1   
 29  12  39  1   
 30  14  15  2   
 31  14  16  1   
 32  16  17  1   
 33  16  40  1   
 34  16  41  1   
 35  17  18  ar  
 36  17  19  ar  
 37  18  20  ar  
 38  18  42  1   
 39  19  21  ar  
 40  19  43  1   
 41  20  22  1   
 42  20  23  ar  
 43  21  23  ar  
 44  21  44  1   
 45  23  24  1   
 46  24  45  1   
@<TRIPOS>SUBSTRUCTURE
  1 ****   5 GROUP 4 **** **** 0

# MOE 2024.06 (io_trps.svl 2023.06)
