@<TRIPOS>MOLECULE
NONAME
53 56 1 0 0 
SMALL
USER_CHARGES


@<TRIPOS>ATOM
  1 O       -1.4920     0.8150     3.4900 O.2   1 <1>  -0.5700 
  2 C       -1.8540     1.2410     2.4170 C.2   1 <1>   0.5690 
  3 N       -2.3990     0.4140     1.4660 N.am  1 <1>  -0.6600 
  4 C       -1.6880     2.7380     2.1790 C.3   1 <1>   0.0440 
  5 C       -2.8410     0.8270     0.0970 C.3   1 <1>   0.1400 
  6 C       -2.5460    -1.0560     1.7020 C.3   1 <1>   0.1400 
  7 C       -0.7220     3.0840     1.0470 C.ar  1 <1>  -0.1440 
  8 C       -4.2570     0.3030    -0.2120 C.3   1 <1>   0.1900 
  9 C       -3.9630    -1.5370     1.3490 C.3   1 <1>   0.1100 
 10 C        0.4900     2.4200     0.9290 C.ar  1 <1>  -0.1500 
 11 C       -1.0460     4.0710     0.1270 C.ar  1 <1>  -0.1500 
 12 N       -4.3320    -1.1680    -0.0360 N.3   1 <1>  -0.8100 
 13 C       -4.6770     0.6980    -1.6410 C.3   1 <1>   0.1200 
 14 C        1.3660     2.7290    -0.0970 C.ar  1 <1>  -0.1500 
 15 C       -0.1720     4.3810    -0.9000 C.ar  1 <1>  -0.1500 
 16 C       -5.6860    -1.6530    -0.3970 C.3   1 <1>   0.3330 
 17 O       -5.9670     0.2320    -1.9170 O.3   1 <1>  -0.5600 
 18 C        1.0370     3.7160    -1.0210 C.ar  1 <1>   0.0820 
 19 C       -5.7540    -3.1790    -0.3560 C.ar  1 <1>  -0.1440 
 20 C       -6.0850    -1.1620    -1.8060 C.3   1 <1>   0.1200 
 21 O        1.8360     4.0830    -2.0540 O.3   1 <1>  -0.3630 
 22 C       -4.7720    -3.9530    -0.9590 C.ar  1 <1>  -0.1500 
 23 C       -6.8110    -3.8110     0.2840 C.ar  1 <1>  -0.1500 
 24 C        3.1060     3.4990    -2.2390 C.3   1 <1>   0.0400 
 25 C       -4.8430    -5.3340    -0.9240 C.ar  1 <1>  -0.1500 
 26 C       -6.8840    -5.1930     0.3210 C.ar  1 <1>  -0.1500 
 27 C       -5.9000    -5.9550    -0.2830 C.ar  1 <1>  -0.1500 
 28 H       -2.6570     3.1570     1.9880 H     1 <1>   0.0800 
 29 H       -1.3200     3.1880     3.0840 H     1 <1>   0.0800 
 30 H       -2.8420     1.8960     0.0000 H     1 <1>   0.0800 
 31 H       -2.1500     0.4300    -0.6260 H     1 <1>   0.0800 
 32 H       -1.8340    -1.5830     1.0910 H     1 <1>   0.0800 
 33 H       -2.3410    -1.2980     2.7300 H     1 <1>   0.0800 
 34 H       -4.9400     0.7790     0.4720 H     1 <1>   0.0800 
 35 H       -4.6640    -1.1090     2.0450 H     1 <1>   0.0800 
 36 H       -3.9930    -2.6070     1.4620 H     1 <1>   0.0800 
 37 H        0.7590     1.6560     1.6390 H     1 <1>   0.1500 
 38 H       -1.9750     4.6070     0.2040 H     1 <1>   0.1500 
 39 H       -3.9970     0.2820    -2.3650 H     1 <1>   0.0800 
 40 H       -4.6880     1.7680    -1.7480 H     1 <1>   0.0800 
 41 H        2.2940     2.1940    -0.1590 H     1 <1>   0.1500 
 42 H       -0.4190     5.1460    -1.6140 H     1 <1>   0.1500 
 43 H       -6.3980    -1.2520     0.3040 H     1 <1>   0.0800 
 44 H       -7.1070    -1.4230    -2.0090 H     1 <1>   0.0800 
 45 H       -5.4590    -1.6200    -2.5510 H     1 <1>   0.0800 
 46 H       -3.9440    -3.4730    -1.4530 H     1 <1>   0.1500 
 47 H       -7.5840    -3.2320     0.7580 H     1 <1>   0.1500 
 48 H        3.5590     3.9520    -3.1030 H     1 <1>   0.0800 
 49 H        2.9850     2.4430    -2.4010 H     1 <1>   0.0800 
 50 H        3.7080     3.6900    -1.3680 H     1 <1>   0.0800 
 51 H       -4.0760    -5.9240    -1.3940 H     1 <1>   0.1500 
 52 H       -7.7060    -5.6750     0.8190 H     1 <1>   0.1500 
 53 H       -5.9570    -7.0290    -0.2550 H     1 <1>   0.1500 
@<TRIPOS>BOND
  1   1   2  2   
  2   2   3  am  
  3   2   4  1   
  4   3   5  1   
  5   3   6  1   
  6   4   7  1   
  7   4  28  1   
  8   4  29  1   
  9   5   8  1   
 10   5  30  1   
 11   5  31  1   
 12   6   9  1   
 13   6  32  1   
 14   6  33  1   
 15   7  10  ar  
 16   7  11  ar  
 17   8  12  1   
 18   8  13  1   
 19   8  34  1   
 20   9  12  1   
 21   9  35  1   
 22   9  36  1   
 23  10  14  ar  
 24  10  37  1   
 25  11  15  ar  
 26  11  38  1   
 27  12  16  1   
 28  13  17  1   
 29  13  39  1   
 30  13  40  1   
 31  14  18  ar  
 32  14  41  1   
 33  15  18  ar  
 34  15  42  1   
 35  16  19  1   
 36  16  20  1   
 37  16  43  1   
 38  17  20  1   
 39  18  21  1   
 40  19  22  ar  
 41  19  23  ar  
 42  20  44  1   
 43  20  45  1   
 44  21  24  1   
 45  22  25  ar  
 46  22  46  1   
 47  23  26  ar  
 48  23  47  1   
 49  24  48  1   
 50  24  49  1   
 51  24  50  1   
 52  25  27  ar  
 53  25  51  1   
 54  26  27  ar  
 55  26  52  1   
 56  27  53  1   
@<TRIPOS>SUBSTRUCTURE
  1 ****   5 GROUP 4 **** **** 0

# MOE 2024.06 (io_trps.svl 2023.06)
