@<TRIPOS>MOLECULE
NONAME
54 57 1 0 0 
SMALL
USER_CHARGES


@<TRIPOS>ATOM
  1 O        0.2610    -0.6100     2.0120 O.2   1 <1>  -0.5700 
  2 C        0.8540    -0.9240     1.0060 C.2   1 <1>   0.5690 
  3 N        1.5370    -0.0540     0.2160 N.am  1 <1>  -0.4930 
  4 C        0.8710    -2.3890     0.6380 C.3   1 <1>  -0.0990 
  5 C        1.8040     1.3310     0.3590 C.2   1 <1>   0.0630 
  6 C       -0.4820    -2.8530     0.0820 C.3   1 <1>   0.2440 
  7 C        3.0040     1.9180    -0.0580 C.2   1 <1>   0.3720 
  8 C        1.0690     2.3530     0.8520 C.2   1 <1>  -0.3320 
  9 C       -0.5840    -4.3790     0.1770 C.ar  1 <1>  -0.1440 
 10 C       -0.7050    -2.3800    -1.3550 C.2   1 <1>  -0.0400 
 11 N        3.0420     3.1920     0.1760 N.2   1 <1>  -0.7070 
 12 N        4.0610     1.2080    -0.6610 N.pl3 1 <1>  -0.8210 
 13 N        1.8470     3.4600     0.7480 N.pl3 1 <1>   0.3140 
 14 C       -0.3480     2.3520     1.4060 C.3   1 <1>  -0.0600 
 15 C       -1.6240    -4.9610     0.8880 C.ar  1 <1>  -0.1500 
 16 C        0.3530    -5.2020    -0.4360 C.ar  1 <1>  -0.1500 
 17 O       -0.6440    -1.0890    -1.6200 O.3   1 <1>  -0.2800 
 18 C       -0.9820    -3.0700    -2.4860 C.2   1 <1>  -0.1500 
 19 C        5.2200     1.0830     0.2630 C.3   1 <1>   0.2090 
 20 C        4.5410     1.8510    -1.9170 C.3   1 <1>   0.2090 
 21 C        1.5070     4.8240     1.1720 C.3   1 <1>   0.0160 
 22 C       -1.7260    -6.3380     0.9860 C.ar  1 <1>  -0.1500 
 23 C        0.2530    -6.5790    -0.3390 C.ar  1 <1>  -0.1500 
 24 C       -0.8690    -0.9250    -2.9070 C.2   1 <1>  -0.0100 
 25 C       -1.0870    -2.1150    -3.5050 C.2   1 <1>  -0.1500 
 26 C        6.4610     1.3270    -0.5820 C.3   1 <1>  -0.1600 
 27 C        5.9780     2.2810    -1.6600 C.3   1 <1>  -0.1600 
 28 C       -0.7870    -7.1480     0.3730 C.ar  1 <1>  -0.1500 
 29 H        2.0870    -0.4520    -0.5460 H     1 <1>   0.3700 
 30 H        1.0900    -2.9420     1.5330 H     1 <1>   0.0800 
 31 H        1.6510    -2.5850    -0.0740 H     1 <1>   0.0800 
 32 H       -1.2600    -2.4210     0.6880 H     1 <1>   0.0800 
 33 H       -0.8700     1.4680     1.0890 H     1 <1>   0.0800 
 34 H       -0.8970     3.2040     1.0480 H     1 <1>   0.0800 
 35 H       -0.3230     2.3680     2.4800 H     1 <1>   0.0800 
 36 H       -2.3640    -4.3470     1.3720 H     1 <1>   0.1500 
 37 H        1.1650    -4.7750    -0.9980 H     1 <1>   0.1500 
 38 H       -1.1100    -4.1310    -2.6140 H     1 <1>   0.1500 
 39 H        5.2370     0.1050     0.7110 H     1 <1>   0.0800 
 40 H        5.1560     1.8260     1.0420 H     1 <1>   0.0800 
 41 H        3.9290     2.6920    -2.2000 H     1 <1>   0.0800 
 42 H        4.5100     1.1210    -2.7060 H     1 <1>   0.0800 
 43 H        1.1480     4.8000     2.1830 H     1 <1>   0.0800 
 44 H        0.7510     5.2150     0.5190 H     1 <1>   0.0800 
 45 H        2.3860     5.4380     1.1160 H     1 <1>   0.0800 
 46 H       -2.5360    -6.7790     1.5400 H     1 <1>   0.1500 
 47 H        0.9830    -7.2070    -0.8170 H     1 <1>   0.1500 
 48 H       -0.8570     0.0720    -3.3110 H     1 <1>   0.1500 
 49 H       -1.3000    -2.3220    -4.5380 H     1 <1>   0.1500 
 50 H        6.7750     0.3970    -1.0220 H     1 <1>   0.0800 
 51 H        7.2660     1.7370     0.0010 H     1 <1>   0.0800 
 52 H        5.9710     3.2890    -1.2820 H     1 <1>   0.0800 
 53 H        6.5770     2.2400    -2.5520 H     1 <1>   0.0800 
 54 H       -0.8670    -8.2180     0.4500 H     1 <1>   0.1500 
@<TRIPOS>BOND
  1   1   2  2   
  2   2   3  am  
  3   2   4  1   
  4   3   5  1   
  5   3  29  1   
  6   4   6  1   
  7   4  30  1   
  8   4  31  1   
  9   5   7  1   
 10   5   8  2   
 11   6   9  1   
 12   6  10  1   
 13   6  32  1   
 14   7  11  2   
 15   7  12  1   
 16   8  13  1   
 17   8  14  1   
 18   9  15  ar  
 19   9  16  ar  
 20  10  17  1   
 21  10  18  2   
 22  11  13  1   
 23  12  19  1   
 24  12  20  1   
 25  13  21  1   
 26  14  33  1   
 27  14  34  1   
 28  14  35  1   
 29  15  22  ar  
 30  15  36  1   
 31  16  23  ar  
 32  16  37  1   
 33  17  24  1   
 34  18  25  1   
 35  18  38  1   
 36  19  26  1   
 37  19  39  1   
 38  19  40  1   
 39  20  27  1   
 40  20  41  1   
 41  20  42  1   
 42  21  43  1   
 43  21  44  1   
 44  21  45  1   
 45  22  28  ar  
 46  22  46  1   
 47  23  28  ar  
 48  23  47  1   
 49  24  25  2   
 50  24  48  1   
 51  25  49  1   
 52  26  27  1   
 53  26  50  1   
 54  26  51  1   
 55  27  52  1   
 56  27  53  1   
 57  28  54  1   
@<TRIPOS>SUBSTRUCTURE
  1 ****   3 GROUP 4 **** **** 0

# MOE 2024.06 (io_trps.svl 2023.06)
