@<TRIPOS>MOLECULE
NONAME
41 43 1 0 0 
SMALL
USER_CHARGES


@<TRIPOS>ATOM
  1 CL      -0.6330    -0.3310     1.0870 Cl    1 <1>  -0.1770 
  2 C       -2.3280    -0.6770     1.3450 C.ar  1 <1>   0.1770 
  3 C       -2.7900    -1.1000     2.5790 C.ar  1 <1>   0.1900 
  4 C       -3.2140    -0.5220     0.2950 C.ar  1 <1>  -0.1500 
  5 F       -1.9590    -1.2470     3.5760 F     1 <1>  -0.1900 
  6 C       -4.1280    -1.3730     2.7840 C.ar  1 <1>  -0.1500 
  7 C       -4.5710    -0.7860     0.4690 C.ar  1 <1>  -0.0090 
  8 C       -5.0080    -1.2140     1.7230 C.ar  1 <1>  -0.1500 
  9 S       -5.7480    -0.5820    -0.8980 S.o2  1 <1>   1.4470 
 10 O       -6.3830    -1.8550    -1.1530 O.2   1 <1>  -0.6500 
 11 O       -5.1290     0.1410    -1.9880 O.2   1 <1>  -0.6500 
 12 N       -6.9170     0.4450    -0.2190 N.am  1 <1>  -0.8490 
 13 C       -8.2190     0.3240    -0.9060 C.3   1 <1>   0.1960 
 14 C       -6.4750     1.8450    -0.1900 C.3   1 <1>   0.1960 
 15 C       -9.3310     1.1280    -0.1810 C.3   1 <1>   0.0000 
 16 C       -7.4860     2.7110     0.5690 C.3   1 <1>  -0.1600 
 17 C       -9.7390     0.4890     1.1670 C.3   1 <1>   0.2000 
 18 C       -8.8920     2.6000    -0.0400 C.3   1 <1>  -0.1600 
 19 C      -10.6390     1.0210    -0.9780 C.3   1 <1>  -0.1600 
 20 O       -8.6530    -0.0180     1.8480 O.3   1 <1>  -0.6800 
 21 C      -10.7180    -0.6350     0.8280 C.3   1 <1>  -0.1600 
 22 C      -11.2630    -0.3170    -0.5710 C.3   1 <1>  -0.1600 
 23 H       -2.8440    -0.1940    -0.6620 H     1 <1>   0.1500 
 24 H       -4.4730    -1.7020     3.7490 H     1 <1>   0.1500 
 25 H       -6.0560    -1.4270     1.8720 H     1 <1>   0.1500 
 26 H       -8.1180     0.6720    -1.9210 H     1 <1>   0.0800 
 27 H       -8.5130    -0.7120    -0.9460 H     1 <1>   0.0800 
 28 H       -5.5170     1.9150     0.3000 H     1 <1>   0.0800 
 29 H       -6.3640     2.2170    -1.1960 H     1 <1>   0.0800 
 30 H       -7.5040     2.4100     1.6020 H     1 <1>   0.0800 
 31 H       -7.1640     3.7360     0.5390 H     1 <1>   0.0800 
 32 H      -10.2250     1.2140     1.7990 H     1 <1>   0.0800 
 33 H       -8.8800     3.0570    -1.0150 H     1 <1>   0.0800 
 34 H       -9.5940     3.1460     0.5670 H     1 <1>   0.0800 
 35 H      -11.3070     1.8130    -0.6820 H     1 <1>   0.0800 
 36 H      -10.4860     1.0860    -2.0420 H     1 <1>   0.0800 
 37 H       -7.8730     0.0870     1.2430 H     1 <1>   0.4000 
 38 H      -10.2170    -1.5890     0.8160 H     1 <1>   0.0800 
 39 H      -11.5120    -0.6610     1.5530 H     1 <1>   0.0800 
 40 H      -10.9600    -1.0890    -1.2580 H     1 <1>   0.0800 
 41 H      -12.3390    -0.2600    -0.5710 H     1 <1>   0.0800 
@<TRIPOS>BOND
  1   1   2  1   
  2   2   3  ar  
  3   2   4  ar  
  4   3   5  1   
  5   3   6  ar  
  6   4   7  ar  
  7   4  23  1   
  8   6   8  ar  
  9   6  24  1   
 10   7   8  ar  
 11   7   9  1   
 12   8  25  1   
 13   9  10  2   
 14   9  11  2   
 15   9  12  am  
 16  12  13  1   
 17  12  14  1   
 18  13  15  1   
 19  13  26  1   
 20  13  27  1   
 21  14  16  1   
 22  14  28  1   
 23  14  29  1   
 24  15  17  1   
 25  15  18  1   
 26  15  19  1   
 27  16  18  1   
 28  16  30  1   
 29  16  31  1   
 30  17  20  1   
 31  17  21  1   
 32  17  32  1   
 33  18  33  1   
 34  18  34  1   
 35  19  22  1   
 36  19  35  1   
 37  19  36  1   
 38  20  37  1   
 39  21  22  1   
 40  21  38  1   
 41  21  39  1   
 42  22  40  1   
 43  22  41  1   
@<TRIPOS>SUBSTRUCTURE
  1 ****  12 GROUP 4 **** **** 0

# MOE 2024.06 (io_trps.svl 2023.06)
