@<TRIPOS>MOLECULE
NONAME
49 51 1 0 0 
SMALL
USER_CHARGES


@<TRIPOS>ATOM
  1 O        0.6870     4.1440     1.7290 O.2   1 <1>  -0.5700 
  2 C        0.2590     3.2910     0.9860 C.2   1 <1>   0.5690 
  3 N        0.6280     3.2420    -0.3310 N.am  1 <1>  -0.6600 
  4 C       -0.7380     2.2940     1.5530 C.3   1 <1>  -0.0990 
  5 C        0.0750     2.2780    -1.3220 C.3   1 <1>   0.1400 
  6 C        1.6430     4.2050    -0.8790 C.3   1 <1>   0.2010 
  7 C       -0.9940     1.0910     0.6360 C.3   1 <1>  -0.1600 
  8 C       -1.1850     1.5780    -0.8030 C.3   1 <1>  -0.1600 
  9 C        1.0650     5.5910    -1.1510 C.2   1 <1>   0.5690 
 10 O        0.9430     5.9620    -2.2980 O.2   1 <1>  -0.5700 
 11 N        0.7120     6.3450    -0.0700 N.am  1 <1>  -0.4940 
 12 C        0.3160     7.6970     0.0320 C.2   1 <1>  -0.0880 
 13 N        0.8170     8.7580    -0.6660 N.pl3 1 <1>   0.3140 
 14 C       -0.6100     8.1980     0.8820 C.2   1 <1>  -0.1810 
 15 N        0.2220     9.9170    -0.2800 N.2   1 <1>  -0.7070 
 16 C        1.9240     8.7830    -1.6540 C.3   1 <1>   0.2390 
 17 C       -0.6240     9.5660     0.6370 C.2   1 <1>   0.1390 
 18 C       -1.4650     7.4640     1.8980 C.3   1 <1>  -0.0590 
 19 C        3.1910     8.0910    -1.1480 C.ar  1 <1>  -0.1440 
 20 C        3.6750     8.3360     0.1290 C.ar  1 <1>  -0.1500 
 21 C        3.8690     7.2020    -1.9680 C.ar  1 <1>  -0.1500 
 22 C        4.8140     7.6970     0.5900 C.ar  1 <1>  -0.1440 
 23 C        5.0090     6.5620    -1.5150 C.ar  1 <1>  -0.1500 
 24 C        5.4790     6.8080    -0.2370 C.ar  1 <1>  -0.1500 
 25 C        5.3180     7.9690     1.9950 C.3   1 <1>  -0.0970 
 26 H       -1.6610     2.8200     1.7150 H     1 <1>   0.0800 
 27 H       -0.3830     1.9520     2.5080 H     1 <1>   0.0800 
 28 H        0.8300     1.5400    -1.5370 H     1 <1>   0.0800 
 29 H       -0.1590     2.7970    -2.2370 H     1 <1>   0.0800 
 30 H        2.0600     3.8190    -1.7910 H     1 <1>   0.0800 
 31 H        2.4490     4.3110    -0.1740 H     1 <1>   0.0800 
 32 H       -1.8670     0.5560     0.9690 H     1 <1>   0.0800 
 33 H       -0.1520     0.4200     0.6780 H     1 <1>   0.0800 
 34 H       -1.4150     0.7450    -1.4440 H     1 <1>   0.0800 
 35 H       -2.0140     2.2630    -0.8510 H     1 <1>   0.0800 
 36 H        0.7020     5.8110     0.8130 H     1 <1>   0.3700 
 37 H        2.1510     9.8100    -1.8700 H     1 <1>   0.0800 
 38 H        1.5740     8.3250    -2.5580 H     1 <1>   0.0800 
 39 H       -1.2620    10.2670     1.1480 H     1 <1>   0.1500 
 40 H       -1.2720     6.4070     1.8630 H     1 <1>   0.0800 
 41 H       -2.5050     7.6310     1.6880 H     1 <1>   0.0800 
 42 H       -1.2440     7.8210     2.8880 H     1 <1>   0.0800 
 43 H        3.1550     9.0260     0.7730 H     1 <1>   0.1500 
 44 H        3.5070     7.0000    -2.9620 H     1 <1>   0.1500 
 45 H        5.5300     5.8730    -2.1570 H     1 <1>   0.1500 
 46 H        6.3640     6.3040     0.1090 H     1 <1>   0.1500 
 47 H        5.1710     9.0030     2.2500 H     1 <1>   0.0800 
 48 H        6.3670     7.7460     2.0730 H     1 <1>   0.0800 
 49 H        4.7790     7.3580     2.6970 H     1 <1>   0.0800 
@<TRIPOS>BOND
  1   1   2  2   
  2   2   3  am  
  3   2   4  1   
  4   3   5  1   
  5   3   6  1   
  6   4   7  1   
  7   4  26  1   
  8   4  27  1   
  9   5   8  1   
 10   5  28  1   
 11   5  29  1   
 12   6   9  1   
 13   6  30  1   
 14   6  31  1   
 15   7   8  1   
 16   7  32  1   
 17   7  33  1   
 18   8  34  1   
 19   8  35  1   
 20   9  10  2   
 21   9  11  am  
 22  11  12  1   
 23  11  36  1   
 24  12  13  1   
 25  12  14  2   
 26  13  15  1   
 27  13  16  1   
 28  14  17  1   
 29  14  18  1   
 30  15  17  2   
 31  16  19  1   
 32  16  37  1   
 33  16  38  1   
 34  17  39  1   
 35  18  40  1   
 36  18  41  1   
 37  18  42  1   
 38  19  20  ar  
 39  19  21  ar  
 40  20  22  ar  
 41  20  43  1   
 42  21  23  ar  
 43  21  44  1   
 44  22  24  ar  
 45  22  25  1   
 46  23  24  ar  
 47  23  45  1   
 48  24  46  1   
 49  25  47  1   
 50  25  48  1   
 51  25  49  1   
@<TRIPOS>SUBSTRUCTURE
  1 ****  11 GROUP 4 **** **** 0

# MOE 2024.06 (io_trps.svl 2023.06)
