@<TRIPOS>MOLECULE
NONAME
51 53 1 0 0 
SMALL
USER_CHARGES


@<TRIPOS>ATOM
  1 O       -1.3230    -0.2650    -3.3500 O.2   1 <1>  -0.5700 
  2 C       -0.9250     0.7580    -2.8410 C.2   1 <1>   0.5690 
  3 N       -1.7490     1.5390    -2.0630 N.am  1 <1>  -0.6600 
  4 C        0.5230     1.1480    -3.1220 C.3   1 <1>   0.0440 
  5 C       -3.1450     1.0930    -1.7710 C.3   1 <1>   0.1400 
  6 C       -1.3020     2.8040    -1.4050 C.3   1 <1>   0.1400 
  7 C        1.3870     1.3140    -1.8740 C.ar  1 <1>  -0.1440 
  8 C       -3.5630     1.5160    -0.3610 C.3   1 <1>  -0.1600 
  9 C       -2.5050     3.7030    -1.1260 C.3   1 <1>  -0.1600 
 10 C        2.2480     2.3950    -1.7570 C.ar  1 <1>  -0.1500 
 11 C        1.3230     0.3890    -0.8440 C.ar  1 <1>  -0.1500 
 12 C       -3.4830     3.0460    -0.1280 C.3   1 <1>   0.2800 
 13 C        3.0250     2.5510    -0.6230 C.ar  1 <1>  -0.1500 
 14 C        2.0990     0.5460     0.2910 C.ar  1 <1>  -0.1500 
 15 O       -2.9550     3.1850     1.1690 O.3   1 <1>  -0.5600 
 16 C       -4.8840     3.7050    -0.2120 C.3   1 <1>  -0.1600 
 17 C        2.9550     1.6300     0.4090 C.ar  1 <1>  -0.1440 
 18 C       -3.1550     4.3960     1.8410 C.3   1 <1>   0.1200 
 19 C       -5.5590     3.8460     1.1560 C.3   1 <1>   0.2800 
 20 C        3.8130     1.8050     1.6500 C.3   1 <1>   0.2630 
 21 C       -4.6500     4.6430     2.0980 C.3   1 <1>  -0.1600 
 22 O       -5.6960     2.5940     1.6940 O.3   1 <1>  -0.6800 
 23 C       -6.9620     4.4390     1.0610 C.3   1 <1>  -0.2400 
 24 O        5.1200     1.5450     1.2920 O.3   1 <1>  -0.6800 
 25 H        0.5170     2.0550    -3.6960 H     1 <1>   0.0800 
 26 H        0.9660     0.3860    -3.7370 H     1 <1>   0.0800 
 27 H       -3.2140     0.0210    -1.8520 H     1 <1>   0.0800 
 28 H       -3.8110     1.5240    -2.4990 H     1 <1>   0.0800 
 29 H       -0.6110     3.3270    -2.0410 H     1 <1>   0.0800 
 30 H       -0.8030     2.5660    -0.4800 H     1 <1>   0.0800 
 31 H       -2.9110     1.0070     0.3280 H     1 <1>   0.0800 
 32 H       -4.5580     1.1550    -0.1810 H     1 <1>   0.0800 
 33 H       -3.0040     3.8830    -2.0620 H     1 <1>   0.0800 
 34 H       -2.1680     4.6530    -0.7620 H     1 <1>   0.0800 
 35 H        2.3220     3.1210    -2.5470 H     1 <1>   0.1500 
 36 H        0.6630    -0.4600    -0.9190 H     1 <1>   0.1500 
 37 H        3.6930     3.3920    -0.5440 H     1 <1>   0.1500 
 38 H        2.0310    -0.1840     1.0790 H     1 <1>   0.1500 
 39 H       -5.5190     3.1610    -0.8880 H     1 <1>   0.0800 
 40 H       -4.7840     4.6910    -0.6280 H     1 <1>   0.0800 
 41 H       -2.7340     5.1910     1.2530 H     1 <1>   0.0800 
 42 H       -2.6200     4.3460     2.7740 H     1 <1>   0.0800 
 43 H        3.5310     1.1110     2.4230 H     1 <1>   0.0800 
 44 H        3.7580     2.8100     2.0300 H     1 <1>   0.0800 
 45 H       -4.8290     5.6940     1.9630 H     1 <1>   0.0800 
 46 H       -4.8940     4.4170     3.1210 H     1 <1>   0.0800 
 47 H       -4.7890     2.2460     1.8250 H     1 <1>   0.4000 
 48 H       -6.9240     5.4250     0.6360 H     1 <1>   0.0800 
 49 H       -7.4030     4.5050     2.0400 H     1 <1>   0.0800 
 50 H       -7.5840     3.8220     0.4380 H     1 <1>   0.0800 
 51 H        5.1130     0.8750     0.5810 H     1 <1>   0.4000 
@<TRIPOS>BOND
  1   1   2  2   
  2   2   3  am  
  3   2   4  1   
  4   3   5  1   
  5   3   6  1   
  6   4   7  1   
  7   4  25  1   
  8   4  26  1   
  9   5   8  1   
 10   5  27  1   
 11   5  28  1   
 12   6   9  1   
 13   6  29  1   
 14   6  30  1   
 15   7  10  ar  
 16   7  11  ar  
 17   8  12  1   
 18   8  31  1   
 19   8  32  1   
 20   9  12  1   
 21   9  33  1   
 22   9  34  1   
 23  10  13  ar  
 24  10  35  1   
 25  11  14  ar  
 26  11  36  1   
 27  12  15  1   
 28  12  16  1   
 29  13  17  ar  
 30  13  37  1   
 31  14  17  ar  
 32  14  38  1   
 33  15  18  1   
 34  16  19  1   
 35  16  39  1   
 36  16  40  1   
 37  17  20  1   
 38  18  21  1   
 39  18  41  1   
 40  18  42  1   
 41  19  21  1   
 42  19  22  1   
 43  19  23  1   
 44  20  24  1   
 45  20  43  1   
 46  20  44  1   
 47  21  45  1   
 48  21  46  1   
 49  22  47  1   
 50  23  48  1   
 51  23  49  1   
 52  23  50  1   
 53  24  51  1   
@<TRIPOS>SUBSTRUCTURE
  1 ****   6 GROUP 4 **** **** 0

# MOE 2024.06 (io_trps.svl 2023.06)
