@<TRIPOS>MOLECULE
NONAME
53 54 1 0 0 
SMALL
USER_CHARGES


@<TRIPOS>ATOM
  1 S        2.2150    -0.0420     0.5710 S.o2  1 <1>   1.3330 
  2 O        2.1220     0.6540     1.8350 O.2   1 <1>  -0.6500 
  3 O        3.3430    -0.9100     0.3190 O.2   1 <1>  -0.6500 
  4 N        0.8030    -0.9620     0.3690 N.am  1 <1>  -0.8490 
  5 C        2.0740     1.1810    -0.7330 C.3   1 <1>  -0.0550 
  6 C        0.3390    -1.5520     1.6280 C.3   1 <1>   0.1160 
  7 C        0.9320    -2.0070    -0.6540 C.3   1 <1>   0.1160 
  8 C        3.2230     2.2080    -0.7430 C.3   1 <1>  -0.0800 
  9 C        2.9280     3.3530    -1.6980 C.3   1 <1>   0.2200 
 10 C        4.4990     1.6300    -1.3550 C.3   1 <1>   0.1200 
 11 N        3.7280     4.5250    -1.2910 N.am  1 <1>  -0.7300 
 12 C        3.4410     2.8100    -3.0310 C.3   1 <1>   0.1200 
 13 O        4.3740     1.8090    -2.7330 O.3   1 <1>  -0.5600 
 14 C        3.2440     5.7230    -0.8790 C.2   1 <1>   0.5690 
 15 O        2.0640     5.9740    -0.9000 O.2   1 <1>  -0.5700 
 16 C        4.2180     6.7740    -0.3710 C.3   1 <1>   0.0440 
 17 C        5.6110     6.1940    -0.1350 C.ar  1 <1>  -0.1440 
 18 C        6.6040     6.3260    -1.0910 C.ar  1 <1>  -0.1500 
 19 C        5.8810     5.4920     1.0280 C.ar  1 <1>  -0.1500 
 20 C        7.8470     5.7520    -0.8910 C.ar  1 <1>  -0.1500 
 21 C        7.1240     4.9180     1.2260 C.ar  1 <1>  -0.1500 
 22 C        8.1190     5.0390     0.2660 C.ar  1 <1>  -0.1440 
 23 C        9.4940     4.4030     0.4650 C.3   1 <1>   0.0630 
 24 C        9.3770     2.8780     0.5680 C.3   1 <1>  -0.2400 
 25 C       10.1930     4.9810     1.6990 C.3   1 <1>  -0.2400 
 26 H        2.0250     0.6880    -1.6840 H     1 <1>   0.0800 
 27 H        1.1490     1.7060    -0.5890 H     1 <1>   0.0800 
 28 H       -0.5650    -2.1150     1.4660 H     1 <1>   0.0800 
 29 H        0.1270    -0.7750     2.3440 H     1 <1>   0.0800 
 30 H        1.0940    -2.2030     2.0370 H     1 <1>   0.0800 
 31 H       -0.0160    -2.4940    -0.8050 H     1 <1>   0.0800 
 32 H        1.6590    -2.7420    -0.3510 H     1 <1>   0.0800 
 33 H        1.2450    -1.5760    -1.5890 H     1 <1>   0.0800 
 34 H        3.3880     2.5660     0.2600 H     1 <1>   0.0800 
 35 H        1.8830     3.6150    -1.7420 H     1 <1>   0.0800 
 36 H        4.6510     0.5850    -1.1500 H     1 <1>   0.0800 
 37 H        5.3630     2.1850    -1.0310 H     1 <1>   0.0800 
 38 H        4.7410     4.3740    -1.2380 H     1 <1>   0.3700 
 39 H        3.9100     3.5710    -3.6290 H     1 <1>   0.0800 
 40 H        2.6430     2.3510    -3.5860 H     1 <1>   0.0800 
 41 H        4.2630     7.5720    -1.0880 H     1 <1>   0.0800 
 42 H        3.8350     7.1800     0.5460 H     1 <1>   0.0800 
 43 H        6.4160     6.8700    -2.0010 H     1 <1>   0.1500 
 44 H        5.1230     5.3790     1.7840 H     1 <1>   0.1500 
 45 H        8.6040     5.8640    -1.6480 H     1 <1>   0.1500 
 46 H        7.3120     4.3730     2.1340 H     1 <1>   0.1500 
 47 H       10.1050     4.6270    -0.3930 H     1 <1>   0.0800 
 48 H        8.8120     2.5940     1.4380 H     1 <1>   0.0800 
 49 H       10.3540     2.4340     0.6320 H     1 <1>   0.0800 
 50 H        8.8810     2.4900    -0.3040 H     1 <1>   0.0800 
 51 H        9.6510     4.7400     2.5950 H     1 <1>   0.0800 
 52 H       10.2560     6.0510     1.6140 H     1 <1>   0.0800 
 53 H       11.1890     4.5840     1.7830 H     1 <1>   0.0800 
@<TRIPOS>BOND
  1   1   2  2   
  2   1   3  2   
  3   1   4  am  
  4   1   5  1   
  5   4   6  1   
  6   4   7  1   
  7   5   8  1   
  8   5  26  1   
  9   5  27  1   
 10   6  28  1   
 11   6  29  1   
 12   6  30  1   
 13   7  31  1   
 14   7  32  1   
 15   7  33  1   
 16   8   9  1   
 17   8  10  1   
 18   8  34  1   
 19   9  11  1   
 20   9  12  1   
 21   9  35  1   
 22  10  13  1   
 23  10  36  1   
 24  10  37  1   
 25  11  14  am  
 26  11  38  1   
 27  12  13  1   
 28  12  39  1   
 29  12  40  1   
 30  14  15  2   
 31  14  16  1   
 32  16  17  1   
 33  16  41  1   
 34  16  42  1   
 35  17  18  ar  
 36  17  19  ar  
 37  18  20  ar  
 38  18  43  1   
 39  19  21  ar  
 40  19  44  1   
 41  20  22  ar  
 42  20  45  1   
 43  21  22  ar  
 44  21  46  1   
 45  22  23  1   
 46  23  24  1   
 47  23  25  1   
 48  23  47  1   
 49  24  48  1   
 50  24  49  1   
 51  24  50  1   
 52  25  51  1   
 53  25  52  1   
 54  25  53  1   
@<TRIPOS>SUBSTRUCTURE
  1 ****   8 GROUP 4 **** **** 0

# MOE 2024.06 (io_trps.svl 2023.06)
