@<TRIPOS>MOLECULE
NONAME
37 38 1 0 0 
SMALL
USER_CHARGES


@<TRIPOS>ATOM
  1 CL      -3.1730     1.1570    -0.7030 Cl    1 <1>  -0.1770 
  2 C       -3.5900    -0.4920    -0.2940 C.ar  1 <1>   0.1770 
  3 C       -3.7400    -1.4480    -1.2700 C.ar  1 <1>   0.1600 
  4 C       -3.7800    -0.8720     1.0130 C.ar  1 <1>   0.1600 
  5 N       -4.0560    -2.6920    -0.9770 N.ar  1 <1>  -0.6200 
  6 N       -4.0970    -2.1090     1.3340 N.ar  1 <1>  -0.6200 
  7 C       -4.2180    -2.9530     0.3180 C.ar  1 <1>   0.7200 
  8 N       -4.5660    -4.2060     0.6720 N.pl3 1 <1>  -0.8690 
  9 C       -4.4690    -5.4130    -0.1830 C.3   1 <1>   0.2890 
 10 C       -5.8550    -5.8910    -0.5800 C.3   1 <1>  -0.0800 
 11 C       -3.9900    -6.5940     0.6530 C.3   1 <1>   0.1200 
 12 C       -6.2860    -6.7120     0.6400 C.3   1 <1>   0.1200 
 13 C       -6.8280    -4.7610    -0.9860 C.3   1 <1>  -0.0550 
 14 O       -5.1190    -7.0730     1.3220 O.3   1 <1>  -0.5600 
 15 S       -8.4020    -5.3330    -1.6250 S.o2  1 <1>   1.3330 
 16 O       -9.1970    -4.1940    -2.0240 O.2   1 <1>  -0.6500 
 17 O       -8.1400    -6.3890    -2.5770 O.2   1 <1>  -0.6500 
 18 N       -9.1650    -6.0280    -0.2750 N.am  1 <1>  -0.8490 
 19 C      -10.1680    -7.0230    -0.6640 C.3   1 <1>   0.1160 
 20 C       -9.7720    -5.0380     0.6230 C.3   1 <1>   0.1160 
 21 H       -3.5970    -1.1810    -2.3030 H     1 <1>   0.1500 
 22 H       -3.6700    -0.1470     1.8000 H     1 <1>   0.1500 
 23 H       -4.6150    -4.3740     1.6770 H     1 <1>   0.4000 
 24 H       -3.8290    -5.2380    -1.0320 H     1 <1>   0.0800 
 25 H       -5.7490    -6.5680    -1.4100 H     1 <1>   0.0800 
 26 H       -3.2340    -6.3190     1.3670 H     1 <1>   0.0800 
 27 H       -3.6270    -7.3830     0.0190 H     1 <1>   0.0800 
 28 H       -6.8210    -7.6030     0.3580 H     1 <1>   0.0800 
 29 H       -6.8840    -6.1270     1.3160 H     1 <1>   0.0800 
 30 H       -6.3520    -4.1750    -1.7480 H     1 <1>   0.0800 
 31 H       -7.0000    -4.1120    -0.1510 H     1 <1>   0.0800 
 32 H      -10.6230    -7.4560     0.2100 H     1 <1>   0.0800 
 33 H       -9.7020    -7.8150    -1.2280 H     1 <1>   0.0800 
 34 H      -10.9300    -6.5670    -1.2740 H     1 <1>   0.0800 
 35 H      -10.1670    -5.5260     1.4970 H     1 <1>   0.0800 
 36 H      -10.5710    -4.5140     0.1230 H     1 <1>   0.0800 
 37 H       -9.0340    -4.3210     0.9400 H     1 <1>   0.0800 
@<TRIPOS>BOND
  1   1   2  1   
  2   2   3  ar  
  3   2   4  ar  
  4   3   5  ar  
  5   3  21  1   
  6   4   6  ar  
  7   4  22  1   
  8   5   7  ar  
  9   6   7  ar  
 10   7   8  1   
 11   8   9  1   
 12   8  23  1   
 13   9  10  1   
 14   9  11  1   
 15   9  24  1   
 16  10  12  1   
 17  10  13  1   
 18  10  25  1   
 19  11  14  1   
 20  11  26  1   
 21  11  27  1   
 22  12  14  1   
 23  12  28  1   
 24  12  29  1   
 25  13  15  1   
 26  13  30  1   
 27  13  31  1   
 28  15  16  2   
 29  15  17  2   
 30  15  18  am  
 31  18  19  1   
 32  18  20  1   
 33  19  32  1   
 34  19  33  1   
 35  19  34  1   
 36  20  35  1   
 37  20  36  1   
 38  20  37  1   
@<TRIPOS>SUBSTRUCTURE
  1 ****  13 GROUP 4 **** **** 0

# MOE 2024.06 (io_trps.svl 2023.06)
