@<TRIPOS>MOLECULE
NONAME
32 33 1 0 0 
SMALL
USER_CHARGES


@<TRIPOS>ATOM
  1 O        0.3990     0.3070    -0.5660 O.2   1 <1>  -0.5700 
  2 C        0.8670     1.2740    -0.0200 C.2   1 <1>   0.7200 
  3 O        0.1720     2.3890     0.1620 O.3   1 <1>  -0.4300 
  4 C        2.2920     1.2940     0.5140 C.3   1 <1>  -0.1000 
  5 C       -1.1570     2.5040    -0.2870 C.3   1 <1>   0.1200 
  6 C        3.3720     2.0590    -0.2050 C.3   1 <1>  -0.1950 
  7 C        3.4100     0.5650    -0.1840 C.3   1 <1>  -0.1950 
  8 C       -1.6590     3.9000     0.0710 C.3   1 <1>  -0.2400 
  9 C        4.3560     2.9440     0.5730 C.3   1 <1>  -0.0650 
 10 C        4.4380    -0.2470     0.6170 C.3   1 <1>  -0.0650 
 11 C        5.7480     2.9450    -0.0780 C.3   1 <1>  -0.0220 
 12 C        5.8280    -0.1950    -0.0350 C.3   1 <1>  -0.0220 
 13 C        6.7180     2.0780     0.7090 C.2   1 <1>  -0.2880 
 14 C        6.7520     0.7420     0.7280 C.2   1 <1>  -0.2880 
 15 H        2.3020     1.3080     1.5870 H     1 <1>   0.1000 
 16 H       -1.1720     2.3480    -1.3520 H     1 <1>   0.0800 
 17 H       -1.7470     1.7440     0.1980 H     1 <1>   0.0800 
 18 H        3.1100     2.5020    -1.1510 H     1 <1>   0.1000 
 19 H        3.1630     0.0770    -1.1130 H     1 <1>   0.1000 
 20 H       -1.0530     4.6460    -0.4110 H     1 <1>   0.0800 
 21 H       -1.6270     4.0430     1.1360 H     1 <1>   0.0800 
 22 H       -2.6740     4.0160    -0.2610 H     1 <1>   0.0800 
 23 H        3.9690     3.9470     0.5860 H     1 <1>   0.0800 
 24 H        4.4330     2.6160     1.5950 H     1 <1>   0.0800 
 25 H        4.4970     0.1120     1.6300 H     1 <1>   0.0800 
 26 H        4.1010    -1.2680     0.6570 H     1 <1>   0.0800 
 27 H        6.1310     3.9500    -0.1070 H     1 <1>   0.0800 
 28 H        5.6870     2.5970    -1.0950 H     1 <1>   0.0800 
 29 H        5.7490     0.1200    -1.0610 H     1 <1>   0.0800 
 30 H        6.2610    -1.1800    -0.0360 H     1 <1>   0.0800 
 31 H        7.4030     2.6660     1.2970 H     1 <1>   0.1500 
 32 H        7.4650     0.2050     1.3310 H     1 <1>   0.1500 
@<TRIPOS>BOND
  1   1   2  2   
  2   2   3  1   
  3   2   4  1   
  4   3   5  1   
  5   4   6  1   
  6   4   7  1   
  7   4  15  1   
  8   5   8  1   
  9   5  16  1   
 10   5  17  1   
 11   6   7  1   
 12   6   9  1   
 13   6  18  1   
 14   7  10  1   
 15   7  19  1   
 16   8  20  1   
 17   8  21  1   
 18   8  22  1   
 19   9  11  1   
 20   9  23  1   
 21   9  24  1   
 22  10  12  1   
 23  10  25  1   
 24  10  26  1   
 25  11  13  1   
 26  11  27  1   
 27  11  28  1   
 28  12  14  1   
 29  12  29  1   
 30  12  30  1   
 31  13  14  2   
 32  13  31  1   
 33  14  32  1   
@<TRIPOS>SUBSTRUCTURE
  1 ****   6 GROUP 4 **** **** 0

# MOE 2024.06 (io_trps.svl 2023.06)
