@<TRIPOS>MOLECULE
NONAME
46 48 1 0 0 
SMALL
USER_CHARGES


@<TRIPOS>ATOM
  1 O       -2.1590     0.9620    -2.0670 O.2   1 <1>  -0.5700 
  2 C       -2.0750     1.0950    -0.8720 C.2   1 <1>   0.5690 
  3 N       -2.1860     0.0470    -0.0230 N.am  1 <1>  -0.7300 
  4 C       -1.8280     2.4720    -0.3010 C.3   1 <1>  -0.0990 
  5 C       -2.4030    -1.3560    -0.4380 C.3   1 <1>   0.2200 
  6 C       -0.3410     2.8350    -0.3680 C.3   1 <1>  -0.0160 
  7 C       -3.8300    -1.7600    -0.1050 C.3   1 <1>  -0.0800 
  8 C       -1.6010    -2.2830     0.4670 C.3   1 <1>   0.1200 
  9 C       -0.1080     4.2190     0.2150 C.ar  1 <1>  -0.1440 
 10 C       -3.7180    -2.1820     1.3660 C.3   1 <1>   0.1200 
 11 C       -4.3150    -2.9100    -1.0080 C.3   1 <1>  -0.0160 
 12 O       -2.3670    -2.4400     1.6230 O.3   1 <1>  -0.5600 
 13 C       -0.2420     5.3430    -0.5850 C.ar  1 <1>  -0.1500 
 14 C        0.2360     4.3690     1.5510 C.ar  1 <1>  -0.1500 
 15 C       -5.7520    -3.2980    -0.6920 C.ar  1 <1>  -0.1440 
 16 C       -0.0340     6.6030    -0.0460 C.ar  1 <1>   0.0820 
 17 C        0.4430     5.6300     2.0860 C.ar  1 <1>  -0.1500 
 18 C       -6.8170    -2.5110    -1.0790 C.ar  1 <1>  -0.1500 
 19 C       -6.0670    -4.4540    -0.0050 C.ar  1 <1>  -0.1500 
 20 O       -0.1620     7.6940    -0.8150 O.3   1 <1>  -0.5330 
 21 C        0.3080     6.7510     1.2860 C.ar  1 <1>  -0.1500 
 22 C       -8.1080    -2.9030    -0.7660 C.ar  1 <1>   0.1600 
 23 C       -7.3930    -4.7540     0.2580 C.ar  1 <1>   0.1600 
 24 N       -8.4220    -4.0050    -0.1050 N.ar  1 <1>  -0.6200 
 25 H       -2.1250     0.1790     0.9890 H     1 <1>   0.3700 
 26 H       -2.3980     3.1850    -0.8690 H     1 <1>   0.0800 
 27 H       -2.1680     2.5110     0.7170 H     1 <1>   0.0800 
 28 H       -2.1550    -1.4840    -1.4790 H     1 <1>   0.0800 
 29 H       -0.0110     2.8130    -1.3930 H     1 <1>   0.0800 
 30 H        0.2370     2.1080     0.1750 H     1 <1>   0.0800 
 31 H       -4.5030    -0.9280    -0.2160 H     1 <1>   0.0800 
 32 H       -0.6360    -1.8840     0.7210 H     1 <1>   0.0800 
 33 H       -1.4870    -3.2530     0.0160 H     1 <1>   0.0800 
 34 H       -4.2890    -3.0630     1.5970 H     1 <1>   0.0800 
 35 H       -4.0240    -1.3810     2.0170 H     1 <1>   0.0800 
 36 H       -3.6770    -3.7690    -0.8970 H     1 <1>   0.0800 
 37 H       -4.2640    -2.5990    -2.0380 H     1 <1>   0.0800 
 38 H       -0.5080     5.2370    -1.6200 H     1 <1>   0.1500 
 39 H        0.3440     3.5050     2.1830 H     1 <1>   0.1500 
 40 H        0.7100     5.7400     3.1230 H     1 <1>   0.1500 
 41 H       -6.6560    -1.5970    -1.6220 H     1 <1>   0.1500 
 42 H       -5.2960    -5.1240     0.3290 H     1 <1>   0.1500 
 43 H       -0.3990     7.4840    -1.7340 H     1 <1>   0.4500 
 44 H        0.4660     7.7360     1.6860 H     1 <1>   0.1500 
 45 H       -8.9260    -2.2760    -1.0770 H     1 <1>   0.1500 
 46 H       -7.6200    -5.6590     0.7950 H     1 <1>   0.1500 
@<TRIPOS>BOND
  1   1   2  2   
  2   2   3  am  
  3   2   4  1   
  4   3   5  1   
  5   3  25  1   
  6   4   6  1   
  7   4  26  1   
  8   4  27  1   
  9   5   7  1   
 10   5   8  1   
 11   5  28  1   
 12   6   9  1   
 13   6  29  1   
 14   6  30  1   
 15   7  10  1   
 16   7  11  1   
 17   7  31  1   
 18   8  12  1   
 19   8  32  1   
 20   8  33  1   
 21   9  13  ar  
 22   9  14  ar  
 23  10  12  1   
 24  10  34  1   
 25  10  35  1   
 26  11  15  1   
 27  11  36  1   
 28  11  37  1   
 29  13  16  ar  
 30  13  38  1   
 31  14  17  ar  
 32  14  39  1   
 33  15  18  ar  
 34  15  19  ar  
 35  16  20  1   
 36  16  21  ar  
 37  17  21  ar  
 38  17  40  1   
 39  18  22  ar  
 40  18  41  1   
 41  19  23  ar  
 42  19  42  1   
 43  20  43  1   
 44  21  44  1   
 45  22  24  ar  
 46  22  45  1   
 47  23  24  ar  
 48  23  46  1   
@<TRIPOS>SUBSTRUCTURE
  1 ****   3 GROUP 4 **** **** 0

# MOE 2024.06 (io_trps.svl 2023.06)
