@<TRIPOS>MOLECULE
NONAME
45 47 1 0 0 
SMALL
USER_CHARGES


@<TRIPOS>ATOM
  1 F        0.6730     0.4150    -0.8630 F     1 <1>  -0.1900 
  2 C        1.3510    -0.6880    -0.6480 C.ar  1 <1>   0.1900 
  3 C        2.7440    -0.6580    -0.4570 C.ar  1 <1>   0.1000 
  4 C        0.6090    -1.8540    -0.6230 C.ar  1 <1>  -0.1500 
  5 N        3.5720     0.4900    -0.4670 N.pl3 1 <1>  -0.8380 
  6 C        3.3490    -1.8990    -0.2560 C.ar  1 <1>  -0.1500 
  7 C        1.2500    -3.0610    -0.4070 C.ar  1 <1>  -0.1500 
  8 C        4.6840     0.6250     0.5090 C.3   1 <1>   0.2090 
  9 C        3.1070     1.8370    -0.8790 C.3   1 <1>   0.2090 
 10 C        2.6220    -3.0770    -0.2260 C.ar  1 <1>  -0.1500 
 11 C        4.8600     2.1250     0.7380 C.3   1 <1>  -0.0800 
 12 C        4.2530     2.7660    -0.5110 C.3   1 <1>  -0.1600 
 13 C        6.3240     2.5070     0.9790 C.3   1 <1>   0.2090 
 14 N        6.4290     3.9730     1.1370 N.pl3 1 <1>  -0.8690 
 15 C        7.2310     4.6920     0.2630 C.ar  1 <1>   0.4100 
 16 N        8.4420     4.2190     0.0390 N.ar  1 <1>  -0.6200 
 17 C        6.7140     5.8820    -0.3490 C.ar  1 <1>   0.4100 
 18 C        9.1210     4.9760    -0.8140 C.ar  1 <1>   0.1600 
 19 N        7.4110     6.6140    -1.2020 N.ar  1 <1>  -0.6200 
 20 N        5.4190     6.3350    -0.0500 N.pl3 1 <1>  -0.8380 
 21 C        8.6270     6.1220    -1.4090 C.ar  1 <1>   0.1600 
 22 C        5.3230     7.1460     1.1920 C.3   1 <1>   0.1290 
 23 C        4.6240     6.8980    -1.1760 C.3   1 <1>   0.1290 
 24 H       -0.4550    -1.8150    -0.7710 H     1 <1>   0.1500 
 25 H        4.4140    -1.9470    -0.1310 H     1 <1>   0.1500 
 26 H        0.6870    -3.9780    -0.3830 H     1 <1>   0.1500 
 27 H        5.5730     0.2000     0.0750 H     1 <1>   0.0800 
 28 H        4.4520     0.1170     1.4300 H     1 <1>   0.0800 
 29 H        2.2360     2.1120    -0.3110 H     1 <1>   0.0800 
 30 H        2.8880     1.8650    -1.9320 H     1 <1>   0.0800 
 31 H        3.1280    -4.0130    -0.0660 H     1 <1>   0.1500 
 32 H        4.2770     2.3950     1.6000 H     1 <1>   0.0800 
 33 H        3.9110     3.7700    -0.3380 H     1 <1>   0.0800 
 34 H        4.9670     2.7730    -1.3160 H     1 <1>   0.0800 
 35 H        6.9270     2.1770     0.1500 H     1 <1>   0.0800 
 36 H        6.6910     2.0340     1.8730 H     1 <1>   0.0800 
 37 H        5.5040     4.4190     1.1410 H     1 <1>   0.4000 
 38 H       10.1230     4.6600    -1.0460 H     1 <1>   0.1500 
 39 H        9.2570     6.6660    -2.0890 H     1 <1>   0.1500 
 40 H        5.9400     6.7160     1.9630 H     1 <1>   0.0800 
 41 H        4.3040     7.1730     1.5360 H     1 <1>   0.0800 
 42 H        5.6620     8.1500     0.9990 H     1 <1>   0.0800 
 43 H        4.7710     6.3010    -2.0590 H     1 <1>   0.0800 
 44 H        4.9410     7.9060    -1.3830 H     1 <1>   0.0800 
 45 H        3.5780     6.8960    -0.9250 H     1 <1>   0.0800 
@<TRIPOS>BOND
  1   1   2  1   
  2   2   3  ar  
  3   2   4  ar  
  4   3   5  1   
  5   3   6  ar  
  6   4   7  ar  
  7   4  24  1   
  8   5   8  1   
  9   5   9  1   
 10   6  10  ar  
 11   6  25  1   
 12   7  10  ar  
 13   7  26  1   
 14   8  11  1   
 15   8  27  1   
 16   8  28  1   
 17   9  12  1   
 18   9  29  1   
 19   9  30  1   
 20  10  31  1   
 21  11  12  1   
 22  11  13  1   
 23  11  32  1   
 24  12  33  1   
 25  12  34  1   
 26  13  14  1   
 27  13  35  1   
 28  13  36  1   
 29  14  15  1   
 30  14  37  1   
 31  15  16  ar  
 32  15  17  ar  
 33  16  18  ar  
 34  17  19  ar  
 35  17  20  1   
 36  18  21  ar  
 37  18  38  1   
 38  19  21  ar  
 39  20  22  1   
 40  20  23  1   
 41  21  39  1   
 42  22  40  1   
 43  22  41  1   
 44  22  42  1   
 45  23  43  1   
 46  23  44  1   
 47  23  45  1   
@<TRIPOS>SUBSTRUCTURE
  1 ****  12 GROUP 4 **** **** 0

# MOE 2024.06 (io_trps.svl 2023.06)
