@<TRIPOS>MOLECULE
NONAME
49 52 1 0 0 
SMALL
USER_CHARGES


@<TRIPOS>ATOM
  1 O       -0.1060    -0.6110    -2.1290 O.2   1 <1>  -0.5700 
  2 C        0.3650    -1.4090    -1.3340 C.2   1 <1>   0.5440 
  3 N        0.8320    -0.9010    -0.1340 N.am  1 <1>  -0.6600 
  4 C        0.4320    -2.8220    -1.7120 C.ar  1 <1>   0.3960 
  5 C        0.8480     0.5470     0.1710 C.3   1 <1>   0.1400 
  6 C        1.5580    -1.6640     0.9090 C.3   1 <1>   0.1400 
  7 N        0.3240    -3.7990    -0.7930 N.ar  1 <1>  -0.6200 
  8 C        0.6000    -3.1220    -3.0690 C.ar  1 <1>   0.1600 
  9 C        1.9270     0.7070     1.2330 C.3   1 <1>  -0.1600 
 10 C        1.9440    -0.6320     1.9650 C.3   1 <1>  -0.1600 
 11 C        0.3990    -5.0120    -1.2950 C.ar  1 <1>   0.4100 
 12 N        0.6890    -4.3390    -3.5900 N.ar  1 <1>  -0.6200 
 13 N        0.2600    -5.9940    -0.3500 N.pl3 1 <1>  -0.8690 
 14 C        0.5920    -5.2670    -2.6610 C.ar  1 <1>   0.1600 
 15 C       -0.5700    -7.2120    -0.5330 C.3   1 <1>   0.2890 
 16 C       -2.0280    -6.9830    -0.1470 C.3   1 <1>  -0.0800 
 17 C       -0.1660    -8.2440     0.5150 C.3   1 <1>   0.1200 
 18 C       -2.0230    -7.1910     1.3690 C.3   1 <1>   0.1200 
 19 C       -2.6700    -5.6530    -0.5860 C.3   1 <1>  -0.0170 
 20 O       -0.8660    -7.9090     1.6770 O.3   1 <1>  -0.5600 
 21 C       -4.1430    -5.6140    -0.2110 C.ar  1 <1>  -0.1430 
 22 C       -5.1030    -6.2660    -0.9580 C.ar  1 <1>  -0.1500 
 23 C       -4.5970    -4.9240     0.8950 C.ar  1 <1>  -0.1500 
 24 C       -6.4310    -6.2060    -0.5700 C.ar  1 <1>   0.1600 
 25 C       -5.9490    -4.9270     1.1970 C.ar  1 <1>   0.1600 
 26 N       -6.8770    -5.5550     0.4920 N.ar  1 <1>  -0.6200 
 27 H        1.0680     1.1300    -0.7090 H     1 <1>   0.0800 
 28 H       -0.1150     0.8320     0.5600 H     1 <1>   0.0800 
 29 H        0.9300    -2.4280     1.3340 H     1 <1>   0.0800 
 30 H        2.4370    -2.1120     0.4770 H     1 <1>   0.0800 
 31 H        0.6670    -2.2990    -3.7610 H     1 <1>   0.1500 
 32 H        2.8730     0.8700     0.7470 H     1 <1>   0.0800 
 33 H        1.7220     1.5330     1.8900 H     1 <1>   0.0800 
 34 H        1.1970    -0.6320     2.7400 H     1 <1>   0.0800 
 35 H        2.9010    -0.8480     2.4040 H     1 <1>   0.0800 
 36 H        0.1820    -5.6210     0.6010 H     1 <1>   0.4000 
 37 H        0.6680    -6.2890    -2.9760 H     1 <1>   0.1500 
 38 H       -0.4640    -7.6020    -1.5300 H     1 <1>   0.0800 
 39 H       -2.6050    -7.7850    -0.5730 H     1 <1>   0.0800 
 40 H        0.8910    -8.2370     0.7160 H     1 <1>   0.0800 
 41 H       -0.4780    -9.2300     0.2190 H     1 <1>   0.0800 
 42 H       -2.8830    -7.7470     1.7020 H     1 <1>   0.0800 
 43 H       -1.9710    -6.2540     1.8970 H     1 <1>   0.0800 
 44 H       -2.5720    -5.5350    -1.6510 H     1 <1>   0.0800 
 45 H       -2.1690    -4.8230    -0.1200 H     1 <1>   0.0800 
 46 H       -4.8320    -6.8190    -1.8390 H     1 <1>   0.1500 
 47 H       -3.9150    -4.3840     1.5250 H     1 <1>   0.1500 
 48 H       -7.1660    -6.7220    -1.1640 H     1 <1>   0.1500 
 49 H       -6.2850    -4.3840     2.0630 H     1 <1>   0.1500 
@<TRIPOS>BOND
  1   1   2  2   
  2   2   3  am  
  3   2   4  1   
  4   3   5  1   
  5   3   6  1   
  6   4   7  ar  
  7   4   8  ar  
  8   5   9  1   
  9   5  27  1   
 10   5  28  1   
 11   6  10  1   
 12   6  29  1   
 13   6  30  1   
 14   7  11  ar  
 15   8  12  ar  
 16   8  31  1   
 17   9  10  1   
 18   9  32  1   
 19   9  33  1   
 20  10  34  1   
 21  10  35  1   
 22  11  13  1   
 23  11  14  ar  
 24  12  14  ar  
 25  13  15  1   
 26  13  36  1   
 27  14  37  1   
 28  15  16  1   
 29  15  17  1   
 30  15  38  1   
 31  16  18  1   
 32  16  19  1   
 33  16  39  1   
 34  17  20  1   
 35  17  40  1   
 36  17  41  1   
 37  18  20  1   
 38  18  42  1   
 39  18  43  1   
 40  19  21  1   
 41  19  44  1   
 42  19  45  1   
 43  21  22  ar  
 44  21  23  ar  
 45  22  24  ar  
 46  22  46  1   
 47  23  25  ar  
 48  23  47  1   
 49  24  26  ar  
 50  24  48  1   
 51  25  26  ar  
 52  25  49  1   
@<TRIPOS>SUBSTRUCTURE
  1 ****   7 GROUP 4 **** **** 0

# MOE 2024.06 (io_trps.svl 2023.06)
