@<TRIPOS>MOLECULE
NONAME
53 55 1 0 0 
SMALL
USER_CHARGES


@<TRIPOS>ATOM
  1 O       -4.2220    -0.1940    -1.7140 O.2   1 <1>  -0.5700 
  2 C       -3.5710     0.6000    -1.0720 C.2   1 <1>   0.5690 
  3 N       -2.9420     0.2120     0.0920 N.am  1 <1>  -0.6600 
  4 C       -3.5140     2.0130    -1.6390 C.3   1 <1>  -0.0990 
  5 C       -2.2080     1.0740     1.0670 C.3   1 <1>   0.1400 
  6 C       -2.9460    -1.2300     0.4650 C.3   1 <1>   0.1400 
  7 C       -2.2320     2.8010    -1.3360 C.3   1 <1>  -0.1600 
  8 C       -2.7690     2.4940     1.1630 C.3   1 <1>  -0.1600 
  9 C       -4.1960    -1.5510     1.2810 C.3   1 <1>  -0.0990 
 10 C       -2.2470     3.4290     0.0630 C.3   1 <1>  -0.1600 
 11 C       -4.3920    -3.0480     1.3460 C.2   1 <1>   0.5690 
 12 O       -4.0410    -3.6200     2.3490 O.2   1 <1>  -0.5700 
 13 N       -4.9370    -3.7210     0.2890 N.am  1 <1>  -0.6600 
 14 C       -5.4270    -3.1440    -0.9950 C.3   1 <1>   0.1400 
 15 C       -5.0970    -5.1970     0.2760 C.3   1 <1>   0.1400 
 16 C       -6.3480    -4.2230    -1.5590 C.3   1 <1>   0.2000 
 17 C       -5.6900    -5.5270    -1.0990 C.3   1 <1>  -0.0800 
 18 O       -7.5870    -4.0900    -0.9460 O.3   1 <1>  -0.6800 
 19 C       -6.6040    -6.7660    -1.1000 C.3   1 <1>   0.0210 
 20 C       -5.8500    -7.9930    -0.6250 C.2   1 <1>   0.1080 
 21 N       -4.9030    -8.5490    -1.3150 N.2   1 <1>  -0.7070 
 22 C       -6.0720    -8.6450     0.5840 C.2   1 <1>  -0.1500 
 23 N       -4.4930    -9.5840    -0.5570 N.pl3 1 <1>   0.3000 
 24 C       -5.1840    -9.6610     0.6000 C.2   1 <1>  -0.3320 
 25 C       -4.9510   -10.7160     1.6650 C.3   1 <1>  -0.0600 
 26 H       -3.5990     1.9240    -2.7070 H     1 <1>   0.0800 
 27 H       -4.3770     2.5570    -1.3020 H     1 <1>   0.0800 
 28 H       -2.2880     0.6260     2.0430 H     1 <1>   0.0800 
 29 H       -1.1630     1.1000     0.8070 H     1 <1>   0.0800 
 30 H       -2.9310    -1.8270    -0.4320 H     1 <1>   0.0800 
 31 H       -2.0620    -1.4780     1.0280 H     1 <1>   0.0800 
 32 H       -1.3820     2.1500    -1.4450 H     1 <1>   0.0800 
 33 H       -2.1240     3.5900    -2.0600 H     1 <1>   0.0800 
 34 H       -3.8450     2.4540     1.1550 H     1 <1>   0.0800 
 35 H       -2.4800     2.9100     2.1120 H     1 <1>   0.0800 
 36 H       -5.0620    -1.0970     0.8400 H     1 <1>   0.0800 
 37 H       -4.0860    -1.1680     2.2780 H     1 <1>   0.0800 
 38 H       -2.8620     4.3130     0.0490 H     1 <1>   0.0800 
 39 H       -1.2450     3.7400     0.3060 H     1 <1>   0.0800 
 40 H       -5.9480    -2.2120    -0.8620 H     1 <1>   0.0800 
 41 H       -4.5920    -2.9930    -1.6570 H     1 <1>   0.0800 
 42 H       -4.1480    -5.6870     0.4200 H     1 <1>   0.0800 
 43 H       -5.7670    -5.4850     1.0680 H     1 <1>   0.0800 
 44 H       -6.4800    -4.1570    -2.6260 H     1 <1>   0.0800 
 45 H       -4.8650    -5.7280    -1.7600 H     1 <1>   0.0800 
 46 H       -7.4390    -3.9660     0.0140 H     1 <1>   0.4000 
 47 H       -6.9640    -6.9470    -2.0960 H     1 <1>   0.0800 
 48 H       -7.4550    -6.6120    -0.4620 H     1 <1>   0.0800 
 49 H       -6.8000    -8.3730     1.3270 H     1 <1>   0.1500 
 50 H       -3.7410   -10.2160    -0.8560 H     1 <1>   0.2700 
 51 H       -5.6250   -10.5640     2.4890 H     1 <1>   0.0800 
 52 H       -3.9420   -10.6560     2.0330 H     1 <1>   0.0800 
 53 H       -5.1200   -11.6980     1.2600 H     1 <1>   0.0800 
@<TRIPOS>BOND
  1   1   2  2   
  2   2   3  am  
  3   2   4  1   
  4   3   5  1   
  5   3   6  1   
  6   4   7  1   
  7   4  26  1   
  8   4  27  1   
  9   5   8  1   
 10   5  28  1   
 11   5  29  1   
 12   6   9  1   
 13   6  30  1   
 14   6  31  1   
 15   7  10  1   
 16   7  32  1   
 17   7  33  1   
 18   8  10  1   
 19   8  34  1   
 20   8  35  1   
 21   9  11  1   
 22   9  36  1   
 23   9  37  1   
 24  10  38  1   
 25  10  39  1   
 26  11  12  2   
 27  11  13  am  
 28  13  14  1   
 29  13  15  1   
 30  14  16  1   
 31  14  40  1   
 32  14  41  1   
 33  15  17  1   
 34  15  42  1   
 35  15  43  1   
 36  16  17  1   
 37  16  18  1   
 38  16  44  1   
 39  17  19  1   
 40  17  45  1   
 41  18  46  1   
 42  19  20  1   
 43  19  47  1   
 44  19  48  1   
 45  20  21  2   
 46  20  22  1   
 47  21  23  1   
 48  22  24  2   
 49  22  49  1   
 50  23  24  1   
 51  23  50  1   
 52  24  25  1   
 53  25  51  1   
 54  25  52  1   
 55  25  53  1   
@<TRIPOS>SUBSTRUCTURE
  1 ****  13 GROUP 4 **** **** 0

# MOE 2024.06 (io_trps.svl 2023.06)
