@<TRIPOS>MOLECULE
NONAME
57 59 1 0 0 
SMALL
USER_CHARGES


@<TRIPOS>ATOM
  1 O       -3.0000     3.0310    -0.8250 O.2   1 <1>  -0.5700 
  2 C       -2.7100     1.9570    -0.3500 C.2   1 <1>   0.5690 
  3 N       -3.0680     0.7930    -0.9830 N.am  1 <1>  -0.6600 
  4 C       -1.9380     1.9940     0.9650 C.3   1 <1>  -0.0990 
  5 C       -2.7220    -0.5850    -0.4700 C.3   1 <1>   0.3640 
  6 C       -3.9380     0.8920    -2.1980 C.3   1 <1>   0.1400 
  7 C       -0.4400     2.3130     0.7770 C.3   1 <1>  -0.0990 
  8 C       -1.2010    -0.7640    -0.5070 C.ar  1 <1>  -0.1440 
  9 C       -3.3860    -1.7930    -1.2050 C.3   1 <1>   0.2000 
 10 C       -4.0690    -0.4220    -2.9680 C.3   1 <1>   0.1200 
 11 C       -0.1040     3.7960     0.7400 C.2   1 <1>   0.5690 
 12 C       -0.4680    -0.4440    -1.6430 C.ar  1 <1>  -0.1500 
 13 C       -0.5330    -1.2550     0.6070 C.ar  1 <1>  -0.1500 
 14 O       -4.4170    -1.4300    -2.0810 O.3   1 <1>  -0.5600 
 15 C       -3.9900    -2.8110    -0.2250 C.3   1 <1>   0.1200 
 16 O        0.7640     4.1900     1.4790 O.2   1 <1>  -0.5700 
 17 N       -0.7960     4.6020    -0.1170 N.am  1 <1>  -0.5470 
 18 C        0.9060    -0.6040    -1.6620 C.ar  1 <1>  -0.1500 
 19 C        0.8410    -1.4150     0.5890 C.ar  1 <1>  -0.1500 
 20 O       -3.0330    -3.2630     0.6800 O.3   1 <1>  -0.6800 
 21 C       -0.7050     5.9720    -0.4030 C.ar  1 <1>   0.1170 
 22 C        1.5620    -1.0890    -0.5450 C.ar  1 <1>  -0.1500 
 23 C        0.4060     6.7500    -0.0910 C.ar  1 <1>  -0.1500 
 24 C       -1.7760     6.5790    -1.0450 C.ar  1 <1>  -0.1500 
 25 C        0.4490     8.0990    -0.4050 C.ar  1 <1>  -0.1440 
 26 C       -1.7450     7.9240    -1.3620 C.ar  1 <1>  -0.1500 
 27 C       -0.6340     8.6840    -1.0410 C.ar  1 <1>  -0.1500 
 28 C        1.6720     8.9270    -0.0480 C.3   1 <1>  -0.0170 
 29 C        1.5280     9.5180     1.3550 C.3   1 <1>  -0.2400 
 30 H       -2.3810     2.7390     1.6010 H     1 <1>   0.0800 
 31 H       -2.0350     1.0620     1.4830 H     1 <1>   0.0800 
 32 H       -3.0420    -0.6310     0.5550 H     1 <1>   0.0800 
 33 H       -4.9190     1.2110    -1.8920 H     1 <1>   0.0800 
 34 H       -3.5440     1.6450    -2.8590 H     1 <1>   0.0800 
 35 H       -0.0680     1.8580    -0.1220 H     1 <1>   0.0800 
 36 H        0.1040     1.8790     1.5970 H     1 <1>   0.0800 
 37 H       -2.6460    -2.3000    -1.7990 H     1 <1>   0.0800 
 38 H       -3.1500    -0.6810    -3.4650 H     1 <1>   0.0800 
 39 H       -4.8500    -0.3420    -3.7030 H     1 <1>   0.0800 
 40 H       -0.9630    -0.0590    -2.5170 H     1 <1>   0.1500 
 41 H       -1.0790    -1.5180     1.4980 H     1 <1>   0.1500 
 42 H       -4.3790    -3.6620    -0.7560 H     1 <1>   0.0800 
 43 H       -4.7810    -2.3510     0.3410 H     1 <1>   0.0800 
 44 H       -1.5930     4.1400    -0.5740 H     1 <1>   0.3700 
 45 H        1.4660    -0.3500    -2.5450 H     1 <1>   0.1500 
 46 H        1.3510    -1.7940     1.4580 H     1 <1>   0.1500 
 47 H       -2.3670    -3.8250     0.2330 H     1 <1>   0.4000 
 48 H        2.6310    -1.2120    -0.5590 H     1 <1>   0.1500 
 49 H        1.2470     6.2980     0.4010 H     1 <1>   0.1500 
 50 H       -2.6430     5.9930    -1.2960 H     1 <1>   0.1500 
 51 H       -2.5830     8.3810    -1.8570 H     1 <1>   0.1500 
 52 H       -0.6150     9.7310    -1.2870 H     1 <1>   0.1500 
 53 H        2.5520     8.3090    -0.0900 H     1 <1>   0.0800 
 54 H        1.7960     9.7200    -0.7650 H     1 <1>   0.0800 
 55 H        1.4240     8.7280     2.0780 H     1 <1>   0.0800 
 56 H        0.6580    10.1470     1.4060 H     1 <1>   0.0800 
 57 H        2.3960    10.1020     1.6040 H     1 <1>   0.0800 
@<TRIPOS>BOND
  1   1   2  2   
  2   2   3  am  
  3   2   4  1   
  4   3   5  1   
  5   3   6  1   
  6   4   7  1   
  7   4  30  1   
  8   4  31  1   
  9   5   8  1   
 10   5   9  1   
 11   5  32  1   
 12   6  10  1   
 13   6  33  1   
 14   6  34  1   
 15   7  11  1   
 16   7  35  1   
 17   7  36  1   
 18   8  12  ar  
 19   8  13  ar  
 20   9  14  1   
 21   9  15  1   
 22   9  37  1   
 23  10  14  1   
 24  10  38  1   
 25  10  39  1   
 26  11  16  2   
 27  11  17  am  
 28  12  18  ar  
 29  12  40  1   
 30  13  19  ar  
 31  13  41  1   
 32  15  20  1   
 33  15  42  1   
 34  15  43  1   
 35  17  21  1   
 36  17  44  1   
 37  18  22  ar  
 38  18  45  1   
 39  19  22  ar  
 40  19  46  1   
 41  20  47  1   
 42  21  23  ar  
 43  21  24  ar  
 44  22  48  1   
 45  23  25  ar  
 46  23  49  1   
 47  24  26  ar  
 48  24  50  1   
 49  25  27  ar  
 50  25  28  1   
 51  26  27  ar  
 52  26  51  1   
 53  27  52  1   
 54  28  29  1   
 55  28  53  1   
 56  28  54  1   
 57  29  55  1   
 58  29  56  1   
 59  29  57  1   
@<TRIPOS>SUBSTRUCTURE
  1 ****   7 GROUP 4 **** **** 0

# MOE 2024.06 (io_trps.svl 2023.06)
