@<TRIPOS>MOLECULE
NONAME
52 54 1 0 0 
SMALL
USER_CHARGES


@<TRIPOS>ATOM
  1 O        0.0900    -0.4840     0.9240 O.2   1 <1>  -0.5700 
  2 C        0.8240    -0.6690    -0.0170 C.2   1 <1>   0.5690 
  3 N        1.7610     0.2340    -0.4320 N.am  1 <1>  -0.5470 
  4 C        0.6710    -1.9940    -0.7870 C.3   1 <1>   0.4040 
  5 C        2.1190     1.4830     0.0220 C.ar  1 <1>   0.4270 
  6 N       -0.6420    -2.7120    -0.5270 N.4   1 <1>  -0.9590 
  7 N        3.0300     2.0340    -0.7590 N.ar  1 <1>  -0.6200 
  8 C        1.6020     2.1030     1.1580 C.ar  1 <1>  -0.1500 
  9 C       -0.7010    -4.1460    -0.9520 C.3   1 <1>   0.4230 
 10 C       -1.7860    -1.8990    -1.0420 C.3   1 <1>   0.3430 
 11 C        3.4410     3.2430    -0.4060 C.ar  1 <1>   0.1600 
 12 C        2.0390     3.3590     1.5110 C.ar  1 <1>  -0.1500 
 13 C       -2.0310    -4.7420    -0.4580 C.3   1 <1>  -0.1600 
 14 C        0.5580    -4.8940    -0.4540 C.3   1 <1>  -0.1600 
 15 C       -3.1050    -2.4750    -0.5380 C.3   1 <1>  -0.1600 
 16 C        2.9900     3.9460     0.7000 C.ar  1 <1>  -0.1430 
 17 C       -3.2530    -3.9460    -0.9290 C.3   1 <1>  -0.1600 
 18 C        0.5110    -6.4400    -0.4440 C.3   1 <1>  -0.0170 
 19 C        3.5160     5.3320     1.0320 C.3   1 <1>  -0.0970 
 20 C       -0.3180    -7.0450     0.6850 C.ar  1 <1>   0.1670 
 21 N       -0.2360    -6.4550     1.8690 N.ar  1 <1>  -0.6200 
 22 C       -1.1020    -8.1620     0.4310 C.ar  1 <1>  -0.1500 
 23 C       -0.9570    -7.0010     2.8360 C.ar  1 <1>   0.1600 
 24 C       -1.8540    -8.7140     1.4450 C.ar  1 <1>  -0.1500 
 25 C       -1.7710    -8.1090     2.6800 C.ar  1 <1>  -0.1500 
 26 H        2.3400     0.0160    -1.2420 H     1 <1>   0.3700 
 27 H        1.4910    -2.6200    -0.4860 H     1 <1>   0.0800 
 28 H        0.7700    -1.7970    -1.8400 H     1 <1>   0.0800 
 29 H       -0.7540    -2.7090     0.5010 H     1 <1>   0.4500 
 30 H        0.8660     1.6160     1.7670 H     1 <1>   0.1500 
 31 H       -0.7090    -4.1900    -2.0300 H     1 <1>   0.0800 
 32 H       -1.7810    -1.9000    -2.1200 H     1 <1>   0.0800 
 33 H       -1.7000    -0.8790    -0.7020 H     1 <1>   0.0800 
 34 H        4.1840     3.7000    -1.0380 H     1 <1>   0.1500 
 35 H        1.6550     3.8610     2.3830 H     1 <1>   0.1500 
 36 H       -2.0280    -4.7880     0.6180 H     1 <1>   0.0800 
 37 H       -2.1370    -5.7460    -0.8260 H     1 <1>   0.0800 
 38 H        0.8080    -4.5590     0.5380 H     1 <1>   0.0800 
 39 H        1.3740    -4.6260    -1.0990 H     1 <1>   0.0800 
 40 H       -3.9200    -1.9090    -0.9550 H     1 <1>   0.0800 
 41 H       -3.1550    -2.3680     0.5330 H     1 <1>   0.0800 
 42 H       -4.1460    -4.3540    -0.4850 H     1 <1>   0.0800 
 43 H       -3.3510    -4.0300    -1.9980 H     1 <1>   0.0800 
 44 H        1.5150    -6.8040    -0.3130 H     1 <1>   0.0800 
 45 H        0.1640    -6.8020    -1.3950 H     1 <1>   0.0800 
 46 H        4.2430     5.6530     0.3080 H     1 <1>   0.0800 
 47 H        3.9810     5.3240     2.0020 H     1 <1>   0.0800 
 48 H        2.7060     6.0390     1.0420 H     1 <1>   0.0800 
 49 H       -1.1260    -8.6050    -0.5480 H     1 <1>   0.1500 
 50 H       -0.8970    -6.5410     3.8080 H     1 <1>   0.1500 
 51 H       -2.4730    -9.5800     1.2830 H     1 <1>   0.1500 
 52 H       -2.3290    -8.4920     3.5150 H     1 <1>   0.1500 
@<TRIPOS>BOND
  1   1   2  2   
  2   2   3  am  
  3   2   4  1   
  4   3   5  1   
  5   3  26  1   
  6   4   6  1   
  7   4  27  1   
  8   4  28  1   
  9   5   7  ar  
 10   5   8  ar  
 11   6   9  1   
 12   6  10  1   
 13   6  29  1   
 14   7  11  ar  
 15   8  12  ar  
 16   8  30  1   
 17   9  13  1   
 18   9  14  1   
 19   9  31  1   
 20  10  15  1   
 21  10  32  1   
 22  10  33  1   
 23  11  16  ar  
 24  11  34  1   
 25  12  16  ar  
 26  12  35  1   
 27  13  17  1   
 28  13  36  1   
 29  13  37  1   
 30  14  18  1   
 31  14  38  1   
 32  14  39  1   
 33  15  17  1   
 34  15  40  1   
 35  15  41  1   
 36  16  19  1   
 37  17  42  1   
 38  17  43  1   
 39  18  20  1   
 40  18  44  1   
 41  18  45  1   
 42  19  46  1   
 43  19  47  1   
 44  19  48  1   
 45  20  21  ar  
 46  20  22  ar  
 47  21  23  ar  
 48  22  24  ar  
 49  22  49  1   
 50  23  25  ar  
 51  23  50  1   
 52  24  25  ar  
 53  24  51  1   
 54  25  52  1   
@<TRIPOS>SUBSTRUCTURE
  1 ****   4 GROUP 4 **** **** 0

# MOE 2024.06 (io_trps.svl 2023.06)
