@<TRIPOS>MOLECULE
NONAME
49 50 1 0 0 
SMALL
USER_CHARGES


@<TRIPOS>ATOM
  1 S       -0.3880    -0.2330    -0.6520 S.3   1 <1>  -0.0800 
  2 C       -1.4760    -1.0330     0.4360 C.2   1 <1>   0.4420 
  3 C       -0.6590     1.2150     0.2570 C.2   1 <1>   0.1980 
  4 N       -1.9320    -0.2380     1.3340 N.2   1 <1>  -0.3380 
  5 N       -1.6900    -2.3770     0.2100 N.am  1 <1>  -0.4940 
  6 N       -1.4630     1.0430     1.2250 N.2   1 <1>  -0.3380 
  7 C        0.0520     2.4840    -0.1740 C.3   1 <1>   0.0200 
  8 C       -2.5640    -3.2440     0.8190 C.2   1 <1>   0.5440 
  9 C        1.5520     2.4310     0.1490 C.3   1 <1>  -0.1600 
 10 O       -3.4230    -2.8240     1.5630 O.2   1 <1>  -0.5700 
 11 C       -2.4770    -4.6630     0.5310 C.ar  1 <1>   0.0860 
 12 C        2.2610     3.7290    -0.2610 C.3   1 <1>  -0.1600 
 13 C       -3.6250    -5.4520     0.5130 C.ar  1 <1>  -0.1500 
 14 C       -1.2590    -5.2920     0.2610 C.ar  1 <1>  -0.1500 
 15 C        3.7570     3.6670     0.0670 C.3   1 <1>  -0.1600 
 16 C       -3.5920    -6.8080     0.2210 C.ar  1 <1>   0.1170 
 17 C       -1.2030    -6.6420    -0.0300 C.ar  1 <1>  -0.1500 
 18 C        4.4640     4.9620    -0.3400 C.3   1 <1>  -0.2400 
 19 N       -4.7950    -7.5300     0.2320 N.am  1 <1>  -0.5470 
 20 C       -2.3620    -7.3940    -0.0510 C.ar  1 <1>  -0.1500 
 21 C       -5.1470    -8.6830    -0.4170 C.2   1 <1>   0.5690 
 22 O       -4.4130    -9.2600    -1.1830 O.2   1 <1>  -0.5700 
 23 C       -6.5500    -9.2430    -0.1600 C.3   1 <1>  -0.0190 
 24 C       -6.5010   -10.7020     0.3240 C.3   1 <1>  -0.2400 
 25 C       -7.4320    -9.1350    -1.4150 C.3   1 <1>  -0.2400 
 26 H       -1.1420    -2.7730    -0.5460 H     1 <1>   0.3700 
 27 H       -0.3970     3.3150     0.3400 H     1 <1>   0.0800 
 28 H       -0.0960     2.6270    -1.2300 H     1 <1>   0.0800 
 29 H        2.0020     1.6010    -0.3670 H     1 <1>   0.0800 
 30 H        1.6760     2.2730     1.2070 H     1 <1>   0.0800 
 31 H        1.8180     4.5610     0.2600 H     1 <1>   0.0800 
 32 H        2.1350     3.8910    -1.3180 H     1 <1>   0.0800 
 33 H       -4.5690    -4.9830     0.7300 H     1 <1>   0.1500 
 34 H       -0.3420    -4.7310     0.2900 H     1 <1>   0.1500 
 35 H        4.2090     2.8390    -0.4520 H     1 <1>   0.0800 
 36 H        3.8900     3.5100     1.1250 H     1 <1>   0.0800 
 37 H       -0.2580    -7.1160    -0.2380 H     1 <1>   0.1500 
 38 H        4.3650     5.1300    -1.3980 H     1 <1>   0.0800 
 39 H        5.5110     4.9000    -0.1020 H     1 <1>   0.0800 
 40 H        4.0440     5.8020     0.1850 H     1 <1>   0.0800 
 41 H       -5.5400    -7.1020     0.7780 H     1 <1>   0.3700 
 42 H       -2.3040    -8.4450    -0.2750 H     1 <1>   0.1500 
 43 H       -7.0110    -8.6600     0.6170 H     1 <1>   0.0800 
 44 H       -6.0650   -11.3320    -0.4320 H     1 <1>   0.0800 
 45 H       -7.4900   -11.0620     0.5440 H     1 <1>   0.0800 
 46 H       -5.9010   -10.7770     1.2140 H     1 <1>   0.0800 
 47 H       -7.0120    -9.7200    -2.2150 H     1 <1>   0.0800 
 48 H       -7.4940    -8.1120    -1.7390 H     1 <1>   0.0800 
 49 H       -8.4260    -9.4930    -1.2110 H     1 <1>   0.0800 
@<TRIPOS>BOND
  1   1   2  1   
  2   1   3  1   
  3   2   4  2   
  4   2   5  1   
  5   3   6  2   
  6   3   7  1   
  7   4   6  1   
  8   5   8  am  
  9   5  26  1   
 10   7   9  1   
 11   7  27  1   
 12   7  28  1   
 13   8  10  2   
 14   8  11  1   
 15   9  12  1   
 16   9  29  1   
 17   9  30  1   
 18  11  13  ar  
 19  11  14  ar  
 20  12  15  1   
 21  12  31  1   
 22  12  32  1   
 23  13  16  ar  
 24  13  33  1   
 25  14  17  ar  
 26  14  34  1   
 27  15  18  1   
 28  15  35  1   
 29  15  36  1   
 30  16  19  1   
 31  16  20  ar  
 32  17  20  ar  
 33  17  37  1   
 34  18  38  1   
 35  18  39  1   
 36  18  40  1   
 37  19  21  am  
 38  19  41  1   
 39  20  42  1   
 40  21  22  2   
 41  21  23  1   
 42  23  24  1   
 43  23  25  1   
 44  23  43  1   
 45  24  44  1   
 46  24  45  1   
 47  24  46  1   
 48  25  47  1   
 49  25  48  1   
 50  25  49  1   
@<TRIPOS>SUBSTRUCTURE
  1 ****   8 GROUP 4 **** **** 0

# MOE 2024.06 (io_trps.svl 2023.06)
