@<TRIPOS>MOLECULE
NONAME
53 57 1 0 0 
SMALL
USER_CHARGES


@<TRIPOS>ATOM
  1 O       -1.6050    -0.3530    -1.1960 O.2   1 <1>  -0.5700 
  2 C       -2.4530     0.1550    -0.4870 C.2   1 <1>   0.5440 
  3 N       -2.5110     1.5310    -0.4040 N.am  1 <1>  -0.6600 
  4 C       -3.3780    -0.6930     0.2250 C.ar  1 <1>   0.0860 
  5 C       -3.7610     2.2910    -0.0980 C.3   1 <1>   0.1400 
  6 C       -1.4120     2.4030    -0.9230 C.3   1 <1>   0.1400 
  7 C       -3.9750    -1.7750    -0.4130 C.ar  1 <1>   0.1600 
  8 C       -3.7170    -0.4890     1.5590 C.ar  1 <1>  -0.1500 
  9 C       -4.1370     3.2120    -1.2730 C.3   1 <1>   0.1200 
 10 C       -1.9270     3.3070    -2.0530 C.3   1 <1>   0.1200 
 11 N       -4.8640    -2.5960     0.1170 N.ar  1 <1>  -0.6200 
 12 C       -4.6330    -1.3390     2.1290 C.ar  1 <1>  -0.1500 
 13 O       -3.0560     4.0230    -1.6340 O.3   1 <1>  -0.5600 
 14 C       -5.2040    -2.3690     1.3820 C.ar  1 <1>   0.4100 
 15 N       -6.1630    -3.1900     1.9420 N.pl3 1 <1>  -0.8380 
 16 C       -7.3570    -2.6000     2.5980 C.3   1 <1>   0.2090 
 17 C       -6.3540    -4.5790     1.4380 C.3   1 <1>   0.2090 
 18 C       -8.5320    -2.6160     1.6210 C.3   1 <1>  -0.1600 
 19 C       -7.5320    -4.6190     0.4620 C.3   1 <1>  -0.1600 
 20 C       -8.8070    -4.0340     1.0890 C.3   1 <1>   0.1000 
 21 C       -9.9630    -4.0610     0.0910 C.2   1 <1>   0.2980 
 22 O      -10.4140    -5.2480    -0.2890 O.3   1 <1>  -0.2800 
 23 N      -10.5670    -3.0570    -0.4300 N.2   1 <1>  -0.5650 
 24 C      -11.3940    -4.9940    -1.1330 C.ar  1 <1>   0.1400 
 25 C      -11.5030    -3.6300    -1.2340 C.ar  1 <1>   0.2270 
 26 C      -12.2190    -5.8610    -1.8370 C.ar  1 <1>  -0.1500 
 27 C      -12.4690    -3.0730    -2.0650 C.ar  1 <1>  -0.1500 
 28 C      -13.1790    -5.3060    -2.6630 C.ar  1 <1>  -0.1500 
 29 C      -13.3030    -3.9170    -2.7760 C.ar  1 <1>  -0.1500 
 30 H       -3.6060     2.8890     0.7830 H     1 <1>   0.0800 
 31 H       -4.5800     1.6210     0.0900 H     1 <1>   0.0800 
 32 H       -0.5910     1.8090    -1.2870 H     1 <1>   0.0800 
 33 H       -1.0410     3.0160    -0.1210 H     1 <1>   0.0800 
 34 H       -3.6950    -1.9630    -1.4360 H     1 <1>   0.1500 
 35 H       -3.2640     0.3090     2.1200 H     1 <1>   0.1500 
 36 H       -4.9520     3.8560    -0.9950 H     1 <1>   0.0800 
 37 H       -4.4320     2.6300    -2.1290 H     1 <1>   0.0800 
 38 H       -2.1880     2.7190    -2.9160 H     1 <1>   0.0800 
 39 H       -1.1710     4.0180    -2.3340 H     1 <1>   0.0800 
 40 H       -4.9160    -1.2270     3.1580 H     1 <1>   0.1500 
 41 H       -7.1610    -1.5850     2.8990 H     1 <1>   0.0800 
 42 H       -7.5960    -3.1720     3.4780 H     1 <1>   0.0800 
 43 H       -6.5430    -5.2310     2.2730 H     1 <1>   0.0800 
 44 H       -5.4580    -4.9230     0.9480 H     1 <1>   0.0800 
 45 H       -8.3050    -1.9600     0.7990 H     1 <1>   0.0800 
 46 H       -9.4100    -2.2370     2.1110 H     1 <1>   0.0800 
 47 H       -7.7050    -5.6360     0.1600 H     1 <1>   0.0800 
 48 H       -7.2700    -4.0560    -0.4170 H     1 <1>   0.0800 
 49 H       -9.0920    -4.6540     1.9210 H     1 <1>   0.0800 
 50 H      -12.0990    -6.9230    -1.7300 H     1 <1>   0.1500 
 51 H      -12.5440    -2.0040    -2.1350 H     1 <1>   0.1500 
 52 H      -13.8400    -5.9430    -3.2260 H     1 <1>   0.1500 
 53 H      -14.0570    -3.5060    -3.4250 H     1 <1>   0.1500 
@<TRIPOS>BOND
  1   1   2  2   
  2   2   3  am  
  3   2   4  1   
  4   3   5  1   
  5   3   6  1   
  6   4   7  ar  
  7   4   8  ar  
  8   5   9  1   
  9   5  30  1   
 10   5  31  1   
 11   6  10  1   
 12   6  32  1   
 13   6  33  1   
 14   7  11  ar  
 15   7  34  1   
 16   8  12  ar  
 17   8  35  1   
 18   9  13  1   
 19   9  36  1   
 20   9  37  1   
 21  10  13  1   
 22  10  38  1   
 23  10  39  1   
 24  11  14  ar  
 25  12  14  ar  
 26  12  40  1   
 27  14  15  1   
 28  15  16  1   
 29  15  17  1   
 30  16  18  1   
 31  16  41  1   
 32  16  42  1   
 33  17  19  1   
 34  17  43  1   
 35  17  44  1   
 36  18  20  1   
 37  18  45  1   
 38  18  46  1   
 39  19  20  1   
 40  19  47  1   
 41  19  48  1   
 42  20  21  1   
 43  20  49  1   
 44  21  22  1   
 45  21  23  2   
 46  22  24  1   
 47  23  25  1   
 48  24  25  ar  
 49  24  26  ar  
 50  25  27  ar  
 51  26  28  ar  
 52  26  50  1   
 53  27  29  ar  
 54  27  51  1   
 55  28  29  ar  
 56  28  52  1   
 57  29  53  1   
@<TRIPOS>SUBSTRUCTURE
  1 ****  11 GROUP 4 **** **** 0

# MOE 2024.06 (io_trps.svl 2023.06)
