@<TRIPOS>MOLECULE
NONAME
51 54 1 0 0 
SMALL
USER_CHARGES


@<TRIPOS>ATOM
  1 O       -2.2000     0.2510    -2.4610 O.2   1 <1>  -0.5700 
  2 C       -2.0500     0.7770    -1.3770 C.2   1 <1>   0.5440 
  3 N       -2.3010     0.0050    -0.2610 N.am  1 <1>  -0.6600 
  4 C       -1.7400     2.1900    -1.2930 C.ar  1 <1>   0.0860 
  5 C       -3.0260     0.5470     0.9270 C.3   1 <1>   0.1400 
  6 C       -2.3720    -1.4820    -0.3700 C.3   1 <1>   0.1400 
  7 C       -0.7710     2.7210    -0.4020 C.ar  1 <1>   0.0000 
  8 C       -2.4180     3.0930    -2.0710 C.ar  1 <1>  -0.1500 
  9 C       -4.5060     0.0890     0.9230 C.3   1 <1>   0.4230 
 10 C       -3.8420    -1.9290    -0.4250 C.3   1 <1>   0.3430 
 11 C       -0.6660     4.1280    -0.3000 C.ar  1 <1>   0.3100 
 12 C        0.1060     1.9350     0.3810 C.ar  1 <1>  -0.1500 
 13 C       -2.2150     4.4640    -1.9190 C.ar  1 <1>   0.1600 
 14 N       -4.6420    -1.4190     0.7590 N.4   1 <1>  -0.9590 
 15 C       -5.3010     0.8350    -0.1750 C.3   1 <1>   0.1200 
 16 N       -1.3980     4.9790    -1.0560 N.ar  1 <1>  -0.6200 
 17 C        0.2450     4.6770     0.6160 C.ar  1 <1>  -0.1500 
 18 C        0.9920     2.5010     1.2570 C.ar  1 <1>  -0.1500 
 19 C       -6.1030    -1.7770     0.6870 C.3   1 <1>   0.4230 
 20 O       -6.6380     0.4260    -0.1670 O.3   1 <1>  -0.5600 
 21 C        1.0570     3.8900     1.3840 C.ar  1 <1>  -0.1500 
 22 C       -6.8390    -0.9420    -0.3900 C.3   1 <1>   0.1200 
 23 C       -6.2820    -3.2920     0.4950 C.3   1 <1>  -0.1600 
 24 C       -7.7160    -3.7550     0.7970 C.3   1 <1>  -0.1600 
 25 C       -7.8340    -5.2770     0.6760 C.3   1 <1>  -0.2400 
 26 H       -2.5430     0.2000     1.8240 H     1 <1>   0.0800 
 27 H       -2.9850     1.6220     0.9390 H     1 <1>   0.0800 
 28 H       -1.8620    -1.8170    -1.2590 H     1 <1>   0.0800 
 29 H       -1.8770    -1.9310     0.4730 H     1 <1>   0.0800 
 30 H       -3.1270     2.7570    -2.8080 H     1 <1>   0.1500 
 31 H       -4.9370     0.3780     1.8670 H     1 <1>   0.0800 
 32 H       -3.8750    -3.0050    -0.4580 H     1 <1>   0.0800 
 33 H       -4.2690    -1.5580    -1.3430 H     1 <1>   0.0800 
 34 H        0.0890     0.8640     0.2820 H     1 <1>   0.1500 
 35 H       -2.7750     5.1360    -2.5480 H     1 <1>   0.1500 
 36 H       -4.2600    -1.8570     1.6040 H     1 <1>   0.4500 
 37 H       -4.8910     0.6560    -1.1540 H     1 <1>   0.0800 
 38 H       -5.2870     1.8950     0.0110 H     1 <1>   0.0800 
 39 H        0.2880     5.7490     0.6880 H     1 <1>   0.1500 
 40 H        1.6520     1.8910     1.8510 H     1 <1>   0.1500 
 41 H       -6.5550    -1.5230     1.6330 H     1 <1>   0.0800 
 42 H        1.7540     4.3260     2.0810 H     1 <1>   0.1500 
 43 H       -7.8990    -1.1180    -0.3410 H     1 <1>   0.0800 
 44 H       -6.5000    -1.1860    -1.3820 H     1 <1>   0.0800 
 45 H       -6.0400    -3.5720    -0.5160 H     1 <1>   0.0800 
 46 H       -5.6200    -3.8120     1.1650 H     1 <1>   0.0800 
 47 H       -7.9970    -3.4640     1.7960 H     1 <1>   0.0800 
 48 H       -8.4130    -3.3050     0.1100 H     1 <1>   0.0800 
 49 H       -7.1790    -5.7690     1.3740 H     1 <1>   0.0800 
 50 H       -7.5870    -5.6020    -0.3200 H     1 <1>   0.0800 
 51 H       -8.8430    -5.5840     0.8890 H     1 <1>   0.0800 
@<TRIPOS>BOND
  1   1   2  2   
  2   2   3  am  
  3   2   4  1   
  4   3   5  1   
  5   3   6  1   
  6   4   7  ar  
  7   4   8  ar  
  8   5   9  1   
  9   5  26  1   
 10   5  27  1   
 11   6  10  1   
 12   6  28  1   
 13   6  29  1   
 14   7  11  ar  
 15   7  12  ar  
 16   8  13  ar  
 17   8  30  1   
 18   9  14  1   
 19   9  15  1   
 20   9  31  1   
 21  10  14  1   
 22  10  32  1   
 23  10  33  1   
 24  11  16  ar  
 25  11  17  ar  
 26  12  18  ar  
 27  12  34  1   
 28  13  16  ar  
 29  13  35  1   
 30  14  19  1   
 31  14  36  1   
 32  15  20  1   
 33  15  37  1   
 34  15  38  1   
 35  17  21  ar  
 36  17  39  1   
 37  18  21  ar  
 38  18  40  1   
 39  19  22  1   
 40  19  23  1   
 41  19  41  1   
 42  20  22  1   
 43  21  42  1   
 44  22  43  1   
 45  22  44  1   
 46  23  24  1   
 47  23  45  1   
 48  23  46  1   
 49  24  25  1   
 50  24  47  1   
 51  24  48  1   
 52  25  49  1   
 53  25  50  1   
 54  25  51  1   
@<TRIPOS>SUBSTRUCTURE
  1 ****   5 GROUP 4 **** **** 0

# MOE 2024.06 (io_trps.svl 2023.06)
