@<TRIPOS>MOLECULE
NONAME
49 52 1 0 0 
SMALL
USER_CHARGES


@<TRIPOS>ATOM
  1 F       -0.5520     0.9460     2.1250 F     1 <1>  -0.1900 
  2 C       -0.9540     2.0530     1.5530 C.ar  1 <1>   0.1900 
  3 C       -0.0190     2.9620     1.1280 C.ar  1 <1>  -0.1500 
  4 C       -2.3300     2.2490     1.4050 C.ar  1 <1>  -0.1500 
  5 C       -0.4800     4.1370     0.5220 C.ar  1 <1>   0.0000 
  6 C       -2.7800     3.4050     0.8090 C.ar  1 <1>  -0.1500 
  7 C       -1.8470     4.3550     0.3680 C.ar  1 <1>  -0.1520 
  8 C        0.1640     5.2560    -0.0270 C.2   1 <1>  -0.1500 
  9 N       -2.0230     5.5710    -0.2490 N.pl3 1 <1>   0.0480 
 10 C       -0.7830     6.1320    -0.4810 C.2   1 <1>  -0.2370 
 11 C       -3.3270     6.1390    -0.6540 C.3   1 <1>   0.0160 
 12 C       -0.6080     7.4140    -1.1170 C.2   1 <1>   0.7150 
 13 O       -1.2110     7.6650    -2.1410 O.2   1 <1>  -0.5700 
 14 N        0.2380     8.3750    -0.6040 N.am  1 <1>  -0.6600 
 15 C        0.7800     8.3030     0.8070 C.3   1 <1>   0.2200 
 16 C        0.5400     9.5860    -1.4390 C.3   1 <1>   0.1400 
 17 C        0.4340     9.5560     1.6270 C.3   1 <1>   0.1200 
 18 C        2.3020     8.0210     0.8170 C.3   1 <1>   0.3430 
 19 C        1.6990    10.4720    -0.9420 C.3   1 <1>  -0.0800 
 20 O        1.3860    10.5600     1.4550 O.3   1 <1>  -0.5600 
 21 N        2.9410     8.2920    -0.5170 N.4   1 <1>  -0.9590 
 22 C        1.3030    11.3030     0.2870 C.3   1 <1>   0.1200 
 23 C        3.0580     9.7640    -0.7560 C.3   1 <1>   0.3430 
 24 C        4.3340     7.6790    -0.5280 C.3   1 <1>   0.2370 
 25 C        5.2580     8.1940     0.5790 C.2   1 <1>   0.9060 
 26 O        5.9130     9.2140     0.3550 O.co2 1 <1>  -0.9000 
 27 O        5.1930     7.6390     1.6800 O.co2 1 <1>  -0.9000 
 28 H        1.0320     2.7840     1.2520 H     1 <1>   0.1500 
 29 H       -3.0090     1.4940     1.7580 H     1 <1>   0.1500 
 30 H       -3.8340     3.5770     0.6810 H     1 <1>   0.1500 
 31 H        1.2330     5.3540    -0.0720 H     1 <1>   0.1500 
 32 H       -3.3240     7.2020    -0.5020 H     1 <1>   0.0800 
 33 H       -4.1170     5.7040    -0.0710 H     1 <1>   0.0800 
 34 H       -3.4920     5.9310    -1.6960 H     1 <1>   0.0800 
 35 H        0.3010     7.4930     1.3260 H     1 <1>   0.0800 
 36 H        0.7680     9.2570    -2.4390 H     1 <1>   0.0800 
 37 H       -0.3560    10.1810    -1.5060 H     1 <1>   0.0800 
 38 H        0.4530     9.3030     2.6730 H     1 <1>   0.0800 
 39 H       -0.5460     9.9320     1.3890 H     1 <1>   0.0800 
 40 H        2.4560     6.9890     1.0800 H     1 <1>   0.0800 
 41 H        2.7810     8.6110     1.5840 H     1 <1>   0.0800 
 42 H        1.8570    11.2010    -1.7160 H     1 <1>   0.0800 
 43 H        2.3350     7.8820    -1.2370 H     1 <1>   0.4500 
 44 H        0.3070    11.7050     0.1960 H     1 <1>   0.0800 
 45 H        1.9880    12.1270     0.4010 H     1 <1>   0.0800 
 46 H        3.5950    10.2210     0.0630 H     1 <1>   0.0800 
 47 H        3.6480     9.9180    -1.6430 H     1 <1>   0.0800 
 48 H        4.2650     6.6140    -0.4090 H     1 <1>   0.0800 
 49 H        4.8180     7.8860    -1.4650 H     1 <1>   0.0800 
@<TRIPOS>BOND
  1   1   2  1   
  2   2   3  ar  
  3   2   4  ar  
  4   3   5  ar  
  5   3  28  1   
  6   4   6  ar  
  7   4  29  1   
  8   5   7  ar  
  9   5   8  1   
 10   6   7  ar  
 11   6  30  1   
 12   7   9  1   
 13   8  10  2   
 14   8  31  1   
 15   9  10  1   
 16   9  11  1   
 17  10  12  1   
 18  11  32  1   
 19  11  33  1   
 20  11  34  1   
 21  12  13  2   
 22  12  14  am  
 23  14  15  1   
 24  14  16  1   
 25  15  17  1   
 26  15  18  1   
 27  15  35  1   
 28  16  19  1   
 29  16  36  1   
 30  16  37  1   
 31  17  20  1   
 32  17  38  1   
 33  17  39  1   
 34  18  21  1   
 35  18  40  1   
 36  18  41  1   
 37  19  22  1   
 38  19  23  1   
 39  19  42  1   
 40  20  22  1   
 41  21  23  1   
 42  21  24  1   
 43  21  43  1   
 44  22  44  1   
 45  22  45  1   
 46  23  46  1   
 47  23  47  1   
 48  24  25  1   
 49  24  48  1   
 50  24  49  1   
 51  25  26  ar  
 52  25  27  ar  
@<TRIPOS>SUBSTRUCTURE
  1 ****  15 GROUP 4 **** **** 0

# MOE 2024.06 (io_trps.svl 2023.06)
