@<TRIPOS>MOLECULE
NONAME
50 53 1 0 0 
SMALL
USER_CHARGES


@<TRIPOS>ATOM
  1 O       -0.4210     0.2120     0.9710 O.2   1 <1>  -0.5700 
  2 C       -1.4620     0.8080     0.7560 C.2   1 <1>   0.6160 
  3 N       -2.6160     0.0690     0.5840 N.am  1 <1>  -0.6600 
  4 C       -1.4350     2.2380     0.6220 C.2   1 <1>   0.0290 
  5 C       -2.6780    -1.4000     0.8650 C.3   1 <1>   0.1400 
  6 C       -3.9420     0.6450     0.2070 C.3   1 <1>   0.1400 
  7 C       -2.1330     2.9970     1.6140 C.2   1 <1>   0.6160 
  8 C       -0.7750     2.9110    -0.3860 C.2   1 <1>  -0.1380 
  9 C       -3.4360    -2.1460    -0.2480 C.3   1 <1>   0.3440 
 10 C       -4.6350    -0.2130    -0.8760 C.3   1 <1>   0.2950 
 11 O       -2.7860     2.5160     2.5290 O.2   1 <1>  -0.5700 
 12 N       -2.1100     4.3620     1.5360 N.am  1 <1>  -0.5390 
 13 C       -0.7920     4.3240    -0.4120 C.2   1 <1>  -0.1500 
 14 C       -0.0010     2.2140    -1.5000 C.3   1 <1>  -0.1020 
 15 O       -4.6880    -1.5500    -0.4710 O.3   1 <1>  -0.5600 
 16 C       -3.6310    -3.6140     0.1240 C.ar  1 <1>  -0.1430 
 17 C       -6.0770     0.2110    -1.2050 C.3   1 <1>  -0.1950 
 18 C       -1.4540     5.0320     0.5440 C.2   1 <1>  -0.0290 
 19 C       -4.7140    -4.0260     0.8880 C.ar  1 <1>  -0.1500 
 20 C       -2.7050    -4.5590    -0.2960 C.ar  1 <1>  -0.1500 
 21 C       -6.5670     1.6260    -1.1250 C.3   1 <1>  -0.2000 
 22 C       -7.0910     0.5890    -0.1700 C.3   1 <1>  -0.2000 
 23 C       -1.5060     6.5460     0.5780 C.3   1 <1>  -0.1020 
 24 C       -4.8690    -5.3580     1.2290 C.ar  1 <1>  -0.1500 
 25 C       -2.8590    -5.8920     0.0430 C.ar  1 <1>  -0.1500 
 26 C       -3.9410    -6.2930     0.8060 C.ar  1 <1>  -0.1500 
 27 H       -1.6900    -1.8150     0.9520 H     1 <1>   0.0800 
 28 H       -3.1830    -1.5580     1.8020 H     1 <1>   0.0800 
 29 H       -4.5590     0.6900     1.0860 H     1 <1>   0.0800 
 30 H       -3.8240     1.6450    -0.1680 H     1 <1>   0.0800 
 31 H       -2.8760    -2.0870    -1.1640 H     1 <1>   0.0800 
 32 H       -4.0540    -0.1630    -1.7810 H     1 <1>   0.0800 
 33 H       -2.6120     4.8400     2.2840 H     1 <1>   0.3700 
 34 H       -0.2650     4.8300    -1.2030 H     1 <1>   0.1500 
 35 H       -0.2800     2.6220    -2.4550 H     1 <1>   0.0800 
 36 H       -0.1900     1.1560    -1.5230 H     1 <1>   0.0800 
 37 H        1.0540     2.3640    -1.3550 H     1 <1>   0.0800 
 38 H       -6.4460    -0.3650    -2.0370 H     1 <1>   0.1000 
 39 H       -5.4430    -3.3050     1.2180 H     1 <1>   0.1500 
 40 H       -1.8570    -4.2620    -0.8880 H     1 <1>   0.1500 
 41 H       -5.9490     2.4090    -0.7210 H     1 <1>   0.1000 
 42 H       -7.2240     1.9870    -1.8980 H     1 <1>   0.1000 
 43 H       -8.0980     0.2280    -0.2920 H     1 <1>   0.1000 
 44 H       -6.8020     0.6360     0.8650 H     1 <1>   0.1000 
 45 H       -1.0730     6.9080     1.4940 H     1 <1>   0.0800 
 46 H       -2.5260     6.8810     0.5170 H     1 <1>   0.0800 
 47 H       -0.9580     6.9630    -0.2470 H     1 <1>   0.0800 
 48 H       -5.7130    -5.6650     1.8210 H     1 <1>   0.1500 
 49 H       -2.1360    -6.6180    -0.2870 H     1 <1>   0.1500 
 50 H       -4.0610    -7.3290     1.0700 H     1 <1>   0.1500 
@<TRIPOS>BOND
  1   1   2  2   
  2   2   3  am  
  3   2   4  1   
  4   3   5  1   
  5   3   6  1   
  6   4   7  1   
  7   4   8  2   
  8   5   9  1   
  9   5  27  1   
 10   5  28  1   
 11   6  10  1   
 12   6  29  1   
 13   6  30  1   
 14   7  11  2   
 15   7  12  am  
 16   8  13  1   
 17   8  14  1   
 18   9  15  1   
 19   9  16  1   
 20   9  31  1   
 21  10  15  1   
 22  10  17  1   
 23  10  32  1   
 24  12  18  1   
 25  12  33  1   
 26  13  18  2   
 27  13  34  1   
 28  14  35  1   
 29  14  36  1   
 30  14  37  1   
 31  16  19  ar  
 32  16  20  ar  
 33  17  21  1   
 34  17  22  1   
 35  17  38  1   
 36  18  23  1   
 37  19  24  ar  
 38  19  39  1   
 39  20  25  ar  
 40  20  40  1   
 41  21  22  1   
 42  21  41  1   
 43  21  42  1   
 44  22  43  1   
 45  22  44  1   
 46  23  45  1   
 47  23  46  1   
 48  23  47  1   
 49  24  26  ar  
 50  24  48  1   
 51  25  26  ar  
 52  25  49  1   
 53  26  50  1   
@<TRIPOS>SUBSTRUCTURE
  1 ****   3 GROUP 4 **** **** 0

# MOE 2024.06 (io_trps.svl 2023.06)
