@<TRIPOS>MOLECULE
NONAME
43 45 1 0 0 
SMALL
USER_CHARGES


@<TRIPOS>ATOM
  1 S        0.4540     0.1320    -1.2280 S.o2  1 <1>   1.3330 
  2 O        1.7780    -0.4180    -1.4150 O.2   1 <1>  -0.6500 
  3 O       -0.4070     0.3170    -2.3740 O.2   1 <1>  -0.6500 
  4 N       -0.3830    -0.8780    -0.1470 N.am  1 <1>  -0.8490 
  5 C        0.5800     1.6900    -0.3340 C.3   1 <1>  -0.0550 
  6 C       -0.0460    -2.2930    -0.3360 C.3   1 <1>   0.1160 
  7 C       -1.8400    -0.7070    -0.1950 C.3   1 <1>   0.1160 
  8 C        1.6800     1.8180     0.7440 C.3   1 <1>  -0.0800 
  9 C        3.1000     1.8020     0.1700 C.3   1 <1>   0.2200 
 10 C        1.7140     0.7460     1.8410 C.3   1 <1>   0.1200 
 11 N        3.7700     3.0810     0.5000 N.am  1 <1>  -0.7300 
 12 C        3.7610     0.6480     0.9190 C.3   1 <1>   0.1200 
 13 O        3.0620     0.5530     2.1170 O.3   1 <1>  -0.5600 
 14 C        3.6580     4.2260    -0.2350 C.2   1 <1>   0.5440 
 15 O        2.9550     4.1990    -1.2260 O.2   1 <1>  -0.5700 
 16 C        4.3490     5.4420     0.1540 C.ar  1 <1>   0.0860 
 17 C        4.6780     6.4040    -0.7890 C.ar  1 <1>  -0.1500 
 18 C        4.7080     5.6900     1.5010 C.ar  1 <1>  -0.1500 
 19 C        5.3500     7.5650    -0.4150 C.ar  1 <1>   0.2270 
 20 C        5.3710     6.8330     1.8820 C.ar  1 <1>  -0.1500 
 21 N        5.7730     8.6220    -1.1520 N.2   1 <1>  -0.2270 
 22 C        5.6900     7.7710     0.8960 C.ar  1 <1>  -0.1520 
 23 N        6.3480     9.4570    -0.3700 N.2   1 <1>  -0.4180 
 24 N        6.3110     8.9670     0.8770 N.pl3 1 <1>   0.3000 
 25 H        0.7560     2.4680    -1.0530 H     1 <1>   0.0800 
 26 H       -0.3680     1.9030     0.1190 H     1 <1>   0.0800 
 27 H       -0.5860    -2.9040     0.3670 H     1 <1>   0.0800 
 28 H        1.0080    -2.4470    -0.1740 H     1 <1>   0.0800 
 29 H       -0.2910    -2.6050    -1.3380 H     1 <1>   0.0800 
 30 H       -2.3070    -1.2970     0.5750 H     1 <1>   0.0800 
 31 H       -2.2240    -1.0140    -1.1540 H     1 <1>   0.0800 
 32 H       -2.0990     0.3250    -0.0350 H     1 <1>   0.0800 
 33 H        1.5130     2.7600     1.2380 H     1 <1>   0.0800 
 34 H        3.1330     1.6410    -0.8940 H     1 <1>   0.0800 
 35 H        1.3200    -0.1990     1.5180 H     1 <1>   0.0800 
 36 H        1.2130     1.0600     2.7400 H     1 <1>   0.0800 
 37 H        4.2980     3.0670     1.3730 H     1 <1>   0.3700 
 38 H        4.8050     0.8140     1.1150 H     1 <1>   0.0800 
 39 H        3.6310    -0.2780     0.3840 H     1 <1>   0.0800 
 40 H        4.4200     6.2690    -1.8250 H     1 <1>   0.1500 
 41 H        4.4460     4.9640     2.2500 H     1 <1>   0.1500 
 42 H        5.6390     7.0110     2.9100 H     1 <1>   0.1500 
 43 H        6.7090     9.4630     1.6800 H     1 <1>   0.2700 
@<TRIPOS>BOND
  1   1   2  2   
  2   1   3  2   
  3   1   4  am  
  4   1   5  1   
  5   4   6  1   
  6   4   7  1   
  7   5   8  1   
  8   5  25  1   
  9   5  26  1   
 10   6  27  1   
 11   6  28  1   
 12   6  29  1   
 13   7  30  1   
 14   7  31  1   
 15   7  32  1   
 16   8   9  1   
 17   8  10  1   
 18   8  33  1   
 19   9  11  1   
 20   9  12  1   
 21   9  34  1   
 22  10  13  1   
 23  10  35  1   
 24  10  36  1   
 25  11  14  am  
 26  11  37  1   
 27  12  13  1   
 28  12  38  1   
 29  12  39  1   
 30  14  15  2   
 31  14  16  1   
 32  16  17  ar  
 33  16  18  ar  
 34  17  19  ar  
 35  17  40  1   
 36  18  20  ar  
 37  18  41  1   
 38  19  21  1   
 39  19  22  ar  
 40  20  22  ar  
 41  20  42  1   
 42  21  23  2   
 43  22  24  1   
 44  23  24  1   
 45  24  43  1   
@<TRIPOS>SUBSTRUCTURE
  1 ****  11 GROUP 4 **** **** 0

# MOE 2024.06 (io_trps.svl 2023.06)
