@<TRIPOS>MOLECULE
NONAME
38 39 1 0 0 
SMALL
USER_CHARGES


@<TRIPOS>ATOM
  1 O        0.0500     0.0200     0.0080 O.2   1 <1>  -0.5700 
  2 C       -1.0470     0.5280     0.1280 C.2   1 <1>   0.7800 
  3 O       -2.1660    -0.1920     0.0630 O.3   1 <1>  -0.4300 
  4 N       -1.2310     1.8480     0.3300 N.am  1 <1>  -0.7300 
  5 C       -2.2710    -1.5860    -0.1320 C.3   1 <1>   0.2800 
  6 C       -0.1820     2.8290     0.6860 C.3   1 <1>   0.2200 
  7 C       -3.7720    -1.8790    -0.1170 C.3   1 <1>  -0.2400 
  8 C       -1.6930    -1.9770    -1.4970 C.3   1 <1>  -0.2400 
  9 C       -1.5990    -2.3350     1.0260 C.3   1 <1>  -0.2400 
 10 C       -0.8270     4.2000     0.9680 C.3   1 <1>  -0.1860 
 11 C        0.7240     3.1320    -0.5270 C.3   1 <1>  -0.0800 
 12 C       -0.7430     4.6400     2.4190 C.2   1 <1>   0.9060 
 13 C       -0.1420     5.1340    -0.0560 C.3   1 <1>  -0.0800 
 14 C       -0.0500     4.2160    -1.2640 C.3   1 <1>  -0.1600 
 15 C        1.9400     3.9230    -0.0170 C.3   1 <1>  -0.1600 
 16 O       -1.6150     5.4110     2.8330 O.co2 1 <1>  -0.9000 
 17 O        0.1610     4.2210     3.1500 O.co2 1 <1>  -0.9000 
 18 C        1.3470     5.3080     0.2940 C.3   1 <1>  -0.1600 
 19 H       -2.1740     2.1430     0.5700 H     1 <1>   0.3700 
 20 H        0.3940     2.4580     1.5190 H     1 <1>   0.0800 
 21 H       -3.9500    -2.9290    -0.2610 H     1 <1>   0.0800 
 22 H       -4.2630    -1.3390    -0.9060 H     1 <1>   0.0800 
 23 H       -4.1980    -1.5870     0.8260 H     1 <1>   0.0800 
 24 H       -1.9010    -3.0120    -1.7010 H     1 <1>   0.0800 
 25 H       -0.6270    -1.8500    -1.5170 H     1 <1>   0.0800 
 26 H       -2.1340    -1.3790    -2.2740 H     1 <1>   0.0800 
 27 H       -1.8020    -3.3870     0.9500 H     1 <1>   0.0800 
 28 H       -1.9760    -1.9800     1.9680 H     1 <1>   0.0800 
 29 H       -0.5330    -2.2070     1.0030 H     1 <1>   0.0800 
 30 H       -1.8720     4.1670     0.7270 H     1 <1>   0.0800 
 31 H        0.9910     2.2650    -1.1060 H     1 <1>   0.0800 
 32 H       -0.6680     6.0610    -0.2110 H     1 <1>   0.0800 
 33 H        0.5070     4.6480    -2.0770 H     1 <1>   0.0800 
 34 H       -1.0140     3.8790    -1.6070 H     1 <1>   0.0800 
 35 H        2.3680     3.4710     0.8620 H     1 <1>   0.0800 
 36 H        2.6920     3.9990    -0.7830 H     1 <1>   0.0800 
 37 H        1.7920     6.0560    -0.3380 H     1 <1>   0.0800 
 38 H        1.4960     5.5880     1.3230 H     1 <1>   0.0800 
@<TRIPOS>BOND
  1   1   2  2   
  2   2   3  1   
  3   2   4  am  
  4   3   5  1   
  5   4   6  1   
  6   4  19  1   
  7   5   7  1   
  8   5   8  1   
  9   5   9  1   
 10   6  10  1   
 11   6  11  1   
 12   6  20  1   
 13   7  21  1   
 14   7  22  1   
 15   7  23  1   
 16   8  24  1   
 17   8  25  1   
 18   8  26  1   
 19   9  27  1   
 20   9  28  1   
 21   9  29  1   
 22  10  12  1   
 23  10  13  1   
 24  10  30  1   
 25  11  14  1   
 26  11  15  1   
 27  11  31  1   
 28  12  16  ar  
 29  12  17  ar  
 30  13  14  1   
 31  13  18  1   
 32  13  32  1   
 33  14  33  1   
 34  14  34  1   
 35  15  18  1   
 36  15  35  1   
 37  15  36  1   
 38  18  37  1   
 39  18  38  1   
@<TRIPOS>SUBSTRUCTURE
  1 ****   4 GROUP 4 **** **** 0

# MOE 2024.06 (io_trps.svl 2023.06)
