@<TRIPOS>MOLECULE
NONAME
52 55 1 0 0 
SMALL
USER_CHARGES


@<TRIPOS>ATOM
  1 O        1.0720     0.6940    -1.6400 O.2   1 <1>  -0.5700 
  2 C        2.0060     0.3920    -0.9400 C.2   1 <1>   0.5690 
  3 N        2.8040     1.2430    -0.2280 N.am  1 <1>  -0.4770 
  4 C        2.4230    -1.0420    -0.7530 C.3   1 <1>  -0.0990 
  5 C        2.6470     2.6290    -0.0730 C.ar  1 <1>   0.1170 
  6 C        3.8260     0.4940     0.5320 C.3   1 <1>   0.1400 
  7 C        3.7600    -0.9400    -0.0090 C.3   1 <1>  -0.1600 
  8 C        3.7470     3.4820    -0.0530 C.ar  1 <1>  -0.1500 
  9 C        1.3860     3.1970     0.0770 C.ar  1 <1>  -0.1500 
 10 C        3.5900     4.8450     0.1100 C.ar  1 <1>  -0.1500 
 11 C        1.2310     4.5600     0.2400 C.ar  1 <1>  -0.1500 
 12 C        2.3260     5.4240     0.2540 C.ar  1 <1>   0.0860 
 13 C        2.1500     6.8540     0.4090 C.2   1 <1>   0.5440 
 14 O        1.2500     7.2920     1.1020 O.2   1 <1>  -0.5700 
 15 N        3.0160     7.7000    -0.2280 N.am  1 <1>  -0.4930 
 16 C        3.2980     9.0700    -0.0100 C.2   1 <1>   0.0630 
 17 C        4.6080     9.5610     0.0170 C.2   1 <1>   0.3720 
 18 C        2.5150    10.1520     0.1880 C.2   1 <1>  -0.3320 
 19 N        4.6560    10.8370     0.2350 N.2   1 <1>  -0.7070 
 20 N        5.7500     8.7540    -0.1640 N.pl3 1 <1>  -0.8210 
 21 N        3.3590    11.2030     0.3500 N.pl3 1 <1>   0.3140 
 22 C        0.9980    10.2590     0.2240 C.3   1 <1>  -0.0600 
 23 C        6.5170     8.6210     1.1040 C.3   1 <1>   0.2090 
 24 C        6.6700     9.2990    -1.2020 C.3   1 <1>   0.2090 
 25 C        2.9930    12.5990     0.6170 C.3   1 <1>   0.0160 
 26 C        7.9850     8.7310     0.7210 C.3   1 <1>  -0.1600 
 27 C        7.9700     9.6490    -0.4890 C.3   1 <1>  -0.1600 
 28 H        2.5280    -1.5330    -1.7030 H     1 <1>   0.0800 
 29 H        1.6830    -1.5440    -0.1590 H     1 <1>   0.0800 
 30 H        3.5730     0.5200     1.5780 H     1 <1>   0.0800 
 31 H        4.8060     0.9130     0.3850 H     1 <1>   0.0800 
 32 H        4.5710    -1.0910    -0.6990 H     1 <1>   0.0800 
 33 H        3.8400    -1.6650     0.7820 H     1 <1>   0.0800 
 34 H        4.7340     3.0780    -0.1750 H     1 <1>   0.1500 
 35 H        0.5180     2.5620     0.0630 H     1 <1>   0.1500 
 36 H        4.4660     5.4700     0.1320 H     1 <1>   0.1500 
 37 H        0.2430     4.9730     0.3560 H     1 <1>   0.1500 
 38 H        3.8030     7.2540    -0.6990 H     1 <1>   0.3700 
 39 H        0.5520     9.3700    -0.1840 H     1 <1>   0.0800 
 40 H        0.6620    11.0960    -0.3610 H     1 <1>   0.0800 
 41 H        0.6610    10.3740     1.2380 H     1 <1>   0.0800 
 42 H        6.3050     7.6760     1.5740 H     1 <1>   0.0800 
 43 H        6.2570     9.4170     1.7830 H     1 <1>   0.0800 
 44 H        6.2560    10.1630    -1.6960 H     1 <1>   0.0800 
 45 H        6.8480     8.5330    -1.9360 H     1 <1>   0.0800 
 46 H        2.3200    12.6330     1.4520 H     1 <1>   0.0800 
 47 H        2.5230    13.0110    -0.2540 H     1 <1>   0.0800 
 48 H        3.8820    13.1570     0.8470 H     1 <1>   0.0800 
 49 H        8.3520     7.7580     0.4450 H     1 <1>   0.0800 
 50 H        8.5790     9.1230     1.5270 H     1 <1>   0.0800 
 51 H        7.9190    10.6750    -0.1700 H     1 <1>   0.0800 
 52 H        8.8260     9.5160    -1.1250 H     1 <1>   0.0800 
@<TRIPOS>BOND
  1   1   2  2   
  2   2   3  am  
  3   2   4  1   
  4   3   5  1   
  5   3   6  1   
  6   4   7  1   
  7   4  28  1   
  8   4  29  1   
  9   5   8  ar  
 10   5   9  ar  
 11   6   7  1   
 12   6  30  1   
 13   6  31  1   
 14   7  32  1   
 15   7  33  1   
 16   8  10  ar  
 17   8  34  1   
 18   9  11  ar  
 19   9  35  1   
 20  10  12  ar  
 21  10  36  1   
 22  11  12  ar  
 23  11  37  1   
 24  12  13  1   
 25  13  14  2   
 26  13  15  am  
 27  15  16  1   
 28  15  38  1   
 29  16  17  1   
 30  16  18  2   
 31  17  19  2   
 32  17  20  1   
 33  18  21  1   
 34  18  22  1   
 35  19  21  1   
 36  20  23  1   
 37  20  24  1   
 38  21  25  1   
 39  22  39  1   
 40  22  40  1   
 41  22  41  1   
 42  23  26  1   
 43  23  42  1   
 44  23  43  1   
 45  24  27  1   
 46  24  44  1   
 47  24  45  1   
 48  25  46  1   
 49  25  47  1   
 50  25  48  1   
 51  26  27  1   
 52  26  49  1   
 53  26  50  1   
 54  27  51  1   
 55  27  52  1   
@<TRIPOS>SUBSTRUCTURE
  1 ****  10 GROUP 4 **** **** 0

# MOE 2024.06 (io_trps.svl 2023.06)
