@<TRIPOS>MOLECULE
NONAME
48 50 1 0 0 
SMALL
USER_CHARGES


@<TRIPOS>ATOM
  1 O       -3.2470     1.4540    -1.9680 O.2   1 <1>  -0.5700 
  2 C       -2.6680     1.3530    -0.9160 C.2   1 <1>   0.5690 
  3 N       -2.2580     0.1550    -0.4360 N.am  1 <1>  -0.7300 
  4 C       -2.3960     2.5960    -0.0930 C.3   1 <1>  -0.0990 
  5 C       -2.3760    -1.1320    -1.1600 C.3   1 <1>   0.2200 
  6 C       -0.9040     2.9690    -0.0890 C.3   1 <1>  -0.1600 
  7 C       -3.4750    -2.0040    -0.5680 C.3   1 <1>  -0.0800 
  8 C       -1.1500    -1.9800    -0.8500 C.3   1 <1>   0.1200 
  9 C       -0.6400     4.2520     0.7070 C.3   1 <1>  -0.0170 
 10 C       -2.7690    -2.7070     0.5980 C.3   1 <1>   0.1200 
 11 C       -4.7750    -1.2770    -0.1790 C.3   1 <1>  -0.0170 
 12 O       -1.3950    -2.5180     0.4140 O.3   1 <1>  -0.5600 
 13 C        0.8450     4.5750     0.7090 C.ar  1 <1>  -0.1440 
 14 C       -5.8270    -2.2670     0.2980 C.ar  1 <1>  -0.1440 
 15 C        1.4010     5.3070    -0.3290 C.ar  1 <1>  -0.1500 
 16 C        1.6570     4.1380     1.7430 C.ar  1 <1>  -0.1500 
 17 C       -6.0570    -2.5080     1.6370 C.ar  1 <1>  -0.1500 
 18 C       -6.6070    -2.9770    -0.5920 C.ar  1 <1>  -0.1500 
 19 C        2.7540     5.6000    -0.3320 C.ar  1 <1>  -0.1500 
 20 C        3.0100     4.4300     1.7420 C.ar  1 <1>  -0.1500 
 21 C       -7.0240    -3.4270     2.0110 C.ar  1 <1>   0.1600 
 22 C       -7.5490    -3.8730    -0.1130 C.ar  1 <1>   0.1600 
 23 C        3.5600     5.1620     0.7040 C.ar  1 <1>  -0.1500 
 24 N       -7.7740    -4.1180     1.1670 N.ar  1 <1>  -0.6200 
 25 H       -1.7770     0.0840     0.4620 H     1 <1>   0.3700 
 26 H       -2.9690     3.4070    -0.5070 H     1 <1>   0.0800 
 27 H       -2.7380     2.4270     0.9110 H     1 <1>   0.0800 
 28 H       -2.5010    -0.9640    -2.2170 H     1 <1>   0.0800 
 29 H       -0.3280     2.1650     0.3360 H     1 <1>   0.0800 
 30 H       -0.5720     3.1090    -1.1040 H     1 <1>   0.0800 
 31 H       -3.7190    -2.7590    -1.2950 H     1 <1>   0.0800 
 32 H       -0.2390    -1.4090    -0.8340 H     1 <1>   0.0800 
 33 H       -1.0630    -2.7960    -1.5460 H     1 <1>   0.0800 
 34 H       -0.9840     4.1330     1.7200 H     1 <1>   0.0800 
 35 H       -1.1840     5.0720     0.2710 H     1 <1>   0.0800 
 36 H       -2.9790    -3.7630     0.6120 H     1 <1>   0.0800 
 37 H       -3.0330    -2.2720     1.5460 H     1 <1>   0.0800 
 38 H       -5.1510    -0.7390    -1.0320 H     1 <1>   0.0800 
 39 H       -4.5870    -0.5570     0.5970 H     1 <1>   0.0800 
 40 H        0.7830     5.6500    -1.1400 H     1 <1>   0.1500 
 41 H        1.2420     3.5670     2.5550 H     1 <1>   0.1500 
 42 H       -5.4960    -1.9930     2.3940 H     1 <1>   0.1500 
 43 H       -6.4930    -2.8410    -1.6520 H     1 <1>   0.1500 
 44 H        3.1790     6.1690    -1.1400 H     1 <1>   0.1500 
 45 H        3.6350     4.0880     2.5480 H     1 <1>   0.1500 
 46 H       -7.1890    -3.6030     3.0600 H     1 <1>   0.1500 
 47 H       -8.1480    -4.4180    -0.8220 H     1 <1>   0.1500 
 48 H        4.6110     5.3910     0.7030 H     1 <1>   0.1500 
@<TRIPOS>BOND
  1   1   2  2   
  2   2   3  am  
  3   2   4  1   
  4   3   5  1   
  5   3  25  1   
  6   4   6  1   
  7   4  26  1   
  8   4  27  1   
  9   5   7  1   
 10   5   8  1   
 11   5  28  1   
 12   6   9  1   
 13   6  29  1   
 14   6  30  1   
 15   7  10  1   
 16   7  11  1   
 17   7  31  1   
 18   8  12  1   
 19   8  32  1   
 20   8  33  1   
 21   9  13  1   
 22   9  34  1   
 23   9  35  1   
 24  10  12  1   
 25  10  36  1   
 26  10  37  1   
 27  11  14  1   
 28  11  38  1   
 29  11  39  1   
 30  13  15  ar  
 31  13  16  ar  
 32  14  17  ar  
 33  14  18  ar  
 34  15  19  ar  
 35  15  40  1   
 36  16  20  ar  
 37  16  41  1   
 38  17  21  ar  
 39  17  42  1   
 40  18  22  ar  
 41  18  43  1   
 42  19  23  ar  
 43  19  44  1   
 44  20  23  ar  
 45  20  45  1   
 46  21  24  ar  
 47  21  46  1   
 48  22  24  ar  
 49  22  47  1   
 50  23  48  1   
@<TRIPOS>SUBSTRUCTURE
  1 ****   3 GROUP 4 **** **** 0

# MOE 2024.06 (io_trps.svl 2023.06)
