@<TRIPOS>MOLECULE
NONAME
50 52 1 0 0 
SMALL
USER_CHARGES


@<TRIPOS>ATOM
  1 CL      -0.3100    -1.7800     2.0130 Cl    1 <1>  -0.1770 
  2 C       -0.6490    -3.4390     1.5710 C.ar  1 <1>   0.1770 
  3 C       -1.5760    -3.7400     0.5800 C.ar  1 <1>  -0.1440 
  4 C        0.0430    -4.4240     2.2510 C.ar  1 <1>  -0.1500 
  5 C       -1.8230    -5.0860     0.2890 C.ar  1 <1>   0.1170 
  6 C       -2.2940    -2.6130    -0.1630 C.3   1 <1>  -0.0970 
  7 C       -0.1910    -5.7520     1.9460 C.ar  1 <1>  -0.1500 
  8 N       -2.7460    -5.5100    -0.6750 N.am  1 <1>  -0.5470 
  9 C       -1.1180    -6.0720     0.9720 C.ar  1 <1>  -0.1500 
 10 C       -4.0950    -5.2960    -0.7130 C.2   1 <1>   0.5690 
 11 O       -4.6900    -4.6250     0.0930 O.2   1 <1>  -0.5700 
 12 C       -4.8800    -5.9510    -1.8130 C.3   1 <1>  -0.0380 
 13 C       -4.6660    -7.4350    -1.6950 C.2   1 <1>   0.5690 
 14 O       -3.7120    -7.8980    -2.2750 O.2   1 <1>  -0.5700 
 15 N       -5.4960    -8.2070    -0.9320 N.am  1 <1>  -0.6600 
 16 C       -6.5510    -7.7060    -0.0090 C.3   1 <1>   0.1400 
 17 C       -5.2740    -9.6600    -0.7270 C.3   1 <1>   0.1400 
 18 C       -7.0700    -8.9500     0.7130 C.3   1 <1>   0.2000 
 19 C       -5.9490    -9.9820     0.6060 C.3   1 <1>  -0.0800 
 20 O       -7.3570    -8.6890     2.0420 O.3   1 <1>  -0.6800 
 21 C       -6.4490   -11.4310     0.7120 C.3   1 <1>   0.0210 
 22 C       -5.3350   -12.4230     0.4410 C.2   1 <1>   0.1080 
 23 N       -4.2140   -12.4250     1.0940 N.2   1 <1>  -0.7070 
 24 C       -5.3800   -13.4220    -0.5270 C.2   1 <1>  -0.1500 
 25 N       -3.5080   -13.4370     0.5570 N.pl3 1 <1>   0.3000 
 26 C       -4.1920   -14.0550    -0.4290 C.2   1 <1>  -0.3320 
 27 C       -3.6610   -15.2300    -1.2280 C.3   1 <1>  -0.0600 
 28 H        0.7540    -4.1500     3.0090 H     1 <1>   0.1500 
 29 H       -2.5910    -2.9230    -1.1470 H     1 <1>   0.0800 
 30 H       -1.6580    -1.7550    -0.2790 H     1 <1>   0.0800 
 31 H       -3.1720    -2.3220     0.3860 H     1 <1>   0.0800 
 32 H        0.3420    -6.5290     2.4660 H     1 <1>   0.1500 
 33 H       -2.4150    -6.2480    -1.3050 H     1 <1>   0.3700 
 34 H       -1.3050    -7.1060     0.7430 H     1 <1>   0.1500 
 35 H       -4.5170    -5.6070    -2.7630 H     1 <1>   0.0800 
 36 H       -5.9190    -5.7010    -1.7360 H     1 <1>   0.0800 
 37 H       -6.1160    -7.0110     0.6900 H     1 <1>   0.0800 
 38 H       -7.3440    -7.2340    -0.5600 H     1 <1>   0.0800 
 39 H       -5.7350   -10.2020    -1.5350 H     1 <1>   0.0800 
 40 H       -4.2220    -9.8960    -0.6970 H     1 <1>   0.0800 
 41 H       -7.9700    -9.2970     0.2340 H     1 <1>   0.0800 
 42 H       -5.2190    -9.8050     1.3770 H     1 <1>   0.0800 
 43 H       -6.5400    -8.4580     2.5270 H     1 <1>   0.4000 
 44 H       -7.2480   -11.5980     0.0130 H     1 <1>   0.0800 
 45 H       -6.8310   -11.6050     1.7030 H     1 <1>   0.0800 
 46 H       -6.1970   -13.6250    -1.1950 H     1 <1>   0.1500 
 47 H       -2.5660   -13.6810     0.8840 H     1 <1>   0.2700 
 48 H       -4.3910   -15.5450    -1.9530 H     1 <1>   0.0800 
 49 H       -3.4480   -16.0580    -0.5750 H     1 <1>   0.0800 
 50 H       -2.7610   -14.9520    -1.7470 H     1 <1>   0.0800 
@<TRIPOS>BOND
  1   1   2  1   
  2   2   3  ar  
  3   2   4  ar  
  4   3   5  ar  
  5   3   6  1   
  6   4   7  ar  
  7   4  28  1   
  8   5   8  1   
  9   5   9  ar  
 10   6  29  1   
 11   6  30  1   
 12   6  31  1   
 13   7   9  ar  
 14   7  32  1   
 15   8  10  am  
 16   8  33  1   
 17   9  34  1   
 18  10  11  2   
 19  10  12  1   
 20  12  13  1   
 21  12  35  1   
 22  12  36  1   
 23  13  14  2   
 24  13  15  am  
 25  15  16  1   
 26  15  17  1   
 27  16  18  1   
 28  16  37  1   
 29  16  38  1   
 30  17  19  1   
 31  17  39  1   
 32  17  40  1   
 33  18  19  1   
 34  18  20  1   
 35  18  41  1   
 36  19  21  1   
 37  19  42  1   
 38  20  43  1   
 39  21  22  1   
 40  21  44  1   
 41  21  45  1   
 42  22  23  2   
 43  22  24  1   
 44  23  25  1   
 45  24  26  2   
 46  24  46  1   
 47  25  26  1   
 48  25  47  1   
 49  26  27  1   
 50  27  48  1   
 51  27  49  1   
 52  27  50  1   
@<TRIPOS>SUBSTRUCTURE
  1 ****  15 GROUP 4 **** **** 0

# MOE 2024.06 (io_trps.svl 2023.06)
