@<TRIPOS>MOLECULE
NONAME
51 53 1 0 0 
SMALL
USER_CHARGES


@<TRIPOS>ATOM
  1 O       -3.0380    -0.2620    -2.7320 O.2   1 <1>  -0.5700 
  2 C       -3.0730    -0.6960    -1.6040 C.2   1 <1>   0.5690 
  3 N       -2.8530     0.0960    -0.5160 N.am  1 <1>  -0.6600 
  4 C       -3.3620    -2.1690    -1.4280 C.3   1 <1>  -0.0190 
  5 C       -2.9740    -0.4300     0.8740 C.3   1 <1>   0.2200 
  6 C       -2.5430     1.5480    -0.6440 C.3   1 <1>   0.0600 
  7 C       -2.1650    -2.8890    -0.7770 C.3   1 <1>   0.1200 
  8 C       -4.7550    -2.3950    -0.8080 C.3   1 <1>   0.1400 
  9 C       -1.8900    -1.5000     1.1710 C.3   1 <1>   0.1200 
 10 C       -4.4330    -0.8380     1.1830 C.3   1 <1>   0.1400 
 11 O       -2.1080    -2.7690     0.6120 O.3   1 <1>  -0.5600 
 12 N       -4.8280    -2.1900     0.6720 N.am  1 <1>  -0.6600 
 13 C       -5.0430    -3.2340     1.5570 C.2   1 <1>   0.5440 
 14 O       -5.1100    -2.9950     2.7510 O.2   1 <1>  -0.5700 
 15 C       -5.1310    -4.6120     1.1220 C.ar  1 <1>   0.0860 
 16 C       -6.2720    -5.1310     0.4990 C.ar  1 <1>   0.0830 
 17 C       -4.0460    -5.4630     1.3240 C.ar  1 <1>  -0.1500 
 18 O       -7.3100    -4.2860     0.2900 O.3   1 <1>  -0.3630 
 19 C       -6.3080    -6.4670     0.1050 C.ar  1 <1>  -0.1500 
 20 C       -4.0830    -6.7860     0.9280 C.ar  1 <1>  -0.1500 
 21 C       -8.5420    -4.7040    -0.2480 C.3   1 <1>   0.1200 
 22 C       -5.2180    -7.2900     0.3190 C.ar  1 <1>  -0.1500 
 23 C       -9.4650    -3.4870    -0.3150 C.3   1 <1>  -0.1600 
 24 C      -10.8310    -3.8540    -0.9060 C.3   1 <1>  -0.1600 
 25 C      -11.7460    -2.6280    -0.9750 C.3   1 <1>  -0.2400 
 26 H       -3.4250    -2.5630    -2.4260 H     1 <1>   0.0800 
 27 H       -2.7580     0.3920     1.5330 H     1 <1>   0.0800 
 28 H       -1.6060     1.7650    -0.1620 H     1 <1>   0.0800 
 29 H       -3.3240     2.1300    -0.1870 H     1 <1>   0.0800 
 30 H       -2.4660     1.8340    -1.6800 H     1 <1>   0.0800 
 31 H       -1.2370    -2.5290    -1.1870 H     1 <1>   0.0800 
 32 H       -2.2370    -3.9420    -0.9850 H     1 <1>   0.0800 
 33 H       -5.0680    -3.3910    -1.0570 H     1 <1>   0.0800 
 34 H       -5.4580    -1.7280    -1.2760 H     1 <1>   0.0800 
 35 H       -1.8500    -1.6510     2.2350 H     1 <1>   0.0800 
 36 H       -0.9260    -1.1490     0.8480 H     1 <1>   0.0800 
 37 H       -5.1010    -0.1020     0.7740 H     1 <1>   0.0800 
 38 H       -4.5580    -0.8050     2.2500 H     1 <1>   0.0800 
 39 H       -3.1650    -5.0650     1.7990 H     1 <1>   0.1500 
 40 H       -7.1750    -6.8850    -0.3700 H     1 <1>   0.1500 
 41 H       -3.2310    -7.4230     1.0970 H     1 <1>   0.1500 
 42 H       -8.3670    -5.1010    -1.2330 H     1 <1>   0.0800 
 43 H       -8.9540    -5.4610     0.3960 H     1 <1>   0.0800 
 44 H       -5.2500    -8.3210     0.0140 H     1 <1>   0.1500 
 45 H       -9.5960    -3.0950     0.6790 H     1 <1>   0.0800 
 46 H       -9.0020    -2.7300    -0.9240 H     1 <1>   0.0800 
 47 H      -10.7030    -4.2540    -1.8980 H     1 <1>   0.0800 
 48 H      -11.2990    -4.6100    -0.2980 H     1 <1>   0.0800 
 49 H      -11.3070    -1.8650    -1.5940 H     1 <1>   0.0800 
 50 H      -11.9070    -2.2240     0.0090 H     1 <1>   0.0800 
 51 H      -12.6980    -2.9010    -1.3930 H     1 <1>   0.0800 
@<TRIPOS>BOND
  1   1   2  2   
  2   2   3  am  
  3   2   4  1   
  4   3   5  1   
  5   3   6  1   
  6   4   7  1   
  7   4   8  1   
  8   4  26  1   
  9   5   9  1   
 10   5  10  1   
 11   5  27  1   
 12   6  28  1   
 13   6  29  1   
 14   6  30  1   
 15   7  11  1   
 16   7  31  1   
 17   7  32  1   
 18   8  12  1   
 19   8  33  1   
 20   8  34  1   
 21   9  11  1   
 22   9  35  1   
 23   9  36  1   
 24  10  12  1   
 25  10  37  1   
 26  10  38  1   
 27  12  13  am  
 28  13  14  2   
 29  13  15  1   
 30  15  16  ar  
 31  15  17  ar  
 32  16  18  1   
 33  16  19  ar  
 34  17  20  ar  
 35  17  39  1   
 36  18  21  1   
 37  19  22  ar  
 38  19  40  1   
 39  20  22  ar  
 40  20  41  1   
 41  21  23  1   
 42  21  42  1   
 43  21  43  1   
 44  22  44  1   
 45  23  24  1   
 46  23  45  1   
 47  23  46  1   
 48  24  25  1   
 49  24  47  1   
 50  24  48  1   
 51  25  49  1   
 52  25  50  1   
 53  25  51  1   
@<TRIPOS>SUBSTRUCTURE
  1 ****  12 GROUP 4 **** **** 0

# MOE 2024.06 (io_trps.svl 2023.06)
