@<TRIPOS>MOLECULE
NONAME
44 45 1 0 0 
SMALL
USER_CHARGES


@<TRIPOS>ATOM
  1 S       -1.3440    -0.3700    -0.0750 S.o2  1 <1>   1.0900 
  2 O       -2.2170    -0.1490    -1.2060 O.2   1 <1>  -0.6500 
  3 O       -1.6880    -1.3880     0.8840 O.2   1 <1>  -0.6500 
  4 C       -1.3540     1.1620     0.8310 C.3   1 <1>  -0.0550 
  5 C        0.3360    -0.5940    -0.6320 C.3   1 <1>  -0.1350 
  6 C       -2.7380     1.3550     1.4470 C.3   1 <1>   0.3430 
  7 N       -3.8010     1.4860     0.4060 N.4   1 <1>  -0.9590 
  8 C       -5.1290     1.0670     0.9570 C.3   1 <1>   0.3430 
  9 C       -3.8750     2.8350    -0.2190 C.3   1 <1>   0.3430 
 10 C       -6.2050     1.0030    -0.1490 C.3   1 <1>   0.0000 
 11 C       -4.8920     2.8140    -1.3630 C.3   1 <1>  -0.1600 
 12 C       -7.5520     0.6210     0.4830 C.3   1 <1>   0.2000 
 13 C       -6.2790     2.3560    -0.8850 C.3   1 <1>  -0.1600 
 14 C       -5.9420    -0.1770    -1.0990 C.3   1 <1>  -0.1600 
 15 O       -7.6770     1.2220     1.7370 O.3   1 <1>  -0.5600 
 16 C       -7.5430    -0.9080     0.6000 C.3   1 <1>  -0.1600 
 17 C       -6.4470    -1.4110    -0.3500 C.3   1 <1>  -0.1600 
 18 C       -8.9720     1.2210     2.2560 C.3   1 <1>   0.0400 
 19 H       -0.6340     1.1150     1.6250 H     1 <1>   0.0800 
 20 H       -1.1070     1.9910     0.1980 H     1 <1>   0.0800 
 21 H        0.6400     0.2160    -1.2660 H     1 <1>   0.0800 
 22 H        0.4160    -1.5060    -1.1930 H     1 <1>   0.0800 
 23 H        1.0080    -0.6560     0.2020 H     1 <1>   0.0800 
 24 H       -2.7430     2.2250     2.0830 H     1 <1>   0.0800 
 25 H       -2.9510     0.4940     2.0630 H     1 <1>   0.0800 
 26 H       -3.5910     0.8100    -0.3600 H     1 <1>   0.4500 
 27 H       -5.0490     0.0970     1.4200 H     1 <1>   0.0800 
 28 H       -5.4440     1.7690     1.7110 H     1 <1>   0.0800 
 29 H       -4.1770     3.5630     0.5170 H     1 <1>   0.0800 
 30 H       -2.9100     3.1190    -0.6080 H     1 <1>   0.0800 
 31 H       -4.9700     3.8040    -1.7790 H     1 <1>   0.0800 
 32 H       -4.5350     2.1660    -2.1450 H     1 <1>   0.0800 
 33 H       -8.3590     0.9430    -0.1550 H     1 <1>   0.0800 
 34 H       -6.9500     2.2890    -1.7260 H     1 <1>   0.0800 
 35 H       -6.6800     3.0970    -0.2130 H     1 <1>   0.0800 
 36 H       -6.5320    -0.0580    -1.9930 H     1 <1>   0.0800 
 37 H       -4.9120    -0.2850    -1.3900 H     1 <1>   0.0800 
 38 H       -7.3230    -1.2180     1.6080 H     1 <1>   0.0800 
 39 H       -8.5000    -1.3030     0.3090 H     1 <1>   0.0800 
 40 H       -5.6450    -1.8500     0.2200 H     1 <1>   0.0800 
 41 H       -6.8250    -2.1540    -1.0330 H     1 <1>   0.0800 
 42 H       -8.9500     1.7110     3.2140 H     1 <1>   0.0800 
 43 H       -9.3120     0.2070     2.3800 H     1 <1>   0.0800 
 44 H       -9.6240     1.7600     1.5910 H     1 <1>   0.0800 
@<TRIPOS>BOND
  1   1   2  2   
  2   1   3  2   
  3   1   4  1   
  4   1   5  1   
  5   4   6  1   
  6   4  19  1   
  7   4  20  1   
  8   5  21  1   
  9   5  22  1   
 10   5  23  1   
 11   6   7  1   
 12   6  24  1   
 13   6  25  1   
 14   7   8  1   
 15   7   9  1   
 16   7  26  1   
 17   8  10  1   
 18   8  27  1   
 19   8  28  1   
 20   9  11  1   
 21   9  29  1   
 22   9  30  1   
 23  10  12  1   
 24  10  13  1   
 25  10  14  1   
 26  11  13  1   
 27  11  31  1   
 28  11  32  1   
 29  12  15  1   
 30  12  16  1   
 31  12  33  1   
 32  13  34  1   
 33  13  35  1   
 34  14  17  1   
 35  14  36  1   
 36  14  37  1   
 37  15  18  1   
 38  16  17  1   
 39  16  38  1   
 40  16  39  1   
 41  17  40  1   
 42  17  41  1   
 43  18  42  1   
 44  18  43  1   
 45  18  44  1   
@<TRIPOS>SUBSTRUCTURE
  1 ****   8 GROUP 4 **** **** 0

# MOE 2024.06 (io_trps.svl 2023.06)
