@<TRIPOS>MOLECULE
NONAME
34 36 1 0 0 
SMALL
USER_CHARGES


@<TRIPOS>ATOM
  1 O        0.1260    -0.2000    -0.0230 O.2   1 <1>  -0.5700 
  2 C        1.2110    -0.7410    -0.1500 C.2   1 <1>   0.7150 
  3 N        2.3420     0.0160    -0.1960 N.am  1 <1>  -0.4930 
  4 C        1.3320    -2.1750    -0.2490 C.2   1 <1>  -0.2370 
  5 C        2.4940     1.4280    -0.1940 C.2   1 <1>   0.0630 
  6 N        0.3390    -3.0700     0.0750 N.pl3 1 <1>   0.0480 
  7 C        2.4150    -2.9100    -0.6690 C.2   1 <1>  -0.1500 
  8 C        3.6630     2.0860    -0.0010 C.2   1 <1>  -0.0680 
  9 C        1.5460     2.4310    -0.4110 C.2   1 <1>   0.1390 
 10 C        0.8120    -4.3180    -0.1410 C.2   1 <1>  -0.3020 
 11 C       -1.0180    -2.7730     0.5810 C.3   1 <1>   0.0160 
 12 C        2.0950    -4.2680    -0.6030 C.2   1 <1>   0.0190 
 13 N        3.3740     3.4070    -0.1380 N.pl3 1 <1>   0.3140 
 14 N        4.9580     1.5890     0.2890 N.pl3 1 <1>  -0.8530 
 15 N        2.0610     3.6260    -0.3790 N.2   1 <1>  -0.7070 
 16 C        2.9620    -5.3560    -0.9600 C.1   1 <1>   0.5380 
 17 C        4.3760     4.4740     0.0050 C.3   1 <1>   0.0960 
 18 C        5.9800     2.6040     0.6700 C.3   1 <1>   0.2090 
 19 N        3.6600    -6.2130    -1.2430 N.1   1 <1>  -0.5570 
 20 C        5.7940     3.8920    -0.1490 C.3   1 <1>  -0.1600 
 21 H        3.2190    -0.4880    -0.2800 H     1 <1>   0.3700 
 22 H        3.3670    -2.5400    -1.0080 H     1 <1>   0.1500 
 23 H        0.5020     2.2400    -0.5900 H     1 <1>   0.1500 
 24 H        0.2210    -5.1990     0.0400 H     1 <1>   0.1500 
 25 H       -0.9440    -2.1680     1.4660 H     1 <1>   0.0800 
 26 H       -1.5300    -3.6880     0.8140 H     1 <1>   0.0800 
 27 H       -1.5670    -2.2360    -0.1720 H     1 <1>   0.0800 
 28 H        4.9400     0.8180     0.9680 H     1 <1>   0.4000 
 29 H        4.2530     4.9090     0.9790 H     1 <1>   0.0800 
 30 H        4.1880     5.2250    -0.7400 H     1 <1>   0.0800 
 31 H        6.9620     2.2010     0.4900 H     1 <1>   0.0800 
 32 H        5.8870     2.8220     1.7210 H     1 <1>   0.0800 
 33 H        6.5170     4.6240     0.1600 H     1 <1>   0.0800 
 34 H        5.9760     3.6710    -1.1860 H     1 <1>   0.0800 
@<TRIPOS>BOND
  1   1   2  2   
  2   2   3  am  
  3   2   4  1   
  4   3   5  1   
  5   3  21  1   
  6   4   6  1   
  7   4   7  2   
  8   5   8  2   
  9   5   9  1   
 10   6  10  1   
 11   6  11  1   
 12   7  12  1   
 13   7  22  1   
 14   8  13  1   
 15   8  14  1   
 16   9  15  2   
 17   9  23  1   
 18  10  12  2   
 19  10  24  1   
 20  11  25  1   
 21  11  26  1   
 22  11  27  1   
 23  12  16  1   
 24  13  15  1   
 25  13  17  1   
 26  14  18  1   
 27  14  28  1   
 28  16  19  3   
 29  17  20  1   
 30  17  29  1   
 31  17  30  1   
 32  18  20  1   
 33  18  31  1   
 34  18  32  1   
 35  20  33  1   
 36  20  34  1   
@<TRIPOS>SUBSTRUCTURE
  1 ****   3 GROUP 4 **** **** 0

# MOE 2024.06 (io_trps.svl 2023.06)
