@<TRIPOS>MOLECULE
NONAME
44 45 1 0 0 
SMALL
USER_CHARGES


@<TRIPOS>ATOM
  1 S        0.5610     0.2940    -0.6030 S.o2  1 <1>   1.3330 
  2 O        0.3710     0.8340    -1.9270 O.2   1 <1>  -0.6500 
  3 O        0.9770    -1.0750    -0.4120 O.2   1 <1>  -0.6500 
  4 N        1.7010     1.2930     0.2450 N.am  1 <1>  -0.6930 
  5 C       -0.9180     0.5570     0.3490 C.3   1 <1>  -0.1350 
  6 C        1.6310     2.6780     0.2490 C.ar  1 <1>   0.1990 
  7 C        2.7290     0.6000     1.0610 C.3   1 <1>   0.1160 
  8 C        1.6670     3.4120    -0.9310 C.ar  1 <1>  -0.1500 
  9 C        1.5180     3.3790     1.4450 C.ar  1 <1>  -0.1500 
 10 C        1.5860     4.7910    -0.9180 C.ar  1 <1>  -0.1500 
 11 C        1.4410     4.7580     1.4570 C.ar  1 <1>  -0.1500 
 12 C        1.4760     5.5070     0.2770 C.ar  1 <1>   0.0860 
 13 C        1.4000     6.9550     0.3070 C.2   1 <1>   0.5440 
 14 O        0.9570     7.5400     1.2790 O.2   1 <1>  -0.5700 
 15 N        1.8650     7.7070    -0.7340 N.am  1 <1>  -0.7300 
 16 C        1.8340     9.1790    -0.7800 C.3   1 <1>   0.3200 
 17 C        3.0230     9.6930    -0.0070 C.2   1 <1>  -0.3320 
 18 N        3.1610     9.4590     1.3120 N.pl3 1 <1>   0.3000 
 19 C        4.0960    10.4180    -0.3880 C.2   1 <1>  -0.1500 
 20 N        4.2930    10.0080     1.7990 N.2   1 <1>  -0.7070 
 21 C        4.8490    10.5820     0.7720 C.2   1 <1>   0.1080 
 22 C        6.1700    11.3360     0.8710 C.3   1 <1>   0.3010 
 23 O        6.5810    11.8050    -0.3850 O.3   1 <1>  -0.5600 
 24 C        7.7840    12.5020    -0.3600 C.3   1 <1>   0.0400 
 25 H       -1.7220    -0.0260    -0.0550 H     1 <1>   0.0800 
 26 H       -1.1970     1.5920     0.3210 H     1 <1>   0.0800 
 27 H       -0.7600     0.2660     1.3680 H     1 <1>   0.0800 
 28 H        3.2830    -0.0810     0.4370 H     1 <1>   0.0800 
 29 H        2.2560     0.0420     1.8500 H     1 <1>   0.0800 
 30 H        3.4150     1.3120     1.4870 H     1 <1>   0.0800 
 31 H        1.7620     2.8920    -1.8680 H     1 <1>   0.1500 
 32 H        1.4860     2.8360     2.3710 H     1 <1>   0.1500 
 33 H        1.6030     5.3170    -1.8560 H     1 <1>   0.1500 
 34 H        1.3520     5.2770     2.3970 H     1 <1>   0.1500 
 35 H        2.5320     7.2860    -1.3820 H     1 <1>   0.3700 
 36 H        0.9200     9.5420    -0.3400 H     1 <1>   0.0800 
 37 H        1.8800     9.5110    -1.8030 H     1 <1>   0.0800 
 38 H        2.4960     8.9080     1.8780 H     1 <1>   0.2700 
 39 H        4.3570    10.8050    -1.3570 H     1 <1>   0.1500 
 40 H        6.9260    10.6760     1.2580 H     1 <1>   0.0800 
 41 H        6.0490    12.1760     1.5320 H     1 <1>   0.0800 
 42 H        8.0090    12.8170    -1.3640 H     1 <1>   0.0800 
 43 H        8.5640    11.8540     0.0000 H     1 <1>   0.0800 
 44 H        7.6820    13.3650     0.2760 H     1 <1>   0.0800 
@<TRIPOS>BOND
  1   1   2  2   
  2   1   3  2   
  3   1   4  am  
  4   1   5  1   
  5   4   6  1   
  6   4   7  1   
  7   5  25  1   
  8   5  26  1   
  9   5  27  1   
 10   6   8  ar  
 11   6   9  ar  
 12   7  28  1   
 13   7  29  1   
 14   7  30  1   
 15   8  10  ar  
 16   8  31  1   
 17   9  11  ar  
 18   9  32  1   
 19  10  12  ar  
 20  10  33  1   
 21  11  12  ar  
 22  11  34  1   
 23  12  13  1   
 24  13  14  2   
 25  13  15  am  
 26  15  16  1   
 27  15  35  1   
 28  16  17  1   
 29  16  36  1   
 30  16  37  1   
 31  17  18  1   
 32  17  19  2   
 33  18  20  1   
 34  18  38  1   
 35  19  21  1   
 36  19  39  1   
 37  20  21  2   
 38  21  22  1   
 39  22  23  1   
 40  22  40  1   
 41  22  41  1   
 42  23  24  1   
 43  24  42  1   
 44  24  43  1   
 45  24  44  1   
@<TRIPOS>SUBSTRUCTURE
  1 ****  12 GROUP 4 **** **** 0

# MOE 2024.06 (io_trps.svl 2023.06)
