@<TRIPOS>MOLECULE
NONAME
40 41 1 0 0 
SMALL
USER_CHARGES


@<TRIPOS>ATOM
  1 S       -0.7550     0.9020     1.0890 S.3   1 <1>  -0.4600 
  2 C       -1.8600    -0.0390    -0.0270 C.3   1 <1>   0.1310 
  3 C        0.8840     0.6690     0.3510 C.3   1 <1>  -0.0100 
  4 C       -3.2640    -0.2020     0.5490 C.2   1 <1>   0.5690 
  5 O       -3.6010    -1.3260     0.8440 O.2   1 <1>  -0.5700 
  6 N       -4.1210     0.8660     0.6890 N.am  1 <1>  -0.6600 
  7 C       -5.4950     0.6870     1.2480 C.3   1 <1>   0.1400 
  8 C       -3.7940     2.2790     0.3530 C.3   1 <1>   0.1400 
  9 C       -6.5800     1.1980     0.2690 C.3   1 <1>   0.0000 
 10 C       -4.8260     2.8270    -0.6370 C.3   1 <1>  -0.1600 
 11 C       -7.9640     1.0210     0.9260 C.3   1 <1>   0.2000 
 12 C       -6.2630     2.6640    -0.1140 C.3   1 <1>  -0.1600 
 13 C       -6.6710     0.2790    -0.9630 C.3   1 <1>  -0.1600 
 14 O       -8.9060     1.8230     0.2710 O.3   1 <1>  -0.5600 
 15 C       -8.3320    -0.4500     0.6920 C.3   1 <1>  -0.1600 
 16 C       -7.5380    -0.9110    -0.5390 C.3   1 <1>  -0.1600 
 17 C      -10.0290     2.1540     1.0240 C.3   1 <1>   0.0400 
 18 H       -1.8940     0.4780    -0.9670 H     1 <1>   0.0800 
 19 H       -1.4130    -1.0070    -0.1640 H     1 <1>   0.0800 
 20 H        1.5930     1.2050     0.9560 H     1 <1>   0.0800 
 21 H        0.8600     1.0610    -0.6500 H     1 <1>   0.0800 
 22 H        1.1020    -0.3840     0.3510 H     1 <1>   0.0800 
 23 H       -5.6700    -0.3480     1.4820 H     1 <1>   0.0800 
 24 H       -5.5570     1.2390     2.1690 H     1 <1>   0.0800 
 25 H       -3.8090     2.8630     1.2570 H     1 <1>   0.0800 
 26 H       -2.8130     2.3650    -0.0770 H     1 <1>   0.0800 
 27 H       -4.6270     3.8690    -0.8130 H     1 <1>   0.0800 
 28 H       -4.7190     2.3130    -1.5760 H     1 <1>   0.0800 
 29 H       -7.9440     1.2840     1.9710 H     1 <1>   0.0800 
 30 H       -6.9540     3.0090    -0.8640 H     1 <1>   0.0800 
 31 H       -6.3940     3.2860     0.7540 H     1 <1>   0.0800 
 32 H       -7.1770     0.8010    -1.7570 H     1 <1>   0.0800 
 33 H       -5.7080    -0.0390    -1.3200 H     1 <1>   0.0800 
 34 H       -8.0220    -1.0310     1.5420 H     1 <1>   0.0800 
 35 H       -9.3890    -0.5850     0.5510 H     1 <1>   0.0800 
 36 H       -6.9120    -1.7480    -0.2790 H     1 <1>   0.0800 
 37 H       -8.1960    -1.2020    -1.3400 H     1 <1>   0.0800 
 38 H      -10.6840     2.7410     0.4050 H     1 <1>   0.0800 
 39 H       -9.7230     2.7340     1.8780 H     1 <1>   0.0800 
 40 H      -10.5330     1.2570     1.3360 H     1 <1>   0.0800 
@<TRIPOS>BOND
  1   1   2  1   
  2   1   3  1   
  3   2   4  1   
  4   2  18  1   
  5   2  19  1   
  6   3  20  1   
  7   3  21  1   
  8   3  22  1   
  9   4   5  2   
 10   4   6  am  
 11   6   7  1   
 12   6   8  1   
 13   7   9  1   
 14   7  23  1   
 15   7  24  1   
 16   8  10  1   
 17   8  25  1   
 18   8  26  1   
 19   9  11  1   
 20   9  12  1   
 21   9  13  1   
 22  10  12  1   
 23  10  27  1   
 24  10  28  1   
 25  11  14  1   
 26  11  15  1   
 27  11  29  1   
 28  12  30  1   
 29  12  31  1   
 30  13  16  1   
 31  13  32  1   
 32  13  33  1   
 33  14  17  1   
 34  15  16  1   
 35  15  34  1   
 36  15  35  1   
 37  16  36  1   
 38  16  37  1   
 39  17  38  1   
 40  17  39  1   
 41  17  40  1   
@<TRIPOS>SUBSTRUCTURE
  1 ****   7 GROUP 4 **** **** 0

# MOE 2024.06 (io_trps.svl 2023.06)
