@<TRIPOS>MOLECULE
NONAME
48 51 1 0 0 
SMALL
USER_CHARGES


@<TRIPOS>ATOM
  1 O       -1.6690    -0.4670     2.0760 O.3   1 <1>  -0.3400 
  2 C       -1.4270     0.4530     1.1200 C.ar  1 <1>   0.0830 
  3 C       -2.7560    -0.2670     2.9830 C.3   1 <1>   0.2580 
  4 C       -1.4530     0.0350    -0.1970 C.ar  1 <1>  -0.1500 
  5 C       -1.2130     1.7890     1.4290 C.ar  1 <1>  -0.1500 
  6 C       -3.6700    -1.5260     2.9900 C.3   1 <1>   0.2450 
  7 C       -4.0030     0.4410     2.3670 C.3   1 <1>   0.2450 
  8 C       -1.3590     0.9600    -1.2200 C.ar  1 <1>   0.0830 
  9 C       -1.0770     2.7120     0.4050 C.ar  1 <1>  -0.1500 
 10 N       -4.3950    -0.9010     1.8210 N.3   1 <1>  -0.5900 
 11 O       -1.4950     0.4920    -2.4840 O.3   1 <1>  -0.3630 
 12 C       -1.1610     2.3050    -0.9170 C.ar  1 <1>  -0.1500 
 13 C       -4.4740    -1.3980     0.5680 C.ar  1 <1>   0.7710 
 14 C       -0.8800     1.1800    -3.5550 C.3   1 <1>   0.0400 
 15 N       -4.5500    -2.7090     0.4060 N.ar  1 <1>  -0.6200 
 16 N       -4.4490    -0.5460    -0.4760 N.ar  1 <1>  -0.1790 
 17 C       -4.5800    -3.1890    -0.8240 C.ar  1 <1>   0.4100 
 18 C       -4.4500    -0.9980    -1.7520 C.ar  1 <1>   0.2110 
 19 N       -4.6700    -4.5360    -0.9680 N.pl3 1 <1>  -0.8380 
 20 C       -4.5200    -2.3360    -1.9440 C.ar  1 <1>  -0.1500 
 21 C       -4.8020    -5.2880    -2.2480 C.3   1 <1>   0.2090 
 22 C       -4.7100    -5.4830     0.1770 C.3   1 <1>   0.2090 
 23 C       -4.9230    -6.7650    -1.8570 C.3   1 <1>   0.2000 
 24 C       -4.4290    -6.8560    -0.4200 C.3   1 <1>  -0.1600 
 25 O       -4.1360    -7.5650    -2.6680 O.3   1 <1>  -0.6800 
 26 H       -2.4190     0.0880     3.9400 H     1 <1>   0.0000 
 27 H       -1.5550    -1.0100    -0.4250 H     1 <1>   0.1500 
 28 H       -1.1500     2.1050     2.4550 H     1 <1>   0.1500 
 29 H       -4.3100    -1.5990     3.8520 H     1 <1>   0.0000 
 30 H       -3.1610    -2.4390     2.7380 H     1 <1>   0.0000 
 31 H       -3.8150     1.1690     1.5990 H     1 <1>   0.0000 
 32 H       -4.7130     0.7770     3.1030 H     1 <1>   0.0000 
 33 H       -0.9060     3.7510     0.6380 H     1 <1>   0.1500 
 34 H       -1.0690     3.0420    -1.6930 H     1 <1>   0.1500 
 35 H       -0.9280     0.5540    -4.4290 H     1 <1>   0.0800 
 36 H        0.1490     1.3720    -3.3040 H     1 <1>   0.0800 
 37 H       -1.4070     2.0990    -3.7370 H     1 <1>   0.0800 
 38 H       -4.3400     0.4400    -0.2560 H     1 <1>   0.4570 
 39 H       -4.3860    -0.2890    -2.5640 H     1 <1>   0.1500 
 40 H       -4.5230    -2.7570    -2.9300 H     1 <1>   0.1500 
 41 H       -3.9270    -5.1280    -2.8530 H     1 <1>   0.0800 
 42 H       -5.6840    -4.9730    -2.7780 H     1 <1>   0.0800 
 43 H       -5.6920    -5.4580     0.6190 H     1 <1>   0.0800 
 44 H       -3.9760    -5.2260     0.9230 H     1 <1>   0.0800 
 45 H       -5.9460    -7.0890    -1.9430 H     1 <1>   0.0800 
 46 H       -4.9360    -7.6290     0.1290 H     1 <1>   0.0800 
 47 H       -3.3680    -7.0290    -0.3860 H     1 <1>   0.0800 
 48 H       -3.1900    -7.4010    -2.4890 H     1 <1>   0.4000 
@<TRIPOS>BOND
  1   1   2  1   
  2   1   3  1   
  3   2   4  ar  
  4   2   5  ar  
  5   3   6  1   
  6   3   7  1   
  7   3  26  1   
  8   4   8  ar  
  9   4  27  1   
 10   5   9  ar  
 11   5  28  1   
 12   6  10  1   
 13   6  29  1   
 14   6  30  1   
 15   7  10  1   
 16   7  31  1   
 17   7  32  1   
 18   8  11  1   
 19   8  12  ar  
 20   9  12  ar  
 21   9  33  1   
 22  10  13  1   
 23  11  14  1   
 24  12  34  1   
 25  13  15  ar  
 26  13  16  ar  
 27  14  35  1   
 28  14  36  1   
 29  14  37  1   
 30  15  17  ar  
 31  16  18  ar  
 32  16  38  1   
 33  17  19  1   
 34  17  20  ar  
 35  18  20  ar  
 36  18  39  1   
 37  19  21  1   
 38  19  22  1   
 39  20  40  1   
 40  21  23  1   
 41  21  41  1   
 42  21  42  1   
 43  22  24  1   
 44  22  43  1   
 45  22  44  1   
 46  23  24  1   
 47  23  25  1   
 48  23  45  1   
 49  24  46  1   
 50  24  47  1   
 51  25  48  1   
@<TRIPOS>SUBSTRUCTURE
  1 ****  13 GROUP 4 **** **** 0

# MOE 2024.06 (io_trps.svl 2023.06)
