@<TRIPOS>MOLECULE
NONAME
48 51 1 0 0 
SMALL
USER_CHARGES


@<TRIPOS>ATOM
  1 O        2.1890     0.6280     2.0230 O.3   1 <1>  -0.6800 
  2 C        1.9450     0.0130     0.8010 C.3   1 <1>   0.2000 
  3 C        2.8720    -1.1950     0.6480 C.3   1 <1>  -0.0800 
  4 C        2.3520     0.9590    -0.3340 C.3   1 <1>   0.1100 
  5 C        3.7330    -0.8800    -0.5840 C.3   1 <1>   0.1100 
  6 C        2.1110    -2.5230     0.5050 C.3   1 <1>   0.0210 
  7 N        3.7180     0.5800    -0.7490 N.3   1 <1>  -0.8100 
  8 C        3.0670    -3.6770     0.2700 C.2   1 <1>   0.1080 
  9 C        4.7440     1.2090     0.1100 C.3   1 <1>   0.2780 
 10 N        4.0360    -3.9620     1.0830 N.2   1 <1>  -0.7070 
 11 C        3.0230    -4.5390    -0.8200 C.2   1 <1>  -0.1500 
 12 C        4.9050     2.6850    -0.2330 C.2   1 <1>   0.1820 
 13 N        4.6400    -5.0320     0.5290 N.pl3 1 <1>   0.3000 
 14 C        4.0460    -5.3970    -0.6260 C.2   1 <1>  -0.3320 
 15 N        5.4310     3.6260     0.6160 N.pl3 1 <1>  -0.7000 
 16 C        4.5720     3.3110    -1.3770 C.2   1 <1>   0.2000 
 17 C        4.4990    -6.5640    -1.4850 C.3   1 <1>  -0.0600 
 18 C        5.4100     4.8160    -0.0090 C.cat 1 <1>   0.7910 
 19 N        4.8870     4.6490    -1.2480 N.pl3 1 <1>  -0.6290 
 20 C        5.8250     6.0910     0.4360 C.2   1 <1>  -0.1290 
 21 C        4.7510     5.7180    -2.1020 C.2   1 <1>   0.2290 
 22 C        5.6900     7.1590    -0.4130 C.2   1 <1>  -0.1500 
 23 C        6.4100     6.2720     1.8320 C.3   1 <1>  -0.1020 
 24 C        5.1440     6.9600    -1.6980 C.2   1 <1>  -0.1500 
 25 H        1.9660     0.0190     2.7550 H     1 <1>   0.4000 
 26 H        0.8980    -0.2340     0.7470 H     1 <1>   0.0800 
 27 H        3.5290    -1.2720     1.4980 H     1 <1>   0.0800 
 28 H        2.2730     1.9910    -0.0400 H     1 <1>   0.0800 
 29 H        1.6930     0.7920    -1.1690 H     1 <1>   0.0800 
 30 H        3.2900    -1.3230    -1.4610 H     1 <1>   0.0800 
 31 H        4.7310    -1.2720    -0.4810 H     1 <1>   0.0800 
 32 H        1.4150    -2.4660    -0.3130 H     1 <1>   0.0800 
 33 H        1.5580    -2.7210     1.4050 H     1 <1>   0.0800 
 34 H        4.4860     1.1030     1.1490 H     1 <1>   0.0800 
 35 H        5.6910     0.7220    -0.0470 H     1 <1>   0.0800 
 36 H        2.3150    -4.5090    -1.6290 H     1 <1>   0.1500 
 37 H        5.4510    -5.4880     0.9640 H     1 <1>   0.2700 
 38 H        5.7570     3.4790     1.5720 H     1 <1>   0.4500 
 39 H        4.1320     2.8850    -2.2650 H     1 <1>   0.1500 
 40 H        3.8670    -6.6520    -2.3510 H     1 <1>   0.0800 
 41 H        4.4440    -7.4810    -0.9260 H     1 <1>   0.0800 
 42 H        5.5110    -6.4130    -1.8150 H     1 <1>   0.0800 
 43 H        4.3300     5.5390    -3.0800 H     1 <1>   0.1500 
 44 H        5.9890     8.1550    -0.1280 H     1 <1>   0.1500 
 45 H        7.2980     5.6760     1.9470 H     1 <1>   0.0800 
 46 H        5.6920     5.9810     2.5800 H     1 <1>   0.0800 
 47 H        6.6730     7.3010     2.0060 H     1 <1>   0.0800 
 48 H        5.0450     7.8080    -2.3540 H     1 <1>   0.1500 
@<TRIPOS>BOND
  1   1   2  1   
  2   1  25  1   
  3   2   3  1   
  4   2   4  1   
  5   2  26  1   
  6   3   5  1   
  7   3   6  1   
  8   3  27  1   
  9   4   7  1   
 10   4  28  1   
 11   4  29  1   
 12   5   7  1   
 13   5  30  1   
 14   5  31  1   
 15   6   8  1   
 16   6  32  1   
 17   6  33  1   
 18   7   9  1   
 19   8  10  2   
 20   8  11  1   
 21   9  12  1   
 22   9  34  1   
 23   9  35  1   
 24  10  13  1   
 25  11  14  2   
 26  11  36  1   
 27  12  15  1   
 28  12  16  2   
 29  13  14  1   
 30  13  37  1   
 31  14  17  1   
 32  15  18  ar  
 33  15  38  1   
 34  16  19  1   
 35  16  39  1   
 36  17  40  1   
 37  17  41  1   
 38  17  42  1   
 39  18  19  ar  
 40  18  20  1   
 41  19  21  1   
 42  20  22  2   
 43  20  23  1   
 44  21  24  2   
 45  21  43  1   
 46  22  24  1   
 47  22  44  1   
 48  23  45  1   
 49  23  46  1   
 50  23  47  1   
 51  24  48  1   
@<TRIPOS>SUBSTRUCTURE
  1 ****   9 GROUP 4 **** **** 0

# MOE 2024.06 (io_trps.svl 2023.06)
