@<TRIPOS>MOLECULE
NONAME
48 50 1 0 0 
SMALL
USER_CHARGES


@<TRIPOS>ATOM
  1 O        0.1480    -2.1450    -1.4720 O.2   1 <1>  -0.5700 
  2 C       -0.6760    -1.7970    -0.6400 C.2   1 <1>   0.5440 
  3 N       -0.3180    -0.7590     0.2150 N.am  1 <1>  -0.6600 
  4 C       -1.9620    -2.5080    -0.5790 C.ar  1 <1>   0.3960 
  5 C        0.8880     0.0820    -0.0260 C.3   1 <1>   0.0600 
  6 C       -1.0900    -0.3930     1.4340 C.3   1 <1>   0.0600 
  7 N       -3.0870    -1.8540    -0.2420 N.ar  1 <1>  -0.6200 
  8 C       -1.9810    -3.8680    -0.8910 C.ar  1 <1>  -0.1500 
  9 C       -4.2120    -2.5500    -0.2110 C.ar  1 <1>   0.4100 
 10 C       -3.1520    -4.5930    -0.8580 C.ar  1 <1>  -0.1500 
 11 N       -5.3650    -1.8730     0.1250 N.pl3 1 <1>  -0.8380 
 12 C       -4.2860    -3.9060    -0.5070 C.ar  1 <1>  -0.1500 
 13 C       -5.2790    -0.7990     1.1490 C.3   1 <1>   0.2090 
 14 C       -6.2610    -1.5050    -0.9980 C.3   1 <1>   0.2090 
 15 C       -6.6690    -0.5620     1.7380 C.3   1 <1>  -0.1600 
 16 C       -7.6710    -1.2900    -0.4520 C.3   1 <1>  -0.1600 
 17 C       -7.6870    -0.2190     0.6470 C.3   1 <1>   0.4180 
 18 O       -7.2810     1.0170     0.1070 O.3   1 <1>  -0.5600 
 19 C       -9.0770    -0.0940     1.2670 C.2   1 <1>  -0.2880 
 20 C       -8.2380     1.7650    -0.5890 C.3   1 <1>   0.1200 
 21 C       -9.8550     0.9850     1.1550 C.2   1 <1>  -0.2760 
 22 C       -9.3830     2.1790     0.3450 C.3   1 <1>  -0.0220 
 23 C      -11.2210     1.1330     1.8000 C.3   1 <1>  -0.1020 
 24 H        1.2710    -0.0730    -1.0200 H     1 <1>   0.0800 
 25 H        1.6550    -0.1740     0.6840 H     1 <1>   0.0800 
 26 H        0.6350     1.1220     0.0810 H     1 <1>   0.0800 
 27 H       -1.5810    -1.2600     1.8400 H     1 <1>   0.0800 
 28 H       -1.8330     0.3430     1.1800 H     1 <1>   0.0800 
 29 H       -0.4330     0.0080     2.1850 H     1 <1>   0.0800 
 30 H       -1.0610    -4.3540    -1.1640 H     1 <1>   0.1500 
 31 H       -3.1740    -5.6430    -1.0950 H     1 <1>   0.1500 
 32 H       -5.2390    -4.3940    -0.4520 H     1 <1>   0.1500 
 33 H       -4.9070     0.1040     0.6940 H     1 <1>   0.0800 
 34 H       -4.5960    -1.0940     1.9270 H     1 <1>   0.0800 
 35 H       -6.2670    -2.2880    -1.7370 H     1 <1>   0.0800 
 36 H       -5.8990    -0.6020    -1.4620 H     1 <1>   0.0800 
 37 H       -6.6330     0.2380     2.4540 H     1 <1>   0.0800 
 38 H       -6.9760    -1.4530     2.2530 H     1 <1>   0.0800 
 39 H       -8.0190    -2.2200    -0.0420 H     1 <1>   0.0800 
 40 H       -8.3390    -1.0210    -1.2460 H     1 <1>   0.0800 
 41 H       -9.3660    -0.9710     1.8160 H     1 <1>   0.1500 
 42 H       -8.6120     1.1730    -1.4050 H     1 <1>   0.0800 
 43 H       -7.7480     2.6350    -0.9880 H     1 <1>   0.0800 
 44 H      -10.1880     2.5670    -0.2530 H     1 <1>   0.0800 
 45 H       -9.0490     2.9590     1.0060 H     1 <1>   0.0800 
 46 H      -11.2250     1.9760     2.4680 H     1 <1>   0.0800 
 47 H      -11.4680     0.2510     2.3640 H     1 <1>   0.0800 
 48 H      -11.9750     1.2790     1.0480 H     1 <1>   0.0800 
@<TRIPOS>BOND
  1   1   2  2   
  2   2   3  am  
  3   2   4  1   
  4   3   5  1   
  5   3   6  1   
  6   4   7  ar  
  7   4   8  ar  
  8   5  24  1   
  9   5  25  1   
 10   5  26  1   
 11   6  27  1   
 12   6  28  1   
 13   6  29  1   
 14   7   9  ar  
 15   8  10  ar  
 16   8  30  1   
 17   9  11  1   
 18   9  12  ar  
 19  10  12  ar  
 20  10  31  1   
 21  11  13  1   
 22  11  14  1   
 23  12  32  1   
 24  13  15  1   
 25  13  33  1   
 26  13  34  1   
 27  14  16  1   
 28  14  35  1   
 29  14  36  1   
 30  15  17  1   
 31  15  37  1   
 32  15  38  1   
 33  16  17  1   
 34  16  39  1   
 35  16  40  1   
 36  17  18  1   
 37  17  19  1   
 38  18  20  1   
 39  19  21  2   
 40  19  41  1   
 41  20  22  1   
 42  20  42  1   
 43  20  43  1   
 44  21  22  1   
 45  21  23  1   
 46  22  44  1   
 47  22  45  1   
 48  23  46  1   
 49  23  47  1   
 50  23  48  1   
@<TRIPOS>SUBSTRUCTURE
  1 ****  11 GROUP 4 **** **** 0

# MOE 2024.06 (io_trps.svl 2023.06)
