@<TRIPOS>MOLECULE
NONAME
57 60 1 0 0 
SMALL
USER_CHARGES


@<TRIPOS>ATOM
  1 O       -0.3940     0.1350    -1.1530 O.2   1 <1>  -0.5700 
  2 C       -1.1900     0.6260    -0.3770 C.2   1 <1>   0.5440 
  3 N       -2.0390    -0.2080     0.2970 N.am  1 <1>  -0.7300 
  4 C       -1.2610     2.0670    -0.2110 C.ar  1 <1>   0.0860 
  5 C       -2.4030    -1.5610    -0.1750 C.3   1 <1>   0.2200 
  6 C       -2.4430     2.6920     0.1830 C.ar  1 <1>  -0.1500 
  7 C       -0.1670     2.8880    -0.4840 C.ar  1 <1>  -0.1500 
  8 C       -3.8500    -1.8920     0.2180 C.3   1 <1>   0.1400 
  9 C       -1.4400    -2.6050     0.3940 C.3   1 <1>  -0.1600 
 10 C       -2.5550     4.0750     0.2730 C.ar  1 <1>   0.0830 
 11 C       -0.2490     4.2650    -0.3820 C.ar  1 <1>  -0.1500 
 12 N       -4.2230    -3.2630    -0.2570 N.am  1 <1>  -0.6600 
 13 C       -1.8450    -4.0040    -0.1000 C.3   1 <1>  -0.1600 
 14 O       -3.7250     4.6970     0.6120 O.3   1 <1>  -0.3620 
 15 C       -1.4440     4.8730    -0.0080 C.ar  1 <1>   0.0830 
 16 C       -5.3420    -3.5680    -0.9950 C.2   1 <1>   0.5690 
 17 C       -3.3060    -4.3390     0.2290 C.3   1 <1>   0.1400 
 18 C       -4.8420     3.9910     1.1150 C.3   1 <1>   0.1200 
 19 O       -1.5800     6.2220     0.0930 O.3   1 <1>  -0.3630 
 20 O       -5.5390    -4.6790    -1.4270 O.2   1 <1>  -0.5700 
 21 C       -6.4200    -2.5270    -1.2690 C.3   1 <1>  -0.0990 
 22 C       -5.6090     3.3400    -0.0510 C.3   1 <1>   0.0960 
 23 C       -0.5140     7.1060    -0.1710 C.3   1 <1>   0.0400 
 24 C       -7.3590    -2.3760    -0.0560 C.3   1 <1>  -0.1600 
 25 N       -6.1130     1.9850     0.2770 N.pl3 1 <1>   0.3140 
 26 C       -8.0980    -1.0290    -0.0120 C.3   1 <1>   0.0210 
 27 N       -5.6300     1.2160     1.2630 N.2   1 <1>  -0.4180 
 28 C       -7.0710     1.3150    -0.3670 C.2   1 <1>  -0.3020 
 29 C       -7.1640     0.1390     0.2720 C.2   1 <1>   0.0460 
 30 N       -6.2780     0.1070     1.2730 N.2   1 <1>  -0.2270 
 31 H       -2.6310     0.1680     1.0400 H     1 <1>   0.3700 
 32 H       -2.3350    -1.5750    -1.2510 H     1 <1>   0.0800 
 33 H       -3.2800     2.0640     0.3990 H     1 <1>   0.1500 
 34 H        0.7590     2.4300    -0.7880 H     1 <1>   0.1500 
 35 H       -4.4880    -1.1430    -0.2050 H     1 <1>   0.0800 
 36 H       -3.9540    -1.8580     1.2880 H     1 <1>   0.0800 
 37 H       -1.4670    -2.5770     1.4690 H     1 <1>   0.0800 
 38 H       -0.4390    -2.3840     0.0660 H     1 <1>   0.0800 
 39 H        0.6260     4.8450    -0.6040 H     1 <1>   0.1500 
 40 H       -1.2040    -4.7430     0.3470 H     1 <1>   0.0800 
 41 H       -1.7120    -4.0620    -1.1660 H     1 <1>   0.0800 
 42 H       -3.5630    -5.2850    -0.2170 H     1 <1>   0.0800 
 43 H       -3.4240    -4.4350     1.2940 H     1 <1>   0.0800 
 44 H       -5.4730     4.7080     1.6090 H     1 <1>   0.0800 
 45 H       -4.4820     3.2950     1.8510 H     1 <1>   0.0800 
 46 H       -6.9960    -2.8490    -2.1180 H     1 <1>   0.0800 
 47 H       -5.9700    -1.5950    -1.5450 H     1 <1>   0.0800 
 48 H       -4.9700     3.2500    -0.9100 H     1 <1>   0.0800 
 49 H       -6.4470     3.9580    -0.3140 H     1 <1>   0.0800 
 50 H       -0.8700     8.1100    -0.0220 H     1 <1>   0.0800 
 51 H       -0.1980     6.9780    -1.1910 H     1 <1>   0.0800 
 52 H        0.2900     6.8990     0.5130 H     1 <1>   0.0800 
 53 H       -6.7950    -2.4890     0.8540 H     1 <1>   0.0800 
 54 H       -8.0770    -3.1780    -0.0790 H     1 <1>   0.0800 
 55 H       -8.8300    -1.0640     0.7750 H     1 <1>   0.0800 
 56 H       -8.6190    -0.8630    -0.9390 H     1 <1>   0.0800 
 57 H       -7.6130     1.7000    -1.2100 H     1 <1>   0.1500 
@<TRIPOS>BOND
  1   1   2  2   
  2   2   3  am  
  3   2   4  1   
  4   3   5  1   
  5   3  31  1   
  6   4   6  ar  
  7   4   7  ar  
  8   5   8  1   
  9   5   9  1   
 10   5  32  1   
 11   6  10  ar  
 12   6  33  1   
 13   7  11  ar  
 14   7  34  1   
 15   8  12  1   
 16   8  35  1   
 17   8  36  1   
 18   9  13  1   
 19   9  37  1   
 20   9  38  1   
 21  10  14  1   
 22  10  15  ar  
 23  11  15  ar  
 24  11  39  1   
 25  12  16  am  
 26  12  17  1   
 27  13  17  1   
 28  13  40  1   
 29  13  41  1   
 30  14  18  1   
 31  15  19  1   
 32  16  20  2   
 33  16  21  1   
 34  17  42  1   
 35  17  43  1   
 36  18  22  1   
 37  18  44  1   
 38  18  45  1   
 39  19  23  1   
 40  21  24  1   
 41  21  46  1   
 42  21  47  1   
 43  22  25  1   
 44  22  48  1   
 45  22  49  1   
 46  23  50  1   
 47  23  51  1   
 48  23  52  1   
 49  24  26  1   
 50  24  53  1   
 51  24  54  1   
 52  25  27  1   
 53  25  28  1   
 54  26  29  1   
 55  26  55  1   
 56  26  56  1   
 57  27  30  2   
 58  28  29  2   
 59  28  57  1   
 60  29  30  1   
@<TRIPOS>SUBSTRUCTURE
  1 ****   3 GROUP 4 **** **** 0

# MOE 2024.06 (io_trps.svl 2023.06)
