@<TRIPOS>MOLECULE
NONAME
52 54 1 0 0 
SMALL
USER_CHARGES


@<TRIPOS>ATOM
  1 O       -1.4060     1.1760     2.2190 O.2   1 <1>  -0.5700 
  2 C       -2.1210     1.2360     1.2500 C.2   1 <1>   0.5690 
  3 N       -1.7070     1.6920     0.0300 N.am  1 <1>  -0.5470 
  4 C       -3.5470     0.7820     1.3970 C.3   1 <1>  -0.0380 
  5 C       -0.4420     2.1590    -0.3480 C.ar  1 <1>   0.1170 
  6 C       -3.8460    -0.1970     0.2990 C.2   1 <1>   0.5690 
  7 C        0.7060     1.3570    -0.3360 C.ar  1 <1>  -0.1440 
  8 C       -0.3490     3.4780    -0.7710 C.ar  1 <1>  -0.1500 
  9 O       -4.1850     0.2350    -0.7760 O.2   1 <1>  -0.5700 
 10 N       -3.7010    -1.5230     0.5290 N.am  1 <1>  -0.7300 
 11 C        1.9300     1.9040    -0.7180 C.ar  1 <1>  -0.1430 
 12 C        0.6130    -0.1080     0.0950 C.3   1 <1>  -0.0970 
 13 C        0.8610     4.0120    -1.1630 C.ar  1 <1>  -0.1500 
 14 C       -3.8790    -2.5850    -0.4870 C.3   1 <1>   0.2200 
 15 C        1.9960     3.2260    -1.1330 C.ar  1 <1>  -0.1500 
 16 C        3.2240     1.1010    -0.6930 C.3   1 <1>  -0.0970 
 17 C       -5.0500    -3.4670    -0.0890 C.3   1 <1>  -0.0800 
 18 C       -2.7130    -3.5620    -0.4060 C.3   1 <1>   0.1200 
 19 C       -4.3990    -4.4620     0.8810 C.3   1 <1>   0.1200 
 20 C       -5.6700    -4.1680    -1.3140 C.3   1 <1>  -0.0170 
 21 O       -3.0210    -4.4350     0.6380 O.3   1 <1>  -0.5600 
 22 C       -6.8590    -5.0290    -0.9180 C.ar  1 <1>  -0.1430 
 23 C       -6.7870    -6.4070    -0.8740 C.ar  1 <1>  -0.1500 
 24 C       -8.0770    -4.4730    -0.5840 C.ar  1 <1>  -0.1500 
 25 C       -7.9020    -7.1400    -0.5020 C.ar  1 <1>   0.1600 
 26 C       -9.1320    -5.2970    -0.2260 C.ar  1 <1>   0.1600 
 27 N       -9.0720    -6.6180    -0.1750 N.ar  1 <1>  -0.6200 
 28 H       -2.4100     1.6710    -0.7150 H     1 <1>   0.3700 
 29 H       -3.6900     0.3220     2.3560 H     1 <1>   0.0800 
 30 H       -4.2010     1.6290     1.3190 H     1 <1>   0.0800 
 31 H       -1.2310     4.0910    -0.7850 H     1 <1>   0.1500 
 32 H       -3.3550    -1.8670     1.4300 H     1 <1>   0.3700 
 33 H        1.3490    -0.7150    -0.3950 H     1 <1>   0.0800 
 34 H       -0.3470    -0.5230    -0.1490 H     1 <1>   0.0800 
 35 H        0.7570    -0.1770     1.1590 H     1 <1>   0.0800 
 36 H        0.9220     5.0360    -1.4870 H     1 <1>   0.1500 
 37 H       -3.9820    -2.1560    -1.4700 H     1 <1>   0.0800 
 38 H        2.9350     3.6550    -1.4340 H     1 <1>   0.1500 
 39 H        4.0780     1.7370    -0.8420 H     1 <1>   0.0800 
 40 H        3.2120     0.3620    -1.4740 H     1 <1>   0.0800 
 41 H        3.3380     0.6110     0.2570 H     1 <1>   0.0800 
 42 H       -5.8160    -2.8960     0.4040 H     1 <1>   0.0800 
 43 H       -1.7740    -3.0760    -0.2070 H     1 <1>   0.0800 
 44 H       -2.6380    -4.1440    -1.3070 H     1 <1>   0.0800 
 45 H       -4.7540    -5.4690     0.7550 H     1 <1>   0.0800 
 46 H       -4.5540    -4.1570     1.9010 H     1 <1>   0.0800 
 47 H       -4.9330    -4.7760    -1.8090 H     1 <1>   0.0800 
 48 H       -6.0040    -3.4260    -2.0180 H     1 <1>   0.0800 
 49 H       -5.8760    -6.9200    -1.1230 H     1 <1>   0.1500 
 50 H       -8.2180    -3.4080    -0.5990 H     1 <1>   0.1500 
 51 H       -7.8260    -8.2140    -0.4720 H     1 <1>   0.1500 
 52 H      -10.0750    -4.8450     0.0310 H     1 <1>   0.1500 
@<TRIPOS>BOND
  1   1   2  2   
  2   2   3  am  
  3   2   4  1   
  4   3   5  1   
  5   3  28  1   
  6   4   6  1   
  7   4  29  1   
  8   4  30  1   
  9   5   7  ar  
 10   5   8  ar  
 11   6   9  2   
 12   6  10  am  
 13   7  11  ar  
 14   7  12  1   
 15   8  13  ar  
 16   8  31  1   
 17  10  14  1   
 18  10  32  1   
 19  11  15  ar  
 20  11  16  1   
 21  12  33  1   
 22  12  34  1   
 23  12  35  1   
 24  13  15  ar  
 25  13  36  1   
 26  14  17  1   
 27  14  18  1   
 28  14  37  1   
 29  15  38  1   
 30  16  39  1   
 31  16  40  1   
 32  16  41  1   
 33  17  19  1   
 34  17  20  1   
 35  17  42  1   
 36  18  21  1   
 37  18  43  1   
 38  18  44  1   
 39  19  21  1   
 40  19  45  1   
 41  19  46  1   
 42  20  22  1   
 43  20  47  1   
 44  20  48  1   
 45  22  23  ar  
 46  22  24  ar  
 47  23  25  ar  
 48  23  49  1   
 49  24  26  ar  
 50  24  50  1   
 51  25  27  ar  
 52  25  51  1   
 53  26  27  ar  
 54  26  52  1   
@<TRIPOS>SUBSTRUCTURE
  1 ****  10 GROUP 4 **** **** 0

# MOE 2024.06 (io_trps.svl 2023.06)
