@<TRIPOS>MOLECULE
NONAME
51 53 1 0 0 
SMALL
USER_CHARGES


@<TRIPOS>ATOM
  1 F       -0.1230    -1.8420     1.9510 F     1 <1>  -0.1900 
  2 C       -1.0180    -2.6070     1.3810 C.ar  1 <1>   0.1900 
  3 C       -1.9570    -3.2380     2.1730 C.ar  1 <1>  -0.1500 
  4 C       -0.9930    -2.7560     0.0100 C.ar  1 <1>  -0.1500 
  5 C       -2.9090    -4.0500     1.5760 C.ar  1 <1>  -0.1440 
  6 C       -1.9450    -3.5670    -0.5800 C.ar  1 <1>  -0.1500 
  7 C       -2.9110    -4.2200     0.1860 C.ar  1 <1>   0.1170 
  8 C       -3.9430    -4.7390     2.4590 C.3   1 <1>  -0.0960 
  9 N       -3.8790    -5.0520    -0.4010 N.am  1 <1>  -0.5470 
 10 C       -4.3080    -5.2490    -1.6810 C.2   1 <1>   0.5690 
 11 O       -3.8920    -4.6540    -2.6460 O.2   1 <1>  -0.5700 
 12 C       -5.3990    -6.3060    -1.8680 C.3   1 <1>   0.1710 
 13 N       -6.1640    -6.6180    -0.6190 N.3   1 <1>  -0.8100 
 14 C       -6.8300    -7.9310    -0.7820 C.3   1 <1>   0.1100 
 15 C       -7.1270    -5.5370    -0.3360 C.3   1 <1>   0.1100 
 16 C       -7.5830    -8.4170     0.4670 C.3   1 <1>   0.1400 
 17 C       -7.5760    -5.5880     1.1270 C.3   1 <1>  -0.1600 
 18 N       -8.8840    -7.7040     0.6310 N.am  1 <1>  -0.6600 
 19 C       -8.8550    -6.4030     1.3570 C.3   1 <1>   0.1400 
 20 C      -10.0940    -8.2570     0.2290 C.2   1 <1>   0.7160 
 21 O      -11.1160    -7.7140     0.6220 O.2   1 <1>  -0.5700 
 22 C      -10.2010    -9.4530    -0.6130 C.2   1 <1>   0.1410 
 23 N       -9.3480    -9.7450    -1.6470 N.2   1 <1>  -0.5650 
 24 C      -11.1420   -10.4490    -0.5480 C.2   1 <1>  -0.3320 
 25 C       -9.7870   -10.8460    -2.1520 C.2   1 <1>   0.0360 
 26 N      -10.8780   -11.3240    -1.5260 N.pl3 1 <1>   0.0330 
 27 C      -12.3150   -10.6350     0.4030 C.3   1 <1>  -0.0600 
 28 H       -1.9310    -3.0880     3.2370 H     1 <1>   0.1500 
 29 H       -0.2490    -2.2500    -0.5770 H     1 <1>   0.1500 
 30 H       -1.9280    -3.6910    -1.6470 H     1 <1>   0.1500 
 31 H       -3.7580    -4.5370     3.4990 H     1 <1>   0.0800 
 32 H       -3.9100    -5.8040     2.3120 H     1 <1>   0.0800 
 33 H       -4.9260    -4.3780     2.2150 H     1 <1>   0.0800 
 34 H       -4.4420    -5.6090     0.2500 H     1 <1>   0.3700 
 35 H       -4.9050    -7.1950    -2.2190 H     1 <1>   0.0800 
 36 H       -6.0730    -5.9820    -2.6420 H     1 <1>   0.0800 
 37 H       -6.0790    -8.6680    -1.0050 H     1 <1>   0.0800 
 38 H       -7.5090    -7.8990    -1.6170 H     1 <1>   0.0800 
 39 H       -7.9750    -5.5970    -1.0000 H     1 <1>   0.0800 
 40 H       -6.6510    -4.5850    -0.4990 H     1 <1>   0.0800 
 41 H       -6.9690    -8.2840     1.3400 H     1 <1>   0.0800 
 42 H       -7.7660    -9.4720     0.3720 H     1 <1>   0.0800 
 43 H       -7.7800    -4.5840     1.4520 H     1 <1>   0.0800 
 44 H       -6.7820    -5.9610     1.7470 H     1 <1>   0.0800 
 45 H       -9.6920    -5.8070     1.0310 H     1 <1>   0.0800 
 46 H       -8.9820    -6.5890     2.4100 H     1 <1>   0.0800 
 47 H       -9.3430   -11.3510    -2.9920 H     1 <1>   0.1500 
 48 H      -11.3950   -12.1770    -1.7610 H     1 <1>   0.2700 
 49 H      -12.2990    -9.8970     1.1850 H     1 <1>   0.0800 
 50 H      -12.2740   -11.6070     0.8610 H     1 <1>   0.0800 
 51 H      -13.2430   -10.5370    -0.1320 H     1 <1>   0.0800 
@<TRIPOS>BOND
  1   1   2  1   
  2   2   3  ar  
  3   2   4  ar  
  4   3   5  ar  
  5   3  28  1   
  6   4   6  ar  
  7   4  29  1   
  8   5   7  ar  
  9   5   8  1   
 10   6   7  ar  
 11   6  30  1   
 12   7   9  1   
 13   8  31  1   
 14   8  32  1   
 15   8  33  1   
 16   9  10  am  
 17   9  34  1   
 18  10  11  2   
 19  10  12  1   
 20  12  13  1   
 21  12  35  1   
 22  12  36  1   
 23  13  14  1   
 24  13  15  1   
 25  14  16  1   
 26  14  37  1   
 27  14  38  1   
 28  15  17  1   
 29  15  39  1   
 30  15  40  1   
 31  16  18  1   
 32  16  41  1   
 33  16  42  1   
 34  17  19  1   
 35  17  43  1   
 36  17  44  1   
 37  18  19  1   
 38  18  20  am  
 39  19  45  1   
 40  19  46  1   
 41  20  21  2   
 42  20  22  1   
 43  22  23  1   
 44  22  24  2   
 45  23  25  2   
 46  24  26  1   
 47  24  27  1   
 48  25  26  1   
 49  25  47  1   
 50  26  48  1   
 51  27  49  1   
 52  27  50  1   
 53  27  51  1   
@<TRIPOS>SUBSTRUCTURE
  1 ****  13 GROUP 4 **** **** 0

# MOE 2024.06 (io_trps.svl 2023.06)
