@<TRIPOS>MOLECULE
NONAME
44 47 1 0 0 
SMALL
USER_CHARGES


@<TRIPOS>ATOM
  1 S       -0.6640    -1.7000     1.2110 S.3   1 <1>  -0.0800 
  2 C       -1.6130    -0.6040     0.2460 C.2   1 <1>  -0.1400 
  3 C        0.1970    -2.1830    -0.2310 C.2   1 <1>   0.2280 
  4 C       -1.2130    -0.7050    -1.0340 C.2   1 <1>   0.0460 
  5 C       -2.6580     0.2230     0.9770 C.3   1 <1>   0.2900 
  6 N       -0.1840    -1.5950    -1.2930 N.2   1 <1>  -0.5650 
  7 C       -1.7610     0.0440    -2.2320 C.3   1 <1>  -0.0590 
  8 N       -2.6710     1.6210     0.5040 N.3   1 <1>  -0.8100 
  9 C       -3.7760     2.3900     1.1110 C.3   1 <1>   0.2530 
 10 C       -1.3650     2.2920     0.7310 C.3   1 <1>   0.2900 
 11 C       -5.1270     1.7910     0.7450 C.ar  1 <1>  -0.1430 
 12 C       -1.2760     3.6560     0.0570 C.2   1 <1>   0.2980 
 13 C       -5.4990     1.6850    -0.5860 C.ar  1 <1>  -0.1500 
 14 C       -5.9950     1.3450     1.7310 C.ar  1 <1>  -0.1500 
 15 O       -1.2650     3.7090    -1.2510 O.3   1 <1>  -0.0190 
 16 N       -1.2140     4.7800     0.6540 N.2   1 <1>  -0.5650 
 17 C       -6.7220     1.1380    -0.9310 C.ar  1 <1>  -0.1500 
 18 C       -7.2190     0.7980     1.3880 C.ar  1 <1>  -0.1500 
 19 N       -1.1880     4.9780    -1.5120 N.2   1 <1>  -0.4100 
 20 C       -1.1580     5.5890    -0.3950 C.2   1 <1>   0.4300 
 21 C       -7.5830     0.6930     0.0570 C.ar  1 <1>  -0.1500 
 22 C       -1.0710     7.0960    -0.2140 C.3   1 <1>  -0.0140 
 23 C       -0.3660     7.9700    -1.2090 C.3   1 <1>  -0.2000 
 24 C        0.2340     7.7400     0.1450 C.3   1 <1>  -0.2000 
 25 H        0.9680    -2.9230    -0.1190 H     1 <1>   0.1500 
 26 H       -2.4620     0.2040     2.0350 H     1 <1>   0.0800 
 27 H       -3.6160    -0.2390     0.8070 H     1 <1>   0.0800 
 28 H       -2.6080     0.6440    -1.9570 H     1 <1>   0.0800 
 29 H       -2.0670    -0.6580    -2.9850 H     1 <1>   0.0800 
 30 H       -0.9990     0.6820    -2.6390 H     1 <1>   0.0800 
 31 H       -3.7600     3.4040     0.7480 H     1 <1>   0.0800 
 32 H       -3.6590     2.4200     2.1810 H     1 <1>   0.0800 
 33 H       -0.5650     1.6920     0.3340 H     1 <1>   0.0800 
 34 H       -1.1960     2.4110     1.7870 H     1 <1>   0.0800 
 35 H       -4.8280     2.0270    -1.3550 H     1 <1>   0.1500 
 36 H       -5.7250     1.4210     2.7690 H     1 <1>   0.1500 
 37 H       -7.0020     1.0580    -1.9670 H     1 <1>   0.1500 
 38 H       -7.8900     0.4530     2.1550 H     1 <1>   0.1500 
 39 H       -8.5350     0.2680    -0.2110 H     1 <1>   0.1500 
 40 H       -1.9580     7.4890     0.2490 H     1 <1>   0.1000 
 41 H       -0.7890     8.9320    -1.4370 H     1 <1>   0.1000 
 42 H        0.0940     7.5070    -2.0650 H     1 <1>   0.1000 
 43 H        1.1070     7.1150     0.2260 H     1 <1>   0.1000 
 44 H        0.2310     8.5420     0.8630 H     1 <1>   0.1000 
@<TRIPOS>BOND
  1   1   2  1   
  2   1   3  1   
  3   2   4  2   
  4   2   5  1   
  5   3   6  2   
  6   3  25  1   
  7   4   6  1   
  8   4   7  1   
  9   5   8  1   
 10   5  26  1   
 11   5  27  1   
 12   7  28  1   
 13   7  29  1   
 14   7  30  1   
 15   8   9  1   
 16   8  10  1   
 17   9  11  1   
 18   9  31  1   
 19   9  32  1   
 20  10  12  1   
 21  10  33  1   
 22  10  34  1   
 23  11  13  ar  
 24  11  14  ar  
 25  12  15  1   
 26  12  16  2   
 27  13  17  ar  
 28  13  35  1   
 29  14  18  ar  
 30  14  36  1   
 31  15  19  1   
 32  16  20  1   
 33  17  21  ar  
 34  17  37  1   
 35  18  21  ar  
 36  18  38  1   
 37  19  20  2   
 38  20  22  1   
 39  21  39  1   
 40  22  23  1   
 41  22  24  1   
 42  22  40  1   
 43  23  24  1   
 44  23  41  1   
 45  23  42  1   
 46  24  43  1   
 47  24  44  1   
@<TRIPOS>SUBSTRUCTURE
  1 ****   8 GROUP 4 **** **** 0

# MOE 2024.06 (io_trps.svl 2023.06)
