@<TRIPOS>MOLECULE
NONAME
52 54 1 0 0 
SMALL
USER_CHARGES


@<TRIPOS>ATOM
  1 S       -0.4220     0.7710     0.6850 S.o2  1 <1>   1.3330 
  2 O       -1.4320     1.8030     0.5950 O.2   1 <1>  -0.6500 
  3 O        0.3340     0.6240     1.9100 O.2   1 <1>  -0.6500 
  4 N       -1.1800    -0.7100     0.3500 N.am  1 <1>  -0.8490 
  5 C        0.7540     0.9670    -0.6920 C.3   1 <1>   0.0250 
  6 C       -2.2700    -0.5710    -0.6210 C.3   1 <1>   0.1960 
  7 C       -1.6740    -1.3600     1.5700 C.3   1 <1>   0.1960 
  8 C        1.7600    -0.1960    -0.8100 C.3   1 <1>  -0.2400 
  9 C        1.5380     2.2910    -0.6220 C.3   1 <1>  -0.2400 
 10 C       -2.7660    -1.9540    -1.0420 C.3   1 <1>  -0.1600 
 11 C       -2.1620    -2.7720     1.2450 C.3   1 <1>  -0.1600 
 12 C       -3.2540    -2.7590     0.1700 C.3   1 <1>   0.4240 
 13 O       -4.3340    -2.0670     0.7500 O.3   1 <1>  -0.5600 
 14 C       -3.6440    -4.1980    -0.2300 C.ar  1 <1>  -0.1440 
 15 C       -5.6020    -2.2780     0.2110 C.3   1 <1>   0.1200 
 16 C       -4.9460    -4.6590    -0.0930 C.ar  1 <1>  -0.1440 
 17 C       -2.6910    -5.0660    -0.7460 C.ar  1 <1>  -0.1500 
 18 C       -6.0080    -3.7280     0.4580 C.3   1 <1>  -0.0170 
 19 C       -5.2790    -5.9530    -0.4590 C.ar  1 <1>  -0.1500 
 20 C       -3.0030    -6.3640    -1.1120 C.ar  1 <1>   0.0820 
 21 C       -4.3230    -6.8220    -0.9790 C.ar  1 <1>   0.0820 
 22 O       -1.9520    -7.0890    -1.5890 O.3   1 <1>  -0.3620 
 23 O       -4.6510    -8.0880    -1.3730 O.3   1 <1>  -0.3620 
 24 C       -1.8670    -8.4790    -1.3700 C.3   1 <1>   0.0400 
 25 C       -5.9860    -8.5410    -1.4150 C.3   1 <1>   0.0400 
 26 H        0.1850     0.9870    -1.6010 H     1 <1>   0.0800 
 27 H       -1.9200    -0.0450    -1.4920 H     1 <1>   0.0800 
 28 H       -3.0800    -0.0020    -0.1900 H     1 <1>   0.0800 
 29 H       -2.4690    -0.7740     2.0040 H     1 <1>   0.0800 
 30 H       -0.8800    -1.4360     2.2940 H     1 <1>   0.0800 
 31 H        2.3610    -0.2590     0.0810 H     1 <1>   0.0800 
 32 H        2.4070    -0.0560    -1.6580 H     1 <1>   0.0800 
 33 H        1.2370    -1.1280    -0.9310 H     1 <1>   0.0800 
 34 H        2.1410     2.3200     0.2700 H     1 <1>   0.0800 
 35 H        0.8530     3.1210    -0.5940 H     1 <1>   0.0800 
 36 H        2.1770     2.4030    -1.4800 H     1 <1>   0.0800 
 37 H       -1.9540    -2.4710    -1.5180 H     1 <1>   0.0800 
 38 H       -3.5520    -1.8620    -1.7670 H     1 <1>   0.0800 
 39 H       -2.5460    -3.2400     2.1320 H     1 <1>   0.0800 
 40 H       -1.3180    -3.3470     0.9150 H     1 <1>   0.0800 
 41 H       -5.5820    -2.0550    -0.8410 H     1 <1>   0.0800 
 42 H       -6.2850    -1.6060     0.7010 H     1 <1>   0.0800 
 43 H       -1.6730    -4.7470    -0.8740 H     1 <1>   0.1500 
 44 H       -6.9530    -3.9160    -0.0170 H     1 <1>   0.0800 
 45 H       -6.1220    -3.8920     1.5150 H     1 <1>   0.0800 
 46 H       -6.2960    -6.2670    -0.3310 H     1 <1>   0.1500 
 47 H       -0.8400    -8.7740    -1.4860 H     1 <1>   0.0800 
 48 H       -2.4740    -8.9820    -2.1010 H     1 <1>   0.0800 
 49 H       -2.2050    -8.7000    -0.3730 H     1 <1>   0.0800 
 50 H       -5.9880    -9.5360    -1.8210 H     1 <1>   0.0800 
 51 H       -6.5570    -7.8860    -2.0500 H     1 <1>   0.0800 
 52 H       -6.3820    -8.5540    -0.4150 H     1 <1>   0.0800 
@<TRIPOS>BOND
  1   1   2  2   
  2   1   3  2   
  3   1   4  am  
  4   1   5  1   
  5   4   6  1   
  6   4   7  1   
  7   5   8  1   
  8   5   9  1   
  9   5  26  1   
 10   6  10  1   
 11   6  27  1   
 12   6  28  1   
 13   7  11  1   
 14   7  29  1   
 15   7  30  1   
 16   8  31  1   
 17   8  32  1   
 18   8  33  1   
 19   9  34  1   
 20   9  35  1   
 21   9  36  1   
 22  10  12  1   
 23  10  37  1   
 24  10  38  1   
 25  11  12  1   
 26  11  39  1   
 27  11  40  1   
 28  12  13  1   
 29  12  14  1   
 30  13  15  1   
 31  14  16  ar  
 32  14  17  ar  
 33  15  18  1   
 34  15  41  1   
 35  15  42  1   
 36  16  18  1   
 37  16  19  ar  
 38  17  20  ar  
 39  17  43  1   
 40  18  44  1   
 41  18  45  1   
 42  19  21  ar  
 43  19  46  1   
 44  20  21  ar  
 45  20  22  1   
 46  21  23  1   
 47  22  24  1   
 48  23  25  1   
 49  24  47  1   
 50  24  48  1   
 51  24  49  1   
 52  25  50  1   
 53  25  51  1   
 54  25  52  1   
@<TRIPOS>SUBSTRUCTURE
  1 ****  12 GROUP 4 **** **** 0

# MOE 2024.06 (io_trps.svl 2023.06)
