@<TRIPOS>MOLECULE
NONAME
49 53 1 0 0 
SMALL
USER_CHARGES


@<TRIPOS>ATOM
  1 O       -0.8440     0.2650    -0.6100 O.2   1 <1>  -0.5700 
  2 C       -1.6830     0.9110    -0.0170 C.2   1 <1>   0.5440 
  3 N       -2.7260     0.2470     0.5860 N.am  1 <1>  -0.6600 
  4 C       -1.5760     2.3490     0.0170 C.ar  1 <1>   0.0860 
  5 C       -2.6740    -1.2320     0.8300 C.3   1 <1>   0.1400 
  6 C       -4.1260     0.7770     0.6170 C.3   1 <1>   0.1400 
  7 C       -1.1160     3.0740    -1.0650 C.ar  1 <1>   0.1600 
  8 C       -1.9190     3.1000     1.1240 C.ar  1 <1>   0.1600 
  9 C       -3.6780    -1.9790    -0.0660 C.3   1 <1>   0.3440 
 10 C       -5.0590    -0.0820    -0.2620 C.3   1 <1>   0.2950 
 11 N       -1.0370     4.3870    -1.0710 N.ar  1 <1>  -0.6200 
 12 N       -1.8550     4.4130     1.1550 N.ar  1 <1>  -0.6200 
 13 O       -4.9610    -1.4300     0.0920 O.3   1 <1>  -0.5600 
 14 C       -3.7050    -3.4640     0.2870 C.ar  1 <1>  -0.1430 
 15 C       -6.5230     0.3340    -0.0960 C.3   1 <1>  -0.1950 
 16 C       -1.4100     4.9900     0.0480 C.ar  1 <1>   0.5880 
 17 C       -4.5780    -3.9710     1.2400 C.ar  1 <1>  -0.1500 
 18 C       -2.8260    -4.3300    -0.3490 C.ar  1 <1>  -0.1500 
 19 C       -7.5380     0.0320    -1.1520 C.3   1 <1>  -0.2000 
 20 C       -7.1060     1.4510    -0.9050 C.3   1 <1>  -0.2000 
 21 C       -1.3290     6.5100     0.0610 C.3   1 <1>  -0.0680 
 22 C       -4.5710    -5.3190     1.5540 C.ar  1 <1>  -0.1500 
 23 C       -2.8180    -5.6780    -0.0360 C.ar  1 <1>  -0.1500 
 24 C       -0.0490     7.2230    -0.2700 C.3   1 <1>  -0.2000 
 25 C       -0.5700     7.2410     1.1320 C.3   1 <1>  -0.2000 
 26 C       -3.6910    -6.1740     0.9160 C.ar  1 <1>  -0.1500 
 27 H       -1.6850    -1.6140     0.6470 H     1 <1>   0.0800 
 28 H       -2.9100    -1.4310     1.8610 H     1 <1>   0.0800 
 29 H       -4.4880     0.7670     1.6310 H     1 <1>   0.0800 
 30 H       -4.1610     1.7910     0.2610 H     1 <1>   0.0800 
 31 H       -0.8090     2.5460    -1.9530 H     1 <1>   0.1500 
 32 H       -2.2590     2.5950     2.0130 H     1 <1>   0.1500 
 33 H       -3.3930    -1.8670    -1.0980 H     1 <1>   0.0800 
 34 H       -4.7750     0.0130    -1.2960 H     1 <1>   0.0800 
 35 H       -6.8500     0.2500     0.9270 H     1 <1>   0.1000 
 36 H       -5.2700    -3.3150     1.7400 H     1 <1>   0.1500 
 37 H       -2.1400    -3.9590    -1.0910 H     1 <1>   0.1500 
 38 H       -7.2150    -0.4680    -2.0490 H     1 <1>   0.1000 
 39 H       -8.5210    -0.2790    -0.8410 H     1 <1>   0.1000 
 40 H       -7.8040     2.1240    -0.4370 H     1 <1>   0.1000 
 41 H       -6.5110     1.9360    -1.6600 H     1 <1>   0.1000 
 42 H       -2.2440     6.9530    -0.2870 H     1 <1>   0.1000 
 43 H       -5.2540    -5.7010     2.2930 H     1 <1>   0.1500 
 44 H       -2.1330    -6.3420    -0.5340 H     1 <1>   0.1500 
 45 H        0.8230     6.6320    -0.4940 H     1 <1>   0.1000 
 46 H       -0.1020     8.1200    -0.8620 H     1 <1>   0.1000 
 47 H       -0.9890     8.1510     1.5240 H     1 <1>   0.1000 
 48 H       -0.0600     6.6630     1.8840 H     1 <1>   0.1000 
 49 H       -3.6860    -7.2220     1.1590 H     1 <1>   0.1500 
@<TRIPOS>BOND
  1   1   2  2   
  2   2   3  am  
  3   2   4  1   
  4   3   5  1   
  5   3   6  1   
  6   4   7  ar  
  7   4   8  ar  
  8   5   9  1   
  9   5  27  1   
 10   5  28  1   
 11   6  10  1   
 12   6  29  1   
 13   6  30  1   
 14   7  11  ar  
 15   7  31  1   
 16   8  12  ar  
 17   8  32  1   
 18   9  13  1   
 19   9  14  1   
 20   9  33  1   
 21  10  13  1   
 22  10  15  1   
 23  10  34  1   
 24  11  16  ar  
 25  12  16  ar  
 26  14  17  ar  
 27  14  18  ar  
 28  15  19  1   
 29  15  20  1   
 30  15  35  1   
 31  16  21  1   
 32  17  22  ar  
 33  17  36  1   
 34  18  23  ar  
 35  18  37  1   
 36  19  20  1   
 37  19  38  1   
 38  19  39  1   
 39  20  40  1   
 40  20  41  1   
 41  21  24  1   
 42  21  25  1   
 43  21  42  1   
 44  22  26  ar  
 45  22  43  1   
 46  23  26  ar  
 47  23  44  1   
 48  24  25  1   
 49  24  45  1   
 50  24  46  1   
 51  25  47  1   
 52  25  48  1   
 53  26  49  1   
@<TRIPOS>SUBSTRUCTURE
  1 ****   3 GROUP 4 **** **** 0

# MOE 2024.06 (io_trps.svl 2023.06)
