@<TRIPOS>MOLECULE
NONAME
49 51 1 0 0 
SMALL
USER_CHARGES


@<TRIPOS>ATOM
  1 O       -0.1850    -0.3450    -1.0160 O.3   1 <1>  -0.3630 
  2 C       -0.1140    -1.6560    -0.7990 C.ar  1 <1>   0.3920 
  3 C        0.9250     0.5270    -1.0750 C.3   1 <1>   0.2000 
  4 N        1.0770    -2.2330    -0.6500 N.ar  1 <1>  -0.6200 
  5 C       -1.3010    -2.3540    -0.7410 C.ar  1 <1>  -0.1500 
  6 C        1.2970     0.9450     0.3480 C.3   1 <1>  -0.2400 
  7 C        0.5090     1.7310    -1.9160 C.3   1 <1>  -0.2400 
  8 C        1.0680    -3.5250    -0.4400 C.ar  1 <1>   0.7710 
  9 C       -1.2760    -3.7140    -0.5190 C.ar  1 <1>   0.4610 
 10 N       -0.0580    -4.2590    -0.3750 N.ar  1 <1>  -0.1790 
 11 N        2.2570    -4.1100    -0.2850 N.pl3 1 <1>  -0.9000 
 12 N       -2.3750    -4.5160    -0.4370 N.pl3 1 <1>  -0.8380 
 13 C       -3.7920    -4.0380    -0.5350 C.3   1 <1>   0.2090 
 14 C       -2.3830    -6.0020    -0.2720 C.3   1 <1>   0.2090 
 15 C       -4.6360    -5.1730     0.0480 C.3   1 <1>   0.2000 
 16 C       -3.8500    -6.4330    -0.3230 C.3   1 <1>  -0.0800 
 17 O       -4.6710    -5.0310     1.4280 O.3   1 <1>  -0.6800 
 18 C       -4.1410    -7.6810     0.5330 C.3   1 <1>   0.0210 
 19 C       -3.3400    -8.8810     0.0590 C.2   1 <1>   0.1080 
 20 N       -2.0410    -8.9440     0.0980 N.2   1 <1>  -0.7070 
 21 C       -3.9060   -10.0400    -0.4590 C.2   1 <1>  -0.1500 
 22 N       -1.7490   -10.1710    -0.3870 N.pl3 1 <1>   0.3000 
 23 C       -2.8620   -10.8470    -0.7360 C.2   1 <1>  -0.3320 
 24 C       -2.8600   -12.2500    -1.3170 C.3   1 <1>  -0.0600 
 25 H        1.7470     0.0210    -1.5550 H     1 <1>   0.0800 
 26 H       -2.2240    -1.8240    -0.8730 H     1 <1>   0.1500 
 27 H        0.4630     1.4240     0.8300 H     1 <1>   0.0800 
 28 H        2.1190     1.6370     0.3220 H     1 <1>   0.0800 
 29 H        1.5990     0.0890     0.9240 H     1 <1>   0.0800 
 30 H       -0.3270     2.2350    -1.4650 H     1 <1>   0.0800 
 31 H        0.2430     1.4140    -2.9080 H     1 <1>   0.0800 
 32 H        1.3260     2.4250    -1.9920 H     1 <1>   0.0800 
 33 H        0.0110    -5.2510    -0.2100 H     1 <1>   0.4570 
 34 H        2.4640    -5.0950    -0.1110 H     1 <1>   0.4000 
 35 H        3.0890    -3.5140    -0.3420 H     1 <1>   0.4000 
 36 H       -3.9550    -3.1190     0.0040 H     1 <1>   0.0800 
 37 H       -4.0460    -3.8970    -1.5720 H     1 <1>   0.0800 
 38 H       -1.8270    -6.4880    -1.0570 H     1 <1>   0.0800 
 39 H       -1.9600    -6.2620     0.6850 H     1 <1>   0.0800 
 40 H       -5.6480    -5.1780    -0.3190 H     1 <1>   0.0800 
 41 H       -4.0780    -6.6730    -1.3470 H     1 <1>   0.0800 
 42 H       -3.7650    -4.9060     1.7720 H     1 <1>   0.4000 
 43 H       -5.1900    -7.9110     0.4840 H     1 <1>   0.0800 
 44 H       -3.8950    -7.5020     1.5640 H     1 <1>   0.0800 
 45 H       -4.9570   -10.2310    -0.5950 H     1 <1>   0.1500 
 46 H       -0.7880   -10.5240    -0.4620 H     1 <1>   0.2700 
 47 H       -3.8690   -12.5720    -1.5080 H     1 <1>   0.0800 
 48 H       -2.4070   -12.9380    -0.6260 H     1 <1>   0.0800 
 49 H       -2.3140   -12.2710    -2.2430 H     1 <1>   0.0800 
@<TRIPOS>BOND
  1   1   2  1   
  2   1   3  1   
  3   2   4  ar  
  4   2   5  ar  
  5   3   6  1   
  6   3   7  1   
  7   3  25  1   
  8   4   8  ar  
  9   5   9  ar  
 10   5  26  1   
 11   6  27  1   
 12   6  28  1   
 13   6  29  1   
 14   7  30  1   
 15   7  31  1   
 16   7  32  1   
 17   8  10  ar  
 18   8  11  1   
 19   9  10  ar  
 20   9  12  1   
 21  10  33  1   
 22  11  34  1   
 23  11  35  1   
 24  12  13  1   
 25  12  14  1   
 26  13  15  1   
 27  13  36  1   
 28  13  37  1   
 29  14  16  1   
 30  14  38  1   
 31  14  39  1   
 32  15  16  1   
 33  15  17  1   
 34  15  40  1   
 35  16  18  1   
 36  16  41  1   
 37  17  42  1   
 38  18  19  1   
 39  18  43  1   
 40  18  44  1   
 41  19  20  2   
 42  19  21  1   
 43  20  22  1   
 44  21  23  2   
 45  21  45  1   
 46  22  23  1   
 47  22  46  1   
 48  23  24  1   
 49  24  47  1   
 50  24  48  1   
 51  24  49  1   
@<TRIPOS>SUBSTRUCTURE
  1 ****  12 GROUP 4 **** **** 0

# MOE 2024.06 (io_trps.svl 2023.06)
