@<TRIPOS>MOLECULE
NONAME
53 55 1 0 0 
SMALL
USER_CHARGES


@<TRIPOS>ATOM
  1 O        2.4510    -0.7770    -2.4260 O.2   1 <1>  -0.5700 
  2 C        2.5090    -0.9200    -1.2300 C.2   1 <1>   0.5690 
  3 N        2.6800     0.1570    -0.3940 N.am  1 <1>  -0.6600 
  4 C        2.4090    -2.3360    -0.6970 C.3   1 <1>  -0.0990 
  5 C        3.2790     0.0720     0.9680 C.3   1 <1>   0.1400 
  6 C        2.4070     1.5380    -0.8830 C.3   1 <1>   0.1400 
  7 C        1.0070    -2.6120    -0.1450 C.3   1 <1>   0.0200 
  8 C        4.8160    -0.0260     0.8740 C.3   1 <1>   0.3430 
  9 C        3.6830     2.3840    -0.9560 C.3   1 <1>  -0.1600 
 10 C        0.9240    -4.0190     0.4230 C.2   1 <1>  -0.3320 
 11 N        5.4820     1.1640     0.2370 N.4   1 <1>  -0.9590 
 12 C        4.9670     1.5680    -1.1100 C.3   1 <1>   0.3430 
 13 N        0.8100    -5.1560    -0.3060 N.pl3 1 <1>   0.3140 
 14 C        0.9380    -4.3920     1.7210 C.2   1 <1>  -0.1500 
 15 C        6.9670     1.0380     0.2110 C.3   1 <1>   0.5230 
 16 N        0.7630    -6.2400     0.4860 N.2   1 <1>  -0.7070 
 17 C        0.7250    -5.2950    -1.7670 C.3   1 <1>   0.0160 
 18 C        0.8370    -5.7770     1.6950 C.2   1 <1>   0.1390 
 19 C        7.5630     2.4330     0.3000 C.2   1 <1>   0.0060 
 20 N        6.8880     3.4600     0.6990 N.2   1 <1>  -0.3380 
 21 N        8.8250     2.7630    -0.0070 N.pl3 1 <1>   0.0480 
 22 N        7.7060     4.5050     0.6550 N.2   1 <1>  -0.3380 
 23 C        8.8460     4.0750     0.2390 C.2   1 <1>   0.0360 
 24 C        9.9530     1.9380    -0.4970 C.3   1 <1>   0.0960 
 25 C       10.5620     1.1150     0.6420 C.3   1 <1>  -0.2400 
 26 H        3.1470    -2.5170     0.0590 H     1 <1>   0.0800 
 27 H        2.6090    -3.0170    -1.5050 H     1 <1>   0.0800 
 28 H        2.8960    -0.7920     1.4810 H     1 <1>   0.0800 
 29 H        3.0000     0.9340     1.5490 H     1 <1>   0.0800 
 30 H        1.6870     2.0130    -0.2380 H     1 <1>   0.0800 
 31 H        1.9630     1.4920    -1.8650 H     1 <1>   0.0800 
 32 H        0.2700    -2.4810    -0.9190 H     1 <1>   0.0800 
 33 H        0.7820    -1.9060     0.6360 H     1 <1>   0.0800 
 34 H        5.0610    -0.9140     0.3150 H     1 <1>   0.0800 
 35 H        5.2050    -0.1520     1.8720 H     1 <1>   0.0800 
 36 H        3.7510     3.0350    -0.1020 H     1 <1>   0.0800 
 37 H        3.5890     3.0240    -1.8150 H     1 <1>   0.0800 
 38 H        5.3410     1.9990     0.8340 H     1 <1>   0.4500 
 39 H        5.6990     2.1970    -1.5930 H     1 <1>   0.0800 
 40 H        4.7920     0.7070    -1.7360 H     1 <1>   0.0800 
 41 H        1.0070    -3.7880     2.6070 H     1 <1>   0.1500 
 42 H        7.2860     0.5450    -0.6920 H     1 <1>   0.0800 
 43 H        7.3060     0.4670     1.0600 H     1 <1>   0.0800 
 44 H        0.1010    -4.5190    -2.1680 H     1 <1>   0.0800 
 45 H        0.2990    -6.2530    -2.0020 H     1 <1>   0.0800 
 46 H        1.7110    -5.2310    -2.1850 H     1 <1>   0.0800 
 47 H        0.8210    -6.4050     2.5690 H     1 <1>   0.1500 
 48 H        9.7180     4.6900     0.1030 H     1 <1>   0.1500 
 49 H       10.7040     2.5910    -0.9090 H     1 <1>   0.0800 
 50 H        9.6060     1.2920    -1.2840 H     1 <1>   0.0800 
 51 H       10.9170     1.7630     1.4250 H     1 <1>   0.0800 
 52 H       11.4010     0.5510     0.2720 H     1 <1>   0.0800 
 53 H        9.8480     0.4230     1.0510 H     1 <1>   0.0800 
@<TRIPOS>BOND
  1   1   2  2   
  2   2   3  am  
  3   2   4  1   
  4   3   5  1   
  5   3   6  1   
  6   4   7  1   
  7   4  26  1   
  8   4  27  1   
  9   5   8  1   
 10   5  28  1   
 11   5  29  1   
 12   6   9  1   
 13   6  30  1   
 14   6  31  1   
 15   7  10  1   
 16   7  32  1   
 17   7  33  1   
 18   8  11  1   
 19   8  34  1   
 20   8  35  1   
 21   9  12  1   
 22   9  36  1   
 23   9  37  1   
 24  10  13  1   
 25  10  14  2   
 26  11  12  1   
 27  11  15  1   
 28  11  38  1   
 29  12  39  1   
 30  12  40  1   
 31  13  16  1   
 32  13  17  1   
 33  14  18  1   
 34  14  41  1   
 35  15  19  1   
 36  15  42  1   
 37  15  43  1   
 38  16  18  2   
 39  17  44  1   
 40  17  45  1   
 41  17  46  1   
 42  18  47  1   
 43  19  20  2   
 44  19  21  1   
 45  20  22  1   
 46  21  23  1   
 47  21  24  1   
 48  22  23  2   
 49  23  48  1   
 50  24  25  1   
 51  24  49  1   
 52  24  50  1   
 53  25  51  1   
 54  25  52  1   
 55  25  53  1   
@<TRIPOS>SUBSTRUCTURE
  1 ****   8 GROUP 4 **** **** 0

# MOE 2024.06 (io_trps.svl 2023.06)
