@<TRIPOS>MOLECULE
NONAME
51 54 1 0 0 
SMALL
USER_CHARGES


@<TRIPOS>ATOM
  1 S       -2.7990     1.9540    -1.6530 S.3   1 <1>  -0.4600 
  2 C       -3.1140     0.3580    -2.4910 C.3   1 <1>   0.1310 
  3 C       -1.3670     1.5940    -0.6040 C.3   1 <1>   0.0700 
  4 C       -3.3290    -0.7650    -1.4810 C.2   1 <1>   0.5690 
  5 C       -1.0490     2.8590     0.1860 C.3   1 <1>  -0.2400 
  6 O       -2.4070    -1.5290    -1.3070 O.2   1 <1>  -0.5700 
  7 N       -4.5090    -0.9020    -0.7890 N.am  1 <1>  -0.6600 
  8 C       -5.6490     0.0750    -0.8630 C.3   1 <1>   0.1400 
  9 C       -4.6330    -1.9890     0.2290 C.3   1 <1>   0.1400 
 10 C       -6.1770     0.4270     0.5410 C.3   1 <1>   0.1430 
 11 C       -6.0790    -2.1560     0.7090 C.3   1 <1>  -0.1600 
 12 C       -7.2550     1.4870     0.3780 C.ar  1 <1>   0.1670 
 13 C       -6.6850    -0.8510     1.2660 C.3   1 <1>  -0.1600 
 14 C       -5.0990     1.1900     1.3660 C.3   1 <1>  -0.1600 
 15 N       -8.4720     1.2770    -0.0650 N.ar  1 <1>  -0.6200 
 16 C       -6.8020     2.7220     0.7240 C.ar  1 <1>  -0.1440 
 17 C       -5.3620     2.6920     1.1680 C.3   1 <1>  -0.0170 
 18 C       -9.2650     2.3540    -0.1400 C.ar  1 <1>   0.6200 
 19 C       -7.6700     3.7770     0.6140 C.ar  1 <1>   0.1600 
 20 N       -8.9000     3.6020     0.1880 N.ar  1 <1>  -0.6200 
 21 C      -10.6280     2.1530    -0.6170 C.ar  1 <1>   0.0000 
 22 C      -10.9590     1.0950    -1.4700 C.ar  1 <1>  -0.1500 
 23 C      -11.6700     3.0080    -0.2450 C.ar  1 <1>  -0.1500 
 24 C      -12.2510     0.9010    -1.9240 C.ar  1 <1>  -0.1500 
 25 C      -12.9640     2.8210    -0.6950 C.ar  1 <1>  -0.1500 
 26 C      -13.2580     1.7650    -1.5370 C.ar  1 <1>  -0.1500 
 27 H       -2.2530     0.1480    -3.0990 H     1 <1>   0.0800 
 28 H       -3.9750     0.4840    -3.1190 H     1 <1>   0.0800 
 29 H       -0.5540     1.3080    -1.2490 H     1 <1>   0.0800 
 30 H       -1.6280     0.7770     0.0470 H     1 <1>   0.0800 
 31 H       -0.8200     3.6670    -0.4870 H     1 <1>   0.0800 
 32 H       -0.1990     2.6890     0.8220 H     1 <1>   0.0800 
 33 H       -1.8890     3.1370     0.7970 H     1 <1>   0.0800 
 34 H       -6.4470    -0.3630    -1.4380 H     1 <1>   0.0800 
 35 H       -5.3530     0.9810    -1.3590 H     1 <1>   0.0800 
 36 H       -3.9990    -1.7510     1.0670 H     1 <1>   0.0800 
 37 H       -4.2850    -2.9150    -0.1970 H     1 <1>   0.0800 
 38 H       -6.1210    -2.9220     1.4630 H     1 <1>   0.0800 
 39 H       -6.6700    -2.4970    -0.1230 H     1 <1>   0.0800 
 40 H       -7.7540    -0.9250     1.1660 H     1 <1>   0.0800 
 41 H       -6.4840    -0.7870     2.3200 H     1 <1>   0.0800 
 42 H       -4.0940     0.9310     1.0850 H     1 <1>   0.0800 
 43 H       -5.2160     0.9780     2.4130 H     1 <1>   0.0800 
 44 H       -4.7340     3.0900     0.3900 H     1 <1>   0.0800 
 45 H       -5.2110     3.2450     2.0790 H     1 <1>   0.0800 
 46 H       -7.3550     4.7720     0.8760 H     1 <1>   0.1500 
 47 H      -10.1900     0.4110    -1.7840 H     1 <1>   0.1500 
 48 H      -11.4610     3.8350     0.4110 H     1 <1>   0.1500 
 49 H      -12.4730     0.0760    -2.5790 H     1 <1>   0.1500 
 50 H      -13.7420     3.4980    -0.3900 H     1 <1>   0.1500 
 51 H      -14.2640     1.6170    -1.8890 H     1 <1>   0.1500 
@<TRIPOS>BOND
  1   1   2  1   
  2   1   3  1   
  3   2   4  1   
  4   2  27  1   
  5   2  28  1   
  6   3   5  1   
  7   3  29  1   
  8   3  30  1   
  9   4   6  2   
 10   4   7  am  
 11   5  31  1   
 12   5  32  1   
 13   5  33  1   
 14   7   8  1   
 15   7   9  1   
 16   8  10  1   
 17   8  34  1   
 18   8  35  1   
 19   9  11  1   
 20   9  36  1   
 21   9  37  1   
 22  10  12  1   
 23  10  13  1   
 24  10  14  1   
 25  11  13  1   
 26  11  38  1   
 27  11  39  1   
 28  12  15  ar  
 29  12  16  ar  
 30  13  40  1   
 31  13  41  1   
 32  14  17  1   
 33  14  42  1   
 34  14  43  1   
 35  15  18  ar  
 36  16  17  1   
 37  16  19  ar  
 38  17  44  1   
 39  17  45  1   
 40  18  20  ar  
 41  18  21  1   
 42  19  20  ar  
 43  19  46  1   
 44  21  22  ar  
 45  21  23  ar  
 46  22  24  ar  
 47  22  47  1   
 48  23  25  ar  
 49  23  48  1   
 50  24  26  ar  
 51  24  49  1   
 52  25  26  ar  
 53  25  50  1   
 54  26  51  1   
@<TRIPOS>SUBSTRUCTURE
  1 ****  12 GROUP 4 **** **** 0

# MOE 2024.06 (io_trps.svl 2023.06)
