@<TRIPOS>MOLECULE
NONAME
43 46 1 0 0 
SMALL
USER_CHARGES


@<TRIPOS>ATOM
  1 CL      -0.1220    -0.1950    -1.0960 Cl    1 <1>  -0.1770 
  2 C       -0.1140    -1.8460    -0.5360 C.ar  1 <1>   0.1770 
  3 C       -0.9870    -2.7700    -1.0820 C.ar  1 <1>   0.1600 
  4 C        0.7620    -2.2300     0.4510 C.ar  1 <1>  -0.1500 
  5 N       -1.0530    -4.0410    -0.7150 N.ar  1 <1>  -0.6200 
  6 C        0.7040    -3.5530     0.8360 C.ar  1 <1>  -0.1500 
  7 C       -0.2030    -4.4450     0.2530 C.ar  1 <1>   0.3960 
  8 C       -0.1970    -5.8400     0.7040 C.2   1 <1>   0.5440 
  9 O        0.8750    -6.3890     0.8970 O.2   1 <1>  -0.5700 
 10 N       -1.3430    -6.5840     0.9390 N.am  1 <1>  -0.6600 
 11 C       -1.3270    -8.0810     0.9520 C.3   1 <1>   0.1400 
 12 C       -2.7380    -6.0490     0.9300 C.3   1 <1>   0.1400 
 13 C       -2.2200    -8.6440    -0.1730 C.3   1 <1>   0.3440 
 14 C       -3.5370    -6.6850    -0.2220 C.3   1 <1>   0.2950 
 15 O       -3.5070    -8.0800    -0.1120 O.3   1 <1>  -0.5600 
 16 C       -2.3220   -10.1640    -0.0680 C.ar  1 <1>  -0.1440 
 17 C       -5.0050    -6.2500    -0.1960 C.3   1 <1>  -0.1950 
 18 C       -3.3020   -10.7730     0.7050 C.ar  1 <1>  -0.1500 
 19 C       -1.4090   -10.9600    -0.7450 C.ar  1 <1>  -0.1500 
 20 C       -5.8490    -6.3010    -1.4290 C.3   1 <1>  -0.2000 
 21 C       -5.4400    -4.9750    -0.8500 C.3   1 <1>  -0.2000 
 22 C       -3.3680   -12.1520     0.8000 C.ar  1 <1>  -0.1500 
 23 C       -1.4730   -12.3400    -0.6510 C.ar  1 <1>  -0.1500 
 24 C       -2.4530   -12.9370     0.1220 C.ar  1 <1>  -0.1500 
 25 H       -1.6580    -2.4380    -1.8560 H     1 <1>   0.1500 
 26 H        1.4530    -1.5310     0.8890 H     1 <1>   0.1500 
 27 H        1.3700    -3.9190     1.5980 H     1 <1>   0.1500 
 28 H       -0.3270    -8.4560     0.8230 H     1 <1>   0.0800 
 29 H       -1.6880    -8.4340     1.9020 H     1 <1>   0.0800 
 30 H       -3.2140    -6.2960     1.8630 H     1 <1>   0.0800 
 31 H       -2.7510    -4.9800     0.8380 H     1 <1>   0.0800 
 32 H       -1.7960    -8.3860    -1.1280 H     1 <1>   0.0800 
 33 H       -3.0950    -6.4090    -1.1650 H     1 <1>   0.0800 
 34 H       -5.4830    -6.5090     0.7330 H     1 <1>   0.1000 
 35 H       -4.0210   -10.1700     1.2340 H     1 <1>   0.1500 
 36 H       -0.6400   -10.5110    -1.3500 H     1 <1>   0.1500 
 37 H       -5.3990    -6.6360    -2.3480 H     1 <1>   0.1000 
 38 H       -6.8720    -6.6230    -1.3330 H     1 <1>   0.1000 
 39 H       -6.1890    -4.3720    -0.3670 H     1 <1>   0.1000 
 40 H       -4.7190    -4.3840    -1.3900 H     1 <1>   0.1000 
 41 H       -4.1330   -12.6120     1.4010 H     1 <1>   0.1500 
 42 H       -0.7610   -12.9490    -1.1800 H     1 <1>   0.1500 
 43 H       -2.5040   -14.0090     0.1950 H     1 <1>   0.1500 
@<TRIPOS>BOND
  1   1   2  1   
  2   2   3  ar  
  3   2   4  ar  
  4   3   5  ar  
  5   3  25  1   
  6   4   6  ar  
  7   4  26  1   
  8   5   7  ar  
  9   6   7  ar  
 10   6  27  1   
 11   7   8  1   
 12   8   9  2   
 13   8  10  am  
 14  10  11  1   
 15  10  12  1   
 16  11  13  1   
 17  11  28  1   
 18  11  29  1   
 19  12  14  1   
 20  12  30  1   
 21  12  31  1   
 22  13  15  1   
 23  13  16  1   
 24  13  32  1   
 25  14  15  1   
 26  14  17  1   
 27  14  33  1   
 28  16  18  ar  
 29  16  19  ar  
 30  17  20  1   
 31  17  21  1   
 32  17  34  1   
 33  18  22  ar  
 34  18  35  1   
 35  19  23  ar  
 36  19  36  1   
 37  20  21  1   
 38  20  37  1   
 39  20  38  1   
 40  21  39  1   
 41  21  40  1   
 42  22  24  ar  
 43  22  41  1   
 44  23  24  ar  
 45  23  42  1   
 46  24  43  1   
@<TRIPOS>SUBSTRUCTURE
  1 ****  10 GROUP 4 **** **** 0

# MOE 2024.06 (io_trps.svl 2023.06)
