@<TRIPOS>MOLECULE
NONAME
45 46 1 0 0 
SMALL
USER_CHARGES


@<TRIPOS>ATOM
  1 S        0.1300     0.3720     0.7740 S.o2  1 <1>   1.3330 
  2 O        0.6020    -0.1870     2.0210 O.2   1 <1>  -0.6500 
  3 O       -0.6700     1.5750     0.7910 O.2   1 <1>  -0.6500 
  4 N       -0.7450    -0.8370    -0.0350 N.am  1 <1>  -0.8490 
  5 C        1.5130     0.6560    -0.3320 C.3   1 <1>  -0.0550 
  6 C       -0.2450    -2.1910     0.2280 C.3   1 <1>   0.1160 
  7 C       -2.1810    -0.7710     0.2530 C.3   1 <1>   0.1160 
  8 C        2.4580     1.7820     0.1340 C.3   1 <1>  -0.0800 
  9 C        3.4590     2.1390    -0.9500 C.3   1 <1>   0.2200 
 10 C        3.3820     1.3230     1.2640 C.3   1 <1>   0.1200 
 11 N        3.9590     3.5120    -0.7180 N.am  1 <1>  -0.7300 
 12 C        4.5780     1.1300    -0.7020 C.3   1 <1>   0.1200 
 13 O        4.5130     0.7800     0.6500 O.3   1 <1>  -0.5600 
 14 C        3.7570     4.5770    -1.5360 C.2   1 <1>   0.5690 
 15 O        3.1260     4.4750    -2.5600 O.2   1 <1>  -0.5700 
 16 C        4.3310     5.9380    -1.1610 C.3   1 <1>   0.1810 
 17 O        5.1450     5.8600     0.0040 O.3   1 <1>  -0.3630 
 18 C        5.7620     6.9590     0.5060 C.ar  1 <1>   0.0820 
 19 C        5.6330     8.2360    -0.0430 C.ar  1 <1>  -0.1500 
 20 C        6.5570     6.7620     1.6280 C.ar  1 <1>  -0.1500 
 21 C        6.2990     9.3060     0.5320 C.ar  1 <1>  -0.1500 
 22 C        7.2270     7.8260     2.2090 C.ar  1 <1>  -0.1500 
 23 C        7.0830     9.0800     1.6480 C.ar  1 <1>   0.1900 
 24 F        7.7120    10.0890     2.1910 F     1 <1>  -0.1900 
 25 H        2.0700    -0.2530    -0.4520 H     1 <1>   0.0800 
 26 H        1.1140     0.9230    -1.2920 H     1 <1>   0.0800 
 27 H       -0.7740    -2.9050    -0.3800 H     1 <1>   0.0800 
 28 H       -0.3810    -2.4480     1.2670 H     1 <1>   0.0800 
 29 H        0.8030    -2.2540    -0.0080 H     1 <1>   0.0800 
 30 H       -2.7060    -1.5400    -0.2860 H     1 <1>   0.0800 
 31 H       -2.5750     0.1830    -0.0560 H     1 <1>   0.0800 
 32 H       -2.3570    -0.8920     1.3090 H     1 <1>   0.0800 
 33 H        1.8710     2.6390     0.4220 H     1 <1>   0.0800 
 34 H        3.0550     2.0560    -1.9460 H     1 <1>   0.0800 
 35 H        2.9470     0.5830     1.9120 H     1 <1>   0.0800 
 36 H        3.7060     2.1630     1.8540 H     1 <1>   0.0800 
 37 H        4.5280     3.6460     0.1240 H     1 <1>   0.3700 
 38 H        5.5510     1.5300    -0.9250 H     1 <1>   0.0800 
 39 H        4.4130     0.2350    -1.2750 H     1 <1>   0.0800 
 40 H        3.5220     6.6180    -0.9660 H     1 <1>   0.0800 
 41 H        4.9320     6.3030    -1.9730 H     1 <1>   0.0800 
 42 H        5.0250     8.4200    -0.9090 H     1 <1>   0.1500 
 43 H        6.6500     5.7740     2.0420 H     1 <1>   0.1500 
 44 H        6.2150    10.2990     0.1280 H     1 <1>   0.1500 
 45 H        7.8460     7.6900     3.0770 H     1 <1>   0.1500 
@<TRIPOS>BOND
  1   1   2  2   
  2   1   3  2   
  3   1   4  am  
  4   1   5  1   
  5   4   6  1   
  6   4   7  1   
  7   5   8  1   
  8   5  25  1   
  9   5  26  1   
 10   6  27  1   
 11   6  28  1   
 12   6  29  1   
 13   7  30  1   
 14   7  31  1   
 15   7  32  1   
 16   8   9  1   
 17   8  10  1   
 18   8  33  1   
 19   9  11  1   
 20   9  12  1   
 21   9  34  1   
 22  10  13  1   
 23  10  35  1   
 24  10  36  1   
 25  11  14  am  
 26  11  37  1   
 27  12  13  1   
 28  12  38  1   
 29  12  39  1   
 30  14  15  2   
 31  14  16  1   
 32  16  17  1   
 33  16  40  1   
 34  16  41  1   
 35  17  18  1   
 36  18  19  ar  
 37  18  20  ar  
 38  19  21  ar  
 39  19  42  1   
 40  20  22  ar  
 41  20  43  1   
 42  21  23  ar  
 43  21  44  1   
 44  22  23  ar  
 45  22  45  1   
 46  23  24  1   
@<TRIPOS>SUBSTRUCTURE
  1 ****  11 GROUP 4 **** **** 0

# MOE 2024.06 (io_trps.svl 2023.06)
