@<TRIPOS>MOLECULE
NONAME
34 36 1 0 0 
SMALL
USER_CHARGES


@<TRIPOS>ATOM
  1 CL      -0.1960     0.0790    -0.0070 Cl    1 <1>  -0.1770 
  2 C       -1.6850    -0.8400     0.0510 C.ar  1 <1>   0.1770 
  3 C       -1.6730    -2.2120    -0.0030 C.ar  1 <1>   0.1600 
  4 C       -2.9020    -0.2120     0.1500 C.ar  1 <1>   0.1600 
  5 N       -2.7840    -2.9150     0.0400 N.ar  1 <1>  -0.6200 
  6 N       -4.0280    -0.8900     0.1940 N.ar  1 <1>  -0.6200 
  7 C       -3.9190    -2.2200     0.1380 C.ar  1 <1>   0.7200 
  8 N       -5.0860    -2.9390     0.1920 N.pl3 1 <1>  -0.8380 
  9 C       -6.4260    -2.3210     0.0300 C.3   1 <1>   0.2090 
 10 C       -5.1480    -4.4010    -0.0430 C.3   1 <1>   0.2090 
 11 C       -7.3570    -3.4800    -0.3350 C.3   1 <1>   0.2000 
 12 C       -6.6300    -4.7530     0.0960 C.3   1 <1>  -0.0800 
 13 O       -8.5770    -3.3950     0.3220 O.3   1 <1>  -0.6800 
 14 C       -7.0670    -5.9850    -0.7160 C.3   1 <1>  -0.0170 
 15 C       -6.3830    -7.2540    -0.2350 C.ar  1 <1>   0.1670 
 16 N       -5.1580    -7.4730    -0.6850 N.ar  1 <1>  -0.6200 
 17 C       -7.0480    -8.1170     0.6350 C.ar  1 <1>   0.1600 
 18 C       -4.6480    -8.5980    -0.2120 C.ar  1 <1>   0.1600 
 19 N       -6.5400    -9.2420     1.1100 N.ar  1 <1>  -0.6200 
 20 C       -5.3160    -9.4530     0.6560 C.ar  1 <1>   0.1600 
 21 H       -0.7360    -2.7350    -0.0810 H     1 <1>   0.1500 
 22 H       -2.9450     0.8610     0.1940 H     1 <1>   0.1500 
 23 H       -6.7150    -1.8610     0.9590 H     1 <1>   0.0800 
 24 H       -6.4100    -1.5860    -0.7560 H     1 <1>   0.0800 
 25 H       -4.7900    -4.6170    -1.0360 H     1 <1>   0.0800 
 26 H       -4.5470    -4.9330     0.6740 H     1 <1>   0.0800 
 27 H       -7.5410    -3.4740    -1.3950 H     1 <1>   0.0800 
 28 H       -6.8110    -4.9310     1.1410 H     1 <1>   0.0800 
 29 H       -8.4350    -3.3420     1.2870 H     1 <1>   0.4000 
 30 H       -6.8400    -5.8380    -1.7570 H     1 <1>   0.0800 
 31 H       -8.1330    -6.0990    -0.6330 H     1 <1>   0.0800 
 32 H       -8.0440    -7.8640     0.9540 H     1 <1>   0.1500 
 33 H       -3.6520    -8.8570    -0.5260 H     1 <1>   0.1500 
 34 H       -4.8180   -10.3470     0.9860 H     1 <1>   0.1500 
@<TRIPOS>BOND
  1   1   2  1   
  2   2   3  ar  
  3   2   4  ar  
  4   3   5  ar  
  5   3  21  1   
  6   4   6  ar  
  7   4  22  1   
  8   5   7  ar  
  9   6   7  ar  
 10   7   8  1   
 11   8   9  1   
 12   8  10  1   
 13   9  11  1   
 14   9  23  1   
 15   9  24  1   
 16  10  12  1   
 17  10  25  1   
 18  10  26  1   
 19  11  12  1   
 20  11  13  1   
 21  11  27  1   
 22  12  14  1   
 23  12  28  1   
 24  13  29  1   
 25  14  15  1   
 26  14  30  1   
 27  14  31  1   
 28  15  16  ar  
 29  15  17  ar  
 30  16  18  ar  
 31  17  19  ar  
 32  17  32  1   
 33  18  20  ar  
 34  18  33  1   
 35  19  20  ar  
 36  20  34  1   
@<TRIPOS>SUBSTRUCTURE
  1 ****  10 GROUP 4 **** **** 0

# MOE 2024.06 (io_trps.svl 2023.06)
