@<TRIPOS>MOLECULE
NONAME
49 51 1 0 0 
SMALL
USER_CHARGES


@<TRIPOS>ATOM
  1 O        1.6980     0.1260    -1.4870 O.2   1 <1>  -0.5700 
  2 C        2.1680    -0.4770    -0.5430 C.2   1 <1>   0.5440 
  3 N        2.8810     0.2130     0.4140 N.am  1 <1>  -0.6600 
  4 C        1.9940    -1.9020    -0.4720 C.ar  1 <1>   0.0860 
  5 C        3.6840    -0.4310     1.5050 C.3   1 <1>   0.1400 
  6 C        3.0570     1.6890     0.3260 C.3   1 <1>   0.1400 
  7 C        1.2290    -2.5130     0.5010 C.ar  1 <1>   0.1600 
  8 C        2.5930    -2.7520    -1.3780 C.ar  1 <1>   0.1600 
  9 C        5.1690    -0.5690     1.1330 C.3   1 <1>   0.1400 
 10 C        4.1640     2.0690    -0.6680 C.3   1 <1>  -0.1600 
 11 N        1.0990    -3.8180     0.5970 N.ar  1 <1>  -0.6200 
 12 N        2.4860    -4.0620    -1.3120 N.ar  1 <1>  -0.6200 
 13 N        5.7710     0.7360     0.7180 N.am  1 <1>  -0.6600 
 14 C        5.4030     1.1630    -0.6630 C.3   1 <1>   0.1400 
 15 C        1.7370    -4.5270    -0.3230 C.ar  1 <1>   0.4770 
 16 C        6.6070     1.4290     1.5590 C.2   1 <1>   0.5690 
 17 C        1.5910    -6.0370    -0.2360 C.3   1 <1>  -0.0160 
 18 O        6.8310     1.0380     2.6820 O.2   1 <1>  -0.5700 
 19 C        7.2810     2.7200     1.1320 C.3   1 <1>   0.0440 
 20 C        0.3860    -6.5490    -1.0380 C.3   1 <1>  -0.2400 
 21 C        8.4380     2.4560     0.1870 C.ar  1 <1>   0.1670 
 22 N        8.4100     3.0970    -0.9730 N.ar  1 <1>  -0.6200 
 23 C        9.4500     1.5850     0.5660 C.ar  1 <1>  -0.1500 
 24 C        9.4280     2.8590    -1.7850 C.ar  1 <1>   0.1600 
 25 C       10.5010     1.3450    -0.2910 C.ar  1 <1>  -0.1500 
 26 C       10.4800     2.0060    -1.5000 C.ar  1 <1>  -0.1500 
 27 H        3.2970    -1.4060     1.7370 H     1 <1>   0.0800 
 28 H        3.6070     0.1590     2.4020 H     1 <1>   0.0800 
 29 H        3.3050     2.0760     1.2990 H     1 <1>   0.0800 
 30 H        2.1300     2.1460     0.0210 H     1 <1>   0.0800 
 31 H        0.7160    -1.8990     1.2220 H     1 <1>   0.1500 
 32 H        3.1810    -2.3310    -2.1760 H     1 <1>   0.1500 
 33 H        5.2730    -1.2820     0.3340 H     1 <1>   0.0800 
 34 H        5.7010    -0.9670     1.9800 H     1 <1>   0.0800 
 35 H        4.4650     3.0820    -0.4740 H     1 <1>   0.0800 
 36 H        3.7490     2.0600    -1.6600 H     1 <1>   0.0800 
 37 H        6.2250     1.6660    -1.1390 H     1 <1>   0.0800 
 38 H        5.1920     0.2870    -1.2530 H     1 <1>   0.0800 
 39 H        1.4820    -6.3190     0.7960 H     1 <1>   0.0800 
 40 H        2.4900    -6.4970    -0.6070 H     1 <1>   0.0800 
 41 H        7.6580     3.2240     2.0020 H     1 <1>   0.0800 
 42 H        6.5610     3.3670     0.6730 H     1 <1>   0.0800 
 43 H       -0.5210    -6.1080    -0.6620 H     1 <1>   0.0800 
 44 H        0.3120    -7.6190    -0.9560 H     1 <1>   0.0800 
 45 H        0.4940    -6.2860    -2.0750 H     1 <1>   0.0800 
 46 H        9.4160     1.0970     1.5250 H     1 <1>   0.1500 
 47 H        9.4240     3.3730    -2.7310 H     1 <1>   0.1500 
 48 H       11.3000     0.6730    -0.0280 H     1 <1>   0.1500 
 49 H       11.2700     1.8650    -2.2140 H     1 <1>   0.1500 
@<TRIPOS>BOND
  1   1   2  2   
  2   2   3  am  
  3   2   4  1   
  4   3   5  1   
  5   3   6  1   
  6   4   7  ar  
  7   4   8  ar  
  8   5   9  1   
  9   5  27  1   
 10   5  28  1   
 11   6  10  1   
 12   6  29  1   
 13   6  30  1   
 14   7  11  ar  
 15   7  31  1   
 16   8  12  ar  
 17   8  32  1   
 18   9  13  1   
 19   9  33  1   
 20   9  34  1   
 21  10  14  1   
 22  10  35  1   
 23  10  36  1   
 24  11  15  ar  
 25  12  15  ar  
 26  13  14  1   
 27  13  16  am  
 28  14  37  1   
 29  14  38  1   
 30  15  17  1   
 31  16  18  2   
 32  16  19  1   
 33  17  20  1   
 34  17  39  1   
 35  17  40  1   
 36  19  21  1   
 37  19  41  1   
 38  19  42  1   
 39  20  43  1   
 40  20  44  1   
 41  20  45  1   
 42  21  22  ar  
 43  21  23  ar  
 44  22  24  ar  
 45  23  25  ar  
 46  23  46  1   
 47  24  26  ar  
 48  24  47  1   
 49  25  26  ar  
 50  25  48  1   
 51  26  49  1   
@<TRIPOS>SUBSTRUCTURE
  1 ****   9 GROUP 4 **** **** 0

# MOE 2024.06 (io_trps.svl 2023.06)
