@<TRIPOS>MOLECULE
NONAME
41 43 1 0 0 
SMALL
USER_CHARGES


@<TRIPOS>ATOM
  1 CL       1.8630     3.8160     2.3220 Cl    1 <1>  -0.1770 
  2 C        0.8880     2.9420     1.1630 C.ar  1 <1>   0.1770 
  3 C        1.4760     2.2430     0.1150 C.ar  1 <1>  -0.1440 
  4 C       -0.4850     2.9730     1.3320 C.ar  1 <1>  -0.1500 
  5 C        0.6440     1.5660    -0.7700 C.ar  1 <1>  -0.1500 
  6 C        2.9910     2.2240    -0.0720 C.3   1 <1>   0.3640 
  7 C       -1.2990     2.2940     0.4430 C.ar  1 <1>  -0.1500 
  8 C       -0.7320     1.5910    -0.6060 C.ar  1 <1>  -0.1500 
  9 N        3.4250     0.8240    -0.3050 N.am  1 <1>  -0.7300 
 10 C        3.4420     3.1510    -1.2270 C.3   1 <1>   0.2610 
 11 C        4.3520     0.4740    -1.2250 C.2   1 <1>   0.5690 
 12 O        4.7830     2.8610    -1.6020 O.3   1 <1>  -0.5600 
 13 C        3.2950     4.6110    -0.7990 C.2   1 <1>   0.5690 
 14 O        4.6760    -0.6780    -1.3620 O.2   1 <1>  -0.5700 
 15 C        4.9690     1.5580    -2.1150 C.3   1 <1>   0.1810 
 16 O        2.2360     5.1690    -0.9690 O.2   1 <1>  -0.5700 
 17 N        4.3540     5.2390    -0.2270 N.am  1 <1>  -0.7300 
 18 C        4.3670     6.6130     0.2980 C.3   1 <1>   0.2200 
 19 C        5.4970     7.3820    -0.3730 C.3   1 <1>  -0.1600 
 20 C        4.7890     6.5710     1.7600 C.3   1 <1>  -0.1600 
 21 C        6.7740     6.9920     0.3820 C.3   1 <1>  -0.1600 
 22 C        6.3180     6.4640     1.7490 C.3   1 <1>  -0.1600 
 23 H       -0.9080     3.5270     2.1500 H     1 <1>   0.1500 
 24 H        1.0590     1.0130    -1.5950 H     1 <1>   0.1500 
 25 H        3.4770     2.5590     0.8270 H     1 <1>   0.0800 
 26 H       -2.3680     2.3140     0.5660 H     1 <1>   0.1500 
 27 H       -1.3640     1.0630    -1.2990 H     1 <1>   0.1500 
 28 H        3.0220     0.1000     0.2910 H     1 <1>   0.3700 
 29 H        2.8160     2.9950    -2.0870 H     1 <1>   0.0800 
 30 H        4.5280     1.5120    -3.0940 H     1 <1>   0.0800 
 31 H        6.0270     1.3880    -2.2030 H     1 <1>   0.0800 
 32 H        5.2580     4.7620    -0.2160 H     1 <1>   0.3700 
 33 H        3.4070     7.0840     0.1600 H     1 <1>   0.0800 
 34 H        5.5570     7.1800    -1.4280 H     1 <1>   0.0800 
 35 H        5.3190     8.4340    -0.2360 H     1 <1>   0.0800 
 36 H        4.5080     7.5020     2.2200 H     1 <1>   0.0800 
 37 H        4.3170     5.7680     2.2980 H     1 <1>   0.0800 
 38 H        7.2930     6.2150    -0.1530 H     1 <1>   0.0800 
 39 H        7.4310     7.8390     0.4860 H     1 <1>   0.0800 
 40 H        6.7490     7.0320     2.5550 H     1 <1>   0.0800 
 41 H        6.6130     5.4330     1.8550 H     1 <1>   0.0800 
@<TRIPOS>BOND
  1   1   2  1   
  2   2   3  ar  
  3   2   4  ar  
  4   3   5  ar  
  5   3   6  1   
  6   4   7  ar  
  7   4  23  1   
  8   5   8  ar  
  9   5  24  1   
 10   6   9  1   
 11   6  10  1   
 12   6  25  1   
 13   7   8  ar  
 14   7  26  1   
 15   8  27  1   
 16   9  11  am  
 17   9  28  1   
 18  10  12  1   
 19  10  13  1   
 20  10  29  1   
 21  11  14  2   
 22  11  15  1   
 23  12  15  1   
 24  13  16  2   
 25  13  17  am  
 26  15  30  1   
 27  15  31  1   
 28  17  18  1   
 29  17  32  1   
 30  18  19  1   
 31  18  20  1   
 32  18  33  1   
 33  19  21  1   
 34  19  34  1   
 35  19  35  1   
 36  20  22  1   
 37  20  36  1   
 38  20  37  1   
 39  21  22  1   
 40  21  38  1   
 41  21  39  1   
 42  22  40  1   
 43  22  41  1   
@<TRIPOS>SUBSTRUCTURE
  1 ****  10 GROUP 4 **** **** 0

# MOE 2024.06 (io_trps.svl 2023.06)
