@<TRIPOS>MOLECULE
NONAME
30 31 1 0 0 
SMALL
USER_CHARGES


@<TRIPOS>ATOM
  1 S        0.7390     0.6810     1.6700 S.3   1 <1>  -0.2420 
  2 C        1.9280     0.0470     0.5320 C.2   1 <1>   0.6410 
  3 C       -0.0800    -0.8920     1.7590 C.2   1 <1>  -0.0490 
  4 N        2.8810     0.7520     0.0400 N.2   1 <1>  -0.6610 
  5 N        1.6650    -1.2900     0.2750 N.pl3 1 <1>  -0.1080 
  6 C        0.5390    -1.7900     0.9710 C.2   1 <1>   0.2090 
  7 C        3.6740     0.0390    -0.8190 C.2   1 <1>   0.7810 
  8 N        2.4410    -2.0320    -0.5820 N.2   1 <1>  -0.4920 
  9 N        0.2040    -3.1350     0.7660 N.am  1 <1>  -0.5390 
 10 O        4.6110     0.6380    -1.3360 O.2   1 <1>  -0.5700 
 11 C        3.4180    -1.3610    -1.1050 C.2   1 <1>   0.3890 
 12 C       -0.8080    -3.8800     1.2900 C.2   1 <1>   0.5690 
 13 C        4.3370    -2.0990    -2.0690 C.3   1 <1>  -0.1790 
 14 O       -1.6160    -3.4330     2.0690 O.2   1 <1>  -0.5700 
 15 C       -0.9170    -5.3430     0.8690 C.3   1 <1>   0.1810 
 16 O        0.1000    -5.6970    -0.0380 O.3   1 <1>  -0.5600 
 17 C        0.0470    -7.0200    -0.4540 C.3   1 <1>   0.1200 
 18 C        1.2010    -7.2440    -1.4220 C.3   1 <1>  -0.2400 
 19 H       -0.9420    -0.9690     2.3990 H     1 <1>   0.1500 
 20 H        0.8150    -3.6460     0.1180 H     1 <1>   0.3700 
 21 H        4.3140    -1.6210    -3.0310 H     1 <1>   0.0800 
 22 H        4.0270    -3.1230    -2.1830 H     1 <1>   0.0800 
 23 H        5.3450    -2.0820    -1.6960 H     1 <1>   0.0800 
 24 H       -1.8700    -5.5030     0.4000 H     1 <1>   0.0800 
 25 H       -0.8340    -5.9660     1.7420 H     1 <1>   0.0800 
 26 H       -0.8970    -7.1970    -0.9420 H     1 <1>   0.0800 
 27 H        0.1440    -7.6620     0.4060 H     1 <1>   0.0800 
 28 H        1.1020    -6.5920    -2.2720 H     1 <1>   0.0800 
 29 H        1.1940    -8.2620    -1.7680 H     1 <1>   0.0800 
 30 H        2.1380    -7.0550    -0.9310 H     1 <1>   0.0800 
@<TRIPOS>BOND
  1   1   2  1   
  2   1   3  1   
  3   2   4  2   
  4   2   5  1   
  5   3   6  2   
  6   3  19  1   
  7   4   7  1   
  8   5   6  1   
  9   5   8  1   
 10   6   9  1   
 11   7  10  2   
 12   7  11  1   
 13   8  11  2   
 14   9  12  am  
 15   9  20  1   
 16  11  13  1   
 17  12  14  2   
 18  12  15  1   
 19  13  21  1   
 20  13  22  1   
 21  13  23  1   
 22  15  16  1   
 23  15  24  1   
 24  15  25  1   
 25  16  17  1   
 26  17  18  1   
 27  17  26  1   
 28  17  27  1   
 29  18  28  1   
 30  18  29  1   
 31  18  30  1   
@<TRIPOS>SUBSTRUCTURE
  1 ****   5 GROUP 4 **** **** 0

# MOE 2024.06 (io_trps.svl 2023.06)
