@<TRIPOS>MOLECULE
NONAME
54 56 1 0 0 
SMALL
USER_CHARGES


@<TRIPOS>ATOM
  1 O       -0.8850     0.5930    -1.7520 O.2   1 <1>  -0.5700 
  2 C       -1.3690     1.2370    -0.8510 C.2   1 <1>   0.5690 
  3 N       -2.6090     0.9370    -0.3400 N.am  1 <1>  -0.6600 
  4 C       -0.5700     2.4070    -0.2920 C.3   1 <1>  -0.0990 
  5 C       -3.4140    -0.1860    -0.9140 C.3   1 <1>   0.1400 
  6 C       -3.2660     1.6880     0.7700 C.3   1 <1>   0.1400 
  7 C        0.7160     2.7150    -1.0730 C.3   1 <1>  -0.0160 
  8 C       -4.7440     0.2960    -1.5120 C.3   1 <1>   0.1400 
  9 C       -4.2370     2.7190     0.1850 C.3   1 <1>  -0.1600 
 10 C        1.4270     3.9110    -0.4580 C.ar  1 <1>  -0.1440 
 11 N       -5.6940     0.7330    -0.4410 N.am  1 <1>  -0.6600 
 12 C       -5.6520     2.1860    -0.0910 C.3   1 <1>   0.1400 
 13 C        2.3110     3.7420     0.5990 C.ar  1 <1>   0.1600 
 14 C        1.1990     5.1850    -0.9360 C.ar  1 <1>  -0.1500 
 15 C       -6.5680    -0.1130     0.2000 C.2   1 <1>   0.5690 
 16 N        2.9630     4.7200     1.2070 N.ar  1 <1>  -0.6200 
 17 C        1.8740     6.2160    -0.3170 C.ar  1 <1>  -0.1500 
 18 O       -7.2690     0.2700     1.1070 O.2   1 <1>  -0.5700 
 19 C       -6.6660    -1.5770    -0.2130 C.3   1 <1>  -0.0990 
 20 C        2.7300     5.9330     0.7330 C.ar  1 <1>   0.1600 
 21 C       -7.7260    -2.3710     0.5640 C.3   1 <1>   0.0200 
 22 C       -7.7400    -3.8210     0.1030 C.2   1 <1>  -0.3320 
 23 N       -6.8900    -4.7870     0.5230 N.pl3 1 <1>   0.3140 
 24 C       -8.5780    -4.4010    -0.7820 C.2   1 <1>  -0.1500 
 25 N       -7.1520    -5.9610    -0.0740 N.2   1 <1>  -0.7070 
 26 C       -5.8080    -4.6690     1.5100 C.3   1 <1>   0.0160 
 27 C       -8.1640    -5.7240    -0.8500 C.2   1 <1>   0.1390 
 28 H       -0.3120     2.1830     0.7260 H     1 <1>   0.0800 
 29 H       -1.1910     3.2830    -0.3010 H     1 <1>   0.0800 
 30 H       -3.6010    -0.9150    -0.1460 H     1 <1>   0.0800 
 31 H       -2.8580    -0.6790    -1.6910 H     1 <1>   0.0800 
 32 H       -2.5260     2.1920     1.3660 H     1 <1>   0.0800 
 33 H       -3.7860     1.0050     1.4220 H     1 <1>   0.0800 
 34 H        0.4760     2.9210    -2.1020 H     1 <1>   0.0800 
 35 H        1.3670     1.8570    -1.0570 H     1 <1>   0.0800 
 36 H       -5.1780    -0.5010    -2.0860 H     1 <1>   0.0800 
 37 H       -4.5560     1.1070    -2.1940 H     1 <1>   0.0800 
 38 H       -3.8250     3.1370    -0.7160 H     1 <1>   0.0800 
 39 H       -4.3350     3.5300     0.8830 H     1 <1>   0.0800 
 40 H       -6.0990     2.7510    -0.8910 H     1 <1>   0.0800 
 41 H       -6.2490     2.3610     0.7880 H     1 <1>   0.0800 
 42 H        2.4890     2.7460     0.9680 H     1 <1>   0.1500 
 43 H        0.5260     5.3730    -1.7540 H     1 <1>   0.1500 
 44 H        1.7400     7.2310    -0.6440 H     1 <1>   0.1500 
 45 H       -5.7090    -2.0380    -0.0700 H     1 <1>   0.0800 
 46 H       -6.9160    -1.6240    -1.2560 H     1 <1>   0.0800 
 47 H        3.2500     6.7460     1.2080 H     1 <1>   0.1500 
 48 H       -8.6930    -1.9330     0.3850 H     1 <1>   0.0800 
 49 H       -7.5370    -2.3190     1.6220 H     1 <1>   0.0800 
 50 H       -9.3940    -3.9650    -1.3310 H     1 <1>   0.1500 
 51 H       -5.0090    -4.0900     1.0900 H     1 <1>   0.0800 
 52 H       -5.4490    -5.6520     1.7540 H     1 <1>   0.0800 
 53 H       -6.1840    -4.1950     2.3960 H     1 <1>   0.0800 
 54 H       -8.6220    -6.4750    -1.4710 H     1 <1>   0.1500 
@<TRIPOS>BOND
  1   1   2  2   
  2   2   3  am  
  3   2   4  1   
  4   3   5  1   
  5   3   6  1   
  6   4   7  1   
  7   4  28  1   
  8   4  29  1   
  9   5   8  1   
 10   5  30  1   
 11   5  31  1   
 12   6   9  1   
 13   6  32  1   
 14   6  33  1   
 15   7  10  1   
 16   7  34  1   
 17   7  35  1   
 18   8  11  1   
 19   8  36  1   
 20   8  37  1   
 21   9  12  1   
 22   9  38  1   
 23   9  39  1   
 24  10  13  ar  
 25  10  14  ar  
 26  11  12  1   
 27  11  15  am  
 28  12  40  1   
 29  12  41  1   
 30  13  16  ar  
 31  13  42  1   
 32  14  17  ar  
 33  14  43  1   
 34  15  18  2   
 35  15  19  1   
 36  16  20  ar  
 37  17  20  ar  
 38  17  44  1   
 39  19  21  1   
 40  19  45  1   
 41  19  46  1   
 42  20  47  1   
 43  21  22  1   
 44  21  48  1   
 45  21  49  1   
 46  22  23  1   
 47  22  24  2   
 48  23  25  1   
 49  23  26  1   
 50  24  27  1   
 51  24  50  1   
 52  25  27  2   
 53  26  51  1   
 54  26  52  1   
 55  26  53  1   
 56  27  54  1   
@<TRIPOS>SUBSTRUCTURE
  1 ****   3 GROUP 4 **** **** 0

# MOE 2024.06 (io_trps.svl 2023.06)
