@<TRIPOS>MOLECULE
NONAME
41 42 1 0 0 
SMALL
USER_CHARGES


@<TRIPOS>ATOM
  1 CL      -1.0830     0.1790     0.3920 Cl    1 <1>  -0.1770 
  2 C       -2.3690    -0.9940     0.4850 C.ar  1 <1>   0.1770 
  3 C       -3.6470    -0.5690     0.7880 C.ar  1 <1>  -0.1500 
  4 C       -2.0880    -2.3270     0.2530 C.ar  1 <1>  -0.1500 
  5 C       -4.6430    -1.5210     0.8580 C.ar  1 <1>   0.1770 
  6 C       -3.0930    -3.2960     0.3140 C.ar  1 <1>   0.0860 
  7 CL      -6.2690    -1.0260     1.2430 Cl    1 <1>  -0.1770 
  8 C       -4.3830    -2.8600     0.6300 C.ar  1 <1>  -0.1500 
  9 C       -2.7940    -4.6950     0.0620 C.2   1 <1>   0.5440 
 10 O       -1.6710    -5.1250     0.2250 O.2   1 <1>  -0.5700 
 11 N       -3.7620    -5.5530    -0.3820 N.am  1 <1>  -0.7300 
 12 C       -3.5240    -6.9780    -0.7320 C.3   1 <1>   0.2200 
 13 C       -4.7960    -7.7340    -1.1070 C.3   1 <1>  -0.0800 
 14 C       -2.9550    -7.8150     0.4200 C.3   1 <1>   0.1200 
 15 C       -4.3580    -9.1610    -0.7850 C.3   1 <1>   0.1200 
 16 C       -6.0340    -7.3630    -0.2540 C.3   1 <1>  -0.0550 
 17 O       -3.6260    -9.0430     0.3910 O.3   1 <1>  -0.5600 
 18 S       -7.5730    -7.9890    -0.9270 S.o2  1 <1>   1.3330 
 19 O       -7.5900    -9.4330    -0.8980 O.2   1 <1>  -0.6500 
 20 O       -7.7900    -7.2960    -2.1770 O.2   1 <1>  -0.6500 
 21 N       -8.7220    -7.4310     0.1900 N.am  1 <1>  -0.8490 
 22 C      -10.0460    -7.2670    -0.4160 C.3   1 <1>   0.1160 
 23 C       -8.8250    -8.2780     1.3840 C.3   1 <1>   0.1160 
 24 H       -3.8570     0.4700     0.9660 H     1 <1>   0.1500 
 25 H       -1.0780    -2.6200     0.0220 H     1 <1>   0.1500 
 26 H       -5.1930    -3.5610     0.7110 H     1 <1>   0.1500 
 27 H       -4.6130    -5.1530    -0.7760 H     1 <1>   0.3700 
 28 H       -2.8240    -7.0190    -1.5510 H     1 <1>   0.0800 
 29 H       -5.0110    -7.6260    -2.1560 H     1 <1>   0.0800 
 30 H       -3.1400    -7.3570     1.3750 H     1 <1>   0.0800 
 31 H       -1.9010    -7.9920     0.2910 H     1 <1>   0.0800 
 32 H       -3.7020    -9.5480    -1.5460 H     1 <1>   0.0800 
 33 H       -5.1700    -9.8490    -0.6280 H     1 <1>   0.0800 
 34 H       -6.1330    -6.2990    -0.1970 H     1 <1>   0.0800 
 35 H       -5.9000    -7.7260     0.7460 H     1 <1>   0.0800 
 36 H      -10.7490    -6.8990     0.3120 H     1 <1>   0.0800 
 37 H      -10.3990    -8.2080    -0.8060 H     1 <1>   0.0800 
 38 H       -9.9970    -6.5560    -1.2240 H     1 <1>   0.0800 
 39 H       -9.5020    -7.8360     2.0940 H     1 <1>   0.0800 
 40 H       -7.8620    -8.3810     1.8540 H     1 <1>   0.0800 
 41 H       -9.1860    -9.2600     1.1200 H     1 <1>   0.0800 
@<TRIPOS>BOND
  1   1   2  1   
  2   2   3  ar  
  3   2   4  ar  
  4   3   5  ar  
  5   3  24  1   
  6   4   6  ar  
  7   4  25  1   
  8   5   7  1   
  9   5   8  ar  
 10   6   8  ar  
 11   6   9  1   
 12   8  26  1   
 13   9  10  2   
 14   9  11  am  
 15  11  12  1   
 16  11  27  1   
 17  12  13  1   
 18  12  14  1   
 19  12  28  1   
 20  13  15  1   
 21  13  16  1   
 22  13  29  1   
 23  14  17  1   
 24  14  30  1   
 25  14  31  1   
 26  15  17  1   
 27  15  32  1   
 28  15  33  1   
 29  16  18  1   
 30  16  34  1   
 31  16  35  1   
 32  18  19  2   
 33  18  20  2   
 34  18  21  am  
 35  21  22  1   
 36  21  23  1   
 37  22  36  1   
 38  22  37  1   
 39  22  38  1   
 40  23  39  1   
 41  23  40  1   
 42  23  41  1   
@<TRIPOS>SUBSTRUCTURE
  1 ****  11 GROUP 4 **** **** 0

# MOE 2024.06 (io_trps.svl 2023.06)
