@<TRIPOS>MOLECULE
NONAME
49 51 1 0 0 
SMALL
USER_CHARGES


@<TRIPOS>ATOM
  1 S       -2.2300     1.7110    -0.4340 S.3   1 <1>  -0.0800 
  2 C       -2.1320     0.1250     0.3150 C.2   1 <1>  -0.1400 
  3 C       -0.6030     1.5580    -1.0730 C.2   1 <1>  -0.1100 
  4 C       -0.9320    -0.4360     0.0740 C.2   1 <1>  -0.1500 
  5 C       -3.3540    -0.3590     1.0820 C.3   1 <1>   0.0810 
  6 C       -0.0620     0.3780    -0.7170 C.2   1 <1>  -0.1500 
  7 C       -3.4170    -1.8780     1.1680 C.2   1 <1>   0.5690 
  8 O       -3.2280    -2.3810     2.2500 O.2   1 <1>  -0.5700 
  9 N       -3.6830    -2.6340     0.0550 N.am  1 <1>  -0.6600 
 10 C       -3.6640    -4.1350     0.1400 C.3   1 <1>   0.3640 
 11 C       -4.0250    -2.0430    -1.2810 C.3   1 <1>   0.1400 
 12 C       -2.2830    -4.7110    -0.2150 C.ar  1 <1>  -0.1430 
 13 C       -4.7780    -4.8050    -0.7260 C.3   1 <1>   0.2000 
 14 C       -4.3550    -3.1130    -2.3310 C.3   1 <1>   0.1200 
 15 C       -1.9950    -6.0000     0.2150 C.ar  1 <1>  -0.1500 
 16 C       -1.3120    -4.0210    -0.9350 C.ar  1 <1>  -0.1500 
 17 O       -5.2650    -4.0160    -1.7900 O.3   1 <1>  -0.5600 
 18 C       -5.9950    -5.1870     0.1250 C.3   1 <1>   0.1200 
 19 C       -0.7820    -6.6020    -0.0750 C.ar  1 <1>   0.0830 
 20 C       -0.0880    -4.6040    -1.2140 C.ar  1 <1>  -0.1500 
 21 O       -5.6760    -6.2410     0.9770 O.3   1 <1>  -0.6800 
 22 O       -0.6070    -7.8800     0.3430 O.3   1 <1>  -0.3630 
 23 C        0.1940    -5.8860    -0.7760 C.ar  1 <1>   0.0830 
 24 C       -0.4190    -8.8540    -0.6610 C.3   1 <1>   0.0400 
 25 O        1.4250    -6.3830    -1.0450 O.3   1 <1>  -0.3630 
 26 C        2.2640    -6.5940     0.0700 C.3   1 <1>   0.0400 
 27 H       -0.2180     2.3790    -1.6510 H     1 <1>   0.1500 
 28 H       -0.6130    -1.4030     0.4290 H     1 <1>   0.1500 
 29 H       -3.3230     0.0500     2.0750 H     1 <1>   0.0800 
 30 H       -4.2490     0.0000     0.6130 H     1 <1>   0.0800 
 31 H        0.9260     0.0390    -0.9760 H     1 <1>   0.1500 
 32 H       -3.8430    -4.4180     1.1640 H     1 <1>   0.0800 
 33 H       -4.8820    -1.4030    -1.1730 H     1 <1>   0.0800 
 34 H       -3.2050    -1.4440    -1.6360 H     1 <1>   0.0800 
 35 H       -4.3880    -5.7020    -1.1720 H     1 <1>   0.0800 
 36 H       -3.4760    -3.6470    -2.6470 H     1 <1>   0.0800 
 37 H       -4.8110    -2.6590    -3.1930 H     1 <1>   0.0800 
 38 H       -2.7170    -6.5590     0.7840 H     1 <1>   0.1500 
 39 H       -1.4870    -3.0210    -1.2820 H     1 <1>   0.1500 
 40 H       -6.8130    -5.5000    -0.5010 H     1 <1>   0.0800 
 41 H       -6.3020    -4.3510     0.7290 H     1 <1>   0.0800 
 42 H        0.6590    -4.0640    -1.7650 H     1 <1>   0.1500 
 43 H       -5.6700    -7.0910     0.4940 H     1 <1>   0.4000 
 44 H       -0.4490    -9.8230    -0.1970 H     1 <1>   0.0800 
 45 H        0.5350    -8.7040    -1.1320 H     1 <1>   0.0800 
 46 H       -1.2110    -8.7660    -1.3830 H     1 <1>   0.0800 
 47 H        3.2280    -6.9050    -0.2880 H     1 <1>   0.0800 
 48 H        1.8410    -7.3590     0.6950 H     1 <1>   0.0800 
 49 H        2.3520    -5.6720     0.6170 H     1 <1>   0.0800 
@<TRIPOS>BOND
  1   1   2  1   
  2   1   3  1   
  3   2   4  2   
  4   2   5  1   
  5   3   6  2   
  6   3  27  1   
  7   4   6  1   
  8   4  28  1   
  9   5   7  1   
 10   5  29  1   
 11   5  30  1   
 12   6  31  1   
 13   7   8  2   
 14   7   9  am  
 15   9  10  1   
 16   9  11  1   
 17  10  12  1   
 18  10  13  1   
 19  10  32  1   
 20  11  14  1   
 21  11  33  1   
 22  11  34  1   
 23  12  15  ar  
 24  12  16  ar  
 25  13  17  1   
 26  13  18  1   
 27  13  35  1   
 28  14  17  1   
 29  14  36  1   
 30  14  37  1   
 31  15  19  ar  
 32  15  38  1   
 33  16  20  ar  
 34  16  39  1   
 35  18  21  1   
 36  18  40  1   
 37  18  41  1   
 38  19  22  1   
 39  19  23  ar  
 40  20  23  ar  
 41  20  42  1   
 42  21  43  1   
 43  22  24  1   
 44  23  25  1   
 45  24  44  1   
 46  24  45  1   
 47  24  46  1   
 48  25  26  1   
 49  26  47  1   
 50  26  48  1   
 51  26  49  1   
@<TRIPOS>SUBSTRUCTURE
  1 ****  12 GROUP 4 **** **** 0

# MOE 2024.06 (io_trps.svl 2023.06)
