@<TRIPOS>MOLECULE
NONAME
47 49 1 0 0 
SMALL
USER_CHARGES


@<TRIPOS>ATOM
  1 S       -1.8410     0.6420    -1.3020 S.3   1 <1>  -0.0800 
  2 C       -0.9610    -0.3980    -0.2050 C.2   1 <1>   0.4620 
  3 C       -2.8820    -0.6950    -1.6810 C.2   1 <1>  -0.1100 
  4 N       -1.4060    -1.5930    -0.1380 N.2   1 <1>  -0.5650 
  5 N        0.0950     0.1110     0.4710 N.pl3 1 <1>  -0.8840 
  6 C       -2.5160    -1.7900    -0.9770 C.2   1 <1>   0.1410 
  7 C       -3.1940    -3.0830    -1.0940 C.2   1 <1>   0.7160 
  8 O       -3.8090    -3.3220    -2.1200 O.2   1 <1>  -0.5700 
  9 N       -3.2000    -4.0550    -0.1050 N.am  1 <1>  -0.6600 
 10 C       -3.5470    -5.4660    -0.4520 C.3   1 <1>   0.1400 
 11 C       -2.8910    -3.7520     1.3230 C.3   1 <1>   0.1400 
 12 C       -5.0540    -5.7300    -0.3150 C.3   1 <1>   0.1400 
 13 C       -3.7870    -4.4890     2.3270 C.3   1 <1>  -0.1600 
 14 N       -5.4920    -5.8110     1.1200 N.am  1 <1>  -0.6600 
 15 C       -5.2590    -4.5680     1.9110 C.3   1 <1>   0.1400 
 16 C       -6.1300    -6.8940     1.6930 C.2   1 <1>   0.5690 
 17 O       -6.4800    -6.8610     2.8530 O.2   1 <1>  -0.5700 
 18 C       -6.4020    -8.1810     0.9070 C.3   1 <1>   0.2370 
 19 N       -7.4750    -7.9230    -0.0760 N.pl3 1 <1>   0.3140 
 20 C       -6.7620    -9.4080     1.7720 C.3   1 <1>  -0.2400 
 21 N       -7.3150    -8.2090    -1.3860 N.2   1 <1>  -0.7070 
 22 C       -8.6920    -7.3890     0.1570 C.2   1 <1>  -0.3020 
 23 C       -8.4310    -7.8520    -1.9440 C.2   1 <1>   0.1390 
 24 C       -9.3350    -7.3280    -1.0260 C.2   1 <1>  -0.1810 
 25 C      -10.7280    -6.8090    -1.3170 C.3   1 <1>  -0.0590 
 26 H       -3.6680    -0.5430    -2.3980 H     1 <1>   0.1500 
 27 H        0.6850    -0.5150     1.0200 H     1 <1>   0.4000 
 28 H        0.4670     1.0390     0.2670 H     1 <1>   0.4000 
 29 H       -2.9920    -6.1510     0.1640 H     1 <1>   0.0800 
 30 H       -3.2630    -5.6520    -1.4740 H     1 <1>   0.0800 
 31 H       -3.0250    -2.6970     1.4900 H     1 <1>   0.0800 
 32 H       -1.8580    -3.9840     1.5170 H     1 <1>   0.0800 
 33 H       -5.2710    -6.6420    -0.8340 H     1 <1>   0.0800 
 34 H       -5.6010    -4.9480    -0.8140 H     1 <1>   0.0800 
 35 H       -3.7290    -3.9540     3.2580 H     1 <1>   0.0800 
 36 H       -3.4050    -5.4760     2.5170 H     1 <1>   0.0800 
 37 H       -5.5410    -3.7050     1.3320 H     1 <1>   0.0800 
 38 H       -5.8740    -4.5760     2.7950 H     1 <1>   0.0800 
 39 H       -5.5120    -8.4250     0.3590 H     1 <1>   0.0800 
 40 H       -7.6620    -9.2230     2.3310 H     1 <1>   0.0800 
 41 H       -5.9660    -9.6100     2.4660 H     1 <1>   0.0800 
 42 H       -6.9010   -10.2720     1.1470 H     1 <1>   0.0800 
 43 H       -9.0210    -7.0890     1.1360 H     1 <1>   0.1500 
 44 H       -8.6250    -7.9530    -2.9990 H     1 <1>   0.1500 
 45 H      -11.1910    -6.4650    -0.4100 H     1 <1>   0.0800 
 46 H      -11.3300    -7.5930    -1.7390 H     1 <1>   0.0800 
 47 H      -10.6760    -5.9910    -2.0120 H     1 <1>   0.0800 
@<TRIPOS>BOND
  1   1   2  1   
  2   1   3  1   
  3   2   4  2   
  4   2   5  1   
  5   3   6  2   
  6   3  26  1   
  7   4   6  1   
  8   5  27  1   
  9   5  28  1   
 10   6   7  1   
 11   7   8  2   
 12   7   9  am  
 13   9  10  1   
 14   9  11  1   
 15  10  12  1   
 16  10  29  1   
 17  10  30  1   
 18  11  13  1   
 19  11  31  1   
 20  11  32  1   
 21  12  14  1   
 22  12  33  1   
 23  12  34  1   
 24  13  15  1   
 25  13  35  1   
 26  13  36  1   
 27  14  15  1   
 28  14  16  am  
 29  15  37  1   
 30  15  38  1   
 31  16  17  2   
 32  16  18  1   
 33  18  19  1   
 34  18  20  1   
 35  18  39  1   
 36  19  21  1   
 37  19  22  1   
 38  20  40  1   
 39  20  41  1   
 40  20  42  1   
 41  21  23  2   
 42  22  24  2   
 43  22  43  1   
 44  23  24  1   
 45  23  44  1   
 46  24  25  1   
 47  25  45  1   
 48  25  46  1   
 49  25  47  1   
@<TRIPOS>SUBSTRUCTURE
  1 ****  12 GROUP 4 **** **** 0

# MOE 2024.06 (io_trps.svl 2023.06)
