@<TRIPOS>MOLECULE
NONAME
49 51 1 0 0 
SMALL
USER_CHARGES


@<TRIPOS>ATOM
  1 O       -0.3030     0.5400    -0.1260 O.co2 1 <1>  -0.9000 
  2 C       -1.1500     1.2720     0.3930 C.2   1 <1>   0.9060 
  3 O       -2.1760     0.8250     0.9230 O.co2 1 <1>  -0.9000 
  4 C       -0.9870     2.7740     0.3420 C.3   1 <1>  -0.1860 
  5 C       -2.1420     3.3700    -0.4640 C.3   1 <1>   0.2000 
  6 C        0.3670     3.1710    -0.2630 C.3   1 <1>   0.1400 
  7 O       -3.3170     3.1280     0.2110 O.3   1 <1>  -0.6800 
  8 C       -2.0040     4.8790    -0.6530 C.3   1 <1>  -0.1600 
  9 N        0.4360     4.6580    -0.4260 N.am  1 <1>  -0.6600 
 10 C       -0.6520     5.2060    -1.2840 C.3   1 <1>   0.1400 
 11 C        1.3930     5.4020     0.2170 C.2   1 <1>   0.5690 
 12 O        2.3390     4.8940     0.7730 O.2   1 <1>  -0.5700 
 13 C        1.2940     6.9210     0.2340 C.3   1 <1>  -0.0990 
 14 C        2.1750     7.5900     1.3060 C.3   1 <1>  -0.0990 
 15 C        2.0540     9.0980     1.2490 C.2   1 <1>   0.5690 
 16 O        0.9850     9.5900     1.5140 O.2   1 <1>  -0.5700 
 17 N        3.1600     9.8080     0.8750 N.am  1 <1>  -0.5470 
 18 C        3.3720    11.1860     0.7100 C.ar  1 <1>   0.1170 
 19 C        4.4760    11.5980    -0.0320 C.ar  1 <1>  -0.1500 
 20 C        2.5400    12.1610     1.2630 C.ar  1 <1>  -0.1500 
 21 C        4.7250    12.9450    -0.2120 C.ar  1 <1>  -0.1430 
 22 C        2.7940    13.5100     1.0790 C.ar  1 <1>  -0.1500 
 23 C        3.8950    13.8890     0.3360 C.ar  1 <1>  -0.1430 
 24 C        5.8550    13.5880    -0.9780 C.3   1 <1>  -0.0170 
 25 C        4.3590    15.2860     0.0100 C.3   1 <1>  -0.0170 
 26 C        5.7710    15.0680    -0.5630 C.3   1 <1>  -0.1600 
 27 H       -1.0220     3.1410     1.3490 H     1 <1>   0.0800 
 28 H       -2.2070     2.8760    -1.4200 H     1 <1>   0.0800 
 29 H        0.4890     2.7030    -1.2250 H     1 <1>   0.0800 
 30 H        1.1580     2.8140     0.3750 H     1 <1>   0.0800 
 31 H       -3.2280     2.2020     0.5860 H     1 <1>   0.4000 
 32 H       -2.7940     5.2320    -1.2900 H     1 <1>   0.0800 
 33 H       -2.0800     5.3740     0.2990 H     1 <1>   0.0800 
 34 H       -0.5570     6.2680    -1.4160 H     1 <1>   0.0800 
 35 H       -0.5880     4.7470    -2.2560 H     1 <1>   0.0800 
 36 H        1.5700     7.2880    -0.7370 H     1 <1>   0.0800 
 37 H        0.2730     7.1960     0.4260 H     1 <1>   0.0800 
 38 H        3.2000     7.2990     1.1710 H     1 <1>   0.0800 
 39 H        1.8620     7.2590     2.2800 H     1 <1>   0.0800 
 40 H        3.9710     9.2390     0.6460 H     1 <1>   0.3700 
 41 H        5.1350    10.8730    -0.4710 H     1 <1>   0.1500 
 42 H        1.6860    11.8710     1.8460 H     1 <1>   0.1500 
 43 H        2.1430    14.2500     1.5080 H     1 <1>   0.1500 
 44 H        6.8060    13.1580    -0.7180 H     1 <1>   0.0800 
 45 H        5.6780    13.4790    -2.0330 H     1 <1>   0.0800 
 46 H        3.7090    15.7150    -0.7330 H     1 <1>   0.0800 
 47 H        4.3790    15.9110     0.8850 H     1 <1>   0.0800 
 48 H        6.4910    15.2490     0.2160 H     1 <1>   0.0800 
 49 H        5.9740    15.7270    -1.3890 H     1 <1>   0.0800 
@<TRIPOS>BOND
  1   1   2  ar  
  2   2   3  ar  
  3   2   4  1   
  4   4   5  1   
  5   4   6  1   
  6   4  27  1   
  7   5   7  1   
  8   5   8  1   
  9   5  28  1   
 10   6   9  1   
 11   6  29  1   
 12   6  30  1   
 13   7  31  1   
 14   8  10  1   
 15   8  32  1   
 16   8  33  1   
 17   9  10  1   
 18   9  11  am  
 19  10  34  1   
 20  10  35  1   
 21  11  12  2   
 22  11  13  1   
 23  13  14  1   
 24  13  36  1   
 25  13  37  1   
 26  14  15  1   
 27  14  38  1   
 28  14  39  1   
 29  15  16  2   
 30  15  17  am  
 31  17  18  1   
 32  17  40  1   
 33  18  19  ar  
 34  18  20  ar  
 35  19  21  ar  
 36  19  41  1   
 37  20  22  ar  
 38  20  42  1   
 39  21  23  ar  
 40  21  24  1   
 41  22  23  ar  
 42  22  43  1   
 43  23  25  1   
 44  24  26  1   
 45  24  44  1   
 46  24  45  1   
 47  25  26  1   
 48  25  46  1   
 49  25  47  1   
 50  26  48  1   
 51  26  49  1   
@<TRIPOS>SUBSTRUCTURE
  1 ****  13 GROUP 4 **** **** 0

# MOE 2024.06 (io_trps.svl 2023.06)
