@<TRIPOS>MOLECULE
NONAME
46 48 1 0 0 
SMALL
USER_CHARGES


@<TRIPOS>ATOM
  1 O        0.6730     0.2370     0.8940 O.3   1 <1>  -0.6800 
  2 C        1.2820    -0.3430    -0.2120 C.3   1 <1>   0.2000 
  3 C        2.0840    -1.5550     0.2730 C.3   1 <1>  -0.0800 
  4 C        2.3580     0.6220    -0.7070 C.3   1 <1>   0.3430 
  5 C        3.4750    -0.9890     0.6220 C.3   1 <1>   0.3430 
  6 C        2.1630    -2.6520    -0.8110 C.3   1 <1>  -0.0160 
  7 N        3.4430     0.4640     0.2940 N.4   1 <1>  -0.9590 
  8 C        2.9140    -3.8860    -0.3300 C.ar  1 <1>   0.1670 
  9 C        4.7680     1.0270    -0.0890 C.3   1 <1>   0.3430 
 10 N        4.2270    -3.7650    -0.2120 N.ar  1 <1>  -0.6200 
 11 C        2.2210    -5.0620    -0.0440 C.ar  1 <1>   0.1600 
 12 C        4.7150     2.5560    -0.2530 C.3   1 <1>  -0.0800 
 13 C        4.7950    -4.8910     0.1960 C.ar  1 <1>   0.1600 
 14 N        2.7870    -6.1800     0.3760 N.ar  1 <1>  -0.6200 
 15 C        6.1140     3.0710    -0.6380 C.3   1 <1>  -0.1600 
 16 C        4.2140     3.2690     1.0210 C.3   1 <1>  -0.1600 
 17 C        4.0980    -6.0580     0.4820 C.ar  1 <1>   0.1600 
 18 C        6.1270     4.5960    -0.8080 C.3   1 <1>  -0.1600 
 19 C        4.2330     4.7950     0.8550 C.3   1 <1>  -0.1600 
 20 C        5.6260     5.2970     0.4590 C.3   1 <1>  -0.1600 
 21 H       -0.1240    -0.2630     1.1710 H     1 <1>   0.4000 
 22 H        0.5330    -0.5600    -0.9550 H     1 <1>   0.0800 
 23 H        1.6350    -1.9860     1.1520 H     1 <1>   0.0800 
 24 H        1.9870     1.6330    -0.7490 H     1 <1>   0.0800 
 25 H        2.7050     0.3180    -1.6810 H     1 <1>   0.0800 
 26 H        4.2310    -1.4750     0.0290 H     1 <1>   0.0800 
 27 H        3.7010    -1.1410     1.6650 H     1 <1>   0.0800 
 28 H        2.6550    -2.2770    -1.6920 H     1 <1>   0.0800 
 29 H        1.1670    -2.9400    -1.0990 H     1 <1>   0.0800 
 30 H        3.0990     0.9490     1.1380 H     1 <1>   0.4500 
 31 H        5.4900     0.7890     0.6750 H     1 <1>   0.0800 
 32 H        5.1010     0.5790    -1.0110 H     1 <1>   0.0800 
 33 H        1.1520    -5.0860    -0.1650 H     1 <1>   0.1500 
 34 H        4.0530     2.7950    -1.0670 H     1 <1>   0.0800 
 35 H        5.8650    -4.8940     0.3120 H     1 <1>   0.1500 
 36 H        6.8250     2.8040     0.1260 H     1 <1>   0.0800 
 37 H        6.4350     2.6170    -1.5600 H     1 <1>   0.0800 
 38 H        3.2070     2.9730     1.2550 H     1 <1>   0.0800 
 39 H        4.8420     3.0050     1.8560 H     1 <1>   0.0800 
 40 H        4.6470    -6.9240     0.8100 H     1 <1>   0.1500 
 41 H        7.1270     4.9270    -1.0280 H     1 <1>   0.0800 
 42 H        5.5000     4.8720    -1.6400 H     1 <1>   0.0800 
 43 H        3.5240     5.0840     0.0970 H     1 <1>   0.0800 
 44 H        3.9330     5.2640     1.7770 H     1 <1>   0.0800 
 45 H        5.5920     6.3600     0.2930 H     1 <1>   0.0800 
 46 H        6.3150     5.1150     1.2660 H     1 <1>   0.0800 
@<TRIPOS>BOND
  1   1   2  1   
  2   1  21  1   
  3   2   3  1   
  4   2   4  1   
  5   2  22  1   
  6   3   5  1   
  7   3   6  1   
  8   3  23  1   
  9   4   7  1   
 10   4  24  1   
 11   4  25  1   
 12   5   7  1   
 13   5  26  1   
 14   5  27  1   
 15   6   8  1   
 16   6  28  1   
 17   6  29  1   
 18   7   9  1   
 19   7  30  1   
 20   8  10  ar  
 21   8  11  ar  
 22   9  12  1   
 23   9  31  1   
 24   9  32  1   
 25  10  13  ar  
 26  11  14  ar  
 27  11  33  1   
 28  12  15  1   
 29  12  16  1   
 30  12  34  1   
 31  13  17  ar  
 32  13  35  1   
 33  14  17  ar  
 34  15  18  1   
 35  15  36  1   
 36  15  37  1   
 37  16  19  1   
 38  16  38  1   
 39  16  39  1   
 40  17  40  1   
 41  18  20  1   
 42  18  41  1   
 43  18  42  1   
 44  19  20  1   
 45  19  43  1   
 46  19  44  1   
 47  20  45  1   
 48  20  46  1   
@<TRIPOS>SUBSTRUCTURE
  1 ****   5 GROUP 4 **** **** 0

# MOE 2024.06 (io_trps.svl 2023.06)
