@<TRIPOS>MOLECULE
NONAME
53 54 1 0 0 
SMALL
USER_CHARGES


@<TRIPOS>ATOM
  1 O        0.4400    -0.2860    -0.4390 O.3   1 <1>  -0.5600 
  2 C        1.6110    -1.0010    -0.7520 C.3   1 <1>   0.2000 
  3 C        0.4590     1.0720    -0.7610 C.3   1 <1>   0.1200 
  4 C        2.8630    -0.3440    -0.1090 C.3   1 <1>   0.5660 
  5 C        1.4470    -2.4460    -0.2520 C.3   1 <1>   0.1200 
  6 C        1.5990     1.7770    -0.0070 C.3   1 <1>   0.3430 
  7 N        2.9300     1.1460    -0.2990 N.4   1 <1>  -0.9590 
  8 C        4.1480    -0.9450    -0.6660 C.ar  1 <1>  -0.1430 
  9 O        1.5830    -2.4930     1.1330 O.3   1 <1>  -0.6800 
 10 C        4.0290     1.7210     0.5280 C.3   1 <1>   0.3430 
 11 C        5.0000    -1.6190     0.1980 C.ar  1 <1>  -0.1500 
 12 C        4.4940    -0.8310    -2.0080 C.ar  1 <1>  -0.1500 
 13 C        4.3300     3.1580     0.0970 C.3   1 <1>  -0.1600 
 14 C        6.1870    -2.1640    -0.2580 C.ar  1 <1>   0.0830 
 15 C        5.6850    -1.3660    -2.4690 C.ar  1 <1>  -0.1500 
 16 C        5.5700     3.7180     0.8140 C.3   1 <1>  -0.0800 
 17 O        6.9480    -2.8230     0.6470 O.3   1 <1>  -0.3620 
 18 C        6.5460    -2.0160    -1.6020 C.ar  1 <1>   0.0830 
 19 C        5.3700     3.7870     2.3350 C.3   1 <1>  -0.2400 
 20 C        5.8910     5.1180     0.2780 C.3   1 <1>  -0.2400 
 21 C        7.1420    -4.2050     0.4300 C.3   1 <1>   0.0400 
 22 O        7.7090    -2.4810    -2.1150 O.3   1 <1>  -0.3630 
 23 C        8.8990    -1.8950    -1.6320 C.3   1 <1>   0.0400 
 24 H        1.7010    -1.0150    -1.8230 H     1 <1>   0.0800 
 25 H        0.5650     1.1790    -1.8270 H     1 <1>   0.0800 
 26 H       -0.4900     1.4880    -0.4670 H     1 <1>   0.0800 
 27 H        2.8220    -0.5530     0.9480 H     1 <1>   0.0800 
 28 H        2.2030    -3.0840    -0.6790 H     1 <1>   0.0800 
 29 H        0.4740    -2.8230    -0.5200 H     1 <1>   0.0800 
 30 H        1.3920     1.7210     1.0500 H     1 <1>   0.0800 
 31 H        1.6160     2.8180    -0.2860 H     1 <1>   0.0800 
 32 H        3.1720     1.2930    -1.2830 H     1 <1>   0.4500 
 33 H        1.2540    -3.3490     1.4840 H     1 <1>   0.4000 
 34 H        3.7600     1.6970     1.5720 H     1 <1>   0.0800 
 35 H        4.9260     1.1350     0.4020 H     1 <1>   0.0800 
 36 H        4.7540    -1.7410     1.2390 H     1 <1>   0.1500 
 37 H        3.8540    -0.3320    -2.7160 H     1 <1>   0.1500 
 38 H        4.5170     3.1740    -0.9620 H     1 <1>   0.0800 
 39 H        3.4910     3.7950     0.3110 H     1 <1>   0.0800 
 40 H        5.9620    -1.2800    -3.5060 H     1 <1>   0.1500 
 41 H        6.4160     3.0820     0.6080 H     1 <1>   0.0800 
 42 H        4.5150     4.3910     2.5830 H     1 <1>   0.0800 
 43 H        6.2360     4.2290     2.7980 H     1 <1>   0.0800 
 44 H        5.2420     2.8080     2.7610 H     1 <1>   0.0800 
 45 H        5.0810     5.7990     0.4700 H     1 <1>   0.0800 
 46 H        6.0700     5.0860    -0.7830 H     1 <1>   0.0800 
 47 H        6.7770     5.5040     0.7510 H     1 <1>   0.0800 
 48 H        7.6610    -4.6090     1.2800 H     1 <1>   0.0800 
 49 H        7.7280    -4.3510    -0.4580 H     1 <1>   0.0800 
 50 H        6.1820    -4.6800     0.3250 H     1 <1>   0.0800 
 51 H        9.7230    -2.2960    -2.1950 H     1 <1>   0.0800 
 52 H        9.0190    -2.1320    -0.5910 H     1 <1>   0.0800 
 53 H        8.8430    -0.8300    -1.7700 H     1 <1>   0.0800 
@<TRIPOS>BOND
  1   1   2  1   
  2   1   3  1   
  3   2   4  1   
  4   2   5  1   
  5   2  24  1   
  6   3   6  1   
  7   3  25  1   
  8   3  26  1   
  9   4   7  1   
 10   4   8  1   
 11   4  27  1   
 12   5   9  1   
 13   5  28  1   
 14   5  29  1   
 15   6   7  1   
 16   6  30  1   
 17   6  31  1   
 18   7  10  1   
 19   7  32  1   
 20   8  11  ar  
 21   8  12  ar  
 22   9  33  1   
 23  10  13  1   
 24  10  34  1   
 25  10  35  1   
 26  11  14  ar  
 27  11  36  1   
 28  12  15  ar  
 29  12  37  1   
 30  13  16  1   
 31  13  38  1   
 32  13  39  1   
 33  14  17  1   
 34  14  18  ar  
 35  15  18  ar  
 36  15  40  1   
 37  16  19  1   
 38  16  20  1   
 39  16  41  1   
 40  17  21  1   
 41  18  22  1   
 42  19  42  1   
 43  19  43  1   
 44  19  44  1   
 45  20  45  1   
 46  20  46  1   
 47  20  47  1   
 48  21  48  1   
 49  21  49  1   
 50  21  50  1   
 51  22  23  1   
 52  23  51  1   
 53  23  52  1   
 54  23  53  1   
@<TRIPOS>SUBSTRUCTURE
  1 ****   8 GROUP 4 **** **** 0

# MOE 2024.06 (io_trps.svl 2023.06)
