@<TRIPOS>MOLECULE
NONAME
40 42 1 0 0 
SMALL
USER_CHARGES


@<TRIPOS>ATOM
  1 F       -2.2270    -0.0710    -1.3390 F     1 <1>  -0.1900 
  2 C       -2.6450     0.7610    -0.4220 C.ar  1 <1>   0.1900 
  3 C       -3.1310     0.2640     0.7880 C.ar  1 <1>   0.0860 
  4 C       -2.5710     2.1110    -0.7120 C.ar  1 <1>  -0.1500 
  5 C       -3.2200    -1.1490     1.0840 C.2   1 <1>   0.5440 
  6 C       -3.5300     1.2080     1.7340 C.ar  1 <1>  -0.1500 
  7 C       -2.9880     3.0230     0.2410 C.ar  1 <1>  -0.1500 
  8 O       -2.6910    -1.5810     2.0900 O.2   1 <1>  -0.5700 
  9 N       -3.9310    -2.0260     0.2980 N.am  1 <1>  -0.6600 
 10 C       -3.4610     2.5640     1.4590 C.ar  1 <1>   0.0830 
 11 C       -4.8740    -1.6620    -0.7910 C.3   1 <1>   0.1400 
 12 C       -4.0040    -3.4810     0.5770 C.3   1 <1>   0.1400 
 13 O       -3.8520     3.4580     2.3790 O.3   1 <1>  -0.5320 
 14 C       -5.8560    -2.8300    -0.8380 C.3   1 <1>   0.2000 
 15 C       -4.9940    -4.0390    -0.4540 C.3   1 <1>  -0.0800 
 16 O       -6.8200    -2.6200     0.1360 O.3   1 <1>  -0.6800 
 17 C       -5.7830    -5.2680     0.0380 C.3   1 <1>   0.0200 
 18 C       -4.9070    -6.4890     0.2630 C.2   1 <1>  -0.0400 
 19 O       -5.4450    -7.5560     0.7930 O.3   1 <1>  -0.0190 
 20 C       -3.6130    -6.7610     0.0270 C.2   1 <1>  -0.1500 
 21 N       -4.5830    -8.5220     0.9270 N.2   1 <1>  -0.4100 
 22 C       -3.4690    -8.0710     0.4740 C.2   1 <1>   0.1080 
 23 C       -2.1820    -8.8640     0.4370 C.3   1 <1>  -0.0590 
 24 H       -2.1910     2.4410    -1.6630 H     1 <1>   0.1500 
 25 H       -3.8910     0.8620     2.6860 H     1 <1>   0.1500 
 26 H       -2.9460     4.0810     0.0510 H     1 <1>   0.1500 
 27 H       -5.3730    -0.7270    -0.6030 H     1 <1>   0.0800 
 28 H       -4.3320    -1.6050    -1.7190 H     1 <1>   0.0800 
 29 H       -3.0290    -3.9290     0.4820 H     1 <1>   0.0800 
 30 H       -4.3630    -3.6300     1.5820 H     1 <1>   0.0800 
 31 H       -4.1270     3.0560     3.2220 H     1 <1>   0.4500 
 32 H       -6.3460    -2.9350    -1.7910 H     1 <1>   0.0800 
 33 H       -4.4330    -4.3230    -1.3260 H     1 <1>   0.0800 
 34 H       -6.3730    -2.3960     0.9770 H     1 <1>   0.4000 
 35 H       -6.5370    -5.5200    -0.6870 H     1 <1>   0.0800 
 36 H       -6.2860    -5.0380     0.9610 H     1 <1>   0.0800 
 37 H       -2.8380    -6.1540    -0.4010 H     1 <1>   0.1500 
 38 H       -1.4230    -8.3540     1.0010 H     1 <1>   0.0800 
 39 H       -1.8540    -8.9800    -0.5790 H     1 <1>   0.0800 
 40 H       -2.3390    -9.8380     0.8660 H     1 <1>   0.0800 
@<TRIPOS>BOND
  1   1   2  1   
  2   2   3  ar  
  3   2   4  ar  
  4   3   5  1   
  5   3   6  ar  
  6   4   7  ar  
  7   4  24  1   
  8   5   8  2   
  9   5   9  am  
 10   6  10  ar  
 11   6  25  1   
 12   7  10  ar  
 13   7  26  1   
 14   9  11  1   
 15   9  12  1   
 16  10  13  1   
 17  11  14  1   
 18  11  27  1   
 19  11  28  1   
 20  12  15  1   
 21  12  29  1   
 22  12  30  1   
 23  13  31  1   
 24  14  15  1   
 25  14  16  1   
 26  14  32  1   
 27  15  17  1   
 28  15  33  1   
 29  16  34  1   
 30  17  18  1   
 31  17  35  1   
 32  17  36  1   
 33  18  19  1   
 34  18  20  2   
 35  19  21  1   
 36  20  22  1   
 37  20  37  1   
 38  21  22  2   
 39  22  23  1   
 40  23  38  1   
 41  23  39  1   
 42  23  40  1   
@<TRIPOS>SUBSTRUCTURE
  1 ****   9 GROUP 4 **** **** 0

# MOE 2024.06 (io_trps.svl 2023.06)
