@<TRIPOS>MOLECULE
NONAME
54 57 1 0 0 
SMALL
USER_CHARGES


@<TRIPOS>ATOM
  1 O       -0.4960    -0.0290    -2.1470 O.2   1 <1>  -0.5700 
  2 C       -1.2480     0.6800    -1.5190 C.2   1 <1>   0.5690 
  3 N       -2.2210     0.1270    -0.7140 N.am  1 <1>  -0.6600 
  4 C       -1.1010     2.2030    -1.7080 C.3   1 <1>   0.1710 
  5 C       -2.2920    -1.3530    -0.4830 C.3   1 <1>   0.1400 
  6 C       -3.3330     0.8550    -0.0300 C.3   1 <1>   0.1400 
  7 N       -0.2380     2.9180    -0.7210 N.3   1 <1>  -0.8100 
  8 C       -3.7060    -1.8940    -0.7650 C.3   1 <1>   0.3430 
  9 C       -4.6990     0.2060    -0.3500 C.3   1 <1>   0.2950 
 10 C       -0.0060     4.3140    -1.1310 C.3   1 <1>   0.2530 
 11 C       -0.7260     2.8190     0.6630 C.3   1 <1>   0.0300 
 12 O       -4.6610    -1.1570    -0.0450 O.3   1 <1>  -0.5600 
 13 C       -3.8010    -3.3680    -0.3810 C.ar  1 <1>  -0.1440 
 14 C       -5.8900     0.8010     0.4230 C.3   1 <1>  -0.1950 
 15 C        1.1010     4.9590    -0.3080 C.ar  1 <1>  -0.1440 
 16 C       -3.5010    -4.3410    -1.3240 C.ar  1 <1>  -0.1500 
 17 C       -4.1700    -3.7630     0.8980 C.ar  1 <1>  -0.1500 
 18 C       -5.9720     2.2340     0.8560 C.3   1 <1>  -0.2000 
 19 C       -5.8510     1.1400     1.8810 C.3   1 <1>  -0.2000 
 20 C        2.3170     4.3350    -0.1130 C.ar  1 <1>  -0.1500 
 21 C        0.9540     6.1990     0.2810 C.ar  1 <1>  -0.1500 
 22 C       -3.5670    -5.6840    -0.9960 C.ar  1 <1>  -0.1500 
 23 C       -4.2370    -5.1060     1.2290 C.ar  1 <1>  -0.1500 
 24 C        3.2970     4.9590     0.6380 C.ar  1 <1>   0.1600 
 25 C        2.0000     6.7370     1.0140 C.ar  1 <1>   0.1600 
 26 C       -3.9340    -6.0680     0.2820 C.ar  1 <1>  -0.1500 
 27 N        3.1690     6.1480     1.2070 N.ar  1 <1>  -0.6200 
 28 H       -2.0700     2.6600    -1.7410 H     1 <1>   0.0800 
 29 H       -0.6650     2.3360    -2.6820 H     1 <1>   0.0800 
 30 H       -1.5890    -1.8740    -1.1090 H     1 <1>   0.0800 
 31 H       -2.0330    -1.5650     0.5390 H     1 <1>   0.0800 
 32 H       -3.1650     0.8230     1.0310 H     1 <1>   0.0800 
 33 H       -3.3600     1.8840    -0.3290 H     1 <1>   0.0800 
 34 H       -3.9280    -1.7890    -1.8120 H     1 <1>   0.0800 
 35 H       -4.8950     0.3060    -1.4040 H     1 <1>   0.0800 
 36 H        0.2960     4.3350    -2.1650 H     1 <1>   0.0800 
 37 H       -0.9180     4.8780    -1.0360 H     1 <1>   0.0800 
 38 H       -0.0380     3.3030     1.3360 H     1 <1>   0.0800 
 39 H       -0.7900     1.7860     0.9570 H     1 <1>   0.0800 
 40 H       -1.6910     3.2830     0.7600 H     1 <1>   0.0800 
 41 H       -6.8090     0.3680     0.0660 H     1 <1>   0.1000 
 42 H       -3.2110    -4.0600    -2.3220 H     1 <1>   0.1500 
 43 H       -4.4110    -3.0230     1.6420 H     1 <1>   0.1500 
 44 H       -5.1380     2.9040     0.7400 H     1 <1>   0.1000 
 45 H       -6.9150     2.7450     0.7640 H     1 <1>   0.1000 
 46 H       -6.7090     0.8890     2.4800 H     1 <1>   0.1000 
 47 H       -4.9310     1.0300     2.4280 H     1 <1>   0.1000 
 48 H        2.4970     3.3630    -0.5380 H     1 <1>   0.1500 
 49 H        0.0390     6.7520     0.1790 H     1 <1>   0.1500 
 50 H       -3.3320    -6.4320    -1.7330 H     1 <1>   0.1500 
 51 H       -4.5260    -5.4000     2.2220 H     1 <1>   0.1500 
 52 H        4.2370     4.4530     0.7790 H     1 <1>   0.1500 
 53 H        1.8670     7.7050     1.4660 H     1 <1>   0.1500 
 54 H       -3.9860    -7.1110     0.5380 H     1 <1>   0.1500 
@<TRIPOS>BOND
  1   1   2  2   
  2   2   3  am  
  3   2   4  1   
  4   3   5  1   
  5   3   6  1   
  6   4   7  1   
  7   4  28  1   
  8   4  29  1   
  9   5   8  1   
 10   5  30  1   
 11   5  31  1   
 12   6   9  1   
 13   6  32  1   
 14   6  33  1   
 15   7  10  1   
 16   7  11  1   
 17   8  12  1   
 18   8  13  1   
 19   8  34  1   
 20   9  12  1   
 21   9  14  1   
 22   9  35  1   
 23  10  15  1   
 24  10  36  1   
 25  10  37  1   
 26  11  38  1   
 27  11  39  1   
 28  11  40  1   
 29  13  16  ar  
 30  13  17  ar  
 31  14  18  1   
 32  14  19  1   
 33  14  41  1   
 34  15  20  ar  
 35  15  21  ar  
 36  16  22  ar  
 37  16  42  1   
 38  17  23  ar  
 39  17  43  1   
 40  18  19  1   
 41  18  44  1   
 42  18  45  1   
 43  19  46  1   
 44  19  47  1   
 45  20  24  ar  
 46  20  48  1   
 47  21  25  ar  
 48  21  49  1   
 49  22  26  ar  
 50  22  50  1   
 51  23  26  ar  
 52  23  51  1   
 53  24  27  ar  
 54  24  52  1   
 55  25  27  ar  
 56  25  53  1   
 57  26  54  1   
@<TRIPOS>SUBSTRUCTURE
  1 ****   3 GROUP 4 **** **** 0

# MOE 2024.06 (io_trps.svl 2023.06)
