@<TRIPOS>MOLECULE
NONAME
42 44 1 0 0 
SMALL
USER_CHARGES


@<TRIPOS>ATOM
  1 O        1.4420    -0.1850     2.2740 O.2   1 <1>  -0.5700 
  2 C        1.5410    -0.6290     1.1540 C.2   1 <1>   0.5690 
  3 N        1.9730     0.1000     0.0890 N.am  1 <1>  -0.4930 
  4 C        1.1690    -2.0900     0.8920 C.3   1 <1>   0.1710 
  5 C        2.3830     1.4540     0.0260 C.2   1 <1>   0.0630 
  6 N        0.7860    -2.3700    -0.5280 N.3   1 <1>  -0.8100 
  7 C        2.4090     2.4120     1.0400 C.2   1 <1>   0.1390 
  8 C        2.8430     2.1020    -1.0640 C.2   1 <1>  -0.3020 
  9 C       -0.5840    -1.8460    -0.7850 C.3   1 <1>   0.2530 
 10 C        0.6950    -3.8360    -0.7380 C.3   1 <1>   0.2530 
 11 N        2.8470     3.5640     0.6220 N.2   1 <1>  -0.7070 
 12 N        3.1170     3.3710    -0.6860 N.pl3 1 <1>   0.3140 
 13 C       -1.4900    -3.0150    -0.4970 C.ar  1 <1>  -0.1430 
 14 C       -0.7510    -4.1650    -0.4690 C.ar  1 <1>  -0.1430 
 15 C        3.6290     4.4550    -1.5390 C.3   1 <1>   0.1570 
 16 C       -2.8550    -3.0410    -0.2760 C.ar  1 <1>  -0.1500 
 17 C       -1.3490    -5.3880    -0.2210 C.ar  1 <1>  -0.1500 
 18 C        5.0990     4.6950    -1.2690 C.2   1 <1>   0.5690 
 19 C       -3.4660    -4.2590    -0.0250 C.ar  1 <1>  -0.1500 
 20 C       -2.7170    -5.4280     0.0020 C.ar  1 <1>  -0.1500 
 21 O        5.8320     4.8650    -2.2130 O.2   1 <1>  -0.5700 
 22 N        5.5510     4.7330     0.0140 N.am  1 <1>  -0.7300 
 23 C        6.9520     4.9600     0.4430 C.3   1 <1>   0.0600 
 24 H        1.9630    -0.4240    -0.7910 H     1 <1>   0.3700 
 25 H        0.3690    -2.3710     1.5560 H     1 <1>   0.0800 
 26 H        2.0310    -2.6790     1.1510 H     1 <1>   0.0800 
 27 H        2.1000     2.2210     2.0550 H     1 <1>   0.1500 
 28 H        2.9890     1.7400    -2.0640 H     1 <1>   0.1500 
 29 H       -0.6770    -1.5710    -1.8220 H     1 <1>   0.0800 
 30 H       -0.8220    -0.9970    -0.1670 H     1 <1>   0.0800 
 31 H        1.3570    -4.3830    -0.0890 H     1 <1>   0.0800 
 32 H        0.9290    -4.0680    -1.7630 H     1 <1>   0.0800 
 33 H        3.0790     5.3510    -1.3260 H     1 <1>   0.0800 
 34 H        3.4900     4.1910    -2.5690 H     1 <1>   0.0800 
 35 H       -3.4320    -2.1330    -0.2970 H     1 <1>   0.1500 
 36 H       -0.7650    -6.2910    -0.2000 H     1 <1>   0.1500 
 37 H       -4.5270    -4.3000     0.1490 H     1 <1>   0.1500 
 38 H       -3.2000    -6.3690     0.1970 H     1 <1>   0.1500 
 39 H        4.8740     4.4910     0.7560 H     1 <1>   0.3700 
 40 H        7.5740     5.1710    -0.4110 H     1 <1>   0.0800 
 41 H        7.3260     4.0810     0.9390 H     1 <1>   0.0800 
 42 H        6.9940     5.7950     1.1200 H     1 <1>   0.0800 
@<TRIPOS>BOND
  1   1   2  2   
  2   2   3  am  
  3   2   4  1   
  4   3   5  1   
  5   3  24  1   
  6   4   6  1   
  7   4  25  1   
  8   4  26  1   
  9   5   7  1   
 10   5   8  2   
 11   6   9  1   
 12   6  10  1   
 13   7  11  2   
 14   7  27  1   
 15   8  12  1   
 16   8  28  1   
 17   9  13  1   
 18   9  29  1   
 19   9  30  1   
 20  10  14  1   
 21  10  31  1   
 22  10  32  1   
 23  11  12  1   
 24  12  15  1   
 25  13  14  ar  
 26  13  16  ar  
 27  14  17  ar  
 28  15  18  1   
 29  15  33  1   
 30  15  34  1   
 31  16  19  ar  
 32  16  35  1   
 33  17  20  ar  
 34  17  36  1   
 35  18  21  2   
 36  18  22  am  
 37  19  20  ar  
 38  19  37  1   
 39  20  38  1   
 40  22  23  1   
 41  22  39  1   
 42  23  40  1   
 43  23  41  1   
 44  23  42  1   
@<TRIPOS>SUBSTRUCTURE
  1 ****   3 GROUP 4 **** **** 0

# MOE 2024.06 (io_trps.svl 2023.06)
