@<TRIPOS>MOLECULE
NONAME
50 54 1 0 0 
SMALL
USER_CHARGES


@<TRIPOS>ATOM
  1 O       -0.5950     0.1060    -0.3460 O.2   1 <1>  -0.5700 
  2 C       -1.6820     0.6460    -0.3110 C.2   1 <1>   0.5440 
  3 N       -2.8120    -0.1360    -0.3640 N.am  1 <1>  -0.6600 
  4 C       -1.7540     2.0840    -0.2360 C.ar  1 <1>   0.0860 
  5 C       -4.1290     0.3130    -0.8900 C.3   1 <1>   0.1400 
  6 C       -2.7300    -1.6200    -0.3780 C.3   1 <1>   0.1400 
  7 C       -0.9210     2.8960    -0.9810 C.ar  1 <1>   0.1600 
  8 C       -2.6460     2.7500     0.5810 C.ar  1 <1>   0.1600 
  9 C       -4.7710    -0.9460    -1.4690 C.3   1 <1>   0.2000 
 10 C       -4.1420    -2.1090    -0.7080 C.3   1 <1>  -0.0800 
 11 N       -0.9820     4.2110    -0.9520 N.ar  1 <1>  -0.6200 
 12 N       -2.7390     4.0600     0.6350 N.ar  1 <1>  -0.6200 
 13 O       -6.1450    -0.9460    -1.2890 O.3   1 <1>  -0.6800 
 14 C       -4.1620    -3.4260    -1.5020 C.3   1 <1>  -0.0170 
 15 C       -1.8930     4.7250    -0.1390 C.ar  1 <1>   0.5880 
 16 C       -3.5630    -4.5670    -0.6870 C.ar  1 <1>  -0.1430 
 17 C       -1.9830     6.2440    -0.0950 C.3   1 <1>  -0.0680 
 18 C       -4.2850    -5.2270     0.3350 C.ar  1 <1>   0.0000 
 19 C       -2.2840    -4.9800    -0.9240 C.ar  1 <1>  -0.1500 
 20 C       -0.7760     7.0860     0.2080 C.3   1 <1>  -0.2000 
 21 C       -1.8890     6.9930     1.2040 C.3   1 <1>  -0.2000 
 22 C       -3.6230    -6.2570     1.0480 C.ar  1 <1>   0.3100 
 23 C       -5.6220    -4.9300     0.6910 C.ar  1 <1>  -0.1500 
 24 C       -1.7260    -6.0160    -0.1640 C.ar  1 <1>   0.1600 
 25 N       -2.3480    -6.6380     0.7860 N.ar  1 <1>  -0.6200 
 26 C       -4.3100    -6.9220     2.0760 C.ar  1 <1>  -0.1500 
 27 C       -6.2640    -5.6000     1.6970 C.ar  1 <1>  -0.1500 
 28 C       -5.6010    -6.6070     2.4020 C.ar  1 <1>  -0.1500 
 29 H       -4.7210     0.7000    -0.0790 H     1 <1>   0.0800 
 30 H       -4.0040     1.0610    -1.6540 H     1 <1>   0.0800 
 31 H       -2.0300    -1.9240    -1.1370 H     1 <1>   0.0800 
 32 H       -2.3970    -1.9920     0.5770 H     1 <1>   0.0800 
 33 H       -0.1840     2.4380    -1.6200 H     1 <1>   0.1500 
 34 H       -3.3040     2.1770     1.2120 H     1 <1>   0.1500 
 35 H       -4.5660    -1.0090    -2.5240 H     1 <1>   0.0800 
 36 H       -4.6540    -2.2410     0.2280 H     1 <1>   0.0800 
 37 H       -6.3700    -0.9340    -0.3390 H     1 <1>   0.4000 
 38 H       -3.6030    -3.3010    -2.4140 H     1 <1>   0.0800 
 39 H       -5.1700    -3.6700    -1.7900 H     1 <1>   0.0800 
 40 H       -2.6710     6.6160    -0.8310 H     1 <1>   0.1000 
 41 H       -1.6750    -4.5290    -1.6850 H     1 <1>   0.1500 
 42 H        0.1550     6.5870     0.4180 H     1 <1>   0.1000 
 43 H       -0.6390     8.0000    -0.3430 H     1 <1>   0.1000 
 44 H       -2.5330     7.8420     1.3530 H     1 <1>   0.1000 
 45 H       -1.7310     6.4310     2.1090 H     1 <1>   0.1000 
 46 H       -6.1530    -4.1640     0.1600 H     1 <1>   0.1500 
 47 H       -0.7140    -6.3110    -0.3840 H     1 <1>   0.1500 
 48 H       -3.7810    -7.6940     2.6030 H     1 <1>   0.1500 
 49 H       -7.2810    -5.3640     1.9580 H     1 <1>   0.1500 
 50 H       -6.1150    -7.1260     3.1930 H     1 <1>   0.1500 
@<TRIPOS>BOND
  1   1   2  2   
  2   2   3  am  
  3   2   4  1   
  4   3   5  1   
  5   3   6  1   
  6   4   7  ar  
  7   4   8  ar  
  8   5   9  1   
  9   5  29  1   
 10   5  30  1   
 11   6  10  1   
 12   6  31  1   
 13   6  32  1   
 14   7  11  ar  
 15   7  33  1   
 16   8  12  ar  
 17   8  34  1   
 18   9  10  1   
 19   9  13  1   
 20   9  35  1   
 21  10  14  1   
 22  10  36  1   
 23  11  15  ar  
 24  12  15  ar  
 25  13  37  1   
 26  14  16  1   
 27  14  38  1   
 28  14  39  1   
 29  15  17  1   
 30  16  18  ar  
 31  16  19  ar  
 32  17  20  1   
 33  17  21  1   
 34  17  40  1   
 35  18  22  ar  
 36  18  23  ar  
 37  19  24  ar  
 38  19  41  1   
 39  20  21  1   
 40  20  42  1   
 41  20  43  1   
 42  21  44  1   
 43  21  45  1   
 44  22  25  ar  
 45  22  26  ar  
 46  23  27  ar  
 47  23  46  1   
 48  24  25  ar  
 49  24  47  1   
 50  26  28  ar  
 51  26  48  1   
 52  27  28  ar  
 53  27  49  1   
 54  28  50  1   
@<TRIPOS>SUBSTRUCTURE
  1 ****   3 GROUP 4 **** **** 0

# MOE 2024.06 (io_trps.svl 2023.06)
