@<TRIPOS>MOLECULE
NONAME
44 46 1 0 0 
SMALL
USER_CHARGES


@<TRIPOS>ATOM
  1 S        0.7240     0.2860    -1.4280 S.o2  1 <1>   1.3330 
  2 O        0.9990    -1.1080    -1.6920 O.2   1 <1>  -0.6500 
  3 O       -0.0160     1.0660    -2.3940 O.2   1 <1>  -0.6500 
  4 N       -0.1200     0.3810     0.0450 N.am  1 <1>  -0.8490 
  5 C        2.2830     1.1020    -1.0800 C.3   1 <1>  -0.0550 
  6 C       -1.1100    -0.6910     0.1810 C.3   1 <1>   0.1160 
  7 C       -0.7650     1.6810     0.2620 C.3   1 <1>   0.1160 
  8 C        3.2100     0.3210    -0.1210 C.3   1 <1>  -0.0800 
  9 C        4.5950     0.9230     0.0630 C.3   1 <1>   0.2200 
 10 C        2.7020     0.1960     1.3210 C.3   1 <1>   0.1200 
 11 N        4.5110     2.3940     0.2180 N.am  1 <1>  -0.7300 
 12 C        4.9920     0.3080     1.3980 C.3   1 <1>   0.1200 
 13 O        3.8200     0.2980     2.1550 O.3   1 <1>  -0.5600 
 14 C        4.7830     3.3230    -0.7400 C.2   1 <1>   0.7150 
 15 O        5.1140     2.9380    -1.8450 O.2   1 <1>  -0.5700 
 16 C        4.6420     4.7300    -0.4440 C.2   1 <1>   0.0550 
 17 O        4.2260     5.1250     0.7710 O.3   1 <1>  -0.2800 
 18 C        4.8590     5.8200    -1.2220 C.2   1 <1>  -0.1500 
 19 C        4.1750     6.4560     0.7760 C.ar  1 <1>   0.1400 
 20 C        4.5620     6.9560    -0.4530 C.ar  1 <1>   0.0000 
 21 C        3.7990     7.2870     1.8230 C.ar  1 <1>  -0.1500 
 22 C        4.5760     8.3370    -0.6580 C.ar  1 <1>  -0.1500 
 23 C        3.8150     8.6520     1.6140 C.ar  1 <1>  -0.1500 
 24 C        4.2030     9.1730     0.3750 C.ar  1 <1>  -0.1500 
 25 H        2.8060     1.2340    -2.0080 H     1 <1>   0.0800 
 26 H        2.0880     2.0780    -0.6840 H     1 <1>   0.0800 
 27 H       -1.6180    -0.6130     1.1270 H     1 <1>   0.0800 
 28 H       -0.6230    -1.6520     0.1400 H     1 <1>   0.0800 
 29 H       -1.8330    -0.6370    -0.6170 H     1 <1>   0.0800 
 30 H       -1.2090     1.7140     1.2420 H     1 <1>   0.0800 
 31 H       -1.5330     1.8490    -0.4760 H     1 <1>   0.0800 
 32 H       -0.0410     2.4740     0.1920 H     1 <1>   0.0800 
 33 H        3.3340    -0.6760    -0.5080 H     1 <1>   0.0800 
 34 H        5.2760     0.6590    -0.7290 H     1 <1>   0.0800 
 35 H        2.2180    -0.7500     1.4940 H     1 <1>   0.0800 
 36 H        2.0330     0.9980     1.5810 H     1 <1>   0.0800 
 37 H        4.2220     2.7200     1.1440 H     1 <1>   0.3700 
 38 H        5.7520     0.8700     1.9090 H     1 <1>   0.0800 
 39 H        5.3110    -0.7120     1.2690 H     1 <1>   0.0800 
 40 H        5.1950     5.8400    -2.2430 H     1 <1>   0.1500 
 41 H        3.5050     6.8610     2.7650 H     1 <1>   0.1500 
 42 H        4.8760     8.7290    -1.6130 H     1 <1>   0.1500 
 43 H        3.5290     9.3240     2.4040 H     1 <1>   0.1500 
 44 H        4.2080    10.2400     0.2340 H     1 <1>   0.1500 
@<TRIPOS>BOND
  1   1   2  2   
  2   1   3  2   
  3   1   4  am  
  4   1   5  1   
  5   4   6  1   
  6   4   7  1   
  7   5   8  1   
  8   5  25  1   
  9   5  26  1   
 10   6  27  1   
 11   6  28  1   
 12   6  29  1   
 13   7  30  1   
 14   7  31  1   
 15   7  32  1   
 16   8   9  1   
 17   8  10  1   
 18   8  33  1   
 19   9  11  1   
 20   9  12  1   
 21   9  34  1   
 22  10  13  1   
 23  10  35  1   
 24  10  36  1   
 25  11  14  am  
 26  11  37  1   
 27  12  13  1   
 28  12  38  1   
 29  12  39  1   
 30  14  15  2   
 31  14  16  1   
 32  16  17  1   
 33  16  18  2   
 34  17  19  1   
 35  18  20  1   
 36  18  40  1   
 37  19  20  ar  
 38  19  21  ar  
 39  20  22  ar  
 40  21  23  ar  
 41  21  41  1   
 42  22  24  ar  
 43  22  42  1   
 44  23  24  ar  
 45  23  43  1   
 46  24  44  1   
@<TRIPOS>SUBSTRUCTURE
  1 ****  11 GROUP 4 **** **** 0

# MOE 2024.06 (io_trps.svl 2023.06)
