@<TRIPOS>MOLECULE
NONAME
49 51 1 0 0 
SMALL
USER_CHARGES


@<TRIPOS>ATOM
  1 F       -1.1410    -1.2180     1.8350 F     1 <1>  -0.1900 
  2 C       -1.4240    -2.3560     1.2520 C.ar  1 <1>   0.1900 
  3 C       -0.7720    -2.7750     0.0870 C.ar  1 <1>   0.0830 
  4 C       -2.4000    -3.1270     1.8520 C.ar  1 <1>  -0.1500 
  5 O        0.2040    -2.1070    -0.5940 O.3   1 <1>  -0.3630 
  6 C       -1.1410    -3.9980    -0.4500 C.ar  1 <1>  -0.1500 
  7 C       -2.7440    -4.3420     1.2900 C.ar  1 <1>  -0.1500 
  8 C        0.6570    -0.8240    -0.2250 C.3   1 <1>   0.0400 
  9 C       -2.1260    -4.8040     0.1250 C.ar  1 <1>   0.0530 
 10 C       -2.4860    -6.0700    -0.4660 C.2   1 <1>   0.0870 
 11 O       -1.6460    -6.7170    -1.2430 O.3   1 <1>  -0.0190 
 12 C       -3.6060    -6.8300    -0.3970 C.2   1 <1>  -0.2330 
 13 N       -2.1310    -7.8530    -1.6810 N.2   1 <1>  -0.4100 
 14 C       -3.3060    -7.9380    -1.1760 C.2   1 <1>   0.3720 
 15 C       -4.8520    -6.6440     0.2490 C.2   1 <1>   1.0330 
 16 N       -4.1110    -9.0440    -1.4090 N.pl3 1 <1>  -0.8520 
 17 O       -5.0550    -7.0800     1.3960 O.co2 1 <1>  -0.9000 
 18 O       -5.8360    -6.1860    -0.3540 O.co2 1 <1>  -0.9000 
 19 C       -4.4540    -9.8430    -0.1880 C.3   1 <1>   0.2090 
 20 C       -5.9370   -10.2800    -0.1540 C.3   1 <1>   0.2000 
 21 O       -6.4050   -10.3380    -1.4620 O.3   1 <1>  -0.6800 
 22 C       -6.8470    -9.4180     0.7680 C.3   1 <1>   0.3430 
 23 N       -7.5420    -8.2270     0.1810 N.4   1 <1>  -0.9590 
 24 C       -8.1590    -7.3620     1.2100 C.3   1 <1>   0.3430 
 25 C       -8.5090    -8.4390    -0.9090 C.3   1 <1>   0.3430 
 26 C       -9.3670    -6.7170     0.5380 C.3   1 <1>  -0.1600 
 27 C       -9.3120    -7.1520    -0.9250 C.3   1 <1>  -0.1600 
 28 H       -2.8840    -2.7800     2.7480 H     1 <1>   0.1500 
 29 H       -0.6490    -4.3300    -1.3470 H     1 <1>   0.1500 
 30 H       -3.5000    -4.9410     1.7680 H     1 <1>   0.1500 
 31 H        1.3980    -0.5130    -0.9400 H     1 <1>   0.0800 
 32 H        1.0970    -0.8760     0.7550 H     1 <1>   0.0800 
 33 H       -0.1740    -0.1410    -0.2410 H     1 <1>   0.0800 
 34 H       -3.5940    -9.6320    -2.0730 H     1 <1>   0.4000 
 35 H       -4.2040    -9.3060     0.7120 H     1 <1>   0.0800 
 36 H       -3.8440   -10.7300    -0.1890 H     1 <1>   0.0800 
 37 H       -5.9670   -11.2820     0.2360 H     1 <1>   0.0800 
 38 H       -5.8530    -9.6840    -1.9610 H     1 <1>   0.4000 
 39 H       -6.2450    -9.0830     1.5970 H     1 <1>   0.0800 
 40 H       -7.5970   -10.0710     1.1780 H     1 <1>   0.0800 
 41 H       -6.8000    -7.5820    -0.1940 H     1 <1>   0.4500 
 42 H       -7.4450    -6.6130     1.5230 H     1 <1>   0.0800 
 43 H       -8.4670    -7.9400     2.0640 H     1 <1>   0.0800 
 44 H       -9.1460    -9.2750    -0.6760 H     1 <1>   0.0800 
 45 H       -8.0100    -8.6100    -1.8500 H     1 <1>   0.0800 
 46 H       -9.3280    -5.6460     0.6330 H     1 <1>   0.0800 
 47 H      -10.2650    -7.0770     1.0070 H     1 <1>   0.0800 
 48 H      -10.2870    -7.2920    -1.3560 H     1 <1>   0.0800 
 49 H       -8.7710    -6.4200    -1.5020 H     1 <1>   0.0800 
@<TRIPOS>BOND
  1   1   2  1   
  2   2   3  ar  
  3   2   4  ar  
  4   3   5  1   
  5   3   6  ar  
  6   4   7  ar  
  7   4  28  1   
  8   5   8  1   
  9   6   9  ar  
 10   6  29  1   
 11   7   9  ar  
 12   7  30  1   
 13   8  31  1   
 14   8  32  1   
 15   8  33  1   
 16   9  10  1   
 17  10  11  1   
 18  10  12  2   
 19  11  13  1   
 20  12  14  1   
 21  12  15  1   
 22  13  14  2   
 23  14  16  1   
 24  15  17  ar  
 25  15  18  ar  
 26  16  19  1   
 27  16  34  1   
 28  19  20  1   
 29  19  35  1   
 30  19  36  1   
 31  20  21  1   
 32  20  22  1   
 33  20  37  1   
 34  21  38  1   
 35  22  23  1   
 36  22  39  1   
 37  22  40  1   
 38  23  24  1   
 39  23  25  1   
 40  23  41  1   
 41  24  26  1   
 42  24  42  1   
 43  24  43  1   
 44  25  27  1   
 45  25  44  1   
 46  25  45  1   
 47  26  27  1   
 48  26  46  1   
 49  26  47  1   
 50  27  48  1   
 51  27  49  1   
@<TRIPOS>SUBSTRUCTURE
  1 ****  12 GROUP 4 **** **** 0

# MOE 2024.06 (io_trps.svl 2023.06)
