@<TRIPOS>MOLECULE
NONAME
57 60 1 0 0 
SMALL
USER_CHARGES


@<TRIPOS>ATOM
  1 O       -1.3960    -0.2150     0.8180 O.2   1 <1>  -0.5700 
  2 C       -2.2590     0.5630     0.4550 C.2   1 <1>   0.7150 
  3 N       -3.5770     0.1690     0.5180 N.am  1 <1>  -0.6600 
  4 C       -1.9020     1.8540    -0.0630 C.2   1 <1>  -0.2370 
  5 C       -4.5820     0.6060    -0.4910 C.3   1 <1>   0.1400 
  6 C       -3.9900    -1.1410     1.0890 C.3   1 <1>   0.1400 
  7 N       -0.7440     2.1260    -0.7200 N.pl3 1 <1>   0.3140 
  8 C       -2.5730     3.0390    -0.0260 C.2   1 <1>  -0.1500 
  9 C       -5.6570    -0.4860    -0.5010 C.3   1 <1>   0.2000 
 10 C       -4.9600    -1.7270     0.0580 C.3   1 <1>  -0.0800 
 11 N       -0.6740     3.4050    -1.1160 N.2   1 <1>  -0.7070 
 12 C        0.3630     1.2040    -1.0210 C.3   1 <1>   0.0160 
 13 C       -1.7710     3.9490    -0.6880 C.2   1 <1>   0.1080 
 14 O       -6.6670    -0.1240     0.3760 O.3   1 <1>  -0.6800 
 15 C       -4.2140    -2.4860    -1.0590 C.3   1 <1>  -0.0170 
 16 C       -2.1020     5.4150    -0.9040 C.3   1 <1>   0.0210 
 17 C       -3.4720    -3.7070    -0.5230 C.ar  1 <1>  -0.1430 
 18 C       -2.1160     6.2220     0.4090 C.3   1 <1>  -0.0800 
 19 C       -4.1240    -4.9270    -0.2250 C.ar  1 <1>   0.0000 
 20 C       -2.1260    -3.6420    -0.3090 C.ar  1 <1>  -0.1500 
 21 C       -2.5640     7.6650     0.1450 C.3   1 <1>  -0.2400 
 22 C       -0.7380     6.2250     1.0850 C.3   1 <1>  -0.2400 
 23 C       -3.3310    -5.9890     0.2760 C.ar  1 <1>   0.3100 
 24 C       -5.5090    -5.1560    -0.3930 C.ar  1 <1>  -0.1500 
 25 C       -1.4360    -4.7530     0.1900 C.ar  1 <1>   0.1600 
 26 N       -1.9930    -5.8860     0.4770 N.ar  1 <1>  -0.6200 
 27 C       -3.9510    -7.2110     0.5840 C.ar  1 <1>  -0.1500 
 28 C       -6.0810    -6.3600    -0.0830 C.ar  1 <1>  -0.1500 
 29 C       -5.2940    -7.4020     0.4130 C.ar  1 <1>  -0.1500 
 30 H       -5.0020     1.5650    -0.2410 H     1 <1>   0.0800 
 31 H       -4.1100     0.6640    -1.4570 H     1 <1>   0.0800 
 32 H       -3.1530    -1.7880     1.2830 H     1 <1>   0.0800 
 33 H       -4.5000    -0.9660     2.0200 H     1 <1>   0.0800 
 34 H       -3.5250     3.2520     0.4250 H     1 <1>   0.1500 
 35 H       -6.0970    -0.6350    -1.4730 H     1 <1>   0.0800 
 36 H       -5.6630    -2.3920     0.5290 H     1 <1>   0.0800 
 37 H       -0.0230     0.3330    -1.5150 H     1 <1>   0.0800 
 38 H        0.8420     0.9210    -0.1030 H     1 <1>   0.0800 
 39 H        1.0730     1.6990    -1.6590 H     1 <1>   0.0800 
 40 H       -6.2800     0.1210     1.2390 H     1 <1>   0.4000 
 41 H       -3.5050    -1.8280    -1.5310 H     1 <1>   0.0800 
 42 H       -4.9040    -2.7940    -1.8230 H     1 <1>   0.0800 
 43 H       -1.3800     5.8360    -1.5810 H     1 <1>   0.0800 
 44 H       -3.0660     5.4740    -1.3760 H     1 <1>   0.0800 
 45 H       -2.8230     5.7670     1.0820 H     1 <1>   0.0800 
 46 H       -1.5640    -2.7460    -0.5050 H     1 <1>   0.1500 
 47 H       -1.8790     8.1580    -0.5230 H     1 <1>   0.0800 
 48 H       -2.6010     8.2180     1.0670 H     1 <1>   0.0800 
 49 H       -3.5450     7.6790    -0.2960 H     1 <1>   0.0800 
 50 H        0.0040     6.6510     0.4320 H     1 <1>   0.0800 
 51 H       -0.4350     5.2210     1.3290 H     1 <1>   0.0800 
 52 H       -0.7660     6.7960     1.9960 H     1 <1>   0.0800 
 53 H       -6.1340    -4.3700    -0.7740 H     1 <1>   0.1500 
 54 H       -0.3750    -4.6550     0.3480 H     1 <1>   0.1500 
 55 H       -3.3250    -7.9980     0.9630 H     1 <1>   0.1500 
 56 H       -7.1380    -6.5200    -0.2150 H     1 <1>   0.1500 
 57 H       -5.7550    -8.3440     0.6540 H     1 <1>   0.1500 
@<TRIPOS>BOND
  1   1   2  2   
  2   2   3  am  
  3   2   4  1   
  4   3   5  1   
  5   3   6  1   
  6   4   7  1   
  7   4   8  2   
  8   5   9  1   
  9   5  30  1   
 10   5  31  1   
 11   6  10  1   
 12   6  32  1   
 13   6  33  1   
 14   7  11  1   
 15   7  12  1   
 16   8  13  1   
 17   8  34  1   
 18   9  10  1   
 19   9  14  1   
 20   9  35  1   
 21  10  15  1   
 22  10  36  1   
 23  11  13  2   
 24  12  37  1   
 25  12  38  1   
 26  12  39  1   
 27  13  16  1   
 28  14  40  1   
 29  15  17  1   
 30  15  41  1   
 31  15  42  1   
 32  16  18  1   
 33  16  43  1   
 34  16  44  1   
 35  17  19  ar  
 36  17  20  ar  
 37  18  21  1   
 38  18  22  1   
 39  18  45  1   
 40  19  23  ar  
 41  19  24  ar  
 42  20  25  ar  
 43  20  46  1   
 44  21  47  1   
 45  21  48  1   
 46  21  49  1   
 47  22  50  1   
 48  22  51  1   
 49  22  52  1   
 50  23  26  ar  
 51  23  27  ar  
 52  24  28  ar  
 53  24  53  1   
 54  25  26  ar  
 55  25  54  1   
 56  27  29  ar  
 57  27  55  1   
 58  28  29  ar  
 59  28  56  1   
 60  29  57  1   
@<TRIPOS>SUBSTRUCTURE
  1 ****   3 GROUP 4 **** **** 0

# MOE 2024.06 (io_trps.svl 2023.06)
