@<TRIPOS>MOLECULE
NONAME
42 44 1 0 0 
SMALL
USER_CHARGES


@<TRIPOS>ATOM
  1 S       -1.6550    -0.1460     1.6420 S.3   1 <1>  -0.0800 
  2 C       -2.2550    -1.7920     1.5600 C.2   1 <1>  -0.1100 
  3 C       -1.8010     0.0390    -0.0940 C.2   1 <1>  -0.1100 
  4 C       -2.5480    -2.1340     0.2900 C.2   1 <1>  -0.1810 
  5 C       -2.2780    -1.0870    -0.6550 C.2   1 <1>  -0.1500 
  6 C       -3.1040    -3.4750    -0.1400 C.3   1 <1>   0.5240 
  7 N       -4.5780    -3.4270     0.0390 N.4   1 <1>  -0.9590 
  8 C       -5.1750    -4.8070     0.0940 C.3   1 <1>   0.3430 
  9 C       -5.2310    -2.5840    -1.0080 C.3   1 <1>   0.3430 
 10 C       -6.6210    -4.8580     0.6370 C.3   1 <1>   0.1400 
 11 C       -6.3180    -1.7040    -0.3930 C.3   1 <1>  -0.1600 
 12 N       -7.5170    -3.8400     0.0020 N.am  1 <1>  -0.6600 
 13 C       -7.3220    -2.4480     0.4920 C.3   1 <1>   0.1400 
 14 C       -8.5230    -4.1070    -0.9040 C.2   1 <1>   0.5690 
 15 O       -9.0590    -3.2050    -1.5000 O.2   1 <1>  -0.5700 
 16 C       -8.9700    -5.5290    -1.2340 C.3   1 <1>   0.0820 
 17 C       -9.4580    -6.3270    -0.0280 C.2   1 <1>  -0.1810 
 18 C       -9.8670    -5.8230     1.1530 C.2   1 <1>  -0.1100 
 19 C       -9.5160    -7.7590    -0.0810 C.2   1 <1>  -0.1500 
 20 S      -10.3180    -7.1060     2.2610 S.3   1 <1>  -0.0800 
 21 C       -9.9500    -8.3270     1.0580 C.2   1 <1>  -0.1100 
 22 H       -2.3200    -2.3210     2.4960 H     1 <1>   0.1500 
 23 H       -1.5030     0.9850    -0.5140 H     1 <1>   0.1500 
 24 H       -2.4380    -1.2100    -1.7130 H     1 <1>   0.1500 
 25 H       -2.6830    -4.2410     0.4910 H     1 <1>   0.0800 
 26 H       -2.8410    -3.6870    -1.1630 H     1 <1>   0.0800 
 27 H       -4.7310    -2.9510     0.9360 H     1 <1>   0.4500 
 28 H       -4.5650    -5.4380     0.7210 H     1 <1>   0.0800 
 29 H       -5.1680    -5.2360    -0.8940 H     1 <1>   0.0800 
 30 H       -5.6710    -3.2150    -1.7630 H     1 <1>   0.0800 
 31 H       -4.5080    -1.9470    -1.4890 H     1 <1>   0.0800 
 32 H       -6.6100    -4.7020     1.7020 H     1 <1>   0.0800 
 33 H       -7.0000    -5.8510     0.4790 H     1 <1>   0.0800 
 34 H       -6.8650    -1.2500    -1.2010 H     1 <1>   0.0800 
 35 H       -5.8720    -0.9000     0.1640 H     1 <1>   0.0800 
 36 H       -8.2630    -1.9210     0.4890 H     1 <1>   0.0800 
 37 H       -6.9750    -2.4690     1.5110 H     1 <1>   0.0800 
 38 H       -8.1480    -6.0400    -1.6960 H     1 <1>   0.0800 
 39 H       -9.7670    -5.4830    -1.9550 H     1 <1>   0.0800 
 40 H       -9.9600    -4.8130     1.5130 H     1 <1>   0.1500 
 41 H       -9.2360    -8.3000    -0.9690 H     1 <1>   0.1500 
 42 H      -10.1060    -9.3550     1.3360 H     1 <1>   0.1500 
@<TRIPOS>BOND
  1   1   2  1   
  2   1   3  1   
  3   2   4  2   
  4   2  22  1   
  5   3   5  2   
  6   3  23  1   
  7   4   5  1   
  8   4   6  1   
  9   5  24  1   
 10   6   7  1   
 11   6  25  1   
 12   6  26  1   
 13   7   8  1   
 14   7   9  1   
 15   7  27  1   
 16   8  10  1   
 17   8  28  1   
 18   8  29  1   
 19   9  11  1   
 20   9  30  1   
 21   9  31  1   
 22  10  12  1   
 23  10  32  1   
 24  10  33  1   
 25  11  13  1   
 26  11  34  1   
 27  11  35  1   
 28  12  13  1   
 29  12  14  am  
 30  13  36  1   
 31  13  37  1   
 32  14  15  2   
 33  14  16  1   
 34  16  17  1   
 35  16  38  1   
 36  16  39  1   
 37  17  18  2   
 38  17  19  1   
 39  18  20  1   
 40  18  40  1   
 41  19  21  2   
 42  19  41  1   
 43  20  21  1   
 44  21  42  1   
@<TRIPOS>SUBSTRUCTURE
  1 ****  10 GROUP 4 **** **** 0

# MOE 2024.06 (io_trps.svl 2023.06)
