@<TRIPOS>MOLECULE
NONAME
52 55 1 0 0 
SMALL
USER_CHARGES


@<TRIPOS>ATOM
  1 O       -0.9320     0.7700    -0.8880 O.2   1 <1>  -0.5700 
  2 C       -1.3140     1.6580    -0.1500 C.2   1 <1>   0.7030 
  3 N       -2.4580     1.4500     0.5980 N.am  1 <1>  -0.6600 
  4 C       -0.5280     2.8840    -0.1060 C.2   1 <1>   0.2770 
  5 C       -2.9140     0.0450     0.8590 C.3   1 <1>   0.1400 
  6 C       -3.3660     2.5480     1.0520 C.3   1 <1>   0.1400 
  7 N        0.3360     3.2930    -1.1090 N.pl3 1 <1>  -0.7000 
  8 C       -0.4280     3.8240     0.8660 C.2   1 <1>   0.2000 
  9 C       -3.7730    -0.5120    -0.2890 C.3   1 <1>   0.1400 
 10 C       -4.8550     2.2960     0.7780 C.3   1 <1>  -0.1600 
 11 C        0.9250     4.4400    -0.7510 C.cat 1 <1>   0.7910 
 12 N        0.4600     4.7980     0.4690 N.pl3 1 <1>  -0.6290 
 13 N       -5.1360     0.1050    -0.3160 N.am  1 <1>  -0.6600 
 14 C       -5.1550     1.5770    -0.5400 C.3   1 <1>   0.1400 
 15 C        1.8730     5.2320    -1.4190 C.2   1 <1>  -0.1410 
 16 C        0.9150     5.9510     1.0770 C.2   1 <1>   0.2290 
 17 C       -6.3200    -0.5660    -0.1020 C.2   1 <1>   0.5690 
 18 C        2.3300     6.3800    -0.8290 C.2   1 <1>  -0.1500 
 19 C        1.8350     6.7350     0.4430 C.2   1 <1>  -0.1500 
 20 O       -7.3620     0.0340     0.0290 O.2   1 <1>  -0.5700 
 21 C       -6.3810    -2.0930     0.0010 C.3   1 <1>  -0.0190 
 22 C       -7.7530    -2.5930    -0.4890 C.3   1 <1>   0.0960 
 23 C       -6.0850    -2.5570     1.4440 C.3   1 <1>  -0.2400 
 24 N       -7.8190    -4.0650    -0.5200 N.pl3 1 <1>   0.3140 
 25 N       -7.0980    -4.8050    -1.3510 N.2   1 <1>  -0.7070 
 26 C       -8.5540    -4.8780     0.2450 C.2   1 <1>   0.0360 
 27 C       -7.4510    -6.0070    -1.0300 C.2   1 <1>   0.3660 
 28 N       -8.3500    -6.1120    -0.0440 N.2   1 <1>  -0.5650 
 29 H       -3.4610    -0.0070     1.7840 H     1 <1>   0.0800 
 30 H       -2.0460    -0.5850     0.9640 H     1 <1>   0.0800 
 31 H       -3.1000     3.4580     0.5430 H     1 <1>   0.0800 
 32 H       -3.2300     2.7070     2.1090 H     1 <1>   0.0800 
 33 H        0.5130     2.7480    -1.9590 H     1 <1>   0.4500 
 34 H       -0.9270     3.8510     1.8210 H     1 <1>   0.1500 
 35 H       -3.8390    -1.5740    -0.1570 H     1 <1>   0.0800 
 36 H       -3.2810    -0.3410    -1.2310 H     1 <1>   0.0800 
 37 H       -5.3470     3.2520     0.7570 H     1 <1>   0.0800 
 38 H       -5.2970     1.7500     1.5940 H     1 <1>   0.0800 
 39 H       -4.4440     1.8460    -1.3030 H     1 <1>   0.0800 
 40 H       -6.1300     1.8740    -0.8910 H     1 <1>   0.0800 
 41 H        2.2210     4.9180    -2.3850 H     1 <1>   0.1500 
 42 H        0.5250     6.2040     2.0510 H     1 <1>   0.1500 
 43 H        3.0580     7.0160    -1.3090 H     1 <1>   0.1500 
 44 H        2.1990     7.6390     0.9040 H     1 <1>   0.1500 
 45 H       -5.6490    -2.5060    -0.6680 H     1 <1>   0.0800 
 46 H       -7.9340    -2.2330    -1.4860 H     1 <1>   0.0800 
 47 H       -8.5350    -2.2240     0.1510 H     1 <1>   0.0800 
 48 H       -6.8530    -2.2070     2.1130 H     1 <1>   0.0800 
 49 H       -5.1430    -2.1650     1.7810 H     1 <1>   0.0800 
 50 H       -6.0380    -3.6310     1.5000 H     1 <1>   0.0800 
 51 H       -9.2260    -4.5200     1.0040 H     1 <1>   0.1500 
 52 H       -7.0590    -6.8880    -1.5130 H     1 <1>   0.1500 
@<TRIPOS>BOND
  1   1   2  2   
  2   2   3  am  
  3   2   4  1   
  4   3   5  1   
  5   3   6  1   
  6   4   7  1   
  7   4   8  2   
  8   5   9  1   
  9   5  29  1   
 10   5  30  1   
 11   6  10  1   
 12   6  31  1   
 13   6  32  1   
 14   7  11  ar  
 15   7  33  1   
 16   8  12  1   
 17   8  34  1   
 18   9  13  1   
 19   9  35  1   
 20   9  36  1   
 21  10  14  1   
 22  10  37  1   
 23  10  38  1   
 24  11  12  ar  
 25  11  15  1   
 26  12  16  1   
 27  13  14  1   
 28  13  17  am  
 29  14  39  1   
 30  14  40  1   
 31  15  18  2   
 32  15  41  1   
 33  16  19  2   
 34  16  42  1   
 35  17  20  2   
 36  17  21  1   
 37  18  19  1   
 38  18  43  1   
 39  19  44  1   
 40  21  22  1   
 41  21  23  1   
 42  21  45  1   
 43  22  24  1   
 44  22  46  1   
 45  22  47  1   
 46  23  48  1   
 47  23  49  1   
 48  23  50  1   
 49  24  25  1   
 50  24  26  1   
 51  25  27  2   
 52  26  28  2   
 53  26  51  1   
 54  27  28  1   
 55  27  52  1   
@<TRIPOS>SUBSTRUCTURE
  1 ****   5 GROUP 4 **** **** 0

# MOE 2024.06 (io_trps.svl 2023.06)
