@<TRIPOS>MOLECULE
NONAME
53 56 1 0 0 
SMALL
USER_CHARGES


@<TRIPOS>ATOM
  1 O       -0.4510     0.1300    -0.5020 O.2   1 <1>  -0.5700 
  2 C       -1.4100    -0.6020    -0.3190 C.2   1 <1>   0.5440 
  3 N       -1.3860    -1.8740    -0.8790 N.am  1 <1>  -0.6600 
  4 C       -2.5640    -0.1140     0.4480 C.ar  1 <1>   0.3960 
  5 C       -0.1670    -2.7440    -1.0930 C.3   1 <1>   0.2200 
  6 C       -2.6550    -2.5100    -1.3300 C.3   1 <1>   0.1400 
  7 N       -3.0230    -0.8920     1.4470 N.ar  1 <1>  -0.6200 
  8 C       -3.1760     1.1140     0.1380 C.ar  1 <1>  -0.1440 
  9 C       -0.3300    -4.1070    -0.3520 C.3   1 <1>   0.0000 
 10 C        1.1890    -2.0870    -0.7340 C.3   1 <1>   0.1400 
 11 C       -2.8700    -3.8300    -0.5910 C.3   1 <1>  -0.1600 
 12 C       -4.0540    -0.4490     2.1380 C.ar  1 <1>   0.1600 
 13 C       -4.2560     1.5530     0.8770 C.ar  1 <1>  -0.1500 
 14 C       -2.6870     1.9990    -1.0060 C.3   1 <1>  -0.0960 
 15 C        0.8260    -5.0720    -0.7570 C.3   1 <1>  -0.1600 
 16 C       -1.6670    -4.7640    -0.7800 C.3   1 <1>  -0.1600 
 17 C       -0.3670    -3.9000     1.1930 C.3   1 <1>   0.1200 
 18 N        2.3270    -3.0680    -0.6610 N.am  1 <1>  -0.6600 
 19 C       -4.6990     0.7480     1.9000 C.ar  1 <1>  -0.1500 
 20 C        2.0850    -4.3860    -1.3130 C.3   1 <1>   0.1400 
 21 O        0.9040    -3.7510     1.7300 O.3   1 <1>  -0.6800 
 22 C        3.6180    -2.6340    -0.4260 C.2   1 <1>   0.7160 
 23 O        4.5410    -3.2500    -0.9250 O.2   1 <1>  -0.5700 
 24 C        3.9080    -1.4690     0.3760 C.2   1 <1>  -0.0860 
 25 C        4.9110    -0.5690     0.1920 C.2   1 <1>  -0.0100 
 26 C        3.2510    -1.0080     1.5390 C.2   1 <1>  -0.1500 
 27 O        4.8940     0.3690     1.1080 O.3   1 <1>  -0.2800 
 28 C        3.8960     0.1110     1.9260 C.2   1 <1>  -0.0100 
 29 H       -0.1290    -2.9500    -2.1480 H     1 <1>   0.0800 
 30 H       -3.4970    -1.8600    -1.1610 H     1 <1>   0.0800 
 31 H       -2.5940    -2.6930    -2.3900 H     1 <1>   0.0800 
 32 H        1.0890    -1.6100     0.2220 H     1 <1>   0.0800 
 33 H        1.4200    -1.3320    -1.4650 H     1 <1>   0.0800 
 34 H       -3.0370    -3.6280     0.4520 H     1 <1>   0.0800 
 35 H       -3.7570    -4.3050    -0.9720 H     1 <1>   0.0800 
 36 H       -4.4080    -1.0730     2.9410 H     1 <1>   0.1500 
 37 H       -4.7420     2.4910     0.6700 H     1 <1>   0.1500 
 38 H       -3.3950     2.7770    -1.2280 H     1 <1>   0.0800 
 39 H       -2.5410     1.4160    -1.8980 H     1 <1>   0.0800 
 40 H       -1.7510     2.4580    -0.7390 H     1 <1>   0.0800 
 41 H        0.4970    -5.7570    -1.5180 H     1 <1>   0.0800 
 42 H        1.1040    -5.6900     0.0800 H     1 <1>   0.0800 
 43 H       -1.6200    -5.0300    -1.8230 H     1 <1>   0.0800 
 44 H       -1.8280    -5.6720    -0.2240 H     1 <1>   0.0800 
 45 H       -0.8100    -4.7510     1.6790 H     1 <1>   0.0800 
 46 H       -0.9410    -3.0270     1.4550 H     1 <1>   0.0800 
 47 H       -5.5340     1.0440     2.5080 H     1 <1>   0.1500 
 48 H        1.9710    -4.2220    -2.3720 H     1 <1>   0.0800 
 49 H        2.9320    -5.0390    -1.1750 H     1 <1>   0.0800 
 50 H        1.5370    -3.5590     0.9980 H     1 <1>   0.4000 
 51 H        5.6680    -0.5450    -0.5730 H     1 <1>   0.1500 
 52 H        2.4070    -1.4800     2.0120 H     1 <1>   0.1500 
 53 H        3.7190     0.7710     2.7560 H     1 <1>   0.1500 
@<TRIPOS>BOND
  1   1   2  2   
  2   2   3  am  
  3   2   4  1   
  4   3   5  1   
  5   3   6  1   
  6   4   7  ar  
  7   4   8  ar  
  8   5   9  1   
  9   5  10  1   
 10   5  29  1   
 11   6  11  1   
 12   6  30  1   
 13   6  31  1   
 14   7  12  ar  
 15   8  13  ar  
 16   8  14  1   
 17   9  15  1   
 18   9  16  1   
 19   9  17  1   
 20  10  18  1   
 21  10  32  1   
 22  10  33  1   
 23  11  16  1   
 24  11  34  1   
 25  11  35  1   
 26  12  19  ar  
 27  12  36  1   
 28  13  19  ar  
 29  13  37  1   
 30  14  38  1   
 31  14  39  1   
 32  14  40  1   
 33  15  20  1   
 34  15  41  1   
 35  15  42  1   
 36  16  43  1   
 37  16  44  1   
 38  17  21  1   
 39  17  45  1   
 40  17  46  1   
 41  18  20  1   
 42  18  22  am  
 43  19  47  1   
 44  20  48  1   
 45  20  49  1   
 46  21  50  1   
 47  22  23  2   
 48  22  24  1   
 49  24  25  2   
 50  24  26  1   
 51  25  27  1   
 52  25  51  1   
 53  26  28  2   
 54  26  52  1   
 55  27  28  1   
 56  28  53  1   
@<TRIPOS>SUBSTRUCTURE
  1 ****  10 GROUP 4 **** **** 0

# MOE 2024.06 (io_trps.svl 2023.06)
