@<TRIPOS>MOLECULE
NONAME
46 48 1 0 0 
SMALL
USER_CHARGES


@<TRIPOS>ATOM
  1 O        0.2070    -0.0870    -0.4510 O.3   1 <1>  -0.5600 
  2 C        1.4700    -0.7030    -0.5510 C.3   1 <1>   0.2000 
  3 C        0.1810     1.2830    -0.7260 C.3   1 <1>   0.1200 
  4 C        2.5150     0.0050     0.3540 C.3   1 <1>   0.5660 
  5 C        1.3250    -2.1800    -0.1500 C.3   1 <1>   0.1200 
  6 C        1.0900     2.0360     0.2600 C.3   1 <1>   0.3430 
  7 N        2.4900     1.4980     0.2350 N.4   1 <1>  -0.9590 
  8 C        3.9280    -0.4630     0.0340 C.ar  1 <1>  -0.1440 
  9 O        1.1950    -2.2930     1.2330 O.3   1 <1>  -0.6800 
 10 C        3.3560     2.1360     1.2600 C.3   1 <1>   0.4870 
 11 C        4.6330    -1.1780     0.9920 C.ar  1 <1>  -0.1500 
 12 C        4.5330    -0.1850    -1.1870 C.ar  1 <1>  -0.1500 
 13 C        3.5390     3.5860     0.8660 C.ar  1 <1>  -0.1440 
 14 C        5.9270    -1.5990     0.7400 C.ar  1 <1>  -0.1500 
 15 C        5.8270    -0.6060    -1.4360 C.ar  1 <1>  -0.1500 
 16 C        2.8190     4.5870     1.5020 C.ar  1 <1>  -0.1500 
 17 C        4.4260     3.9220    -0.1450 C.ar  1 <1>  -0.1500 
 18 C        6.5240    -1.3110    -0.4730 C.ar  1 <1>  -0.1500 
 19 C        2.9750     5.9070     1.1180 C.ar  1 <1>  -0.1500 
 20 C        4.5790     5.2440    -0.5260 C.ar  1 <1>  -0.1500 
 21 C        3.8530     6.2420     0.1020 C.ar  1 <1>  -0.1440 
 22 C        4.0240     7.6910    -0.3170 C.3   1 <1>  -0.0970 
 23 H        1.7700    -0.6540    -1.5820 H     1 <1>   0.0800 
 24 H        0.4890     1.4420    -1.7450 H     1 <1>   0.0800 
 25 H       -0.8360     1.6170    -0.6180 H     1 <1>   0.0800 
 26 H        2.2870    -0.2640     1.3720 H     1 <1>   0.0800 
 27 H        2.1970    -2.7410    -0.4440 H     1 <1>   0.0800 
 28 H        0.4550    -2.6080    -0.6180 H     1 <1>   0.0800 
 29 H        0.6750     1.9350     1.2490 H     1 <1>   0.0800 
 30 H        1.0970     3.0850     0.0080 H     1 <1>   0.0800 
 31 H        2.9090     1.7340    -0.6670 H     1 <1>   0.4500 
 32 H        0.8630    -3.1840     1.4760 H     1 <1>   0.4000 
 33 H        2.9050     2.0640     2.2360 H     1 <1>   0.0800 
 34 H        4.3210     1.6560     1.2900 H     1 <1>   0.0800 
 35 H        4.1840    -1.4220     1.9420 H     1 <1>   0.1500 
 36 H        4.0160     0.3540    -1.9630 H     1 <1>   0.1500 
 37 H        6.4710    -2.1540     1.4860 H     1 <1>   0.1500 
 38 H        6.2970    -0.3920    -2.3820 H     1 <1>   0.1500 
 39 H        2.1340     4.3580     2.3020 H     1 <1>   0.1500 
 40 H        5.0130     3.1690    -0.6440 H     1 <1>   0.1500 
 41 H        7.5320    -1.6390    -0.6680 H     1 <1>   0.1500 
 42 H        2.4110     6.6780     1.6160 H     1 <1>   0.1500 
 43 H        5.2700     5.4970    -1.3120 H     1 <1>   0.1500 
 44 H        3.8430     8.3490     0.5140 H     1 <1>   0.0800 
 45 H        3.3310     7.9280    -1.1040 H     1 <1>   0.0800 
 46 H        5.0240     7.8660    -0.6720 H     1 <1>   0.0800 
@<TRIPOS>BOND
  1   1   2  1   
  2   1   3  1   
  3   2   4  1   
  4   2   5  1   
  5   2  23  1   
  6   3   6  1   
  7   3  24  1   
  8   3  25  1   
  9   4   7  1   
 10   4   8  1   
 11   4  26  1   
 12   5   9  1   
 13   5  27  1   
 14   5  28  1   
 15   6   7  1   
 16   6  29  1   
 17   6  30  1   
 18   7  10  1   
 19   7  31  1   
 20   8  11  ar  
 21   8  12  ar  
 22   9  32  1   
 23  10  13  1   
 24  10  33  1   
 25  10  34  1   
 26  11  14  ar  
 27  11  35  1   
 28  12  15  ar  
 29  12  36  1   
 30  13  16  ar  
 31  13  17  ar  
 32  14  18  ar  
 33  14  37  1   
 34  15  18  ar  
 35  15  38  1   
 36  16  19  ar  
 37  16  39  1   
 38  17  20  ar  
 39  17  40  1   
 40  18  41  1   
 41  19  21  ar  
 42  19  42  1   
 43  20  21  ar  
 44  20  43  1   
 45  21  22  1   
 46  22  44  1   
 47  22  45  1   
 48  22  46  1   
@<TRIPOS>SUBSTRUCTURE
  1 ****   7 GROUP 4 **** **** 0

# MOE 2024.06 (io_trps.svl 2023.06)
