@<TRIPOS>MOLECULE
NONAME
37 38 1 0 0 
SMALL
USER_CHARGES


@<TRIPOS>ATOM
  1 O       -0.3890     0.3660     0.9820 O.2   1 <1>  -0.5700 
  2 C       -1.3170     0.7710     0.3060 C.2   1 <1>   0.7800 
  3 O       -2.4130     0.0250     0.1910 O.3   1 <1>  -0.4300 
  4 N       -1.2870     1.9710    -0.3550 N.am  1 <1>  -0.6600 
  5 C       -2.5000    -1.2150     0.8520 C.3   1 <1>   0.2640 
  6 C       -2.4130     2.4680    -1.1920 C.3   1 <1>   0.1400 
  7 C       -0.1080     2.8730    -0.2820 C.3   1 <1>   0.1400 
  8 C       -3.8510    -1.8350     0.5350 C.ar  1 <1>  -0.1440 
  9 C       -2.8530     3.8470    -0.6930 C.3   1 <1>  -0.1600 
 10 C       -0.5430     4.2580     0.2070 C.3   1 <1>  -0.1600 
 11 C       -4.9220    -1.6630     1.3990 C.ar  1 <1>  -0.1500 
 12 C       -4.0240    -2.5770    -0.6240 C.ar  1 <1>  -0.1500 
 13 C       -1.6760     4.8340    -0.6530 C.3   1 <1>   0.0580 
 14 C       -6.1510    -2.2320     1.1110 C.ar  1 <1>  -0.1500 
 15 C       -5.2530    -3.1460    -0.9130 C.ar  1 <1>  -0.1500 
 16 C       -2.0670     6.2120    -0.1280 C.2   1 <1>  -0.2880 
 17 C       -6.3160    -2.9740    -0.0450 C.ar  1 <1>  -0.1500 
 18 C       -3.2570     6.6070     0.3390 C.2   1 <1>  -0.3000 
 19 H       -2.3900    -1.0470     1.9090 H     1 <1>   0.0800 
 20 H       -1.6990    -1.8450     0.5040 H     1 <1>   0.0800 
 21 H       -3.2510     1.7930    -1.1570 H     1 <1>   0.0800 
 22 H       -2.0840     2.5360    -2.2150 H     1 <1>   0.0800 
 23 H        0.3330     2.9500    -1.2600 H     1 <1>   0.0800 
 24 H        0.6350     2.4730     0.3880 H     1 <1>   0.0800 
 25 H       -3.2730     3.7360     0.2910 H     1 <1>   0.0800 
 26 H       -3.6210     4.2270    -1.3430 H     1 <1>   0.0800 
 27 H        0.3040     4.9190     0.1820 H     1 <1>   0.0800 
 28 H       -0.8680     4.1800     1.2290 H     1 <1>   0.0800 
 29 H       -4.8030    -1.0830     2.2970 H     1 <1>   0.1500 
 30 H       -3.2030    -2.7110    -1.3060 H     1 <1>   0.1500 
 31 H       -1.3110     4.9600    -1.6590 H     1 <1>   0.0800 
 32 H       -6.9780    -2.0950     1.7850 H     1 <1>   0.1500 
 33 H       -5.3800    -3.7210    -1.8130 H     1 <1>   0.1500 
 34 H       -1.2370     6.8970    -0.1690 H     1 <1>   0.1500 
 35 H       -7.2710    -3.4160    -0.2690 H     1 <1>   0.1500 
 36 H       -3.4540     7.6040     0.6930 H     1 <1>   0.1500 
 37 H       -4.1320     5.9860     0.4130 H     1 <1>   0.1500 
@<TRIPOS>BOND
  1   1   2  2   
  2   2   3  1   
  3   2   4  am  
  4   3   5  1   
  5   4   6  1   
  6   4   7  1   
  7   5   8  1   
  8   5  19  1   
  9   5  20  1   
 10   6   9  1   
 11   6  21  1   
 12   6  22  1   
 13   7  10  1   
 14   7  23  1   
 15   7  24  1   
 16   8  11  ar  
 17   8  12  ar  
 18   9  13  1   
 19   9  25  1   
 20   9  26  1   
 21  10  13  1   
 22  10  27  1   
 23  10  28  1   
 24  11  14  ar  
 25  11  29  1   
 26  12  15  ar  
 27  12  30  1   
 28  13  16  1   
 29  13  31  1   
 30  14  17  ar  
 31  14  32  1   
 32  15  17  ar  
 33  15  33  1   
 34  16  18  2   
 35  16  34  1   
 36  17  35  1   
 37  18  36  1   
 38  18  37  1   
@<TRIPOS>SUBSTRUCTURE
  1 ****   3 GROUP 4 **** **** 0

# MOE 2024.06 (io_trps.svl 2023.06)
