@<TRIPOS>MOLECULE
NONAME
55 58 1 0 0 
SMALL
USER_CHARGES


@<TRIPOS>ATOM
  1 O       -0.3490    -0.3390     2.5910 O.2   1 <1>  -0.5700 
  2 C       -0.9040     0.4780     1.8920 C.2   1 <1>   0.5690 
  3 N       -1.7730     0.0890     0.9050 N.am  1 <1>  -0.6600 
  4 C       -0.6180     1.9660     2.1590 C.3   1 <1>   0.1710 
  5 C       -2.4020     0.9820    -0.1000 C.3   1 <1>   0.1400 
  6 C       -2.1120    -1.3280     0.6410 C.3   1 <1>   0.1400 
  7 N       -0.0280     2.7290     1.0220 N.3   1 <1>  -0.8100 
  8 C       -3.0170     0.0360    -1.1300 C.3   1 <1>   0.2000 
  9 C       -3.2410    -1.2810    -0.3890 C.3   1 <1>  -0.0800 
 10 C        1.2930     2.1790     0.6400 C.3   1 <1>   0.1100 
 11 C        0.1220     4.1590     1.3610 C.3   1 <1>   0.1100 
 12 O       -4.2180     0.5230    -1.6190 O.3   1 <1>  -0.6800 
 13 C       -3.2790    -2.5010    -1.3210 C.3   1 <1>   0.0210 
 14 C        1.9140     2.9260    -0.5550 C.3   1 <1>   0.2090 
 15 C        0.6860     4.9780     0.1850 C.3   1 <1>   0.2090 
 16 C       -3.4170    -3.7870    -0.5290 C.2   1 <1>   0.1080 
 17 N        1.9730     4.4050    -0.3210 N.pl3 1 <1>  -0.8380 
 18 N       -4.4610    -4.0610     0.1890 N.2   1 <1>  -0.7070 
 19 C       -2.4600    -4.7950    -0.4720 C.2   1 <1>  -0.1500 
 20 C        2.9690     5.1950    -0.8600 C.ar  1 <1>   0.7200 
 21 N       -4.1960    -5.2660     0.7290 N.pl3 1 <1>   0.3000 
 22 C       -2.9880    -5.7300     0.3440 C.2   1 <1>  -0.3320 
 23 N        2.8410     6.5160    -0.7240 N.ar  1 <1>  -0.6200 
 24 N        3.9770     4.5740    -1.4740 N.ar  1 <1>  -0.6200 
 25 C       -2.4050    -7.0590     0.7880 C.3   1 <1>  -0.0600 
 26 C        3.7930     7.2530    -1.2390 C.ar  1 <1>   0.1600 
 27 C        4.9140     5.3360    -1.9800 C.ar  1 <1>   0.1600 
 28 C        4.8710     6.7050    -1.8880 C.ar  1 <1>  -0.1500 
 29 H        0.0410     2.0300     3.0070 H     1 <1>   0.0800 
 30 H       -1.5490     2.4230     2.4370 H     1 <1>   0.0800 
 31 H       -3.1570     1.5800     0.3770 H     1 <1>   0.0800 
 32 H       -1.6660     1.6120    -0.5680 H     1 <1>   0.0800 
 33 H       -1.2440    -1.8260     0.2440 H     1 <1>   0.0800 
 34 H       -2.4240    -1.8250     1.5450 H     1 <1>   0.0800 
 35 H       -2.3380    -0.0860    -1.9560 H     1 <1>   0.0800 
 36 H       -4.1650    -1.2320     0.1620 H     1 <1>   0.0800 
 37 H        1.9710     2.2410     1.4750 H     1 <1>   0.0800 
 38 H        1.1900     1.1420     0.3740 H     1 <1>   0.0800 
 39 H       -0.8370     4.5650     1.6310 H     1 <1>   0.0800 
 40 H        0.7830     4.2700     2.2040 H     1 <1>   0.0800 
 41 H       -4.9050     0.4830    -0.9260 H     1 <1>   0.4000 
 42 H       -2.3840    -2.5420    -1.9150 H     1 <1>   0.0800 
 43 H       -4.1190    -2.4170    -1.9870 H     1 <1>   0.0800 
 44 H        1.3240     2.7350    -1.4340 H     1 <1>   0.0800 
 45 H        2.8980     2.5260    -0.7230 H     1 <1>   0.0800 
 46 H        0.8210     5.9910     0.5180 H     1 <1>   0.0800 
 47 H       -0.0320     4.9860    -0.6160 H     1 <1>   0.0800 
 48 H       -1.5120    -4.8010    -0.9780 H     1 <1>   0.1500 
 49 H       -4.8580    -5.7420     1.3530 H     1 <1>   0.2700 
 50 H       -1.4340    -7.2020     0.3470 H     1 <1>   0.0800 
 51 H       -3.0440    -7.8680     0.4790 H     1 <1>   0.0800 
 52 H       -2.3020    -7.0810     1.8580 H     1 <1>   0.0800 
 53 H        3.7120     8.3220    -1.1400 H     1 <1>   0.1500 
 54 H        5.7390     4.8570    -2.4790 H     1 <1>   0.1500 
 55 H        5.6450     7.3190    -2.3060 H     1 <1>   0.1500 
@<TRIPOS>BOND
  1   1   2  2   
  2   2   3  am  
  3   2   4  1   
  4   3   5  1   
  5   3   6  1   
  6   4   7  1   
  7   4  29  1   
  8   4  30  1   
  9   5   8  1   
 10   5  31  1   
 11   5  32  1   
 12   6   9  1   
 13   6  33  1   
 14   6  34  1   
 15   7  10  1   
 16   7  11  1   
 17   8   9  1   
 18   8  12  1   
 19   8  35  1   
 20   9  13  1   
 21   9  36  1   
 22  10  14  1   
 23  10  37  1   
 24  10  38  1   
 25  11  15  1   
 26  11  39  1   
 27  11  40  1   
 28  12  41  1   
 29  13  16  1   
 30  13  42  1   
 31  13  43  1   
 32  14  17  1   
 33  14  44  1   
 34  14  45  1   
 35  15  17  1   
 36  15  46  1   
 37  15  47  1   
 38  16  18  2   
 39  16  19  1   
 40  17  20  1   
 41  18  21  1   
 42  19  22  2   
 43  19  48  1   
 44  20  23  ar  
 45  20  24  ar  
 46  21  22  1   
 47  21  49  1   
 48  22  25  1   
 49  23  26  ar  
 50  24  27  ar  
 51  25  50  1   
 52  25  51  1   
 53  25  52  1   
 54  26  28  ar  
 55  26  53  1   
 56  27  28  ar  
 57  27  54  1   
 58  28  55  1   
@<TRIPOS>SUBSTRUCTURE
  1 ****   3 GROUP 4 **** **** 0

# MOE 2024.06 (io_trps.svl 2023.06)
