@<TRIPOS>MOLECULE
NONAME
37 39 1 0 0 
SMALL
USER_CHARGES


@<TRIPOS>ATOM
  1 S        0.1160    -0.4520     0.3090 S.3   1 <1>  -0.4600 
  2 C        0.6440     0.9000     1.4030 C.3   1 <1>   0.0700 
  3 C        1.2840    -0.3320    -1.0780 C.3   1 <1>   0.0700 
  4 C        1.2810     2.0140     0.5640 C.3   1 <1>   0.2090 
  5 C        2.6350     0.1750    -0.5600 C.3   1 <1>   0.2090 
  6 N        2.5920     1.5990    -0.0610 N.pl3 1 <1>  -0.8380 
  7 C        3.7020     2.3870    -0.0280 C.ar  1 <1>   0.1000 
  8 C        3.6760     3.8170    -0.1600 C.ar  1 <1>   0.0000 
  9 C        4.9530     1.8000     0.1950 C.ar  1 <1>  -0.1500 
 10 C        4.8400     4.5550     0.1370 C.ar  1 <1>   0.3610 
 11 C        2.5720     4.5540    -0.6300 C.ar  1 <1>  -0.1500 
 12 C        6.0820     2.5420     0.4190 C.ar  1 <1>   0.2180 
 13 N        6.0070     3.8830     0.4190 N.ar  1 <1>  -0.1790 
 14 C        4.8230     5.9580     0.0990 C.ar  1 <1>  -0.1500 
 15 C        2.5760     5.9240    -0.6840 C.ar  1 <1>  -0.1500 
 16 C        7.4290     1.8910     0.6870 C.3   1 <1>  -0.0970 
 17 C        3.7040     6.6590    -0.2990 C.ar  1 <1>  -0.1430 
 18 C        3.6530     8.1990    -0.3530 C.3   1 <1>   1.1630 
 19 F        4.7890     8.7580     0.0470 F     1 <1>  -0.3400 
 20 F        2.6970     8.6920     0.4200 F     1 <1>  -0.3400 
 21 F        3.4240     8.6450    -1.5790 F     1 <1>  -0.3400 
 22 H        1.3420     0.4990     2.1160 H     1 <1>   0.0800 
 23 H       -0.2370     1.2490     1.9120 H     1 <1>   0.0800 
 24 H        0.8680     0.3380    -1.8090 H     1 <1>   0.0800 
 25 H        1.3720    -1.3180    -1.4980 H     1 <1>   0.0800 
 26 H        1.4430     2.8650     1.2030 H     1 <1>   0.0800 
 27 H        0.5860     2.2990    -0.2070 H     1 <1>   0.0800 
 28 H        3.3500     0.1070    -1.3620 H     1 <1>   0.0800 
 29 H        2.9620    -0.4730     0.2360 H     1 <1>   0.0800 
 30 H        5.0240     0.7290     0.2300 H     1 <1>   0.1500 
 31 H        1.7000     4.0300    -0.9740 H     1 <1>   0.1500 
 32 H        6.8440     4.4390     0.6050 H     1 <1>   0.4570 
 33 H        5.7140     6.4930     0.3810 H     1 <1>   0.1500 
 34 H        1.6980     6.4470    -1.0360 H     1 <1>   0.1500 
 35 H        7.3450     0.8180     0.6610 H     1 <1>   0.0800 
 36 H        7.7960     2.1720     1.6590 H     1 <1>   0.0800 
 37 H        8.1460     2.1860    -0.0590 H     1 <1>   0.0800 
@<TRIPOS>BOND
  1   1   2  1   
  2   1   3  1   
  3   2   4  1   
  4   2  22  1   
  5   2  23  1   
  6   3   5  1   
  7   3  24  1   
  8   3  25  1   
  9   4   6  1   
 10   4  26  1   
 11   4  27  1   
 12   5   6  1   
 13   5  28  1   
 14   5  29  1   
 15   6   7  1   
 16   7   8  ar  
 17   7   9  ar  
 18   8  10  ar  
 19   8  11  ar  
 20   9  12  ar  
 21   9  30  1   
 22  10  13  ar  
 23  10  14  ar  
 24  11  15  ar  
 25  11  31  1   
 26  12  13  ar  
 27  12  16  1   
 28  13  32  1   
 29  14  17  ar  
 30  14  33  1   
 31  15  17  ar  
 32  15  34  1   
 33  16  35  1   
 34  16  36  1   
 35  16  37  1   
 36  17  18  1   
 37  18  19  1   
 38  18  20  1   
 39  18  21  1   
@<TRIPOS>SUBSTRUCTURE
  1 ****   8 GROUP 4 **** **** 0

# MOE 2024.06 (io_trps.svl 2023.06)
