@<TRIPOS>MOLECULE
NONAME
44 46 1 0 0 
SMALL
USER_CHARGES


@<TRIPOS>ATOM
  1 S       -0.7800    -1.2890    -0.2940 S.o2  1 <1>   1.5010 
  2 O       -0.8650    -1.3180    -1.7400 O.2   1 <1>  -0.6500 
  3 O       -1.5870    -2.1950     0.4950 O.2   1 <1>  -0.6500 
  4 N       -1.0710     0.2960     0.2440 N.am  1 <1>  -0.8490 
  5 C        0.9350    -1.5220     0.1860 C.2   1 <1>  -0.0630 
  6 C       -2.4040     0.5760     0.8110 C.3   1 <1>   0.1960 
  7 C       -0.5500     1.3710    -0.5980 C.3   1 <1>   0.1960 
  8 C        1.3480    -1.8100     1.4790 C.2   1 <1>   0.1390 
  9 C        2.0980    -1.4450    -0.5110 C.2   1 <1>  -0.3020 
 10 C       -3.4770     0.9650    -0.2370 C.3   1 <1>   0.0000 
 11 C       -1.5340     1.7670    -1.7060 C.3   1 <1>  -0.1600 
 12 N        2.6390    -1.9080     1.5860 N.2   1 <1>  -0.7070 
 13 N        3.1030    -1.6850     0.3490 N.pl3 1 <1>   0.3140 
 14 C       -4.7730     1.4580     0.4410 C.3   1 <1>   0.2000 
 15 C       -2.9260     2.0920    -1.1470 C.3   1 <1>  -0.1600 
 16 C       -3.9680    -0.2350    -1.0700 C.3   1 <1>  -0.1600 
 17 C        4.5390    -1.7150     0.0530 C.3   1 <1>   0.0160 
 18 O       -5.0410     0.6710     1.5660 O.3   1 <1>  -0.5600 
 19 C       -5.8790     1.2320    -0.5950 C.3   1 <1>  -0.1600 
 20 C       -5.4080     0.0790    -1.4900 C.3   1 <1>  -0.1600 
 21 C       -5.8640     1.2600     2.5230 C.3   1 <1>   0.0400 
 22 H       -2.7430    -0.2650     1.3930 H     1 <1>   0.0800 
 23 H       -2.3000     1.3980     1.4980 H     1 <1>   0.0800 
 24 H       -0.3680     2.2300     0.0250 H     1 <1>   0.0800 
 25 H        0.3930     1.0780    -1.0300 H     1 <1>   0.0800 
 26 H        0.6700    -1.9390     2.3080 H     1 <1>   0.1500 
 27 H        2.2440    -1.2370    -1.5550 H     1 <1>   0.1500 
 28 H       -1.1490     2.6290    -2.2190 H     1 <1>   0.0800 
 29 H       -1.6020     0.9790    -2.4330 H     1 <1>   0.0800 
 30 H       -4.6970     2.4880     0.7460 H     1 <1>   0.0800 
 31 H       -3.5990     2.2840    -1.9640 H     1 <1>   0.0800 
 32 H       -2.8480     2.9990    -0.5710 H     1 <1>   0.0800 
 33 H       -3.3480    -0.4430    -1.9230 H     1 <1>   0.0800 
 34 H       -3.9860    -1.1130    -0.4460 H     1 <1>   0.0800 
 35 H        4.6950    -1.5870    -1.0020 H     1 <1>   0.0800 
 36 H        4.9380    -2.6610     0.3680 H     1 <1>   0.0800 
 37 H        5.0220    -0.9240     0.5940 H     1 <1>   0.0800 
 38 H       -6.8290     1.0170    -0.1410 H     1 <1>   0.0800 
 39 H       -5.9810     2.1180    -1.1950 H     1 <1>   0.0800 
 40 H       -6.0290    -0.7890    -1.3540 H     1 <1>   0.0800 
 41 H       -5.4420     0.3750    -2.5240 H     1 <1>   0.0800 
 42 H       -6.0110     0.5500     3.3180 H     1 <1>   0.0800 
 43 H       -6.8130     1.5090     2.0820 H     1 <1>   0.0800 
 44 H       -5.3830     2.1410     2.9100 H     1 <1>   0.0800 
@<TRIPOS>BOND
  1   1   2  2   
  2   1   3  2   
  3   1   4  am  
  4   1   5  1   
  5   4   6  1   
  6   4   7  1   
  7   5   8  1   
  8   5   9  2   
  9   6  10  1   
 10   6  22  1   
 11   6  23  1   
 12   7  11  1   
 13   7  24  1   
 14   7  25  1   
 15   8  12  2   
 16   8  26  1   
 17   9  13  1   
 18   9  27  1   
 19  10  14  1   
 20  10  15  1   
 21  10  16  1   
 22  11  15  1   
 23  11  28  1   
 24  11  29  1   
 25  12  13  1   
 26  13  17  1   
 27  14  18  1   
 28  14  19  1   
 29  14  30  1   
 30  15  31  1   
 31  15  32  1   
 32  16  20  1   
 33  16  33  1   
 34  16  34  1   
 35  17  35  1   
 36  17  36  1   
 37  17  37  1   
 38  18  21  1   
 39  19  20  1   
 40  19  38  1   
 41  19  39  1   
 42  20  40  1   
 43  20  41  1   
 44  21  42  1   
 45  21  43  1   
 46  21  44  1   
@<TRIPOS>SUBSTRUCTURE
  1 ****   4 GROUP 4 **** **** 0

# MOE 2024.06 (io_trps.svl 2023.06)
