@<TRIPOS>MOLECULE
NONAME
59 62 1 0 0 
SMALL
USER_CHARGES


@<TRIPOS>ATOM
  1 S       -0.3430     0.4200    -0.4620 S.o2  1 <1>   1.3330 
  2 O        0.8260     0.1470    -1.2650 O.2   1 <1>  -0.6500 
  3 O       -1.2860     1.4280    -0.8880 O.2   1 <1>  -0.6500 
  4 N       -1.2040    -1.0320    -0.3380 N.am  1 <1>  -0.8490 
  5 C        0.2470     0.8960     1.1510 C.3   1 <1>  -0.1350 
  6 C       -0.7360    -2.1950     0.3810 C.3   1 <1>   0.2760 
  7 C       -2.5820    -1.0730     0.0380 C.3   1 <1>   0.2760 
  8 C       -1.5970    -3.2780    -0.3260 C.3   1 <1>   0.0610 
  9 C       -1.2420    -1.8970     1.8160 C.3   1 <1>  -0.1600 
 10 C       -2.9390    -2.4880    -0.4480 C.3   1 <1>  -0.1600 
 11 C       -2.5180    -1.0860     1.5650 C.3   1 <1>  -0.1600 
 12 C       -1.6840    -4.5950     0.4770 C.2   1 <1>   0.5690 
 13 C       -1.0170    -3.5760    -1.7420 C.3   1 <1>  -0.0170 
 14 O       -0.7970    -4.8290     1.2690 O.2   1 <1>  -0.5700 
 15 N       -2.7040    -5.5150     0.3170 N.am  1 <1>  -0.6600 
 16 C        0.4140    -4.1020    -1.7430 C.ar  1 <1>  -0.1440 
 17 C       -2.7900    -6.6830     1.2430 C.3   1 <1>   0.1400 
 18 C       -3.7630    -5.5290    -0.7350 C.3   1 <1>   0.0600 
 19 C        1.4710    -3.2360    -1.9830 C.ar  1 <1>  -0.1500 
 20 C        0.6790    -5.4450    -1.5220 C.ar  1 <1>  -0.1500 
 21 C       -1.8920    -7.8230     0.7590 C.3   1 <1>  -0.0170 
 22 C        2.7730    -3.7020    -1.9900 C.ar  1 <1>  -0.1500 
 23 C        1.9810    -5.9140    -1.5290 C.ar  1 <1>  -0.1500 
 24 C       -2.0090    -9.0060     1.7000 C.ar  1 <1>   0.1670 
 25 C        3.0300    -5.0430    -1.7630 C.ar  1 <1>  -0.1500 
 26 N       -3.1260    -9.7130     1.6150 N.ar  1 <1>  -0.6200 
 27 C       -0.9780    -9.2840     2.5860 C.ar  1 <1>  -0.1500 
 28 C       -3.2160   -10.7420     2.4430 C.ar  1 <1>   0.1600 
 29 C       -1.0870   -10.3590     3.4420 C.ar  1 <1>  -0.1500 
 30 C       -2.2430   -11.1030     3.3600 C.ar  1 <1>  -0.1500 
 31 H        0.9140     0.1530     1.5380 H     1 <1>   0.0800 
 32 H       -0.5650     1.0470     1.8300 H     1 <1>   0.0800 
 33 H        0.7890     1.8180     1.0710 H     1 <1>   0.0800 
 34 H        0.3260    -2.3620     0.3100 H     1 <1>   0.0800 
 35 H       -3.1840    -0.2890    -0.3930 H     1 <1>   0.0800 
 36 H       -1.4550    -2.7810     2.3860 H     1 <1>   0.0800 
 37 H       -0.5170    -1.3370     2.3730 H     1 <1>   0.0800 
 38 H       -3.7230    -2.9050     0.1580 H     1 <1>   0.0800 
 39 H       -3.2810    -2.4380    -1.4660 H     1 <1>   0.0800 
 40 H       -2.4420    -0.0850     1.9470 H     1 <1>   0.0800 
 41 H       -3.3860    -1.5520     1.9970 H     1 <1>   0.0800 
 42 H       -1.6310    -4.2970    -2.2460 H     1 <1>   0.0800 
 43 H       -1.0460    -2.6840    -2.3430 H     1 <1>   0.0800 
 44 H       -2.4830    -6.3850     2.2320 H     1 <1>   0.0800 
 45 H       -3.8090    -7.0270     1.3100 H     1 <1>   0.0800 
 46 H       -3.7950    -6.4990    -1.2030 H     1 <1>   0.0800 
 47 H       -3.5840    -4.7990    -1.4980 H     1 <1>   0.0800 
 48 H       -4.7200    -5.3330    -0.2840 H     1 <1>   0.0800 
 49 H        1.2860    -2.1910    -2.1650 H     1 <1>   0.1500 
 50 H       -0.1270    -6.1320    -1.3390 H     1 <1>   0.1500 
 51 H       -0.8730    -7.4850     0.7210 H     1 <1>   0.0800 
 52 H       -2.1890    -8.1320    -0.2250 H     1 <1>   0.0800 
 53 H        3.5840    -3.0190    -2.1740 H     1 <1>   0.1500 
 54 H        2.1770    -6.9560    -1.3520 H     1 <1>   0.1500 
 55 H        4.0430    -5.4050    -1.7670 H     1 <1>   0.1500 
 56 H       -0.0990    -8.6650     2.6080 H     1 <1>   0.1500 
 57 H       -4.1150   -11.3310     2.3880 H     1 <1>   0.1500 
 58 H       -0.3060   -10.6030     4.1420 H     1 <1>   0.1500 
 59 H       -2.3930   -11.9540     3.9980 H     1 <1>   0.1500 
@<TRIPOS>BOND
  1   1   2  2   
  2   1   3  2   
  3   1   4  am  
  4   1   5  1   
  5   4   6  1   
  6   4   7  1   
  7   5  31  1   
  8   5  32  1   
  9   5  33  1   
 10   6   8  1   
 11   6   9  1   
 12   6  34  1   
 13   7  10  1   
 14   7  11  1   
 15   7  35  1   
 16   8  10  1   
 17   8  12  1   
 18   8  13  1   
 19   9  11  1   
 20   9  36  1   
 21   9  37  1   
 22  10  38  1   
 23  10  39  1   
 24  11  40  1   
 25  11  41  1   
 26  12  14  2   
 27  12  15  am  
 28  13  16  1   
 29  13  42  1   
 30  13  43  1   
 31  15  17  1   
 32  15  18  1   
 33  16  19  ar  
 34  16  20  ar  
 35  17  21  1   
 36  17  44  1   
 37  17  45  1   
 38  18  46  1   
 39  18  47  1   
 40  18  48  1   
 41  19  22  ar  
 42  19  49  1   
 43  20  23  ar  
 44  20  50  1   
 45  21  24  1   
 46  21  51  1   
 47  21  52  1   
 48  22  25  ar  
 49  22  53  1   
 50  23  25  ar  
 51  23  54  1   
 52  24  26  ar  
 53  24  27  ar  
 54  25  55  1   
 55  26  28  ar  
 56  27  29  ar  
 57  27  56  1   
 58  28  30  ar  
 59  28  57  1   
 60  29  30  ar  
 61  29  58  1   
 62  30  59  1   
@<TRIPOS>SUBSTRUCTURE
  1 ****  12 GROUP 4 **** **** 0

# MOE 2024.06 (io_trps.svl 2023.06)
