@<TRIPOS>MOLECULE
NONAME
44 45 1 0 0 
SMALL
USER_CHARGES


@<TRIPOS>ATOM
  1 S        0.3130     0.0510     0.7220 S.o2  1 <1>   1.3330 
  2 O       -0.7610     0.1850     1.6790 O.2   1 <1>  -0.6500 
  3 O        1.6840     0.0290     1.1780 O.2   1 <1>  -0.6500 
  4 N        0.0460    -1.3570    -0.1880 N.am  1 <1>  -0.8490 
  5 C        0.1220     1.3530    -0.4940 C.3   1 <1>  -0.0550 
  6 C       -0.5120    -2.4440     0.6230 C.3   1 <1>   0.1160 
  7 C        1.2410    -1.8280    -0.8980 C.3   1 <1>   0.1160 
  8 C        0.1930     2.7650     0.1110 C.3   1 <1>  -0.0800 
  9 C       -0.0740     3.8510    -0.9280 C.3   1 <1>   0.2000 
 10 C        1.5590     3.1370     0.6930 C.3   1 <1>   0.1400 
 11 O       -1.4390     4.0290    -1.0860 O.3   1 <1>  -0.6800 
 12 C        0.6060     5.1100    -0.3930 C.3   1 <1>   0.1400 
 13 N        1.6470     4.6090     0.5370 N.am  1 <1>  -0.6600 
 14 C        2.5040     5.3930     1.2740 C.2   1 <1>   0.5440 
 15 O        3.2220     4.8590     2.0970 O.2   1 <1>  -0.5700 
 16 C        2.5340     6.8310     1.1310 C.ar  1 <1>   0.0860 
 17 C        2.9800     7.4630    -0.0280 C.ar  1 <1>   0.1900 
 18 C        2.1130     7.6570     2.1710 C.ar  1 <1>  -0.1500 
 19 F        3.4030     6.7260    -1.0210 F     1 <1>  -0.1900 
 20 C        2.9990     8.8420    -0.1850 C.ar  1 <1>  -0.1440 
 21 C        2.1220     9.0350     2.0430 C.ar  1 <1>  -0.1500 
 22 C        2.5600     9.6270     0.8690 C.ar  1 <1>  -0.1500 
 23 C        3.4910     9.4870    -1.4730 C.3   1 <1>  -0.0970 
 24 H        0.8750     1.2500    -1.2510 H     1 <1>   0.0800 
 25 H       -0.8340     1.2360    -0.9670 H     1 <1>   0.0800 
 26 H       -0.6830    -3.3140     0.0130 H     1 <1>   0.0800 
 27 H       -1.4550    -2.1410     1.0470 H     1 <1>   0.0800 
 28 H        0.1620    -2.6970     1.4240 H     1 <1>   0.0800 
 29 H        0.9920    -2.6660    -1.5250 H     1 <1>   0.0800 
 30 H        2.0020    -2.1280    -0.1960 H     1 <1>   0.0800 
 31 H        1.6360    -1.0440    -1.5200 H     1 <1>   0.0800 
 32 H       -0.5250     2.8490     0.9080 H     1 <1>   0.0800 
 33 H        0.3470     3.5930    -1.8850 H     1 <1>   0.0800 
 34 H        2.3610     2.6810     0.1380 H     1 <1>   0.0800 
 35 H        1.6400     2.8520     1.7300 H     1 <1>   0.0800 
 36 H       -1.8640     4.2010    -0.2230 H     1 <1>   0.4000 
 37 H       -0.0890     5.7270     0.1490 H     1 <1>   0.0800 
 38 H        1.0520     5.6670    -1.1980 H     1 <1>   0.0800 
 39 H        1.7790     7.2040     3.0890 H     1 <1>   0.1500 
 40 H        1.7890     9.6520     2.8600 H     1 <1>   0.1500 
 41 H        2.5600    10.7010     0.7870 H     1 <1>   0.1500 
 42 H        3.4300    10.5590    -1.4180 H     1 <1>   0.0800 
 43 H        2.8940     9.1530    -2.3030 H     1 <1>   0.0800 
 44 H        4.5150     9.2120    -1.6520 H     1 <1>   0.0800 
@<TRIPOS>BOND
  1   1   2  2   
  2   1   3  2   
  3   1   4  am  
  4   1   5  1   
  5   4   6  1   
  6   4   7  1   
  7   5   8  1   
  8   5  24  1   
  9   5  25  1   
 10   6  26  1   
 11   6  27  1   
 12   6  28  1   
 13   7  29  1   
 14   7  30  1   
 15   7  31  1   
 16   8   9  1   
 17   8  10  1   
 18   8  32  1   
 19   9  11  1   
 20   9  12  1   
 21   9  33  1   
 22  10  13  1   
 23  10  34  1   
 24  10  35  1   
 25  11  36  1   
 26  12  13  1   
 27  12  37  1   
 28  12  38  1   
 29  13  14  am  
 30  14  15  2   
 31  14  16  1   
 32  16  17  ar  
 33  16  18  ar  
 34  17  19  1   
 35  17  20  ar  
 36  18  21  ar  
 37  18  39  1   
 38  20  22  ar  
 39  20  23  1   
 40  21  22  ar  
 41  21  40  1   
 42  22  41  1   
 43  23  42  1   
 44  23  43  1   
 45  23  44  1   
@<TRIPOS>SUBSTRUCTURE
  1 ****  13 GROUP 4 **** **** 0

# MOE 2024.06 (io_trps.svl 2023.06)
