@<TRIPOS>MOLECULE
NONAME
49 51 1 0 0 
SMALL
USER_CHARGES


@<TRIPOS>ATOM
  1 N        0.3220    -0.7350     0.0880 N.ar  1 <1>  -0.1790 
  2 C        1.2530     0.2870    -0.0040 C.ar  1 <1>   0.3610 
  3 C        0.5420    -2.0040    -0.2560 C.ar  1 <1>   0.4610 
  4 C        2.5350    -0.0300    -0.4910 C.ar  1 <1>   0.0000 
  5 C        0.9230     1.6020     0.3790 C.ar  1 <1>  -0.1440 
  6 N       -0.4500    -2.9000    -0.1270 N.pl3 1 <1>  -0.8690 
  7 C        1.8330    -2.3250    -0.7410 C.ar  1 <1>  -0.1500 
  8 C        2.8090    -1.3840    -0.8620 C.ar  1 <1>  -0.1430 
  9 C        3.4710     1.0090    -0.5810 C.ar  1 <1>  -0.1500 
 10 C        1.8770     2.6000     0.2740 C.ar  1 <1>  -0.1430 
 11 C       -0.4880     1.8990     0.9040 C.3   1 <1>  -0.0970 
 12 C       -0.4150    -4.3350    -0.5060 C.3   1 <1>   0.2090 
 13 C        4.1860    -1.7730    -1.3880 C.3   1 <1>  -0.0970 
 14 C        3.1470     2.2870    -0.2080 C.ar  1 <1>  -0.1500 
 15 C        1.6210     4.0530     0.6620 C.3   1 <1>  -0.0970 
 16 C       -1.8490    -4.8180    -0.6990 C.3   1 <1>  -0.1600 
 17 C       -1.8900    -6.2880    -1.1100 C.3   1 <1>   0.2090 
 18 N       -3.3070    -6.6850    -1.2430 N.pl3 1 <1>  -0.8690 
 19 C       -3.8130    -7.7410    -0.4790 C.ar  1 <1>   0.1000 
 20 C       -4.5600    -8.7730    -1.0540 C.ar  1 <1>   0.1600 
 21 C       -3.6030    -7.7970     0.8900 C.ar  1 <1>  -0.1500 
 22 N       -5.0730    -9.8120    -0.4140 N.ar  1 <1>  -0.6200 
 23 C       -4.1290    -8.8690     1.5780 C.ar  1 <1>  -0.1500 
 24 C       -4.8440    -9.8350     0.8900 C.ar  1 <1>   0.1600 
 25 H       -0.5950    -0.4850     0.4360 H     1 <1>   0.4570 
 26 H       -1.3660    -2.6560     0.2650 H     1 <1>   0.4000 
 27 H        2.0290    -3.3450    -1.0110 H     1 <1>   0.1500 
 28 H        4.4630     0.8140    -0.9480 H     1 <1>   0.1500 
 29 H       -0.6850     1.3290     1.7940 H     1 <1>   0.0800 
 30 H       -1.2250     1.6630     0.1550 H     1 <1>   0.0800 
 31 H       -0.6260     2.9330     1.1590 H     1 <1>   0.0800 
 32 H        0.0630    -4.9030     0.2770 H     1 <1>   0.0800 
 33 H        0.1370    -4.4660    -1.4220 H     1 <1>   0.0800 
 34 H        4.4110    -1.2230    -2.2850 H     1 <1>   0.0800 
 35 H        4.2330    -2.8220    -1.6200 H     1 <1>   0.0800 
 36 H        4.9400    -1.5600    -0.6510 H     1 <1>   0.0800 
 37 H        3.8920     3.0620    -0.2910 H     1 <1>   0.1500 
 38 H        0.8250     4.4630     0.0660 H     1 <1>   0.0800 
 39 H        2.4940     4.6600     0.5050 H     1 <1>   0.0800 
 40 H        1.3560     4.1200     1.7020 H     1 <1>   0.0800 
 41 H       -2.3250    -4.2340    -1.4660 H     1 <1>   0.0800 
 42 H       -2.3930    -4.7080     0.2220 H     1 <1>   0.0800 
 43 H       -1.4010    -6.9020    -0.3710 H     1 <1>   0.0800 
 44 H       -1.3910    -6.4300    -2.0540 H     1 <1>   0.0800 
 45 H       -3.6230    -6.6780    -2.2200 H     1 <1>   0.4000 
 46 H       -4.7370    -8.7280    -2.1130 H     1 <1>   0.1500 
 47 H       -3.0560    -7.0250     1.3960 H     1 <1>   0.1500 
 48 H       -3.9920    -8.9570     2.6400 H     1 <1>   0.1500 
 49 H       -5.2490   -10.6680     1.4390 H     1 <1>   0.1500 
@<TRIPOS>BOND
  1   1   2  ar  
  2   1   3  ar  
  3   1  25  1   
  4   2   4  ar  
  5   2   5  ar  
  6   3   6  1   
  7   3   7  ar  
  8   4   8  ar  
  9   4   9  ar  
 10   5  10  ar  
 11   5  11  1   
 12   6  12  1   
 13   6  26  1   
 14   7   8  ar  
 15   7  27  1   
 16   8  13  1   
 17   9  14  ar  
 18   9  28  1   
 19  10  14  ar  
 20  10  15  1   
 21  11  29  1   
 22  11  30  1   
 23  11  31  1   
 24  12  16  1   
 25  12  32  1   
 26  12  33  1   
 27  13  34  1   
 28  13  35  1   
 29  13  36  1   
 30  14  37  1   
 31  15  38  1   
 32  15  39  1   
 33  15  40  1   
 34  16  17  1   
 35  16  41  1   
 36  16  42  1   
 37  17  18  1   
 38  17  43  1   
 39  17  44  1   
 40  18  19  1   
 41  18  45  1   
 42  19  20  ar  
 43  19  21  ar  
 44  20  22  ar  
 45  20  46  1   
 46  21  23  ar  
 47  21  47  1   
 48  22  24  ar  
 49  23  24  ar  
 50  23  48  1   
 51  24  49  1   
@<TRIPOS>SUBSTRUCTURE
  1 ****   6 GROUP 4 **** **** 0

# MOE 2024.06 (io_trps.svl 2023.06)
