@<TRIPOS>MOLECULE
NONAME
54 56 1 0 0 
SMALL
USER_CHARGES


@<TRIPOS>ATOM
  1 O       -0.4920    -2.2040    -0.9460 O.3   1 <1>  -0.6800 
  2 C        0.0300    -2.3030     0.3290 C.3   1 <1>   0.1200 
  3 C        1.5850    -2.3710     0.3020 C.3   1 <1>   0.0000 
  4 C        2.2580    -1.2320    -0.5180 C.3   1 <1>   0.4230 
  5 C        2.0740    -2.1970     1.7700 C.3   1 <1>  -0.1600 
  6 C        2.0500    -3.7670    -0.2140 C.3   1 <1>  -0.1600 
  7 N        2.2490    -1.3390    -2.0340 N.4   1 <1>  -0.9590 
  8 C        1.8510     0.1410     0.0740 C.3   1 <1>   0.3430 
  9 C        1.8200    -0.7990     2.3790 C.3   1 <1>   0.3430 
 10 C        2.7780    -3.7210    -1.5690 C.3   1 <1>  -0.1600 
 11 C        2.1010    -2.7440    -2.5270 C.3   1 <1>   0.3430 
 12 C        1.2730    -0.4590    -2.7520 C.3   1 <1>   0.2630 
 13 N        2.3460     0.2910     1.4960 N.4   1 <1>  -0.9590 
 14 C        3.8560     0.3970     1.5910 C.3   1 <1>   0.5240 
 15 C        4.4700     1.1780     0.4280 C.2   1 <1>   0.0460 
 16 N        4.6180     0.6070    -0.7920 N.2   1 <1>  -0.5650 
 17 C        4.9360     2.4480     0.4230 C.2   1 <1>  -0.3320 
 18 C        5.1830     1.5300    -1.5020 C.2   1 <1>   0.0060 
 19 N        5.3990     2.6750    -0.8210 N.pl3 1 <1>   0.0330 
 20 C        5.0130     3.5060     1.5130 C.3   1 <1>  -0.0600 
 21 C        5.5900     1.3690    -2.9570 C.3   1 <1>   0.0200 
 22 C        4.6030     2.0770    -3.8910 C.3   1 <1>  -0.2400 
 23 H       -1.4520    -2.4210    -0.9450 H     1 <1>   0.4000 
 24 H       -0.3340    -1.4560     0.8840 H     1 <1>   0.0800 
 25 H       -0.3750    -3.1940     0.7830 H     1 <1>   0.0800 
 26 H        3.3000    -1.3290    -0.2720 H     1 <1>   0.0800 
 27 H        3.1290    -2.4050     1.8310 H     1 <1>   0.0800 
 28 H        1.5890    -2.9280     2.3960 H     1 <1>   0.0800 
 29 H        2.7000    -4.2530     0.4940 H     1 <1>   0.0800 
 30 H        1.1950    -4.4150    -0.3210 H     1 <1>   0.0800 
 31 H        3.1940    -1.0250    -2.3140 H     1 <1>   0.4500 
 32 H        0.7780     0.2260     0.0520 H     1 <1>   0.0800 
 33 H        2.2600     0.9280    -0.5360 H     1 <1>   0.0800 
 34 H        2.2780    -0.7390     3.3550 H     1 <1>   0.0800 
 35 H        0.7580    -0.6640     2.5140 H     1 <1>   0.0800 
 36 H        2.7630    -4.7050    -2.0050 H     1 <1>   0.0800 
 37 H        3.8120    -3.4470    -1.4410 H     1 <1>   0.0800 
 38 H        1.0550    -2.9980    -2.5940 H     1 <1>   0.0800 
 39 H        2.5320    -2.8350    -3.5110 H     1 <1>   0.0800 
 40 H        0.2610    -0.7070    -2.4780 H     1 <1>   0.0800 
 41 H        1.3730    -0.5890    -3.8180 H     1 <1>   0.0800 
 42 H        1.4540     0.5780    -2.5220 H     1 <1>   0.0800 
 43 H        1.9970     1.1980     1.8390 H     1 <1>   0.4500 
 44 H        4.1280     0.8770     2.5160 H     1 <1>   0.0800 
 45 H        4.2980    -0.5850     1.5900 H     1 <1>   0.0800 
 46 H        5.8420     3.5280    -1.1800 H     1 <1>   0.2700 
 47 H        4.6080     3.1430     2.4400 H     1 <1>   0.0800 
 48 H        4.4610     4.3830     1.2200 H     1 <1>   0.0800 
 49 H        6.0380     3.7890     1.6820 H     1 <1>   0.0800 
 50 H        6.5780     1.7700    -3.1000 H     1 <1>   0.0800 
 51 H        5.6280     0.3220    -3.2010 H     1 <1>   0.0800 
 52 H        4.5850     3.1330    -3.6880 H     1 <1>   0.0800 
 53 H        3.6130     1.6820    -3.7600 H     1 <1>   0.0800 
 54 H        4.9000     1.9330    -4.9150 H     1 <1>   0.0800 
@<TRIPOS>BOND
  1   1   2  1   
  2   1  23  1   
  3   2   3  1   
  4   2  24  1   
  5   2  25  1   
  6   3   4  1   
  7   3   5  1   
  8   3   6  1   
  9   4   7  1   
 10   4   8  1   
 11   4  26  1   
 12   5   9  1   
 13   5  27  1   
 14   5  28  1   
 15   6  10  1   
 16   6  29  1   
 17   6  30  1   
 18   7  11  1   
 19   7  12  1   
 20   7  31  1   
 21   8  13  1   
 22   8  32  1   
 23   8  33  1   
 24   9  13  1   
 25   9  34  1   
 26   9  35  1   
 27  10  11  1   
 28  10  36  1   
 29  10  37  1   
 30  11  38  1   
 31  11  39  1   
 32  12  40  1   
 33  12  41  1   
 34  12  42  1   
 35  13  14  1   
 36  13  43  1   
 37  14  15  1   
 38  14  44  1   
 39  14  45  1   
 40  15  16  1   
 41  15  17  2   
 42  16  18  2   
 43  17  19  1   
 44  17  20  1   
 45  18  19  1   
 46  18  21  1   
 47  19  46  1   
 48  20  47  1   
 49  20  48  1   
 50  20  49  1   
 51  21  22  1   
 52  21  50  1   
 53  21  51  1   
 54  22  52  1   
 55  22  53  1   
 56  22  54  1   
@<TRIPOS>SUBSTRUCTURE
  1 ****   4 GROUP 4 **** **** 0

# MOE 2024.06 (io_trps.svl 2023.06)
