@<TRIPOS>MOLECULE
NONAME
51 53 1 0 0 
SMALL
USER_CHARGES


@<TRIPOS>ATOM
  1 S        1.4300     2.0100    -1.3190 S.o2  1 <1>   1.3330 
  2 O        0.7510     2.7840    -2.3340 O.2   1 <1>  -0.6500 
  3 O        2.2600     0.9000    -1.7290 O.2   1 <1>  -0.6500 
  4 N        2.4300     3.0710    -0.4540 N.am  1 <1>  -0.8490 
  5 C        0.1910     1.3680    -0.1740 C.3   1 <1>  -0.0550 
  6 C        3.2440     3.8900    -1.3610 C.3   1 <1>   0.1160 
  7 C        3.3070     2.4080     0.5160 C.3   1 <1>   0.1160 
  8 C       -0.7790     2.3210     0.5730 C.3   1 <1>  -0.0800 
  9 C       -1.3620     3.4650    -0.2640 C.3   1 <1>   0.2000 
 10 C       -0.1430     3.0180     1.7800 C.3   1 <1>   0.1400 
 11 O       -2.6170     3.7530     0.2520 O.3   1 <1>  -0.6800 
 12 C       -0.4560     4.6660     0.0150 C.3   1 <1>   0.1400 
 13 N        0.1180     4.4150     1.3660 N.am  1 <1>  -0.6600 
 14 C        1.1720     5.1260     1.8940 C.2   1 <1>   0.5440 
 15 O        1.7560     4.6720     2.8610 O.2   1 <1>  -0.5700 
 16 C        1.6130     6.3780     1.3100 C.ar  1 <1>   0.0860 
 17 C        2.9340     6.5320     0.9080 C.ar  1 <1>  -0.1500 
 18 C        0.7500     7.4550     1.1220 C.ar  1 <1>  -0.1500 
 19 C        3.4070     7.6850     0.2910 C.ar  1 <1>   0.0530 
 20 C        1.1910     8.6230     0.5280 C.ar  1 <1>  -0.1500 
 21 C        4.7780     7.7830    -0.1550 C.2   1 <1>   0.0870 
 22 C        2.5050     8.7330     0.1130 C.ar  1 <1>  -0.1500 
 23 O        5.5080     6.6850    -0.3080 O.3   1 <1>  -0.2800 
 24 C        5.5400     8.8590    -0.4870 C.2   1 <1>  -0.1500 
 25 C        6.7070     7.0270    -0.7250 C.2   1 <1>  -0.0400 
 26 C        6.7930     8.3660    -0.8570 C.2   1 <1>  -0.1500 
 27 C        7.7300     5.9400    -0.9710 C.3   1 <1>  -0.0600 
 28 H       -0.4240     0.6980    -0.7440 H     1 <1>   0.0800 
 29 H        0.6880     0.7600     0.5560 H     1 <1>   0.0800 
 30 H        3.9050     4.5320    -0.8080 H     1 <1>   0.0800 
 31 H        2.6070     4.5080    -1.9710 H     1 <1>   0.0800 
 32 H        3.8330     3.2590    -2.0070 H     1 <1>   0.0800 
 33 H        3.8450     3.1460     1.0870 H     1 <1>   0.0800 
 34 H        4.0120     1.7670     0.0130 H     1 <1>   0.0800 
 35 H        2.7280     1.8160     1.2020 H     1 <1>   0.0800 
 36 H       -1.5790     1.6960     0.9330 H     1 <1>   0.0800 
 37 H       -1.4760     3.2420    -1.3110 H     1 <1>   0.0800 
 38 H        0.7650     2.5320     2.0940 H     1 <1>   0.0800 
 39 H       -0.8290     3.0310     2.6100 H     1 <1>   0.0800 
 40 H       -2.5120     4.1180     1.1530 H     1 <1>   0.4000 
 41 H       -1.0120     5.5870    -0.0180 H     1 <1>   0.0800 
 42 H        0.3390     4.7130    -0.7070 H     1 <1>   0.0800 
 43 H        3.6120     5.7180     1.0870 H     1 <1>   0.1500 
 44 H       -0.2720     7.3720     1.4480 H     1 <1>   0.1500 
 45 H        0.5120     9.4470     0.3880 H     1 <1>   0.1500 
 46 H        2.8360     9.6410    -0.3570 H     1 <1>   0.1500 
 47 H        5.2640     9.8980    -0.4750 H     1 <1>   0.1500 
 48 H        7.6320     8.9590    -1.1750 H     1 <1>   0.1500 
 49 H        8.6570     6.3700    -1.3030 H     1 <1>   0.0800 
 50 H        7.3670     5.2640    -1.7240 H     1 <1>   0.0800 
 51 H        7.9020     5.3930    -0.0630 H     1 <1>   0.0800 
@<TRIPOS>BOND
  1   1   2  2   
  2   1   3  2   
  3   1   4  am  
  4   1   5  1   
  5   4   6  1   
  6   4   7  1   
  7   5   8  1   
  8   5  28  1   
  9   5  29  1   
 10   6  30  1   
 11   6  31  1   
 12   6  32  1   
 13   7  33  1   
 14   7  34  1   
 15   7  35  1   
 16   8   9  1   
 17   8  10  1   
 18   8  36  1   
 19   9  11  1   
 20   9  12  1   
 21   9  37  1   
 22  10  13  1   
 23  10  38  1   
 24  10  39  1   
 25  11  40  1   
 26  12  13  1   
 27  12  41  1   
 28  12  42  1   
 29  13  14  am  
 30  14  15  2   
 31  14  16  1   
 32  16  17  ar  
 33  16  18  ar  
 34  17  19  ar  
 35  17  43  1   
 36  18  20  ar  
 37  18  44  1   
 38  19  21  1   
 39  19  22  ar  
 40  20  22  ar  
 41  20  45  1   
 42  21  23  1   
 43  21  24  2   
 44  22  46  1   
 45  23  25  1   
 46  24  26  1   
 47  24  47  1   
 48  25  26  2   
 49  25  27  1   
 50  26  48  1   
 51  27  49  1   
 52  27  50  1   
 53  27  51  1   
@<TRIPOS>SUBSTRUCTURE
  1 ****  17 GROUP 4 **** **** 0

# MOE 2024.06 (io_trps.svl 2023.06)
