@<TRIPOS>MOLECULE
NONAME
49 51 1 0 0 
SMALL
USER_CHARGES


@<TRIPOS>ATOM
  1 O        0.7380     0.3320    -3.8510 O.2   1 <1>  -0.5700 
  2 C        0.5220    -0.0680    -2.7330 C.2   1 <1>   0.5690 
  3 N        0.8130     0.7090    -1.6250 N.am  1 <1>  -0.6600 
  4 C       -0.0650    -1.4790    -2.6000 C.3   1 <1>   0.1810 
  5 C        0.5390     0.2890    -0.2150 C.3   1 <1>   0.1400 
  6 C        1.4330     2.0540    -1.7820 C.3   1 <1>   0.1400 
  7 O        0.7730    -2.2730    -1.8020 O.3   1 <1>  -0.5600 
  8 C        1.7070    -0.5160     0.3940 C.3   1 <1>   0.3430 
  9 C        2.7040     2.1950    -0.9370 C.3   1 <1>  -0.1600 
 10 C        0.2470    -3.4600    -1.3010 C.3   1 <1>   0.2640 
 11 N        3.0250     0.1940     0.5050 N.4   1 <1>  -0.9590 
 12 C        3.4670     0.8810    -0.7490 C.3   1 <1>   0.3430 
 13 C        0.9310    -3.6580     0.0420 C.ar  1 <1>  -0.1440 
 14 C        4.0310    -0.8060     0.9470 C.3   1 <1>   0.5240 
 15 C        0.2490    -3.4270     1.2280 C.ar  1 <1>  -0.1500 
 16 C        2.2650    -4.0370     0.0890 C.ar  1 <1>  -0.1500 
 17 C        5.2480    -0.0690     1.4580 C.2   1 <1>  -0.1810 
 18 C        0.8960    -3.5630     2.4440 C.ar  1 <1>  -0.1500 
 19 C        2.9120    -4.1780     1.3050 C.ar  1 <1>  -0.1500 
 20 C        5.4620     0.4360     2.6940 C.2   1 <1>  -0.0100 
 21 C        6.4100     0.2250     0.7270 C.2   1 <1>  -0.1500 
 22 C        2.2280    -3.9370     2.4830 C.ar  1 <1>  -0.1500 
 23 O        6.6410     1.0160     2.7590 O.3   1 <1>  -0.2800 
 24 C        7.2170     0.8890     1.5810 C.2   1 <1>  -0.0100 
 25 H       -0.1430    -1.9370    -3.5700 H     1 <1>   0.0800 
 26 H       -1.0400    -1.4160    -2.1520 H     1 <1>   0.0800 
 27 H       -0.3440    -0.3250    -0.1930 H     1 <1>   0.0800 
 28 H        0.3340     1.1540     0.3920 H     1 <1>   0.0800 
 29 H        0.7190     2.8130    -1.5080 H     1 <1>   0.0800 
 30 H        1.6890     2.2190    -2.8150 H     1 <1>   0.0800 
 31 H        1.8550    -1.3950    -0.2020 H     1 <1>   0.0800 
 32 H        1.4070    -0.8560     1.3710 H     1 <1>   0.0800 
 33 H        2.4740     2.6430     0.0130 H     1 <1>   0.0800 
 34 H        3.3480     2.8870    -1.4520 H     1 <1>   0.0800 
 35 H        0.4790    -4.2570    -1.9870 H     1 <1>   0.0800 
 36 H       -0.8190    -3.3760    -1.1820 H     1 <1>   0.0800 
 37 H        2.9750     0.9030     1.2440 H     1 <1>   0.4500 
 38 H        4.5160     1.1150    -0.6750 H     1 <1>   0.0800 
 39 H        3.3250     0.2410    -1.6060 H     1 <1>   0.0800 
 40 H        4.2990    -1.4610     0.1330 H     1 <1>   0.0800 
 41 H        3.6250    -1.4060     1.7450 H     1 <1>   0.0800 
 42 H       -0.7910    -3.1460     1.2130 H     1 <1>   0.1500 
 43 H        2.8000    -4.2280    -0.8270 H     1 <1>   0.1500 
 44 H        0.3600    -3.3930     3.3630 H     1 <1>   0.1500 
 45 H        3.9430    -4.4910     1.3350 H     1 <1>   0.1500 
 46 H        4.8500     0.4340     3.5800 H     1 <1>   0.1500 
 47 H        6.6120    -0.0360    -0.2980 H     1 <1>   0.1500 
 48 H        2.7260    -4.0570     3.4310 H     1 <1>   0.1500 
 49 H        8.2040     1.2980     1.4410 H     1 <1>   0.1500 
@<TRIPOS>BOND
  1   1   2  2   
  2   2   3  am  
  3   2   4  1   
  4   3   5  1   
  5   3   6  1   
  6   4   7  1   
  7   4  25  1   
  8   4  26  1   
  9   5   8  1   
 10   5  27  1   
 11   5  28  1   
 12   6   9  1   
 13   6  29  1   
 14   6  30  1   
 15   7  10  1   
 16   8  11  1   
 17   8  31  1   
 18   8  32  1   
 19   9  12  1   
 20   9  33  1   
 21   9  34  1   
 22  10  13  1   
 23  10  35  1   
 24  10  36  1   
 25  11  12  1   
 26  11  14  1   
 27  11  37  1   
 28  12  38  1   
 29  12  39  1   
 30  13  15  ar  
 31  13  16  ar  
 32  14  17  1   
 33  14  40  1   
 34  14  41  1   
 35  15  18  ar  
 36  15  42  1   
 37  16  19  ar  
 38  16  43  1   
 39  17  20  2   
 40  17  21  1   
 41  18  22  ar  
 42  18  44  1   
 43  19  22  ar  
 44  19  45  1   
 45  20  23  1   
 46  20  46  1   
 47  21  24  2   
 48  21  47  1   
 49  22  48  1   
 50  23  24  1   
 51  24  49  1   
@<TRIPOS>SUBSTRUCTURE
  1 ****   8 GROUP 4 **** **** 0

# MOE 2024.06 (io_trps.svl 2023.06)
