@<TRIPOS>MOLECULE
NONAME
60 64 1 0 0 
SMALL
USER_CHARGES


@<TRIPOS>ATOM
  1 S       -0.9170    -0.7920    -1.1530 S.3   1 <1>  -0.0800 
  2 C       -1.3860     0.5890    -0.1760 C.2   1 <1>   0.1980 
  3 C        0.0770     0.2480    -2.1260 C.2   1 <1>  -0.1100 
  4 N       -0.8620     1.6860    -0.5680 N.2   1 <1>  -0.5650 
  5 C       -2.3330     0.3440     1.0100 C.3   1 <1>   0.1800 
  6 C       -0.0240     1.5040    -1.6630 C.2   1 <1>   0.0460 
  7 C       -1.7120    -0.6650     2.0060 C.3   1 <1>  -0.1600 
  8 C       -3.6940    -0.2070     0.5240 C.3   1 <1>  -0.1600 
  9 C       -2.5910     1.6680     1.7710 C.3   1 <1>  -0.1600 
 10 C        0.7150     2.7170    -2.2190 C.3   1 <1>   0.5240 
 11 C       -2.6540    -0.9020     3.2020 C.3   1 <1>  -0.0800 
 12 C       -4.6430    -0.4420     1.7150 C.3   1 <1>  -0.0800 
 13 C       -3.5370     1.4480     2.9660 C.3   1 <1>  -0.0800 
 14 N        1.4350     3.4160    -1.1180 N.4   1 <1>  -0.9590 
 15 C       -3.9980    -1.4500     2.6850 C.3   1 <1>  -0.1600 
 16 C       -2.8970     0.4320     3.9300 C.3   1 <1>  -0.1600 
 17 C       -4.8760     0.8900     2.4510 C.3   1 <1>  -0.1600 
 18 C        0.5330     4.3090    -0.3330 C.3   1 <1>   0.5230 
 19 C        2.6900     4.1100    -1.5190 C.3   1 <1>   0.2630 
 20 C        0.8650     4.1620     1.1430 C.2   1 <1>   0.0060 
 21 N        1.9660     3.6590     1.5930 N.2   1 <1>  -0.3380 
 22 N        0.0450     4.5230     2.1390 N.pl3 1 <1>   0.0480 
 23 N        1.8920     3.6810     2.9200 N.2   1 <1>  -0.3380 
 24 C        0.7510     4.1930     3.2230 C.2   1 <1>   0.0360 
 25 C       -1.3210     5.0980     2.1120 C.3   1 <1>   0.0960 
 26 C       -1.3130     6.5760     1.7140 C.3   1 <1>   0.1200 
 27 O       -0.8400     6.7030     0.4080 O.3   1 <1>  -0.5600 
 28 C       -0.8210     8.0220    -0.0460 C.3   1 <1>   0.0400 
 29 H        0.6280    -0.2070    -2.9310 H     1 <1>   0.1500 
 30 H       -0.7670    -0.2910     2.3580 H     1 <1>   0.0800 
 31 H       -1.5280    -1.6040     1.5170 H     1 <1>   0.0800 
 32 H       -3.5510    -1.1360     0.0010 H     1 <1>   0.0800 
 33 H       -4.1410     0.4880    -0.1640 H     1 <1>   0.0800 
 34 H       -3.0250     2.3870     1.1000 H     1 <1>   0.0800 
 35 H       -1.6550     2.0610     2.1240 H     1 <1>   0.0800 
 36 H        0.0140     3.3860    -2.6890 H     1 <1>   0.0800 
 37 H        1.4190     2.3800    -2.9620 H     1 <1>   0.0800 
 38 H       -2.2090    -1.6110     3.8810 H     1 <1>   0.0800 
 39 H       -5.5830    -0.8310     1.3600 H     1 <1>   0.0800 
 40 H       -3.7050     2.3790     3.4800 H     1 <1>   0.0800 
 41 H        1.6760     2.6930    -0.4160 H     1 <1>   0.4500 
 42 H       -4.6600    -1.6320     3.5140 H     1 <1>   0.0800 
 43 H       -3.8400    -2.3900     2.1840 H     1 <1>   0.0800 
 44 H       -1.9650     0.8170     4.3050 H     1 <1>   0.0800 
 45 H       -3.5460     0.2730     4.7730 H     1 <1>   0.0800 
 46 H       -5.5470     0.7350     3.2780 H     1 <1>   0.0800 
 47 H       -5.3380     1.5980     1.7860 H     1 <1>   0.0800 
 48 H       -0.4970     4.0330    -0.4840 H     1 <1>   0.0800 
 49 H        0.6590     5.3340    -0.6380 H     1 <1>   0.0800 
 50 H        2.4780     4.9100    -2.2090 H     1 <1>   0.0800 
 51 H        3.3700     3.4160    -1.9840 H     1 <1>   0.0800 
 52 H        3.1740     4.5240    -0.6470 H     1 <1>   0.0800 
 53 H        0.3980     4.3390     4.2290 H     1 <1>   0.1500 
 54 H       -1.7530     4.9980     3.0920 H     1 <1>   0.0800 
 55 H       -1.9290     4.5420     1.4230 H     1 <1>   0.0800 
 56 H       -0.6790     7.1430     2.3770 H     1 <1>   0.0800 
 57 H       -2.3150     6.9710     1.7540 H     1 <1>   0.0800 
 58 H       -0.4500     8.0300    -1.0550 H     1 <1>   0.0800 
 59 H       -0.1710     8.6080     0.5820 H     1 <1>   0.0800 
 60 H       -1.8210     8.4220    -0.0280 H     1 <1>   0.0800 
@<TRIPOS>BOND
  1   1   2  1   
  2   1   3  1   
  3   2   4  2   
  4   2   5  1   
  5   3   6  2   
  6   3  29  1   
  7   4   6  1   
  8   5   7  1   
  9   5   8  1   
 10   5   9  1   
 11   6  10  1   
 12   7  11  1   
 13   7  30  1   
 14   7  31  1   
 15   8  12  1   
 16   8  32  1   
 17   8  33  1   
 18   9  13  1   
 19   9  34  1   
 20   9  35  1   
 21  10  14  1   
 22  10  36  1   
 23  10  37  1   
 24  11  15  1   
 25  11  16  1   
 26  11  38  1   
 27  12  15  1   
 28  12  17  1   
 29  12  39  1   
 30  13  16  1   
 31  13  17  1   
 32  13  40  1   
 33  14  18  1   
 34  14  19  1   
 35  14  41  1   
 36  15  42  1   
 37  15  43  1   
 38  16  44  1   
 39  16  45  1   
 40  17  46  1   
 41  17  47  1   
 42  18  20  1   
 43  18  48  1   
 44  18  49  1   
 45  19  50  1   
 46  19  51  1   
 47  19  52  1   
 48  20  21  2   
 49  20  22  1   
 50  21  23  1   
 51  22  24  1   
 52  22  25  1   
 53  23  24  2   
 54  24  53  1   
 55  25  26  1   
 56  25  54  1   
 57  25  55  1   
 58  26  27  1   
 59  26  56  1   
 60  26  57  1   
 61  27  28  1   
 62  28  58  1   
 63  28  59  1   
 64  28  60  1   
@<TRIPOS>SUBSTRUCTURE
  1 ****   4 GROUP 4 **** **** 0

# MOE 2024.06 (io_trps.svl 2023.06)
