@<TRIPOS>MOLECULE
NONAME
48 50 1 0 0 
SMALL
USER_CHARGES


@<TRIPOS>ATOM
  1 O       -1.3860     0.1130    -1.8980 O.2   1 <1>  -0.5700 
  2 C       -1.5160     0.4310    -0.7330 C.2   1 <1>   0.5440 
  3 N       -1.7320    -0.5620     0.1810 N.am  1 <1>  -0.7300 
  4 C       -1.4550     1.8180    -0.3460 C.ar  1 <1>   0.0860 
  5 C       -1.8470    -2.0070    -0.1340 C.3   1 <1>   0.2200 
  6 C       -1.9290     2.2950     0.8640 C.ar  1 <1>   0.1600 
  7 C       -0.9190     2.7860    -1.1790 C.ar  1 <1>   0.1600 
  8 C       -3.2960    -2.4710    -0.0560 C.3   1 <1>  -0.0800 
  9 C       -1.2430    -2.8010     1.0150 C.3   1 <1>   0.1200 
 10 N       -1.8760     3.5550     1.2180 N.ar  1 <1>  -0.6200 
 11 N       -0.8490     4.0560    -0.8580 N.ar  1 <1>  -0.6200 
 12 C       -3.4900    -2.7510     1.4400 C.3   1 <1>   0.1200 
 13 C       -4.3420    -1.5200    -0.6670 C.3   1 <1>  -0.0170 
 14 O       -2.2150    -2.7720     2.0140 O.3   1 <1>  -0.5600 
 15 C       -1.3340     4.3820     0.3350 C.ar  1 <1>   0.7200 
 16 C       -5.7390    -2.1120    -0.5710 C.ar  1 <1>  -0.1430 
 17 N       -1.2920     5.6690     0.7270 N.pl3 1 <1>  -0.8690 
 18 C       -6.6360    -1.7180     0.4020 C.ar  1 <1>  -0.1500 
 19 C       -6.1820    -3.0760    -1.4530 C.ar  1 <1>  -0.1500 
 20 C       -0.7780     6.8200    -0.0150 C.3   1 <1>   0.2890 
 21 C       -7.8940    -2.2950     0.4480 C.ar  1 <1>   0.1600 
 22 C       -7.4620    -3.5890    -1.3210 C.ar  1 <1>   0.1600 
 23 C        0.3260     7.4580     0.8180 C.3   1 <1>  -0.2400 
 24 C       -1.9340     7.7870    -0.2400 C.3   1 <1>  -0.2400 
 25 N       -8.3270    -3.2240    -0.3890 N.ar  1 <1>  -0.6200 
 26 H       -1.7830    -0.3730     1.1850 H     1 <1>   0.3700 
 27 H       -1.3830    -2.2360    -1.0800 H     1 <1>   0.0800 
 28 H       -2.3730     1.6110     1.5650 H     1 <1>   0.1500 
 29 H       -0.5380     2.4900    -2.1420 H     1 <1>   0.1500 
 30 H       -3.3650    -3.4150    -0.5680 H     1 <1>   0.0800 
 31 H       -0.3260    -2.3760     1.3830 H     1 <1>   0.0800 
 32 H       -1.0850    -3.8280     0.7330 H     1 <1>   0.0800 
 33 H       -3.9670    -3.7010     1.6080 H     1 <1>   0.0800 
 34 H       -4.0530    -1.9720     1.9240 H     1 <1>   0.0800 
 35 H       -4.1010    -1.3410    -1.7010 H     1 <1>   0.0800 
 36 H       -4.3280    -0.5690    -0.1650 H     1 <1>   0.0800 
 37 H       -1.6830     5.8520     1.6460 H     1 <1>   0.4000 
 38 H       -6.3710    -0.9680     1.1250 H     1 <1>   0.1500 
 39 H       -5.5460    -3.4310    -2.2430 H     1 <1>   0.1500 
 40 H       -0.3780     6.5090    -0.9670 H     1 <1>   0.0800 
 41 H       -8.5800    -1.9760     1.2140 H     1 <1>   0.1500 
 42 H       -7.7900    -4.3410    -2.0180 H     1 <1>   0.1500 
 43 H       -0.0520     7.7800     1.7710 H     1 <1>   0.0800 
 44 H        0.7280     8.3100     0.3000 H     1 <1>   0.0800 
 45 H        1.1200     6.7490     0.9700 H     1 <1>   0.0800 
 46 H       -2.3460     8.1130     0.6980 H     1 <1>   0.0800 
 47 H       -2.7010     7.3040    -0.8180 H     1 <1>   0.0800 
 48 H       -1.5900     8.6470    -0.7840 H     1 <1>   0.0800 
@<TRIPOS>BOND
  1   1   2  2   
  2   2   3  am  
  3   2   4  1   
  4   3   5  1   
  5   3  26  1   
  6   4   6  ar  
  7   4   7  ar  
  8   5   8  1   
  9   5   9  1   
 10   5  27  1   
 11   6  10  ar  
 12   6  28  1   
 13   7  11  ar  
 14   7  29  1   
 15   8  12  1   
 16   8  13  1   
 17   8  30  1   
 18   9  14  1   
 19   9  31  1   
 20   9  32  1   
 21  10  15  ar  
 22  11  15  ar  
 23  12  14  1   
 24  12  33  1   
 25  12  34  1   
 26  13  16  1   
 27  13  35  1   
 28  13  36  1   
 29  15  17  1   
 30  16  18  ar  
 31  16  19  ar  
 32  17  20  1   
 33  17  37  1   
 34  18  21  ar  
 35  18  38  1   
 36  19  22  ar  
 37  19  39  1   
 38  20  23  1   
 39  20  24  1   
 40  20  40  1   
 41  21  25  ar  
 42  21  41  1   
 43  22  25  ar  
 44  22  42  1   
 45  23  43  1   
 46  23  44  1   
 47  23  45  1   
 48  24  46  1   
 49  24  47  1   
 50  24  48  1   
@<TRIPOS>SUBSTRUCTURE
  1 ****   2 GROUP 4 **** **** 0

# MOE 2024.06 (io_trps.svl 2023.06)
