@<TRIPOS>MOLECULE
NONAME
55 57 1 0 0 
SMALL
USER_CHARGES


@<TRIPOS>ATOM
  1 O       -2.4080     0.7420     1.6350 O.2   1 <1>  -0.5700 
  2 C       -2.5100     1.4350     0.6500 C.2   1 <1>   0.5690 
  3 N       -3.4040     1.0930    -0.3210 N.am  1 <1>  -0.6600 
  4 C       -1.6490     2.6910     0.5120 C.3   1 <1>  -0.0190 
  5 C       -3.1090    -0.1450    -1.0980 C.3   1 <1>   0.1400 
  6 C       -4.8500     1.2020     0.0260 C.3   1 <1>   0.1400 
  7 C       -2.5010     3.9750     0.5120 C.3   1 <1>  -0.1600 
  8 C       -0.7240     2.6360    -0.7280 C.3   1 <1>  -0.1600 
  9 C       -3.5420    -1.3960    -0.3060 C.3   1 <1>   0.3430 
 10 C       -5.3090    -0.0330     0.8320 C.3   1 <1>   0.3430 
 11 C       -1.6320     5.2510     0.5420 C.3   1 <1>   0.2000 
 12 C       -0.2130     4.0170    -1.1840 C.3   1 <1>  -0.1600 
 13 N       -4.9800    -1.3180     0.1280 N.4   1 <1>  -0.9590 
 14 O       -2.2910     6.2360    -0.2120 O.3   1 <1>  -0.5600 
 15 C       -0.2100     5.0300    -0.0370 C.3   1 <1>   0.2000 
 16 C       -5.3640    -2.5260     0.9170 C.3   1 <1>   0.4860 
 17 C       -3.2620     6.9590     0.4790 C.3   1 <1>   0.0400 
 18 O        0.2720     6.2270    -0.5260 O.3   1 <1>  -0.6800 
 19 C       -5.4730    -3.7240    -0.0260 C.ar  1 <1>   0.1670 
 20 N       -6.0030    -3.4540    -1.2180 N.ar  1 <1>  -0.6200 
 21 C       -5.0280    -4.9840     0.3680 C.ar  1 <1>  -0.1440 
 22 C       -6.1080    -4.4810    -2.0480 C.ar  1 <1>   0.1600 
 23 C       -5.1420    -6.0340    -0.5220 C.ar  1 <1>  -0.1500 
 24 C       -4.4240    -5.2530     1.7430 C.3   1 <1>  -0.0970 
 25 C       -5.6970    -5.7670    -1.7530 C.ar  1 <1>  -0.1500 
 26 H       -1.0200     2.7260     1.3860 H     1 <1>   0.0800 
 27 H       -3.6200    -0.1110    -2.0450 H     1 <1>   0.0800 
 28 H       -2.0520    -0.2030    -1.2960 H     1 <1>   0.0800 
 29 H       -5.0110     2.0880     0.6150 H     1 <1>   0.0800 
 30 H       -5.4320     1.2940    -0.8740 H     1 <1>   0.0800 
 31 H       -3.1510     3.9760     1.3690 H     1 <1>   0.0800 
 32 H       -3.1070     3.9790    -0.3770 H     1 <1>   0.0800 
 33 H        0.1170     2.0040    -0.4960 H     1 <1>   0.0800 
 34 H       -1.2410     2.1900    -1.5600 H     1 <1>   0.0800 
 35 H       -2.9070    -1.4790     0.5610 H     1 <1>   0.0800 
 36 H       -3.3920    -2.2730    -0.9160 H     1 <1>   0.0800 
 37 H       -6.3700     0.0300     1.0070 H     1 <1>   0.0800 
 38 H       -4.8110    -0.0100     1.7880 H     1 <1>   0.0800 
 39 H       -1.5190     5.6010     1.5540 H     1 <1>   0.0800 
 40 H       -0.8590     4.3890    -1.9610 H     1 <1>   0.0800 
 41 H        0.7800     3.9210    -1.5900 H     1 <1>   0.0800 
 42 H       -5.5540    -1.4200    -0.7290 H     1 <1>   0.4500 
 43 H        0.4620     4.6950     0.7340 H     1 <1>   0.0800 
 44 H       -4.6410    -2.7130     1.6920 H     1 <1>   0.0800 
 45 H       -6.3270    -2.3720     1.3720 H     1 <1>   0.0800 
 46 H       -3.6980     7.6690    -0.2020 H     1 <1>   0.0800 
 47 H       -2.7980     7.4830     1.2980 H     1 <1>   0.0800 
 48 H       -4.0230     6.2900     0.8380 H     1 <1>   0.0800 
 49 H       -0.5140     6.7210    -0.8510 H     1 <1>   0.4000 
 50 H       -6.5440    -4.2920    -3.0160 H     1 <1>   0.1500 
 51 H       -4.8170    -7.0310    -0.2740 H     1 <1>   0.1500 
 52 H       -4.2020    -6.2990     1.8640 H     1 <1>   0.0800 
 53 H       -5.1140    -4.9740     2.5200 H     1 <1>   0.0800 
 54 H       -3.5070    -4.7050     1.8660 H     1 <1>   0.0800 
 55 H       -5.8130    -6.5510    -2.4810 H     1 <1>   0.1500 
@<TRIPOS>BOND
  1   1   2  2   
  2   2   3  am  
  3   2   4  1   
  4   3   5  1   
  5   3   6  1   
  6   4   7  1   
  7   4   8  1   
  8   4  26  1   
  9   5   9  1   
 10   5  27  1   
 11   5  28  1   
 12   6  10  1   
 13   6  29  1   
 14   6  30  1   
 15   7  11  1   
 16   7  31  1   
 17   7  32  1   
 18   8  12  1   
 19   8  33  1   
 20   8  34  1   
 21   9  13  1   
 22   9  35  1   
 23   9  36  1   
 24  10  13  1   
 25  10  37  1   
 26  10  38  1   
 27  11  14  1   
 28  11  15  1   
 29  11  39  1   
 30  12  15  1   
 31  12  40  1   
 32  12  41  1   
 33  13  16  1   
 34  13  42  1   
 35  14  17  1   
 36  15  18  1   
 37  15  43  1   
 38  16  19  1   
 39  16  44  1   
 40  16  45  1   
 41  17  46  1   
 42  17  47  1   
 43  17  48  1   
 44  18  49  1   
 45  19  20  ar  
 46  19  21  ar  
 47  20  22  ar  
 48  21  23  ar  
 49  21  24  1   
 50  22  25  ar  
 51  22  50  1   
 52  23  25  ar  
 53  23  51  1   
 54  24  52  1   
 55  24  53  1   
 56  24  54  1   
 57  25  55  1   
@<TRIPOS>SUBSTRUCTURE
  1 ****   3 GROUP 4 **** **** 0

# MOE 2024.06 (io_trps.svl 2023.06)
