@<TRIPOS>MOLECULE
NONAME
50 53 1 0 0 
SMALL
USER_CHARGES


@<TRIPOS>ATOM
  1 F       -1.5890     0.0840     1.3100 F     1 <1>  -0.1900 
  2 C       -2.2960    -1.0160     1.2640 C.ar  1 <1>   0.1900 
  3 C       -2.2790    -1.8590     0.1470 C.ar  1 <1>   0.0830 
  4 C       -3.0690    -1.2970     2.3750 C.ar  1 <1>  -0.1500 
  5 O       -1.5690    -1.6920    -1.0030 O.3   1 <1>  -0.3630 
  6 C       -3.0680    -2.9980     0.1870 C.ar  1 <1>  -0.1500 
  7 C       -3.8540    -2.4370     2.3880 C.ar  1 <1>  -0.1500 
  8 C       -0.5990    -0.6790    -1.1630 C.3   1 <1>   0.0400 
  9 C       -3.8610    -3.2890     1.2900 C.ar  1 <1>  -0.1430 
 10 C       -4.7420    -4.5250     1.2820 C.3   1 <1>   0.4870 
 11 N       -5.8270    -4.3050     0.2890 N.4   1 <1>  -0.9590 
 12 C       -6.7200    -3.1660     0.7040 C.3   1 <1>   0.3430 
 13 C       -6.6140    -5.5440     0.0320 C.3   1 <1>   0.3430 
 14 C       -7.7560    -2.8290    -0.3800 C.3   1 <1>   0.1430 
 15 C       -7.6290    -5.2840    -1.0860 C.3   1 <1>  -0.1600 
 16 C       -8.6830    -1.7720     0.1680 C.ar  1 <1>   0.1670 
 17 C       -8.5520    -4.0930    -0.7700 C.3   1 <1>  -0.1600 
 18 C       -7.1310    -2.1230    -1.6140 C.3   1 <1>  -0.1600 
 19 N       -9.2490    -1.8210     1.3520 N.ar  1 <1>  -0.6200 
 20 C       -8.8530    -0.7420    -0.7060 C.ar  1 <1>  -0.1430 
 21 C       -8.0680    -0.9530    -1.9760 C.3   1 <1>  -0.0170 
 22 C      -10.0240    -0.7780     1.6230 C.ar  1 <1>   0.4770 
 23 C       -9.6720     0.2890    -0.3190 C.ar  1 <1>   0.1600 
 24 N      -10.2660     0.2770     0.8570 N.ar  1 <1>  -0.6200 
 25 C      -10.7110    -0.7840     2.9670 C.3   1 <1>  -0.0970 
 26 H       -3.0520    -0.6260     3.2170 H     1 <1>   0.1500 
 27 H       -3.0410    -3.6500    -0.6680 H     1 <1>   0.1500 
 28 H       -4.4530    -2.6460     3.2600 H     1 <1>   0.1500 
 29 H       -0.1280    -0.8150    -2.1200 H     1 <1>   0.0800 
 30 H        0.1350    -0.7670    -0.3820 H     1 <1>   0.0800 
 31 H       -1.0830     0.2800    -1.1300 H     1 <1>   0.0800 
 32 H       -5.1570    -4.6940     2.2620 H     1 <1>   0.0800 
 33 H       -4.1500    -5.3820     1.0050 H     1 <1>   0.0800 
 34 H       -5.3690    -4.0220    -0.5850 H     1 <1>   0.4500 
 35 H       -6.1350    -2.2840     0.9080 H     1 <1>   0.0800 
 36 H       -7.2460    -3.4290     1.6080 H     1 <1>   0.0800 
 37 H       -7.1370    -5.8370     0.9290 H     1 <1>   0.0800 
 38 H       -5.9580    -6.3490    -0.2580 H     1 <1>   0.0800 
 39 H       -8.2310    -6.1670    -1.2190 H     1 <1>   0.0800 
 40 H       -7.1060    -5.1190    -2.0110 H     1 <1>   0.0800 
 41 H       -9.1900    -3.8830    -1.6120 H     1 <1>   0.0800 
 42 H       -9.1950    -4.3630     0.0520 H     1 <1>   0.0800 
 43 H       -6.9960    -2.7810    -2.4540 H     1 <1>   0.0800 
 44 H       -6.1740    -1.7070    -1.3490 H     1 <1>   0.0800 
 45 H       -8.7390    -1.2300    -2.7720 H     1 <1>   0.0800 
 46 H       -7.5170    -0.0710    -2.2550 H     1 <1>   0.0800 
 47 H       -9.8440     1.1290    -0.9700 H     1 <1>   0.1500 
 48 H      -10.7540    -1.7800     3.3640 H     1 <1>   0.0800 
 49 H      -11.7130    -0.4090     2.8640 H     1 <1>   0.0800 
 50 H      -10.1690    -0.1530     3.6460 H     1 <1>   0.0800 
@<TRIPOS>BOND
  1   1   2  1   
  2   2   3  ar  
  3   2   4  ar  
  4   3   5  1   
  5   3   6  ar  
  6   4   7  ar  
  7   4  26  1   
  8   5   8  1   
  9   6   9  ar  
 10   6  27  1   
 11   7   9  ar  
 12   7  28  1   
 13   8  29  1   
 14   8  30  1   
 15   8  31  1   
 16   9  10  1   
 17  10  11  1   
 18  10  32  1   
 19  10  33  1   
 20  11  12  1   
 21  11  13  1   
 22  11  34  1   
 23  12  14  1   
 24  12  35  1   
 25  12  36  1   
 26  13  15  1   
 27  13  37  1   
 28  13  38  1   
 29  14  16  1   
 30  14  17  1   
 31  14  18  1   
 32  15  17  1   
 33  15  39  1   
 34  15  40  1   
 35  16  19  ar  
 36  16  20  ar  
 37  17  41  1   
 38  17  42  1   
 39  18  21  1   
 40  18  43  1   
 41  18  44  1   
 42  19  22  ar  
 43  20  21  1   
 44  20  23  ar  
 45  21  45  1   
 46  21  46  1   
 47  22  24  ar  
 48  22  25  1   
 49  23  24  ar  
 50  23  47  1   
 51  25  48  1   
 52  25  49  1   
 53  25  50  1   
@<TRIPOS>SUBSTRUCTURE
  1 ****  12 GROUP 4 **** **** 0

# MOE 2024.06 (io_trps.svl 2023.06)
