@<TRIPOS>MOLECULE
NONAME
39 40 1 0 0 
SMALL
USER_CHARGES


@<TRIPOS>ATOM
  1 CL       0.0650     0.2270    -1.1320 Cl    1 <1>  -0.1770 
  2 C       -1.2520     1.0980    -0.3580 C.ar  1 <1>   0.1770 
  3 C       -1.1620     2.5080    -0.2500 C.ar  1 <1>   0.4100 
  4 C       -2.3450     0.4530     0.1330 C.ar  1 <1>   0.2170 
  5 N       -2.1120     3.2190     0.3310 N.ar  1 <1>  -0.6200 
  6 N       -0.0880     3.1730    -0.7400 N.pl3 1 <1>  -0.8690 
  7 N       -3.2990     1.2300     0.7120 N.ar  1 <1>  -0.1790 
  8 C       -2.5820    -1.0520     0.0880 C.3   1 <1>  -0.0970 
  9 C       -3.1610     2.5680     0.7950 C.ar  1 <1>   0.7710 
 10 C        0.0960     4.6520    -0.8050 C.3   1 <1>   0.2090 
 11 N       -4.1100     3.3030     1.3660 N.pl3 1 <1>  -0.9000 
 12 C        0.7620     5.1760     0.4740 C.3   1 <1>   0.2090 
 13 N        1.0480     6.6370     0.3630 N.pl3 1 <1>  -0.8690 
 14 C        2.2140     7.2620     0.0600 C.ar  1 <1>   0.1000 
 15 C        2.3190     8.6630     0.1500 C.ar  1 <1>  -0.1430 
 16 C        3.3550     6.5610    -0.3540 C.ar  1 <1>  -0.1500 
 17 C        3.5060     9.2840    -0.1540 C.ar  1 <1>   0.2110 
 18 C        1.1160     9.4960     0.5870 C.3   1 <1>  -0.0970 
 19 C        4.5200     7.2180    -0.6470 C.ar  1 <1>   0.2110 
 20 N        4.5890     8.5670    -0.5440 N.ar  1 <1>  -0.1790 
 21 H        0.6610     2.6340    -1.1950 H     1 <1>   0.4000 
 22 H       -4.1480     0.8310     1.1030 H     1 <1>   0.4570 
 23 H       -1.7660    -1.5650    -0.3910 H     1 <1>   0.0800 
 24 H       -3.4780    -1.2760    -0.4640 H     1 <1>   0.0800 
 25 H       -2.6770    -1.4480     1.0840 H     1 <1>   0.0800 
 26 H       -0.8590     5.1330    -0.9320 H     1 <1>   0.0800 
 27 H        0.7110     4.8920    -1.6540 H     1 <1>   0.0800 
 28 H       -4.9940     3.0070     1.7830 H     1 <1>   0.4000 
 29 H       -3.9640     4.3180     1.4020 H     1 <1>   0.4000 
 30 H        1.6710     4.6330     0.6580 H     1 <1>   0.0800 
 31 H        0.1020     5.0110     1.3080 H     1 <1>   0.0800 
 32 H        0.2350     7.2130     0.6190 H     1 <1>   0.4000 
 33 H        3.3140     5.4920    -0.4450 H     1 <1>   0.1500 
 34 H        3.6020    10.3560    -0.0870 H     1 <1>   0.1500 
 35 H        0.8000     9.1990     1.5730 H     1 <1>   0.0800 
 36 H        0.2970     9.3520    -0.0970 H     1 <1>   0.0800 
 37 H        1.3490    10.5460     0.6140 H     1 <1>   0.0800 
 38 H        5.3970     6.6750    -0.9630 H     1 <1>   0.1500 
 39 H        5.4660     9.0510    -0.7640 H     1 <1>   0.4570 
@<TRIPOS>BOND
  1   1   2  1   
  2   2   3  ar  
  3   2   4  ar  
  4   3   5  ar  
  5   3   6  1   
  6   4   7  ar  
  7   4   8  1   
  8   5   9  ar  
  9   6  10  1   
 10   6  21  1   
 11   7   9  ar  
 12   7  22  1   
 13   8  23  1   
 14   8  24  1   
 15   8  25  1   
 16   9  11  1   
 17  10  12  1   
 18  10  26  1   
 19  10  27  1   
 20  11  28  1   
 21  11  29  1   
 22  12  13  1   
 23  12  30  1   
 24  12  31  1   
 25  13  14  1   
 26  13  32  1   
 27  14  15  ar  
 28  14  16  ar  
 29  15  17  ar  
 30  15  18  1   
 31  16  19  ar  
 32  16  33  1   
 33  17  20  ar  
 34  17  34  1   
 35  18  35  1   
 36  18  36  1   
 37  18  37  1   
 38  19  20  ar  
 39  19  38  1   
 40  20  39  1   
@<TRIPOS>SUBSTRUCTURE
  1 ****  10 GROUP 4 **** **** 0

# MOE 2024.06 (io_trps.svl 2023.06)
