@<TRIPOS>MOLECULE
NONAME
54 56 1 0 0 
SMALL
USER_CHARGES


@<TRIPOS>ATOM
  1 O        1.6080     1.5570     1.7250 O.2   1 <1>  -0.5700 
  2 C        2.0200     0.7180     0.9550 C.2   1 <1>   0.5690 
  3 N        2.3850     1.0510    -0.3300 N.am  1 <1>  -0.6600 
  4 C        2.1420    -0.7030     1.4950 C.3   1 <1>   0.0820 
  5 C        2.8530     0.0590    -1.3580 C.3   1 <1>   0.1400 
  6 C        2.4770     2.4820    -0.7290 C.3   1 <1>   0.1400 
  7 C        1.2370    -1.7100     0.7940 C.2   1 <1>  -0.1810 
  8 C        4.2120     0.4150    -1.9800 C.3   1 <1>   0.1400 
  9 C        3.8170     3.0790    -0.2680 C.3   1 <1>  -0.1600 
 10 C        1.5470    -2.8880     0.2280 C.2   1 <1>  -0.0400 
 11 C       -0.1380    -1.6050     0.5830 C.2   1 <1>   0.1080 
 12 N        5.1100     1.0610    -0.9820 N.am  1 <1>  -0.6600 
 13 C        5.0600     2.5480    -0.9990 C.3   1 <1>   0.1400 
 14 O        0.4490    -3.3990    -0.2600 O.3   1 <1>  -0.0190 
 15 C        2.8500    -3.6480     0.0750 C.3   1 <1>  -0.0600 
 16 N       -0.5790    -2.6300    -0.0530 N.2   1 <1>  -0.4100 
 17 C       -1.0200    -0.4560     1.0270 C.3   1 <1>  -0.0590 
 18 C        5.7240     0.3000    -0.0150 C.2   1 <1>   0.5690 
 19 O        5.5870    -0.9040     0.0080 O.2   1 <1>  -0.5700 
 20 C        6.5640     0.9270     1.0920 C.3   1 <1>   0.0820 
 21 C        7.8180     1.6430     0.5970 C.2   1 <1>  -0.1810 
 22 C        8.7700     1.1290    -0.2840 C.2   1 <1>   0.1080 
 23 C        8.2630     2.8860     0.8960 C.2   1 <1>  -0.3320 
 24 N        9.7210     1.9740    -0.5240 N.2   1 <1>  -0.7070 
 25 C        8.7540    -0.2440    -0.9180 C.3   1 <1>  -0.0590 
 26 N        9.4110     3.0560     0.2070 N.pl3 1 <1>   0.3000 
 27 C        7.6890     3.9600     1.8060 C.3   1 <1>  -0.0600 
 28 H        1.8910    -0.6940     2.5400 H     1 <1>   0.0800 
 29 H        3.1680    -1.0050     1.4180 H     1 <1>   0.0800 
 30 H        2.1120    -0.0230    -2.1350 H     1 <1>   0.0800 
 31 H        2.9610    -0.9130    -0.9230 H     1 <1>   0.0800 
 32 H        1.6700     3.0270    -0.2680 H     1 <1>   0.0800 
 33 H        2.3650     2.5780    -1.7950 H     1 <1>   0.0800 
 34 H        4.0630     1.0720    -2.8190 H     1 <1>   0.0800 
 35 H        4.6760    -0.4810    -2.3550 H     1 <1>   0.0800 
 36 H        3.9260     2.9220     0.7900 H     1 <1>   0.0800 
 37 H        3.7770     4.1420    -0.4200 H     1 <1>   0.0800 
 38 H        5.9430     2.9600    -0.5490 H     1 <1>   0.0800 
 39 H        5.0480     2.8860    -2.0220 H     1 <1>   0.0800 
 40 H        3.6670    -3.1020     0.5090 H     1 <1>   0.0800 
 41 H        3.0570    -3.8070    -0.9670 H     1 <1>   0.0800 
 42 H        2.7710    -4.6020     0.5630 H     1 <1>   0.0800 
 43 H       -0.7960    -0.1880     2.0420 H     1 <1>   0.0800 
 44 H       -2.0540    -0.7410     0.9620 H     1 <1>   0.0800 
 45 H       -0.8540     0.3950     0.3930 H     1 <1>   0.0800 
 46 H        6.8680     0.1510     1.7700 H     1 <1>   0.0800 
 47 H        5.9400     1.6020     1.6430 H     1 <1>   0.0800 
 48 H        8.4540    -0.9840    -0.1990 H     1 <1>   0.0800 
 49 H        9.7360    -0.4900    -1.2790 H     1 <1>   0.0800 
 50 H        8.0670    -0.2520    -1.7440 H     1 <1>   0.0800 
 51 H       10.0060     3.8920     0.2170 H     1 <1>   0.2700 
 52 H        6.7850     3.6240     2.2800 H     1 <1>   0.0800 
 53 H        7.4660     4.8450     1.2380 H     1 <1>   0.0800 
 54 H        8.3990     4.2090     2.5740 H     1 <1>   0.0800 
@<TRIPOS>BOND
  1   1   2  2   
  2   2   3  am  
  3   2   4  1   
  4   3   5  1   
  5   3   6  1   
  6   4   7  1   
  7   4  28  1   
  8   4  29  1   
  9   5   8  1   
 10   5  30  1   
 11   5  31  1   
 12   6   9  1   
 13   6  32  1   
 14   6  33  1   
 15   7  10  2   
 16   7  11  1   
 17   8  12  1   
 18   8  34  1   
 19   8  35  1   
 20   9  13  1   
 21   9  36  1   
 22   9  37  1   
 23  10  14  1   
 24  10  15  1   
 25  11  16  2   
 26  11  17  1   
 27  12  13  1   
 28  12  18  am  
 29  13  38  1   
 30  13  39  1   
 31  14  16  1   
 32  15  40  1   
 33  15  41  1   
 34  15  42  1   
 35  17  43  1   
 36  17  44  1   
 37  17  45  1   
 38  18  19  2   
 39  18  20  1   
 40  20  21  1   
 41  20  46  1   
 42  20  47  1   
 43  21  22  1   
 44  21  23  2   
 45  22  24  2   
 46  22  25  1   
 47  23  26  1   
 48  23  27  1   
 49  24  26  1   
 50  25  48  1   
 51  25  49  1   
 52  25  50  1   
 53  26  51  1   
 54  27  52  1   
 55  27  53  1   
 56  27  54  1   
@<TRIPOS>SUBSTRUCTURE
  1 ****  18 GROUP 4 **** **** 0

# MOE 2024.06 (io_trps.svl 2023.06)
