@<TRIPOS>MOLECULE
NONAME
60 63 1 0 0 
SMALL
USER_CHARGES


@<TRIPOS>ATOM
  1 O        0.2540     1.8840    -3.4110 O.2   1 <1>  -0.5700 
  2 C        0.1400     2.6210    -2.4590 C.2   1 <1>   0.5690 
  3 N       -1.0770     3.1660    -2.1200 N.am  1 <1>  -0.6600 
  4 C        1.4170     2.8830    -1.6790 C.3   1 <1>  -0.0990 
  5 C       -1.3730     4.0990    -0.9970 C.3   1 <1>   0.1400 
  6 C       -2.3220     2.7230    -2.8050 C.3   1 <1>   0.1400 
  7 C        1.9060     1.6050    -0.9810 C.3   1 <1>   0.2070 
  8 C       -2.2210     3.3670     0.0430 C.3   1 <1>  -0.1600 
  9 C       -3.1880     1.9590    -1.8000 C.3   1 <1>  -0.1600 
 10 C        0.8930     1.1260     0.0650 C.ar  1 <1>  -0.1440 
 11 C        3.3080     1.7280    -0.3660 C.ar  1 <1>  -0.1440 
 12 C       -3.5240     2.8030    -0.5560 C.3   1 <1>   0.2800 
 13 C       -0.0740     0.1960    -0.2890 C.ar  1 <1>  -0.1500 
 14 C        0.9230     1.5980     1.3710 C.ar  1 <1>  -0.1500 
 15 C        3.9380     2.9420    -0.1090 C.ar  1 <1>  -0.1500 
 16 C        3.9780     0.5550    -0.0450 C.ar  1 <1>  -0.1500 
 17 O       -4.3160     3.8710    -1.0210 O.3   1 <1>  -0.5600 
 18 C       -4.3050     1.9580     0.4830 C.3   1 <1>  -0.1600 
 19 C       -0.9910    -0.2590     0.6430 C.ar  1 <1>  -0.1500 
 20 C        0.0070     1.1450     2.3050 C.ar  1 <1>  -0.1500 
 21 C        5.2040     2.9770     0.4500 C.ar  1 <1>  -0.1500 
 22 C        5.2440     0.5870     0.5140 C.ar  1 <1>  -0.1500 
 23 C       -5.0500     4.5980    -0.0770 C.3   1 <1>   0.1200 
 24 C       -5.8140     2.2110     0.4490 C.3   1 <1>   0.2800 
 25 C       -0.9510     0.2140     1.9420 C.ar  1 <1>  -0.1500 
 26 C        5.8590     1.8000     0.7610 C.ar  1 <1>  -0.1500 
 27 C       -6.0870     3.7070     0.6260 C.3   1 <1>  -0.1600 
 28 O       -6.2710     1.8630    -0.7940 O.3   1 <1>  -0.6800 
 29 C       -6.5770     1.3550     1.4550 C.3   1 <1>  -0.2400 
 30 H        1.2990     3.6610    -0.9580 H     1 <1>   0.0800 
 31 H        2.1630     3.1980    -2.3840 H     1 <1>   0.0800 
 32 H       -1.9230     4.9410    -1.3820 H     1 <1>   0.0800 
 33 H       -0.4850     4.4790    -0.5350 H     1 <1>   0.0800 
 34 H       -2.0980     2.0880    -3.6450 H     1 <1>   0.0800 
 35 H       -2.8530     3.5840    -3.1730 H     1 <1>   0.0800 
 36 H        1.9800     0.8430    -1.7390 H     1 <1>   0.0800 
 37 H       -2.4320     4.0220     0.8660 H     1 <1>   0.0800 
 38 H       -1.6390     2.5550     0.4340 H     1 <1>   0.0800 
 39 H       -2.6510     1.0770    -1.5040 H     1 <1>   0.0800 
 40 H       -4.0900     1.6350    -2.2830 H     1 <1>   0.0800 
 41 H       -0.1190    -0.1780    -1.2990 H     1 <1>   0.1500 
 42 H        1.6660     2.3160     1.6700 H     1 <1>   0.1500 
 43 H        3.4620     3.8780    -0.3330 H     1 <1>   0.1500 
 44 H        3.5080    -0.3970    -0.2250 H     1 <1>   0.1500 
 45 H       -3.9520     2.2020     1.4690 H     1 <1>   0.0800 
 46 H       -4.1030     0.9110     0.3490 H     1 <1>   0.0800 
 47 H       -1.7330    -0.9830     0.3550 H     1 <1>   0.1500 
 48 H        0.0450     1.5130     3.3150 H     1 <1>   0.1500 
 49 H        5.6810     3.9220     0.6430 H     1 <1>   0.1500 
 50 H        5.7470    -0.3330     0.7570 H     1 <1>   0.1500 
 51 H       -5.5420     5.4020    -0.5970 H     1 <1>   0.0800 
 52 H       -4.3670     5.0250     0.6350 H     1 <1>   0.0800 
 53 H       -1.6600    -0.1420     2.6680 H     1 <1>   0.1500 
 54 H        6.8430     1.8270     1.1950 H     1 <1>   0.1500 
 55 H       -7.0760     3.9420     0.2740 H     1 <1>   0.0800 
 56 H       -6.0660     3.9510     1.6720 H     1 <1>   0.0800 
 57 H       -5.8260     2.4650    -1.4290 H     1 <1>   0.4000 
 58 H       -6.2540     1.5770     2.4550 H     1 <1>   0.0800 
 59 H       -6.4010     0.3110     1.2640 H     1 <1>   0.0800 
 60 H       -7.6320     1.5510     1.3840 H     1 <1>   0.0800 
@<TRIPOS>BOND
  1   1   2  2   
  2   2   3  am  
  3   2   4  1   
  4   3   5  1   
  5   3   6  1   
  6   4   7  1   
  7   4  30  1   
  8   4  31  1   
  9   5   8  1   
 10   5  32  1   
 11   5  33  1   
 12   6   9  1   
 13   6  34  1   
 14   6  35  1   
 15   7  10  1   
 16   7  11  1   
 17   7  36  1   
 18   8  12  1   
 19   8  37  1   
 20   8  38  1   
 21   9  12  1   
 22   9  39  1   
 23   9  40  1   
 24  10  13  ar  
 25  10  14  ar  
 26  11  15  ar  
 27  11  16  ar  
 28  12  17  1   
 29  12  18  1   
 30  13  19  ar  
 31  13  41  1   
 32  14  20  ar  
 33  14  42  1   
 34  15  21  ar  
 35  15  43  1   
 36  16  22  ar  
 37  16  44  1   
 38  17  23  1   
 39  18  24  1   
 40  18  45  1   
 41  18  46  1   
 42  19  25  ar  
 43  19  47  1   
 44  20  25  ar  
 45  20  48  1   
 46  21  26  ar  
 47  21  49  1   
 48  22  26  ar  
 49  22  50  1   
 50  23  27  1   
 51  23  51  1   
 52  23  52  1   
 53  24  27  1   
 54  24  28  1   
 55  24  29  1   
 56  25  53  1   
 57  26  54  1   
 58  27  55  1   
 59  27  56  1   
 60  28  57  1   
 61  29  58  1   
 62  29  59  1   
 63  29  60  1   
@<TRIPOS>SUBSTRUCTURE
  1 ****  10 GROUP 4 **** **** 0

# MOE 2024.06 (io_trps.svl 2023.06)
