@<TRIPOS>MOLECULE
NONAME
50 52 1 0 0 
SMALL
USER_CHARGES


@<TRIPOS>ATOM
  1 O       -0.8570    -1.3720     0.0260 O.3   1 <1>  -0.6800 
  2 C        0.2840    -1.7730    -0.6500 C.3   1 <1>   0.1200 
  3 C        1.4830    -1.8950     0.3420 C.3   1 <1>   0.0000 
  4 C        2.7760    -2.4360    -0.3260 C.3   1 <1>   0.4230 
  5 C        1.8270    -0.4860     0.8880 C.3   1 <1>  -0.1600 
  6 C        1.1590    -2.8330     1.5270 C.3   1 <1>  -0.1600 
  7 N        2.8030    -3.9470    -0.5600 N.4   1 <1>  -0.9590 
  8 C        3.2030    -1.5170    -1.4960 C.3   1 <1>   0.2090 
  9 C        2.3350     0.4820    -0.1940 C.3   1 <1>   0.2090 
 10 C        0.9610    -4.3000     1.1000 C.3   1 <1>  -0.1600 
 11 C        1.5250    -4.6650    -0.2780 C.3   1 <1>   0.3430 
 12 C        3.3740    -4.3780    -1.8750 C.3   1 <1>   0.2630 
 13 N        3.4500    -0.1410    -0.9720 N.pl3 1 <1>  -0.8380 
 14 C        4.7470     0.1870    -0.6030 C.ar  1 <1>   0.4100 
 15 N        5.3980    -0.7680     0.0570 N.ar  1 <1>  -0.6200 
 16 C        5.3050     1.4350    -0.9100 C.ar  1 <1>   0.0730 
 17 C        6.6300    -0.4920     0.4460 C.ar  1 <1>   0.1670 
 18 C        4.5610     2.4160    -1.6370 C.1   1 <1>   0.4840 
 19 C        6.5970     1.6950    -0.4990 C.ar  1 <1>  -0.1500 
 20 C        7.2770     0.7130     0.1930 C.ar  1 <1>  -0.1430 
 21 C        7.3280    -1.6040     1.2090 C.3   1 <1>  -0.0970 
 22 N        3.9710     3.2170    -2.1970 N.1   1 <1>  -0.5570 
 23 C        8.7060     0.9900     0.6460 C.3   1 <1>  -0.0970 
 24 H       -1.5990    -1.1930    -0.5880 H     1 <1>   0.4000 
 25 H        0.0530    -2.7000    -1.1350 H     1 <1>   0.0800 
 26 H        0.4750    -1.0400    -1.4140 H     1 <1>   0.0800 
 27 H        3.5450    -2.2670     0.4090 H     1 <1>   0.0800 
 28 H        2.5920    -0.5600     1.6420 H     1 <1>   0.0800 
 29 H        0.9650    -0.0510     1.3640 H     1 <1>   0.0800 
 30 H        1.9750    -2.7950     2.2300 H     1 <1>   0.0800 
 31 H        0.2850    -2.4880     2.0560 H     1 <1>   0.0800 
 32 H        3.4540    -4.2830     0.1640 H     1 <1>   0.4500 
 33 H        2.4510    -1.4780    -2.2620 H     1 <1>   0.0800 
 34 H        4.1170    -1.8740    -1.9350 H     1 <1>   0.0800 
 35 H        2.6770     1.3870     0.2800 H     1 <1>   0.0800 
 36 H        1.5400     0.7560    -0.8670 H     1 <1>   0.0800 
 37 H       -0.0940    -4.5160     1.0860 H     1 <1>   0.0800 
 38 H        1.3940    -4.9460     1.8450 H     1 <1>   0.0800 
 39 H        0.8030    -4.4180    -1.0360 H     1 <1>   0.0800 
 40 H        1.6830    -5.7310    -0.3230 H     1 <1>   0.0800 
 41 H        2.7520    -4.0340    -2.6860 H     1 <1>   0.0800 
 42 H        3.4370    -5.4530    -1.9210 H     1 <1>   0.0800 
 43 H        4.3670    -3.9750    -2.0020 H     1 <1>   0.0800 
 44 H        7.0570     2.6440    -0.7180 H     1 <1>   0.1500 
 45 H        7.8560    -1.2100     2.0570 H     1 <1>   0.0800 
 46 H        8.0220    -2.1070     0.5620 H     1 <1>   0.0800 
 47 H        6.6120    -2.3200     1.5700 H     1 <1>   0.0800 
 48 H        9.0770     1.9050     0.2200 H     1 <1>   0.0800 
 49 H        9.3580     0.1920     0.3370 H     1 <1>   0.0800 
 50 H        8.7430     1.0770     1.7170 H     1 <1>   0.0800 
@<TRIPOS>BOND
  1   1   2  1   
  2   1  24  1   
  3   2   3  1   
  4   2  25  1   
  5   2  26  1   
  6   3   4  1   
  7   3   5  1   
  8   3   6  1   
  9   4   7  1   
 10   4   8  1   
 11   4  27  1   
 12   5   9  1   
 13   5  28  1   
 14   5  29  1   
 15   6  10  1   
 16   6  30  1   
 17   6  31  1   
 18   7  11  1   
 19   7  12  1   
 20   7  32  1   
 21   8  13  1   
 22   8  33  1   
 23   8  34  1   
 24   9  13  1   
 25   9  35  1   
 26   9  36  1   
 27  10  11  1   
 28  10  37  1   
 29  10  38  1   
 30  11  39  1   
 31  11  40  1   
 32  12  41  1   
 33  12  42  1   
 34  12  43  1   
 35  13  14  1   
 36  14  15  ar  
 37  14  16  ar  
 38  15  17  ar  
 39  16  18  1   
 40  16  19  ar  
 41  17  20  ar  
 42  17  21  1   
 43  18  22  3   
 44  19  20  ar  
 45  19  44  1   
 46  20  23  1   
 47  21  45  1   
 48  21  46  1   
 49  21  47  1   
 50  23  48  1   
 51  23  49  1   
 52  23  50  1   
@<TRIPOS>SUBSTRUCTURE
  1 ****  13 GROUP 4 **** **** 0

# MOE 2024.06 (io_trps.svl 2023.06)
