@<TRIPOS>MOLECULE
NONAME
56 59 1 0 0 
SMALL
USER_CHARGES


@<TRIPOS>ATOM
  1 S       -0.5110     0.0980    -1.1700 S.o2  1 <1>   1.5760 
  2 O       -0.2640     1.1830    -2.0950 O.2   1 <1>  -0.6500 
  3 O       -1.1770    -1.1060    -1.6130 O.2   1 <1>  -0.6500 
  4 N       -1.3660     0.7030     0.1510 N.am  1 <1>  -0.8490 
  5 N        0.9560    -0.2960    -0.4280 N.am  1 <1>  -0.8490 
  6 C       -2.6130     1.3470    -0.2950 C.3   1 <1>   0.1960 
  7 C       -1.6530    -0.3460     1.1340 C.3   1 <1>   0.1960 
  8 C        1.7400    -1.2210    -1.2460 C.3   1 <1>   0.1960 
  9 C        1.7110     0.9010    -0.0630 C.3   1 <1>   0.1960 
 10 C       -3.3450     2.0360     0.8730 C.3   1 <1>   0.1440 
 11 C       -2.3330     0.2560     2.3690 C.3   1 <1>  -0.1600 
 12 C        1.5740    -2.6280    -0.6820 C.3   1 <1>  -0.2400 
 13 C        2.6940     0.5750     1.0610 C.3   1 <1>  -0.2400 
 14 C       -4.6170     2.6700     0.3410 C.ar  1 <1>   0.1670 
 15 C       -3.6200     1.0070     1.9890 C.3   1 <1>  -0.1600 
 16 C       -2.5500     3.2650     1.3930 C.3   1 <1>  -0.1600 
 17 N       -5.6990     2.0220    -0.0170 N.ar  1 <1>  -0.6200 
 18 C       -4.5040     4.0240     0.2580 C.ar  1 <1>  -0.1440 
 19 C       -3.1500     4.5070     0.7130 C.3   1 <1>  -0.0170 
 20 C       -6.7120     2.7760    -0.4650 C.ar  1 <1>   0.6200 
 21 C       -5.5830     4.7250    -0.2130 C.ar  1 <1>   0.1600 
 22 N       -6.6880     4.1130    -0.5720 N.ar  1 <1>  -0.6200 
 23 C       -7.9330     2.0890    -0.8660 C.ar  1 <1>   0.0000 
 24 C       -7.9120     0.7780    -1.3520 C.ar  1 <1>  -0.1500 
 25 C       -9.1830     2.7090    -0.7830 C.ar  1 <1>  -0.1500 
 26 C       -9.0700     0.1230    -1.7320 C.ar  1 <1>  -0.1500 
 27 C      -10.3450     2.0610    -1.1610 C.ar  1 <1>  -0.1500 
 28 C      -10.2910     0.7640    -1.6370 C.ar  1 <1>  -0.1500 
 29 H       -3.2620     0.6100    -0.7410 H     1 <1>   0.0800 
 30 H       -2.3900     2.0860    -1.0470 H     1 <1>   0.0800 
 31 H       -0.7350    -0.8220     1.4380 H     1 <1>   0.0800 
 32 H       -2.2890    -1.0990     0.6960 H     1 <1>   0.0800 
 33 H        2.7860    -0.9650    -1.2260 H     1 <1>   0.0800 
 34 H        1.4210    -1.1920    -2.2760 H     1 <1>   0.0800 
 35 H        1.0360     1.6600     0.3000 H     1 <1>   0.0800 
 36 H        2.2220     1.3020    -0.9230 H     1 <1>   0.0800 
 37 H       -1.6430     0.9230     2.8550 H     1 <1>   0.0800 
 38 H       -2.5680    -0.5320     3.0630 H     1 <1>   0.0800 
 39 H        1.9050    -2.6570     0.3400 H     1 <1>   0.0800 
 40 H        2.1640    -3.3200    -1.2550 H     1 <1>   0.0800 
 41 H        0.5450    -2.9350    -0.7330 H     1 <1>   0.0800 
 42 H        2.1620     0.1650     1.9010 H     1 <1>   0.0800 
 43 H        3.1880     1.4750     1.3770 H     1 <1>   0.0800 
 44 H        3.4420    -0.1240     0.7370 H     1 <1>   0.0800 
 45 H       -4.3420     0.2920     1.6330 H     1 <1>   0.0800 
 46 H       -4.0440     1.4900     2.8520 H     1 <1>   0.0800 
 47 H       -1.4940     3.1810     1.2050 H     1 <1>   0.0800 
 48 H       -2.6950     3.3630     2.4550 H     1 <1>   0.0800 
 49 H       -2.5610     4.7920    -0.1420 H     1 <1>   0.0800 
 50 H       -3.2290     5.3340     1.3970 H     1 <1>   0.0800 
 51 H       -5.5420     5.7980    -0.2970 H     1 <1>   0.1500 
 52 H       -6.9710     0.2630    -1.4340 H     1 <1>   0.1500 
 53 H       -9.2450     3.7180    -0.4140 H     1 <1>   0.1500 
 54 H       -9.0210    -0.8860    -2.1010 H     1 <1>   0.1500 
 55 H      -11.2920     2.5670    -1.0850 H     1 <1>   0.1500 
 56 H      -11.1940     0.2580    -1.9320 H     1 <1>   0.1500 
@<TRIPOS>BOND
  1   1   2  2   
  2   1   3  2   
  3   1   4  am  
  4   1   5  am  
  5   4   6  1   
  6   4   7  1   
  7   5   8  1   
  8   5   9  1   
  9   6  10  1   
 10   6  29  1   
 11   6  30  1   
 12   7  11  1   
 13   7  31  1   
 14   7  32  1   
 15   8  12  1   
 16   8  33  1   
 17   8  34  1   
 18   9  13  1   
 19   9  35  1   
 20   9  36  1   
 21  10  14  1   
 22  10  15  1   
 23  10  16  1   
 24  11  15  1   
 25  11  37  1   
 26  11  38  1   
 27  12  39  1   
 28  12  40  1   
 29  12  41  1   
 30  13  42  1   
 31  13  43  1   
 32  13  44  1   
 33  14  17  ar  
 34  14  18  ar  
 35  15  45  1   
 36  15  46  1   
 37  16  19  1   
 38  16  47  1   
 39  16  48  1   
 40  17  20  ar  
 41  18  19  1   
 42  18  21  ar  
 43  19  49  1   
 44  19  50  1   
 45  20  22  ar  
 46  20  23  1   
 47  21  22  ar  
 48  21  51  1   
 49  23  24  ar  
 50  23  25  ar  
 51  24  26  ar  
 52  24  52  1   
 53  25  27  ar  
 54  25  53  1   
 55  26  28  ar  
 56  26  54  1   
 57  27  28  ar  
 58  27  55  1   
 59  28  56  1   
@<TRIPOS>SUBSTRUCTURE
  1 ****   6 GROUP 4 **** **** 0

# MOE 2024.06 (io_trps.svl 2023.06)
