@<TRIPOS>MOLECULE
NONAME
61 65 1 0 0 
SMALL
USER_CHARGES


@<TRIPOS>ATOM
  1 O        0.3860     1.1150     1.2470 O.2   1 <1>  -0.5700 
  2 C        0.5240     1.9690     0.4010 C.2   1 <1>   0.5690 
  3 N        1.7880     2.3400    -0.0130 N.am  1 <1>  -0.6600 
  4 C       -0.7700     2.5410    -0.1870 C.3   1 <1>   0.0440 
  5 C        2.1090     3.5130    -0.8780 C.3   1 <1>   0.1400 
  6 C        2.9730     1.6880     0.6340 C.3   1 <1>   0.1400 
  7 C       -0.9130     4.0640    -0.1950 C.ar  1 <1>  -0.1440 
  8 C        3.0660     4.4350    -0.1130 C.3   1 <1>  -0.0800 
  9 C        4.3020     2.1930     0.0480 C.3   1 <1>  -0.1600 
 10 C       -1.4680     4.6930    -1.3010 C.ar  1 <1>  -0.1500 
 11 C       -0.4540     4.8350     0.8630 C.ar  1 <1>  -0.1500 
 12 C        4.4200     3.7250     0.1590 C.3   1 <1>   0.2800 
 13 C        3.1990     5.7620    -0.8700 C.3   1 <1>   0.1400 
 14 C       -1.5180     6.0730    -1.3700 C.ar  1 <1>  -0.1500 
 15 C       -0.5000     6.2170     0.7950 C.ar  1 <1>  -0.1500 
 16 O        4.7870     3.9880     1.4660 O.3   1 <1>  -0.6800 
 17 C        5.5340     4.2860    -0.7440 C.3   1 <1>  -0.1600 
 18 N        4.3970     6.5060    -0.4110 N.am  1 <1>  -0.6600 
 19 C       -1.0110     6.8450    -0.3380 C.ar  1 <1>   0.0820 
 20 C        5.7030     5.8130    -0.6100 C.3   1 <1>   0.1400 
 21 C        4.2620     7.5130     0.5060 C.2   1 <1>   0.5690 
 22 O       -1.0180     8.1910    -0.5120 O.3   1 <1>  -0.3630 
 23 O        3.3170     7.5580     1.2600 O.2   1 <1>  -0.5700 
 24 C        5.3060     8.6260     0.5240 C.3   1 <1>  -0.0990 
 25 C       -0.0800     8.9850     0.1850 C.3   1 <1>   0.1200 
 26 C        4.8520     9.9610     1.1540 C.3   1 <1>   0.0210 
 27 C        0.2820    10.2090    -0.6630 C.3   1 <1>   0.0960 
 28 C        3.5090    10.4840     0.6650 C.2   1 <1>   0.0460 
 29 N        1.5840    10.6990    -0.1910 N.pl3 1 <1>   0.3140 
 30 N        2.8890    11.4920     1.2880 N.2   1 <1>  -0.2270 
 31 C        2.7210    10.0190    -0.3140 C.2   1 <1>  -0.3020 
 32 N        1.7110    11.6080     0.7780 N.2   1 <1>  -0.4180 
 33 H       -0.8500     2.1670    -1.1890 H     1 <1>   0.0800 
 34 H       -1.5970     2.1360     0.3670 H     1 <1>   0.0800 
 35 H        2.5740     3.1660    -1.7850 H     1 <1>   0.0800 
 36 H        1.2380     4.0560    -1.1700 H     1 <1>   0.0800 
 37 H        2.9450     1.9000     1.6900 H     1 <1>   0.0800 
 38 H        2.8990     0.6210     0.5090 H     1 <1>   0.0800 
 39 H        2.5950     4.6650     0.8290 H     1 <1>   0.0800 
 40 H        4.3460     1.8930    -0.9840 H     1 <1>   0.0800 
 41 H        5.1250     1.7140     0.5460 H     1 <1>   0.0800 
 42 H       -1.8540     4.1130    -2.1210 H     1 <1>   0.1500 
 43 H       -0.0400     4.3650     1.7390 H     1 <1>   0.1500 
 44 H        2.3120     6.3540    -0.7160 H     1 <1>   0.0800 
 45 H        3.2960     5.5810    -1.9270 H     1 <1>   0.0800 
 46 H       -1.9390     6.5610    -2.2300 H     1 <1>   0.1500 
 47 H       -0.1270     6.7870     1.6270 H     1 <1>   0.1500 
 48 H        5.6050     3.5130     1.6900 H     1 <1>   0.4000 
 49 H        6.4690     3.7990    -0.5320 H     1 <1>   0.0800 
 50 H        5.2940     4.0620    -1.7680 H     1 <1>   0.0800 
 51 H        6.1900     6.2070    -1.4860 H     1 <1>   0.0800 
 52 H        6.3300     6.0100     0.2430 H     1 <1>   0.0800 
 53 H        6.1680     8.2720     1.0560 H     1 <1>   0.0800 
 54 H        5.5980     8.8190    -0.4920 H     1 <1>   0.0800 
 55 H       -0.5100     9.2760     1.1270 H     1 <1>   0.0800 
 56 H        0.8010     8.3890     0.3560 H     1 <1>   0.0800 
 57 H        5.6000    10.7150     0.9870 H     1 <1>   0.0800 
 58 H        4.7680     9.8160     2.2170 H     1 <1>   0.0800 
 59 H       -0.4530    10.9840    -0.5480 H     1 <1>   0.0800 
 60 H        0.3760     9.9360    -1.6970 H     1 <1>   0.0800 
 61 H        2.8610     9.2220    -1.0170 H     1 <1>   0.1500 
@<TRIPOS>BOND
  1   1   2  2   
  2   2   3  am  
  3   2   4  1   
  4   3   5  1   
  5   3   6  1   
  6   4   7  1   
  7   4  33  1   
  8   4  34  1   
  9   5   8  1   
 10   5  35  1   
 11   5  36  1   
 12   6   9  1   
 13   6  37  1   
 14   6  38  1   
 15   7  10  ar  
 16   7  11  ar  
 17   8  12  1   
 18   8  13  1   
 19   8  39  1   
 20   9  12  1   
 21   9  40  1   
 22   9  41  1   
 23  10  14  ar  
 24  10  42  1   
 25  11  15  ar  
 26  11  43  1   
 27  12  16  1   
 28  12  17  1   
 29  13  18  1   
 30  13  44  1   
 31  13  45  1   
 32  14  19  ar  
 33  14  46  1   
 34  15  19  ar  
 35  15  47  1   
 36  16  48  1   
 37  17  20  1   
 38  17  49  1   
 39  17  50  1   
 40  18  20  1   
 41  18  21  am  
 42  19  22  1   
 43  20  51  1   
 44  20  52  1   
 45  21  23  2   
 46  21  24  1   
 47  22  25  1   
 48  24  26  1   
 49  24  53  1   
 50  24  54  1   
 51  25  27  1   
 52  25  55  1   
 53  25  56  1   
 54  26  28  1   
 55  26  57  1   
 56  26  58  1   
 57  27  29  1   
 58  27  59  1   
 59  27  60  1   
 60  28  30  1   
 61  28  31  2   
 62  29  31  1   
 63  29  32  1   
 64  30  32  2   
 65  31  61  1   
@<TRIPOS>SUBSTRUCTURE
  1 ****  13 GROUP 4 **** **** 0

# MOE 2024.06 (io_trps.svl 2023.06)
