@<TRIPOS>MOLECULE
NONAME
48 50 1 0 0 
SMALL
USER_CHARGES


@<TRIPOS>ATOM
  1 O        0.3950    -0.4110    -0.4610 O.3   1 <1>  -0.5600 
  2 C        1.6040    -1.0860    -0.7150 C.3   1 <1>   0.2000 
  3 C        0.3870     0.9500    -0.7700 C.3   1 <1>   0.1200 
  4 C        2.7920    -0.4020     0.0160 C.3   1 <1>   0.5660 
  5 C        1.4550    -2.5440    -0.2500 C.3   1 <1>   0.1200 
  6 C        1.4540     1.6850     0.0600 C.3   1 <1>   0.3430 
  7 N        2.8160     1.0880    -0.1430 N.4   1 <1>  -0.9590 
  8 C        4.1300    -0.9430    -0.4720 C.ar  1 <1>  -0.1440 
  9 O        1.5190    -2.6130     1.1400 O.3   1 <1>  -0.6800 
 10 C        3.8430     1.7000     0.7380 C.3   1 <1>   0.5240 
 11 C        4.9420    -1.6250     0.4230 C.ar  1 <1>  -0.1500 
 12 C        4.5610    -0.7660    -1.7830 C.ar  1 <1>  -0.1500 
 13 C        4.0230     3.1400     0.3160 C.2   1 <1>  -0.1810 
 14 C        6.1740    -2.1170     0.0290 C.ar  1 <1>   0.0820 
 15 C        5.7980    -1.2460    -2.1790 C.ar  1 <1>  -0.1500 
 16 C        4.8500     3.6330    -0.6320 C.2   1 <1>  -0.0100 
 17 C        3.3530     4.2550     0.8460 C.2   1 <1>  -0.1500 
 18 O        6.8910    -2.7890     0.9600 O.3   1 <1>  -0.3630 
 19 C        6.6180    -1.9040    -1.2800 C.ar  1 <1>   0.0820 
 20 O        4.7200     4.9390    -0.7260 O.3   1 <1>  -0.2800 
 21 C        3.8260     5.3190     0.1630 C.2   1 <1>  -0.0100 
 22 C        7.1490    -4.1540     0.7030 C.3   1 <1>   0.0400 
 23 O        7.8280    -2.3150    -1.7290 O.3   1 <1>  -0.3630 
 24 C        8.9640    -1.7150    -1.1440 C.3   1 <1>   0.0400 
 25 H        1.7590    -1.0770    -1.7790 H     1 <1>   0.0800 
 26 H        0.5560     1.0720    -1.8260 H     1 <1>   0.0800 
 27 H       -0.5910     1.3310    -0.5340 H     1 <1>   0.0800 
 28 H        2.6930    -0.6340     1.0640 H     1 <1>   0.0800 
 29 H        2.2510    -3.1530    -0.6460 H     1 <1>   0.0800 
 30 H        0.5100    -2.9430    -0.5760 H     1 <1>   0.0800 
 31 H        1.1760     1.6220     1.0990 H     1 <1>   0.0800 
 32 H        1.4640     2.7260    -0.2190 H     1 <1>   0.0800 
 33 H        3.1150     1.2800    -1.1020 H     1 <1>   0.4500 
 34 H        1.1910    -3.4820     1.4580 H     1 <1>   0.4000 
 35 H        3.5440     1.6450     1.7720 H     1 <1>   0.0800 
 36 H        4.7840     1.1840     0.6260 H     1 <1>   0.0800 
 37 H        4.6300    -1.7990     1.4390 H     1 <1>   0.1500 
 38 H        3.9550    -0.2610    -2.5150 H     1 <1>   0.1500 
 39 H        6.1410    -1.1130    -3.1910 H     1 <1>   0.1500 
 40 H        5.5570     3.1460    -1.2840 H     1 <1>   0.1500 
 41 H        2.6240     4.2560     1.6380 H     1 <1>   0.1500 
 42 H        3.5910     6.3680     0.2440 H     1 <1>   0.1500 
 43 H        7.6180    -4.5770     1.5730 H     1 <1>   0.0800 
 44 H        7.8050    -4.2430    -0.1440 H     1 <1>   0.0800 
 45 H        6.2170    -4.6540     0.5070 H     1 <1>   0.0800 
 46 H        9.8360    -2.0780    -1.6580 H     1 <1>   0.0800 
 47 H        9.0170    -1.9820    -0.1040 H     1 <1>   0.0800 
 48 H        8.8910    -0.6480    -1.2550 H     1 <1>   0.0800 
@<TRIPOS>BOND
  1   1   2  1   
  2   1   3  1   
  3   2   4  1   
  4   2   5  1   
  5   2  25  1   
  6   3   6  1   
  7   3  26  1   
  8   3  27  1   
  9   4   7  1   
 10   4   8  1   
 11   4  28  1   
 12   5   9  1   
 13   5  29  1   
 14   5  30  1   
 15   6   7  1   
 16   6  31  1   
 17   6  32  1   
 18   7  10  1   
 19   7  33  1   
 20   8  11  ar  
 21   8  12  ar  
 22   9  34  1   
 23  10  13  1   
 24  10  35  1   
 25  10  36  1   
 26  11  14  ar  
 27  11  37  1   
 28  12  15  ar  
 29  12  38  1   
 30  13  16  2   
 31  13  17  1   
 32  14  18  1   
 33  14  19  ar  
 34  15  19  ar  
 35  15  39  1   
 36  16  20  1   
 37  16  40  1   
 38  17  21  2   
 39  17  41  1   
 40  18  22  1   
 41  19  23  1   
 42  20  21  1   
 43  21  42  1   
 44  22  43  1   
 45  22  44  1   
 46  22  45  1   
 47  23  24  1   
 48  24  46  1   
 49  24  47  1   
 50  24  48  1   
@<TRIPOS>SUBSTRUCTURE
  1 ****   8 GROUP 4 **** **** 0

# MOE 2024.06 (io_trps.svl 2023.06)
