@<TRIPOS>MOLECULE
NONAME
47 50 1 0 0 
SMALL
USER_CHARGES


@<TRIPOS>ATOM
  1 O       -0.8490    -2.0430    -1.8250 O.2   1 <1>  -0.5700 
  2 C        0.2520    -2.2690    -1.3730 C.2   1 <1>   0.6900 
  3 N        0.5180    -2.6090    -0.0870 N.am  1 <1>  -0.6600 
  4 N        1.3810    -2.2660    -2.1130 N.am  1 <1>  -0.4900 
  5 C        1.9660    -2.9460     0.0380 C.3   1 <1>   0.2010 
  6 C       -0.4870    -3.0190     0.9390 C.3   1 <1>   0.2010 
  7 C        2.4440    -2.6560    -1.3770 C.2   1 <1>   0.5690 
  8 C       -0.6600    -4.5380     1.0260 C.2   1 <1>   0.5690 
  9 O        3.5730    -2.7590    -1.7800 O.2   1 <1>  -0.5700 
 10 O        0.0270    -5.1360     1.8210 O.2   1 <1>  -0.5700 
 11 N       -1.5480    -5.2010     0.2210 N.am  1 <1>  -0.6600 
 12 C       -2.3930    -4.6130    -0.8530 C.3   1 <1>   0.1400 
 13 C       -1.7200    -6.6750     0.2580 C.3   1 <1>   0.1400 
 14 C       -3.4250    -5.6980    -1.1520 C.3   1 <1>   0.2000 
 15 C       -2.6530    -7.0030    -0.9170 C.3   1 <1>  -0.0800 
 16 O       -4.4490    -5.5880    -0.2210 O.3   1 <1>  -0.6800 
 17 C       -3.5430    -8.2430    -0.6910 C.3   1 <1>  -0.0170 
 18 C       -2.8300    -9.5980    -0.5970 C.ar  1 <1>  -0.1440 
 19 C       -3.5570   -10.7460    -0.1920 C.ar  1 <1>   0.0000 
 20 C       -1.5080    -9.7800    -0.8980 C.ar  1 <1>  -0.1500 
 21 C       -2.8630   -11.9770    -0.1010 C.ar  1 <1>   0.3100 
 22 C       -4.9370   -10.7460     0.1240 C.ar  1 <1>  -0.1500 
 23 C       -0.9190   -11.0450    -0.7800 C.ar  1 <1>   0.1600 
 24 N       -1.5460   -12.1090    -0.3980 N.ar  1 <1>  -0.6200 
 25 C       -3.5590   -13.1260     0.3080 C.ar  1 <1>  -0.1500 
 26 C       -5.5870   -11.8850     0.5170 C.ar  1 <1>  -0.1500 
 27 C       -4.8910   -13.0910     0.6140 C.ar  1 <1>  -0.1500 
 28 H        1.4060    -2.0270    -3.0970 H     1 <1>   0.3700 
 29 H        2.4540    -2.3050     0.7500 H     1 <1>   0.0800 
 30 H        2.1080    -3.9830     0.2860 H     1 <1>   0.0800 
 31 H       -0.1690    -2.6570     1.9000 H     1 <1>   0.0800 
 32 H       -1.4320    -2.5610     0.7160 H     1 <1>   0.0800 
 33 H       -2.8610    -3.6910    -0.5560 H     1 <1>   0.0800 
 34 H       -1.7860    -4.4450    -1.7250 H     1 <1>   0.0800 
 35 H       -0.7670    -7.1680     0.1680 H     1 <1>   0.0800 
 36 H       -2.1710    -6.9520     1.1970 H     1 <1>   0.0800 
 37 H       -3.8490    -5.6190    -2.1390 H     1 <1>   0.0800 
 38 H       -2.0480    -7.1640    -1.7920 H     1 <1>   0.0800 
 39 H       -4.0540    -5.5030     0.6700 H     1 <1>   0.4000 
 40 H       -4.2590    -8.2990    -1.4930 H     1 <1>   0.0800 
 41 H       -4.0950    -8.0940     0.2210 H     1 <1>   0.0800 
 42 H       -0.8710    -8.9860    -1.2320 H     1 <1>   0.1500 
 43 H       -5.5000    -9.8350     0.0530 H     1 <1>   0.1500 
 44 H        0.1260   -11.1370    -1.0240 H     1 <1>   0.1500 
 45 H       -3.0020   -14.0430     0.3710 H     1 <1>   0.1500 
 46 H       -6.6370   -11.8660     0.7550 H     1 <1>   0.1500 
 47 H       -5.4120   -13.9800     0.9260 H     1 <1>   0.1500 
@<TRIPOS>BOND
  1   1   2  2   
  2   2   3  am  
  3   2   4  am  
  4   3   5  1   
  5   3   6  1   
  6   4   7  am  
  7   4  28  1   
  8   5   7  1   
  9   5  29  1   
 10   5  30  1   
 11   6   8  1   
 12   6  31  1   
 13   6  32  1   
 14   7   9  2   
 15   8  10  2   
 16   8  11  am  
 17  11  12  1   
 18  11  13  1   
 19  12  14  1   
 20  12  33  1   
 21  12  34  1   
 22  13  15  1   
 23  13  35  1   
 24  13  36  1   
 25  14  15  1   
 26  14  16  1   
 27  14  37  1   
 28  15  17  1   
 29  15  38  1   
 30  16  39  1   
 31  17  18  1   
 32  17  40  1   
 33  17  41  1   
 34  18  19  ar  
 35  18  20  ar  
 36  19  21  ar  
 37  19  22  ar  
 38  20  23  ar  
 39  20  42  1   
 40  21  24  ar  
 41  21  25  ar  
 42  22  26  ar  
 43  22  43  1   
 44  23  24  ar  
 45  23  44  1   
 46  25  27  ar  
 47  25  45  1   
 48  26  27  ar  
 49  26  46  1   
 50  27  47  1   
@<TRIPOS>SUBSTRUCTURE
  1 ****  13 GROUP 4 **** **** 0

# MOE 2024.06 (io_trps.svl 2023.06)
