@<TRIPOS>MOLECULE
NONAME
51 53 1 0 0 
SMALL
USER_CHARGES


@<TRIPOS>ATOM
  1 CL      -0.3810    -2.2150    -2.6390 Cl    1 <1>  -0.1770 
  2 C       -1.8030    -1.9950    -1.6410 C.ar  1 <1>   0.1770 
  3 C       -1.8760    -1.0310    -0.6330 C.ar  1 <1>   0.0820 
  4 C       -2.8630    -2.8530    -1.8740 C.ar  1 <1>  -0.1500 
  5 O       -0.8990    -0.1390    -0.3270 O.3   1 <1>  -0.3630 
  6 C       -3.0240    -0.9650     0.1420 C.ar  1 <1>  -0.1500 
  7 C       -4.0090    -2.7760    -1.0950 C.ar  1 <1>  -0.1440 
  8 C       -0.2270     0.5650    -1.3490 C.3   1 <1>   0.0400 
  9 C       -4.0840    -1.8250    -0.0860 C.ar  1 <1>  -0.1500 
 10 C       -5.1560    -3.7400    -1.3520 C.3   1 <1>   0.4870 
 11 N       -5.2080    -4.7620    -0.2690 N.4   1 <1>  -0.9590 
 12 C       -3.9250    -5.5690    -0.2960 C.3   1 <1>   0.3430 
 13 C       -6.4680    -5.5560    -0.4510 C.3   1 <1>   0.3430 
 14 C       -4.0990    -7.0270    -0.7050 C.3   1 <1>  -0.1060 
 15 C       -6.4690    -6.8770     0.3190 C.3   1 <1>  -0.1600 
 16 C       -4.6040    -7.0020    -2.1340 C.2   1 <1>   0.9060 
 17 C       -5.1270    -7.6290     0.2790 C.3   1 <1>   0.2000 
 18 C       -2.7480    -7.7900    -0.7550 C.3   1 <1>  -0.0170 
 19 O       -4.1340    -6.1520    -2.8990 O.co2 1 <1>  -0.9000 
 20 O       -5.5470    -7.7240    -2.4570 O.co2 1 <1>  -0.9000 
 21 O       -4.6250    -7.5420     1.5700 O.3   1 <1>  -0.6800 
 22 C       -1.9560    -7.8240     0.5470 C.ar  1 <1>  -0.1440 
 23 C       -1.1650    -6.7480     0.9200 C.ar  1 <1>  -0.1500 
 24 C       -2.0150    -8.9410     1.3680 C.ar  1 <1>  -0.1500 
 25 C       -0.4640    -6.7760     2.1120 C.ar  1 <1>  -0.1500 
 26 C       -1.3150    -8.9690     2.5610 C.ar  1 <1>  -0.1500 
 27 C       -0.5420    -7.8850     2.9360 C.ar  1 <1>  -0.1500 
 28 H       -2.7820    -3.5870    -2.6620 H     1 <1>   0.1500 
 29 H       -3.0790    -0.2280     0.9250 H     1 <1>   0.1500 
 30 H        0.0830     1.5140    -0.9520 H     1 <1>   0.0800 
 31 H       -0.8930     0.7150    -2.1810 H     1 <1>   0.0800 
 32 H        0.6390     0.0030    -1.6490 H     1 <1>   0.0800 
 33 H       -4.9640    -1.7410     0.5290 H     1 <1>   0.1500 
 34 H       -5.0210    -4.2200    -2.3090 H     1 <1>   0.0800 
 35 H       -6.0810    -3.1890    -1.3850 H     1 <1>   0.0800 
 36 H       -5.2380    -4.2890     0.6370 H     1 <1>   0.4500 
 37 H       -3.2170    -5.1190    -0.9710 H     1 <1>   0.0800 
 38 H       -3.4880    -5.5500     0.6890 H     1 <1>   0.0800 
 39 H       -7.3240    -4.9700    -0.1620 H     1 <1>   0.0800 
 40 H       -6.5810    -5.7930    -1.4990 H     1 <1>   0.0800 
 41 H       -7.2070    -7.5040    -0.1480 H     1 <1>   0.0800 
 42 H       -6.7960    -6.7110     1.3300 H     1 <1>   0.0800 
 43 H       -5.2930    -8.6710     0.0570 H     1 <1>   0.0800 
 44 H       -2.9380    -8.7990    -1.0800 H     1 <1>   0.0800 
 45 H       -2.1230    -7.3450    -1.5120 H     1 <1>   0.0800 
 46 H       -3.7120    -7.9130     1.6010 H     1 <1>   0.4000 
 47 H       -1.0810    -5.8840     0.2830 H     1 <1>   0.1500 
 48 H       -2.6070    -9.7960     1.0850 H     1 <1>   0.1500 
 49 H        0.1470    -5.9370     2.3990 H     1 <1>   0.1500 
 50 H       -1.3690    -9.8360     3.1980 H     1 <1>   0.1500 
 51 H        0.0030    -7.9060     3.8640 H     1 <1>   0.1500 
@<TRIPOS>BOND
  1   1   2  1   
  2   2   3  ar  
  3   2   4  ar  
  4   3   5  1   
  5   3   6  ar  
  6   4   7  ar  
  7   4  28  1   
  8   5   8  1   
  9   6   9  ar  
 10   6  29  1   
 11   7   9  ar  
 12   7  10  1   
 13   8  30  1   
 14   8  31  1   
 15   8  32  1   
 16   9  33  1   
 17  10  11  1   
 18  10  34  1   
 19  10  35  1   
 20  11  12  1   
 21  11  13  1   
 22  11  36  1   
 23  12  14  1   
 24  12  37  1   
 25  12  38  1   
 26  13  15  1   
 27  13  39  1   
 28  13  40  1   
 29  14  16  1   
 30  14  17  1   
 31  14  18  1   
 32  15  17  1   
 33  15  41  1   
 34  15  42  1   
 35  16  19  ar  
 36  16  20  ar  
 37  17  21  1   
 38  17  43  1   
 39  18  22  1   
 40  18  44  1   
 41  18  45  1   
 42  21  46  1   
 43  22  23  ar  
 44  22  24  ar  
 45  23  25  ar  
 46  23  47  1   
 47  24  26  ar  
 48  24  48  1   
 49  25  27  ar  
 50  25  49  1   
 51  26  27  ar  
 52  26  50  1   
 53  27  51  1   
@<TRIPOS>SUBSTRUCTURE
  1 ****  12 GROUP 4 **** **** 0

# MOE 2024.06 (io_trps.svl 2023.06)
