@<TRIPOS>MOLECULE
NONAME
50 52 1 0 0 
SMALL
USER_CHARGES


@<TRIPOS>ATOM
  1 CL      -2.2770     2.3080     0.4940 Cl    1 <1>  -0.1770 
  2 C       -1.0970     3.5880     0.6700 C.ar  1 <1>   0.1770 
  3 C       -0.1770     3.8380    -0.3390 C.ar  1 <1>  -0.1440 
  4 C       -1.1130     4.3340     1.8350 C.ar  1 <1>  -0.1500 
  5 C        0.7430     4.8620    -0.1630 C.ar  1 <1>  -0.1500 
  6 C       -0.1740     3.0090    -1.6160 C.3   1 <1>  -0.0960 
  7 C       -0.1910     5.3520     2.0000 C.ar  1 <1>  -0.1500 
  8 C        0.7390     5.6210     1.0070 C.ar  1 <1>   0.0830 
  9 O        1.6070     6.6340     1.2510 O.3   1 <1>  -0.3630 
 10 C        2.6390     6.9590     0.3390 C.3   1 <1>   0.1200 
 11 C        3.4590     8.1260     0.9000 C.3   1 <1>   0.2000 
 12 O        2.5940     9.1700     1.2230 O.3   1 <1>  -0.6800 
 13 C        4.5270     8.6170    -0.0950 C.3   1 <1>   0.2090 
 14 N        5.1420     9.8780     0.3820 N.pl3 1 <1>  -0.8690 
 15 C        5.7070    10.7330    -0.5230 C.ar  1 <1>   0.4100 
 16 N        5.1430    11.9190    -0.5550 N.ar  1 <1>  -0.6200 
 17 C        6.7860    10.3730    -1.3420 C.ar  1 <1>   0.1600 
 18 C        5.6860    12.7610    -1.4530 C.ar  1 <1>   0.3960 
 19 N        7.3410    11.1610    -2.2390 N.ar  1 <1>  -0.6200 
 20 C        5.1780    14.1280    -1.6300 C.2   1 <1>   0.5440 
 21 C        6.7550    12.3520    -2.2620 C.ar  1 <1>   0.1600 
 22 O        5.4290    14.7140    -2.6720 O.2   1 <1>  -0.5700 
 23 N        4.4390    14.8300    -0.6900 N.am  1 <1>  -0.6600 
 24 C        4.0460    16.2440    -0.8810 C.3   1 <1>   0.1400 
 25 C        4.0290    14.3530     0.6520 C.3   1 <1>   0.1400 
 26 C        3.7160    16.7480     0.5170 C.3   1 <1>  -0.1600 
 27 C        3.2440    15.5070     1.2680 C.3   1 <1>  -0.1600 
 28 H       -1.8380     4.1160     2.5980 H     1 <1>   0.1500 
 29 H        1.4520     5.0560    -0.9430 H     1 <1>   0.1500 
 30 H       -1.1220     3.1010    -2.1150 H     1 <1>   0.0800 
 31 H       -0.0080     1.9730    -1.3800 H     1 <1>   0.0800 
 32 H        0.5980     3.3330    -2.2890 H     1 <1>   0.0800 
 33 H       -0.1880     5.9410     2.8990 H     1 <1>   0.1500 
 34 H        2.1900     7.2360    -0.5990 H     1 <1>   0.0800 
 35 H        3.2620     6.0920     0.2080 H     1 <1>   0.0800 
 36 H        3.9450     7.8120     1.8080 H     1 <1>   0.0800 
 37 H        1.8210     8.7960     1.6980 H     1 <1>   0.4000 
 38 H        4.0700     8.7840    -1.0560 H     1 <1>   0.0800 
 39 H        5.2900     7.8670    -0.2060 H     1 <1>   0.0800 
 40 H        4.4220    10.3790     0.9250 H     1 <1>   0.4000 
 41 H        7.1890     9.3850    -1.2270 H     1 <1>   0.1500 
 42 H        7.1510    13.0590    -2.9710 H     1 <1>   0.1500 
 43 H        3.1770    16.2810    -1.5150 H     1 <1>   0.0800 
 44 H        4.8440    16.8120    -1.3300 H     1 <1>   0.0800 
 45 H        4.9080    14.1350     1.2360 H     1 <1>   0.0800 
 46 H        3.4150    13.4720     0.5760 H     1 <1>   0.0800 
 47 H        2.9720    17.5250     0.4970 H     1 <1>   0.0800 
 48 H        4.6140    17.1310     0.9700 H     1 <1>   0.0800 
 49 H        3.4090    15.5800     2.3280 H     1 <1>   0.0800 
 50 H        2.1960    15.3470     1.0870 H     1 <1>   0.0800 
@<TRIPOS>BOND
  1   1   2  1   
  2   2   3  ar  
  3   2   4  ar  
  4   3   5  ar  
  5   3   6  1   
  6   4   7  ar  
  7   4  28  1   
  8   5   8  ar  
  9   5  29  1   
 10   6  30  1   
 11   6  31  1   
 12   6  32  1   
 13   7   8  ar  
 14   7  33  1   
 15   8   9  1   
 16   9  10  1   
 17  10  11  1   
 18  10  34  1   
 19  10  35  1   
 20  11  12  1   
 21  11  13  1   
 22  11  36  1   
 23  12  37  1   
 24  13  14  1   
 25  13  38  1   
 26  13  39  1   
 27  14  15  1   
 28  14  40  1   
 29  15  16  ar  
 30  15  17  ar  
 31  16  18  ar  
 32  17  19  ar  
 33  17  41  1   
 34  18  20  1   
 35  18  21  ar  
 36  19  21  ar  
 37  20  22  2   
 38  20  23  am  
 39  21  42  1   
 40  23  24  1   
 41  23  25  1   
 42  24  26  1   
 43  24  43  1   
 44  24  44  1   
 45  25  27  1   
 46  25  45  1   
 47  25  46  1   
 48  26  27  1   
 49  26  47  1   
 50  26  48  1   
 51  27  49  1   
 52  27  50  1   
@<TRIPOS>SUBSTRUCTURE
  1 ****  12 GROUP 4 **** **** 0

# MOE 2024.06 (io_trps.svl 2023.06)
