@<TRIPOS>MOLECULE
NONAME
46 48 1 0 0 
SMALL
USER_CHARGES


@<TRIPOS>ATOM
  1 F       -2.2130    -0.8480     0.5050 F     1 <1>  -0.1900 
  2 C       -2.1780    -2.1340     0.2610 C.ar  1 <1>   0.1900 
  3 C       -1.1140    -2.9400     0.6780 C.ar  1 <1>   0.0830 
  4 C       -3.2490    -2.6560    -0.4370 C.ar  1 <1>  -0.1500 
  5 O       -0.0080    -2.5460     1.3720 O.3   1 <1>  -0.3630 
  6 C       -1.1690    -4.2890     0.3650 C.ar  1 <1>  -0.1500 
  7 C       -3.2710    -4.0070    -0.7320 C.ar  1 <1>  -0.1500 
  8 C        0.1760    -1.2290     1.8430 C.3   1 <1>   0.0400 
  9 C       -2.2350    -4.8570    -0.3380 C.ar  1 <1>   0.0530 
 10 C       -2.2500    -6.2700    -0.6430 C.2   1 <1>   0.0870 
 11 O       -1.1400    -6.9720    -0.5600 O.3   1 <1>  -0.0190 
 12 C       -3.2250    -7.1400    -1.0130 C.2   1 <1>  -0.2330 
 13 N       -1.3110    -8.2380    -0.8480 N.2   1 <1>  -0.4100 
 14 C       -2.5510    -8.3490    -1.1490 C.2   1 <1>   0.3720 
 15 C       -4.6400    -7.0420    -1.1370 C.2   1 <1>   1.0330 
 16 N       -3.1630    -9.5400    -1.5150 N.pl3 1 <1>  -0.8520 
 17 O       -5.3120    -6.3970    -0.3230 O.co2 1 <1>  -0.9000 
 18 O       -5.2700    -7.8270    -1.8740 O.co2 1 <1>  -0.9000 
 19 C       -3.3780   -10.5000    -0.4010 C.3   1 <1>   0.2090 
 20 C       -4.3870    -9.9910     0.6570 C.3   1 <1>   0.3430 
 21 N       -5.7330    -9.6310     0.1030 N.4   1 <1>  -0.9590 
 22 C       -6.5400    -8.7780     1.0340 C.3   1 <1>   0.3430 
 23 C       -6.5220   -10.7300    -0.5420 C.3   1 <1>   0.3430 
 24 C       -7.9320    -8.5220     0.4330 C.3   1 <1>   0.1200 
 25 C       -7.9190   -10.9150     0.0870 C.3   1 <1>   0.1200 
 26 O       -8.6450    -9.7150     0.1830 O.3   1 <1>  -0.5600 
 27 H       -4.0560    -2.0160    -0.7440 H     1 <1>   0.1500 
 28 H       -0.3530    -4.9120     0.6830 H     1 <1>   0.1500 
 29 H       -4.1110    -4.4020    -1.2750 H     1 <1>   0.1500 
 30 H        1.1000    -1.1960     2.3920 H     1 <1>   0.0800 
 31 H       -0.6430    -0.9720     2.4920 H     1 <1>   0.0800 
 32 H        0.2280    -0.5610     1.0020 H     1 <1>   0.0800 
 33 H       -4.0510    -9.2780    -1.9860 H     1 <1>   0.4000 
 34 H       -2.4310   -10.6800     0.0800 H     1 <1>   0.0800 
 35 H       -3.7140   -11.4380    -0.8070 H     1 <1>   0.0800 
 36 H       -3.9560    -9.1180     1.1210 H     1 <1>   0.0800 
 37 H       -4.5030   -10.7410     1.4210 H     1 <1>   0.0800 
 38 H       -5.5610    -8.9600    -0.6880 H     1 <1>   0.4500 
 39 H       -6.0440    -7.8350     1.1930 H     1 <1>   0.0800 
 40 H       -6.6540    -9.2650     1.9870 H     1 <1>   0.0800 
 41 H       -5.9800   -11.6580    -0.4840 H     1 <1>   0.0800 
 42 H       -6.6530   -10.4940    -1.5860 H     1 <1>   0.0800 
 43 H       -7.8270    -7.9890    -0.4980 H     1 <1>   0.0800 
 44 H       -8.5220    -7.9190     1.1000 H     1 <1>   0.0800 
 45 H       -7.8240   -11.3210     1.0790 H     1 <1>   0.0800 
 46 H       -8.5030   -11.6000    -0.5020 H     1 <1>   0.0800 
@<TRIPOS>BOND
  1   1   2  1   
  2   2   3  ar  
  3   2   4  ar  
  4   3   5  1   
  5   3   6  ar  
  6   4   7  ar  
  7   4  27  1   
  8   5   8  1   
  9   6   9  ar  
 10   6  28  1   
 11   7   9  ar  
 12   7  29  1   
 13   8  30  1   
 14   8  31  1   
 15   8  32  1   
 16   9  10  1   
 17  10  11  1   
 18  10  12  2   
 19  11  13  1   
 20  12  14  1   
 21  12  15  1   
 22  13  14  2   
 23  14  16  1   
 24  15  17  ar  
 25  15  18  ar  
 26  16  19  1   
 27  16  33  1   
 28  19  20  1   
 29  19  34  1   
 30  19  35  1   
 31  20  21  1   
 32  20  36  1   
 33  20  37  1   
 34  21  22  1   
 35  21  23  1   
 36  21  38  1   
 37  22  24  1   
 38  22  39  1   
 39  22  40  1   
 40  23  25  1   
 41  23  41  1   
 42  23  42  1   
 43  24  26  1   
 44  24  43  1   
 45  24  44  1   
 46  25  26  1   
 47  25  45  1   
 48  25  46  1   
@<TRIPOS>SUBSTRUCTURE
  1 ****  12 GROUP 4 **** **** 0

# MOE 2024.06 (io_trps.svl 2023.06)
