@<TRIPOS>MOLECULE
NONAME
55 58 1 0 0 
SMALL
USER_CHARGES


@<TRIPOS>ATOM
  1 S       -0.5040    -0.5500    -1.7440 S.3   1 <1>  -0.0800 
  2 C       -1.8020    -0.8560    -0.6140 C.2   1 <1>  -0.1100 
  3 C       -1.0280    -1.8750    -2.7610 C.2   1 <1>  -0.1100 
  4 C       -2.5870    -1.8910    -1.0060 C.2   1 <1>  -0.0860 
  5 C       -2.1160    -2.4680    -2.2390 C.2   1 <1>  -0.1500 
  6 C       -3.7500    -2.4170    -0.3160 C.2   1 <1>   0.7160 
  7 O       -3.9630    -3.6140    -0.3360 O.2   1 <1>  -0.5700 
  8 N       -4.6300    -1.5950     0.3580 N.am  1 <1>  -0.6600 
  9 C       -4.8640    -0.1670     0.0140 C.3   1 <1>   0.1400 
 10 C       -5.5580    -2.1270     1.3940 C.3   1 <1>   0.1400 
 11 C       -6.3110     0.0110    -0.4570 C.3   1 <1>  -0.1600 
 12 C       -7.0060    -1.9530     0.9280 C.3   1 <1>  -0.1600 
 13 C       -7.3360    -0.4910     0.5830 C.3   1 <1>   0.2800 
 14 O       -7.1820     0.2240     1.7790 O.3   1 <1>  -0.5600 
 15 C       -8.7980    -0.3780     0.0740 C.3   1 <1>  -0.1600 
 16 C       -7.4640     1.6000     1.7910 C.3   1 <1>   0.1200 
 17 C       -9.6470     0.6970     0.7790 C.3   1 <1>   0.3000 
 18 C       -8.7400     1.9350     1.0010 C.3   1 <1>   0.2000 
 19 N      -10.7760     1.1380    -0.0730 N.am  1 <1>  -0.7300 
 20 C      -10.2570     0.1740     2.0940 C.3   1 <1>  -0.2400 
 21 O       -9.4270     2.9770     1.6260 O.3   1 <1>  -0.6800 
 22 C      -11.7250     0.5190    -0.8190 C.2   1 <1>   0.5770 
 23 O      -12.5240     1.2130    -1.3960 O.2   1 <1>  -0.5700 
 24 C      -11.8190    -1.0030    -0.9530 C.3   1 <1>   0.0530 
 25 C      -11.1560    -1.5770    -2.2340 C.3   1 <1>   0.0000 
 26 C      -13.1610    -1.5760    -1.4950 C.3   1 <1>   0.0000 
 27 C      -12.3100    -2.6110    -2.2750 C.3   1 <1>   0.0000 
 28 H       -1.8580    -0.2270     0.2560 H     1 <1>   0.1500 
 29 H       -0.4570    -2.0740    -3.6510 H     1 <1>   0.1500 
 30 H       -2.6290    -3.3130    -2.6680 H     1 <1>   0.1500 
 31 H       -4.6790     0.4390     0.8850 H     1 <1>   0.0800 
 32 H       -4.2020     0.1520    -0.7710 H     1 <1>   0.0800 
 33 H       -5.3590    -3.1680     1.5840 H     1 <1>   0.0800 
 34 H       -5.4030    -1.5880     2.3130 H     1 <1>   0.0800 
 35 H       -6.4310    -0.5510    -1.3660 H     1 <1>   0.0800 
 36 H       -6.4870     1.0400    -0.7050 H     1 <1>   0.0800 
 37 H       -7.6680    -2.3000     1.7000 H     1 <1>   0.0800 
 38 H       -7.1580    -2.5760     0.0640 H     1 <1>   0.0800 
 39 H       -8.7730    -0.1650    -0.9800 H     1 <1>   0.0800 
 40 H       -9.2780    -1.3310     0.1800 H     1 <1>   0.0800 
 41 H       -7.5760     1.8830     2.8230 H     1 <1>   0.0800 
 42 H       -6.6200     2.1240     1.3800 H     1 <1>   0.0800 
 43 H       -8.4360     2.3100     0.0390 H     1 <1>   0.0800 
 44 H      -10.8970     2.1550    -0.0290 H     1 <1>   0.3700 
 45 H       -9.4890    -0.0900     2.7980 H     1 <1>   0.0800 
 46 H      -10.8480    -0.7050     1.9190 H     1 <1>   0.0800 
 47 H      -10.8870     0.9180     2.5450 H     1 <1>   0.0800 
 48 H       -9.8260     2.6650     2.4630 H     1 <1>   0.4000 
 49 H      -11.5200    -1.5360    -0.0690 H     1 <1>   0.0000 
 50 H      -11.1830    -0.8940    -3.0670 H     1 <1>   0.0000 
 51 H      -10.1890    -2.0180    -2.0710 H     1 <1>   0.0000 
 52 H      -13.7850    -2.0140    -0.7360 H     1 <1>   0.0000 
 53 H      -13.6940    -0.9160    -2.1580 H     1 <1>   0.0000 
 54 H      -12.0970    -3.4950    -1.6970 H     1 <1>   0.0000 
 55 H      -12.6750    -2.8190    -3.2650 H     1 <1>   0.0000 
@<TRIPOS>BOND
  1   1   2  1   
  2   1   3  1   
  3   2   4  2   
  4   2  28  1   
  5   3   5  2   
  6   3  29  1   
  7   4   5  1   
  8   4   6  1   
  9   5  30  1   
 10   6   7  2   
 11   6   8  am  
 12   8   9  1   
 13   8  10  1   
 14   9  11  1   
 15   9  31  1   
 16   9  32  1   
 17  10  12  1   
 18  10  33  1   
 19  10  34  1   
 20  11  13  1   
 21  11  35  1   
 22  11  36  1   
 23  12  13  1   
 24  12  37  1   
 25  12  38  1   
 26  13  14  1   
 27  13  15  1   
 28  14  16  1   
 29  15  17  1   
 30  15  39  1   
 31  15  40  1   
 32  16  18  1   
 33  16  41  1   
 34  16  42  1   
 35  17  18  1   
 36  17  19  1   
 37  17  20  1   
 38  18  21  1   
 39  18  43  1   
 40  19  22  am  
 41  19  44  1   
 42  20  45  1   
 43  20  46  1   
 44  20  47  1   
 45  21  48  1   
 46  22  23  2   
 47  22  24  1   
 48  24  25  1   
 49  24  26  1   
 50  24  49  1   
 51  25  27  1   
 52  25  50  1   
 53  25  51  1   
 54  26  27  1   
 55  26  52  1   
 56  26  53  1   
 57  27  54  1   
 58  27  55  1   
@<TRIPOS>SUBSTRUCTURE
  1 ****  13 GROUP 4 **** **** 0

# MOE 2024.06 (io_trps.svl 2023.06)
