@<TRIPOS>MOLECULE
NONAME
56 60 1 0 0 
SMALL
USER_CHARGES


@<TRIPOS>ATOM
  1 O       -1.0310     1.7460     0.1650 O.3   1 <1>  -0.3630 
  2 C        0.0100     2.4610    -0.2730 C.ar  1 <1>   0.0830 
  3 C       -1.6400     1.1640    -0.9860 C.3   1 <1>   0.4000 
  4 C        0.1020     2.3750    -1.6300 C.ar  1 <1>   0.0830 
  5 C        0.9080     3.2040     0.4670 C.ar  1 <1>  -0.1500 
  6 O       -0.8780     1.6020    -2.1100 O.3   1 <1>  -0.3630 
  7 C        1.0980     3.0290    -2.3240 C.ar  1 <1>  -0.1500 
  8 C        1.9260     3.8760    -0.2060 C.ar  1 <1>  -0.1440 
  9 C        2.0120     3.7820    -1.5980 C.ar  1 <1>  -0.1500 
 10 C        2.9240     4.7100     0.5940 C.3   1 <1>   0.0640 
 11 C        2.8510     6.1960     0.2060 C.3   1 <1>   0.2000 
 12 C        4.3550     4.1690     0.4310 C.3   1 <1>  -0.1600 
 13 O        1.6060     6.6900     0.5520 O.3   1 <1>  -0.6800 
 14 C        3.9200     7.0230     0.9390 C.3   1 <1>   0.3430 
 15 C        5.3640     4.9990     1.2260 C.3   1 <1>   0.3430 
 16 N        5.2900     6.4200     0.7940 N.4   1 <1>  -0.9590 
 17 C        6.3270     7.2640     1.4380 C.3   1 <1>   0.4860 
 18 C        6.3860     8.5790     0.6920 C.ar  1 <1>  -0.1430 
 19 C        6.7110     8.5990    -0.6660 C.ar  1 <1>   0.0830 
 20 C        6.1090     9.7620     1.3630 C.ar  1 <1>  -0.1500 
 21 O        6.9630     7.4050    -1.2710 O.3   1 <1>  -0.3630 
 22 C        6.7540     9.8130    -1.3490 C.ar  1 <1>  -0.1500 
 23 C        6.1540    10.9550     0.6680 C.ar  1 <1>  -0.1430 
 24 C        7.5510     7.3580    -2.5570 C.3   1 <1>   0.0400 
 25 C        6.4710    10.9790    -0.6660 C.ar  1 <1>  -0.1430 
 26 C        5.8900    12.3440     1.1940 C.3   1 <1>  -0.0170 
 27 C        6.4600    12.3880    -1.2060 C.3   1 <1>  -0.0170 
 28 C        5.7870    13.1950    -0.0830 C.3   1 <1>  -0.1600 
 29 H       -1.5950     0.0920    -0.9150 H     1 <1>   0.0800 
 30 H       -2.6520     1.5160    -1.0770 H     1 <1>   0.0800 
 31 H        0.7970     3.2450     1.5350 H     1 <1>   0.1500 
 32 H        1.1510     2.9460    -3.3950 H     1 <1>   0.1500 
 33 H        2.7890     4.2930    -2.1370 H     1 <1>   0.1500 
 34 H        2.6750     4.6360     1.6400 H     1 <1>   0.0800 
 35 H        2.9670     6.3210    -0.8570 H     1 <1>   0.0800 
 36 H        4.6420     4.1590    -0.6050 H     1 <1>   0.0800 
 37 H        4.3860     3.1520     0.7820 H     1 <1>   0.0800 
 38 H        0.9000     6.1540     0.1270 H     1 <1>   0.4000 
 39 H        3.6580     7.0690     1.9820 H     1 <1>   0.0800 
 40 H        3.9150     8.0240     0.5400 H     1 <1>   0.0800 
 41 H        6.3570     4.6130     1.0600 H     1 <1>   0.0800 
 42 H        5.1410     4.9260     2.2790 H     1 <1>   0.0800 
 43 H        5.5500     6.4790    -0.2080 H     1 <1>   0.4500 
 44 H        6.0910     7.4300     2.4760 H     1 <1>   0.0800 
 45 H        7.2910     6.7840     1.3720 H     1 <1>   0.0800 
 46 H        5.8610     9.7750     2.4100 H     1 <1>   0.1500 
 47 H        6.9970     9.8750    -2.3930 H     1 <1>   0.1500 
 48 H        7.7670     6.3320    -2.7950 H     1 <1>   0.0800 
 49 H        8.4650     7.9280    -2.5470 H     1 <1>   0.0800 
 50 H        6.8600     7.7610    -3.2770 H     1 <1>   0.0800 
 51 H        4.9820    12.3890     1.7700 H     1 <1>   0.0800 
 52 H        6.7220    12.6660     1.7960 H     1 <1>   0.0800 
 53 H        7.4710    12.7220    -1.3600 H     1 <1>   0.0800 
 54 H        5.9080    12.4570    -2.1270 H     1 <1>   0.0800 
 55 H        6.2430    14.1620     0.0420 H     1 <1>   0.0800 
 56 H        4.7480    13.3290    -0.3280 H     1 <1>   0.0800 
@<TRIPOS>BOND
  1   1   2  1   
  2   1   3  1   
  3   2   4  ar  
  4   2   5  ar  
  5   3   6  1   
  6   3  29  1   
  7   3  30  1   
  8   4   6  1   
  9   4   7  ar  
 10   5   8  ar  
 11   5  31  1   
 12   7   9  ar  
 13   7  32  1   
 14   8   9  ar  
 15   8  10  1   
 16   9  33  1   
 17  10  11  1   
 18  10  12  1   
 19  10  34  1   
 20  11  13  1   
 21  11  14  1   
 22  11  35  1   
 23  12  15  1   
 24  12  36  1   
 25  12  37  1   
 26  13  38  1   
 27  14  16  1   
 28  14  39  1   
 29  14  40  1   
 30  15  16  1   
 31  15  41  1   
 32  15  42  1   
 33  16  17  1   
 34  16  43  1   
 35  17  18  1   
 36  17  44  1   
 37  17  45  1   
 38  18  19  ar  
 39  18  20  ar  
 40  19  21  1   
 41  19  22  ar  
 42  20  23  ar  
 43  20  46  1   
 44  21  24  1   
 45  22  25  ar  
 46  22  47  1   
 47  23  25  ar  
 48  23  26  1   
 49  24  48  1   
 50  24  49  1   
 51  24  50  1   
 52  25  27  1   
 53  26  28  1   
 54  26  51  1   
 55  26  52  1   
 56  27  28  1   
 57  27  53  1   
 58  27  54  1   
 59  28  55  1   
 60  28  56  1   
@<TRIPOS>SUBSTRUCTURE
  1 ****  11 GROUP 4 **** **** 0

# MOE 2024.06 (io_trps.svl 2023.06)
