@<TRIPOS>MOLECULE
NONAME
40 42 1 0 0 
SMALL
USER_CHARGES


@<TRIPOS>ATOM
  1 O        0.3720    -0.3870    -1.2000 O.2   1 <1>  -0.5700 
  2 C        1.3620    -0.7820    -0.6090 C.2   1 <1>   0.7160 
  3 N        2.2410     0.0980    -0.0300 N.am  1 <1>  -0.4940 
  4 C        1.6590    -2.2010    -0.5020 C.2   1 <1>   0.1410 
  5 C        2.3490     1.5100    -0.0180 C.2   1 <1>  -0.0880 
  6 N        2.7710    -2.6690     0.1280 N.2   1 <1>  -0.5650 
  7 C        0.9290    -3.2500    -0.9830 C.2   1 <1>  -0.3020 
  8 N        1.3480     2.4350    -0.0440 N.pl3 1 <1>   0.3140 
  9 C        3.5070     2.2090     0.0530 C.2   1 <1>  -0.1810 
 10 C        2.6930    -3.9640     0.0180 C.2   1 <1>   0.3120 
 11 N        1.5690    -4.3810    -0.6630 N.pl3 1 <1>   0.3340 
 12 N        1.8390     3.6930     0.0100 N.2   1 <1>  -0.7070 
 13 C       -0.1050     2.2260    -0.0240 C.3   1 <1>   0.0160 
 14 C        3.1250     3.5480     0.0650 C.2   1 <1>   0.1080 
 15 C        4.9210     1.6530     0.1040 C.3   1 <1>   0.0210 
 16 N        3.6190    -4.8490     0.5170 N.2   1 <1>  -0.5760 
 17 C        1.3370    -5.7280    -0.8660 C.2   1 <1>  -0.1810 
 18 C        4.0590     4.7430     0.1320 C.3   1 <1>   0.0210 
 19 C        5.3610     1.4400     1.5540 C.3   1 <1>  -0.2400 
 20 C        3.3910    -6.1030     0.3220 C.2   1 <1>   0.3760 
 21 C        2.2510    -6.6000    -0.3720 C.2   1 <1>  -0.1360 
 22 C        4.4720     5.2020    -1.2700 C.3   1 <1>  -0.2400 
 23 H        3.0410    -0.4040     0.3660 H     1 <1>   0.3700 
 24 H        0.0030    -3.2260    -1.5270 H     1 <1>   0.1500 
 25 H       -0.3360     1.3860     0.6030 H     1 <1>   0.0800 
 26 H       -0.4440     2.0410    -1.0260 H     1 <1>   0.0800 
 27 H       -0.5830     3.1060     0.3610 H     1 <1>   0.0800 
 28 H        5.5960     2.3290    -0.3890 H     1 <1>   0.0800 
 29 H        4.9570     0.7160    -0.4240 H     1 <1>   0.0800 
 30 H        0.4470    -6.0030    -1.4030 H     1 <1>   0.1500 
 31 H        4.9300     4.4910     0.7080 H     1 <1>   0.0800 
 32 H        3.5510     5.5460     0.6360 H     1 <1>   0.0800 
 33 H        5.3410     2.3720     2.0900 H     1 <1>   0.0800 
 34 H        6.3600     1.0420     1.5830 H     1 <1>   0.0800 
 35 H        4.6990     0.7490     2.0430 H     1 <1>   0.0800 
 36 H        4.0940    -6.8250     0.6990 H     1 <1>   0.0600 
 37 H        2.1540    -7.6650    -0.4830 H     1 <1>   0.1500 
 38 H        4.9850     4.4100    -1.7860 H     1 <1>   0.0800 
 39 H        5.1190     6.0580    -1.2070 H     1 <1>   0.0800 
 40 H        3.5960     5.4680    -1.8350 H     1 <1>   0.0800 
@<TRIPOS>BOND
  1   1   2  2   
  2   2   3  am  
  3   2   4  1   
  4   3   5  1   
  5   3  23  1   
  6   4   6  1   
  7   4   7  2   
  8   5   8  1   
  9   5   9  2   
 10   6  10  2   
 11   7  11  1   
 12   7  24  1   
 13   8  12  1   
 14   8  13  1   
 15   9  14  1   
 16   9  15  1   
 17  10  11  1   
 18  10  16  1   
 19  11  17  1   
 20  12  14  2   
 21  13  25  1   
 22  13  26  1   
 23  13  27  1   
 24  14  18  1   
 25  15  19  1   
 26  15  28  1   
 27  15  29  1   
 28  16  20  2   
 29  17  21  2   
 30  17  30  1   
 31  18  22  1   
 32  18  31  1   
 33  18  32  1   
 34  19  33  1   
 35  19  34  1   
 36  19  35  1   
 37  20  21  1   
 38  20  36  1   
 39  21  37  1   
 40  22  38  1   
 41  22  39  1   
 42  22  40  1   
@<TRIPOS>SUBSTRUCTURE
  1 ****   3 GROUP 4 **** **** 0

# MOE 2024.06 (io_trps.svl 2023.06)
