@<TRIPOS>MOLECULE
NONAME
43 45 1 0 0 
SMALL
USER_CHARGES


@<TRIPOS>ATOM
  1 CL       0.6800     0.0350    -1.8100 Cl    1 <1>  -0.1770 
  2 C        1.6210    -1.1820    -0.9660 C.ar  1 <1>   0.1770 
  3 C        1.0040    -2.3280    -0.4420 C.ar  1 <1>   0.4100 
  4 C        2.9720    -0.9860    -0.8260 C.ar  1 <1>  -0.1500 
  5 N        1.6750    -3.2750     0.2180 N.ar  1 <1>  -0.6200 
  6 N       -0.3650    -2.5310    -0.5550 N.pl3 1 <1>  -0.8380 
  7 C        3.6650    -1.9680    -0.1450 C.ar  1 <1>  -0.1500 
  8 C        2.9800    -3.0660     0.3460 C.ar  1 <1>   0.1600 
  9 C       -0.8200    -3.8760    -0.9730 C.3   1 <1>   0.2090 
 10 C       -1.1680    -1.9370     0.5400 C.3   1 <1>   0.2090 
 11 C       -1.5080    -4.5380     0.2440 C.3   1 <1>   0.4230 
 12 C       -2.5850    -2.5750     0.6520 C.3   1 <1>  -0.1600 
 13 N       -1.0850    -5.9810     0.4500 N.4   1 <1>  -0.9590 
 14 C       -3.0450    -4.0900     0.2770 C.3   1 <1>   0.0000 
 15 C       -1.4220    -6.8160    -0.7190 C.3   1 <1>   0.3430 
 16 C        0.3660    -6.0800     0.8080 C.3   1 <1>   0.2630 
 17 C       -3.5780    -5.5610    -0.1520 C.3   1 <1>  -0.1600 
 18 C       -4.5680    -3.6010     0.3900 C.3   1 <1>   0.1200 
 19 C       -2.7980    -6.3890    -1.2020 C.3   1 <1>  -0.1600 
 20 O       -5.0580    -3.2470    -0.8680 O.3   1 <1>  -0.6800 
 21 H        3.4570    -0.1130    -1.2260 H     1 <1>   0.1500 
 22 H        4.7270    -1.8780     0.0040 H     1 <1>   0.1500 
 23 H        3.5450    -3.8150     0.8770 H     1 <1>   0.1500 
 24 H       -1.5190    -3.7670    -1.7850 H     1 <1>   0.0800 
 25 H        0.0150    -4.4530    -1.3270 H     1 <1>   0.0800 
 26 H       -0.6380    -2.0710     1.4710 H     1 <1>   0.0800 
 27 H       -1.2550    -0.8750     0.3760 H     1 <1>   0.0800 
 28 H       -1.0600    -4.0770     1.1070 H     1 <1>   0.0800 
 29 H       -2.8600    -2.3840     1.6780 H     1 <1>   0.0800 
 30 H       -3.1350    -1.8690     0.0490 H     1 <1>   0.0800 
 31 H       -1.6390    -6.3260     1.2430 H     1 <1>   0.4500 
 32 H       -0.7000    -6.6800    -1.5080 H     1 <1>   0.0800 
 33 H       -1.4330    -7.8560    -0.4350 H     1 <1>   0.0800 
 34 H        0.9820    -5.7470    -0.0120 H     1 <1>   0.0800 
 35 H        0.6280    -7.0970     1.0470 H     1 <1>   0.0800 
 36 H        0.5840    -5.4560     1.6610 H     1 <1>   0.0800 
 37 H       -3.6870    -6.1530     0.7430 H     1 <1>   0.0800 
 38 H       -4.5570    -5.5950    -0.6090 H     1 <1>   0.0800 
 39 H       -4.7710    -2.7630     1.0400 H     1 <1>   0.0800 
 40 H       -5.2340    -4.3460     0.8010 H     1 <1>   0.0800 
 41 H       -2.7030    -5.8210    -2.1120 H     1 <1>   0.0800 
 42 H       -3.3550    -7.2750    -1.4540 H     1 <1>   0.0800 
 43 H       -4.6590    -2.4160    -1.1930 H     1 <1>   0.4000 
@<TRIPOS>BOND
  1   1   2  1   
  2   2   3  ar  
  3   2   4  ar  
  4   3   5  ar  
  5   3   6  1   
  6   4   7  ar  
  7   4  21  1   
  8   5   8  ar  
  9   6   9  1   
 10   6  10  1   
 11   7   8  ar  
 12   7  22  1   
 13   8  23  1   
 14   9  11  1   
 15   9  24  1   
 16   9  25  1   
 17  10  12  1   
 18  10  26  1   
 19  10  27  1   
 20  11  13  1   
 21  11  14  1   
 22  11  28  1   
 23  12  14  1   
 24  12  29  1   
 25  12  30  1   
 26  13  15  1   
 27  13  16  1   
 28  13  31  1   
 29  14  17  1   
 30  14  18  1   
 31  15  19  1   
 32  15  32  1   
 33  15  33  1   
 34  16  34  1   
 35  16  35  1   
 36  16  36  1   
 37  17  19  1   
 38  17  37  1   
 39  17  38  1   
 40  18  20  1   
 41  18  39  1   
 42  18  40  1   
 43  19  41  1   
 44  19  42  1   
 45  20  43  1   
@<TRIPOS>SUBSTRUCTURE
  1 ****   9 GROUP 4 **** **** 0

# MOE 2024.06 (io_trps.svl 2023.06)
