@<TRIPOS>MOLECULE
NONAME
44 47 1 0 0 
SMALL
USER_CHARGES


@<TRIPOS>ATOM
  1 CL      -1.0680     0.0270    -1.7730 Cl    1 <1>  -0.1400 
  2 C       -1.9490    -0.8680    -0.5520 C.2   1 <1>   0.1540 
  3 C       -2.4540    -0.1600     0.5830 C.2   1 <1>   0.6160 
  4 C       -2.1390    -2.2060    -0.7010 C.2   1 <1>  -0.1500 
  5 O       -2.3340     1.0380     0.7860 O.2   1 <1>  -0.5700 
  6 N       -3.1320    -0.9010     1.5150 N.am  1 <1>  -0.5390 
  7 C       -2.8600    -2.9490     0.2870 C.2   1 <1>   0.0140 
  8 C       -3.3250    -2.2540     1.3790 C.2   1 <1>  -0.0410 
  9 C       -3.0590    -4.3720     0.1180 C.2   1 <1>   0.6160 
 10 O       -2.2540    -5.0290    -0.5160 O.2   1 <1>  -0.5700 
 11 N       -4.1550    -5.0180     0.6420 N.am  1 <1>  -0.6600 
 12 C       -4.1490    -6.5030     0.8440 C.3   1 <1>   0.1400 
 13 C       -5.5400    -4.4770     0.4790 C.3   1 <1>   0.1400 
 14 C       -5.0020    -7.2100    -0.2230 C.3   1 <1>   0.3430 
 15 C       -6.3330    -5.2930    -0.5700 C.3   1 <1>   0.2950 
 16 O       -6.2910    -6.6530    -0.2490 O.3   1 <1>  -0.5600 
 17 C       -5.0930    -8.7040     0.0690 C.ar  1 <1>  -0.1440 
 18 C       -7.8190    -4.9110    -0.6910 C.3   1 <1>  -0.1950 
 19 C       -4.1420    -9.5630    -0.4650 C.ar  1 <1>  -0.1500 
 20 C       -6.0980    -9.2290     0.8710 C.ar  1 <1>  -0.1500 
 21 C       -8.3460    -3.5270    -0.4530 C.3   1 <1>  -0.2000 
 22 C       -8.7120    -4.6470     0.4820 C.3   1 <1>  -0.2000 
 23 C       -4.1930   -10.9210    -0.2020 C.ar  1 <1>  -0.1500 
 24 C       -6.1500   -10.5870     1.1350 C.ar  1 <1>  -0.1500 
 25 C       -5.1970   -11.4340     0.5990 C.ar  1 <1>  -0.1500 
 26 H       -1.7500    -2.7310    -1.5570 H     1 <1>   0.1500 
 27 H       -3.4590    -0.3620     2.3210 H     1 <1>   0.3700 
 28 H       -3.8550    -2.7600     2.1710 H     1 <1>   0.1500 
 29 H       -3.1430    -6.8850     0.8050 H     1 <1>   0.0800 
 30 H       -4.5450    -6.7320     1.8180 H     1 <1>   0.0800 
 31 H       -6.0450    -4.5190     1.4270 H     1 <1>   0.0800 
 32 H       -5.5030    -3.4500     0.1630 H     1 <1>   0.0800 
 33 H       -4.5580    -7.0650    -1.1930 H     1 <1>   0.0800 
 34 H       -5.8710    -5.1650    -1.5340 H     1 <1>   0.0800 
 35 H       -8.2670    -5.4460    -1.5110 H     1 <1>   0.1000 
 36 H       -3.3530    -9.1780    -1.0890 H     1 <1>   0.1500 
 37 H       -6.8460    -8.5790     1.2900 H     1 <1>   0.1500 
 38 H       -7.7120    -2.7450    -0.0740 H     1 <1>   0.1000 
 39 H       -9.1050    -3.1460    -1.1160 H     1 <1>   0.1000 
 40 H       -9.7120    -5.0450     0.4540 H     1 <1>   0.1000 
 41 H       -8.3010    -4.6590     1.4760 H     1 <1>   0.1000 
 42 H       -3.4510   -11.5780    -0.6210 H     1 <1>   0.1500 
 43 H       -6.9350   -10.9820     1.7560 H     1 <1>   0.1500 
 44 H       -5.2380   -12.4890     0.8040 H     1 <1>   0.1500 
@<TRIPOS>BOND
  1   1   2  1   
  2   2   3  1   
  3   2   4  2   
  4   3   5  2   
  5   3   6  am  
  6   4   7  1   
  7   4  26  1   
  8   6   8  1   
  9   6  27  1   
 10   7   8  2   
 11   7   9  1   
 12   8  28  1   
 13   9  10  2   
 14   9  11  am  
 15  11  12  1   
 16  11  13  1   
 17  12  14  1   
 18  12  29  1   
 19  12  30  1   
 20  13  15  1   
 21  13  31  1   
 22  13  32  1   
 23  14  16  1   
 24  14  17  1   
 25  14  33  1   
 26  15  16  1   
 27  15  18  1   
 28  15  34  1   
 29  17  19  ar  
 30  17  20  ar  
 31  18  21  1   
 32  18  22  1   
 33  18  35  1   
 34  19  23  ar  
 35  19  36  1   
 36  20  24  ar  
 37  20  37  1   
 38  21  22  1   
 39  21  38  1   
 40  21  39  1   
 41  22  40  1   
 42  22  41  1   
 43  23  25  ar  
 44  23  42  1   
 45  24  25  ar  
 46  24  43  1   
 47  25  44  1   
@<TRIPOS>SUBSTRUCTURE
  1 ****  11 GROUP 4 **** **** 0

# MOE 2024.06 (io_trps.svl 2023.06)
