@<TRIPOS>MOLECULE
NONAME
62 64 1 0 0 
SMALL
USER_CHARGES


@<TRIPOS>ATOM
  1 O       -0.7650    -0.2680     1.3980 O.2   1 <1>  -0.5700 
  2 C       -1.4610     0.2550     0.5610 C.2   1 <1>   0.5690 
  3 N       -2.3440    -0.5040    -0.1820 N.am  1 <1>  -0.6600 
  4 C       -1.3210     1.7790     0.4260 C.3   1 <1>  -0.0190 
  5 C       -3.3580     0.0000    -1.1430 C.3   1 <1>   0.1400 
  6 C       -2.3490    -1.9920    -0.0500 C.3   1 <1>   0.1400 
  7 C       -2.5440     2.5320     0.9890 C.3   1 <1>  -0.1600 
  8 C       -0.8890     2.2430    -0.9900 C.3   1 <1>  -0.1600 
  9 C       -4.7590    -0.2970    -0.5890 C.3   1 <1>  -0.1600 
 10 C       -3.7840    -2.5440    -0.0520 C.3   1 <1>  -0.1600 
 11 C       -2.3700     4.0620     0.9600 C.3   1 <1>   0.2000 
 12 C       -1.5040     3.5900    -1.4080 C.3   1 <1>  -0.1600 
 13 C       -4.7710    -1.4640     0.4220 C.3   1 <1>   0.4230 
 14 O       -3.6630     4.6130     0.8830 O.3   1 <1>  -0.5600 
 15 C       -1.5120     4.5670    -0.2310 C.3   1 <1>   0.2000 
 16 N       -6.1590    -2.0050     0.5980 N.4   1 <1>  -0.9590 
 17 C       -4.2240     4.9630     2.1090 C.3   1 <1>   0.0400 
 18 O       -2.0190     5.7680    -0.6820 O.3   1 <1>  -0.6800 
 19 C       -6.2340    -3.1270     1.5860 C.3   1 <1>   0.4860 
 20 C       -7.1550    -0.9570     0.9690 C.3   1 <1>   0.3430 
 21 C       -7.5820    -3.8070     1.4550 C.ar  1 <1>  -0.1440 
 22 C       -8.1910    -0.8480    -0.1420 C.3   1 <1>  -0.2400 
 23 C       -7.8550    -4.6090     0.3550 C.ar  1 <1>  -0.1500 
 24 C       -8.5560    -3.6300     2.4290 C.ar  1 <1>  -0.1500 
 25 C       -9.0930    -5.2130     0.2230 C.ar  1 <1>  -0.1500 
 26 C       -9.7920    -4.2350     2.2950 C.ar  1 <1>  -0.1500 
 27 C      -10.0620    -5.0240     1.1910 C.ar  1 <1>  -0.1500 
 28 H       -0.5040     2.0490     1.0750 H     1 <1>   0.0800 
 29 H       -3.2520     1.0500    -1.3380 H     1 <1>   0.0800 
 30 H       -3.2190    -0.5140    -2.0810 H     1 <1>   0.0800 
 31 H       -1.7810    -2.4250    -0.8570 H     1 <1>   0.0800 
 32 H       -1.8680    -2.2790     0.8710 H     1 <1>   0.0800 
 33 H       -2.7120     2.2200     2.0050 H     1 <1>   0.0800 
 34 H       -3.4160     2.2820     0.4170 H     1 <1>   0.0800 
 35 H        0.1840     2.3380    -0.9940 H     1 <1>   0.0800 
 36 H       -1.1240     1.5050    -1.7360 H     1 <1>   0.0800 
 37 H       -5.3970    -0.5100    -1.4260 H     1 <1>   0.0800 
 38 H       -5.1170     0.5960    -0.1110 H     1 <1>   0.0800 
 39 H       -3.7800    -3.4100     0.5800 H     1 <1>   0.0800 
 40 H       -4.0340    -2.8580    -1.0500 H     1 <1>   0.0800 
 41 H       -1.8930     4.3950     1.8670 H     1 <1>   0.0800 
 42 H       -2.5150     3.4390    -1.7440 H     1 <1>   0.0800 
 43 H       -0.9350     4.0060    -2.2210 H     1 <1>   0.0800 
 44 H       -4.4140    -1.0900     1.3690 H     1 <1>   0.0800 
 45 H       -0.4980     4.7380     0.0910 H     1 <1>   0.0800 
 46 H       -6.4720    -2.3990    -0.2960 H     1 <1>   0.4500 
 47 H       -5.2130     5.3480     1.9290 H     1 <1>   0.0800 
 48 H       -3.6200     5.7270     2.5690 H     1 <1>   0.0800 
 49 H       -4.2800     4.0940     2.7410 H     1 <1>   0.0800 
 50 H       -2.9670     5.7720    -0.4170 H     1 <1>   0.4000 
 51 H       -5.4720    -3.8620     1.3940 H     1 <1>   0.0800 
 52 H       -6.1000    -2.7540     2.5880 H     1 <1>   0.0800 
 53 H       -7.6530    -1.2190     1.8890 H     1 <1>   0.0800 
 54 H       -6.6730    -0.0050     1.1170 H     1 <1>   0.0800 
 55 H       -8.7190    -1.7770    -0.2660 H     1 <1>   0.0800 
 56 H       -7.7420    -0.5570    -1.0730 H     1 <1>   0.0800 
 57 H       -8.9140    -0.0970     0.1250 H     1 <1>   0.0800 
 58 H       -7.1150    -4.7790    -0.4080 H     1 <1>   0.1500 
 59 H       -8.3680    -3.0270     3.3010 H     1 <1>   0.1500 
 60 H       -9.3060    -5.8350    -0.6300 H     1 <1>   0.1500 
 61 H      -10.5490    -4.0980     3.0500 H     1 <1>   0.1500 
 62 H      -11.0250    -5.4960     1.0880 H     1 <1>   0.1500 
@<TRIPOS>BOND
  1   1   2  2   
  2   2   3  am  
  3   2   4  1   
  4   3   5  1   
  5   3   6  1   
  6   4   7  1   
  7   4   8  1   
  8   4  28  1   
  9   5   9  1   
 10   5  29  1   
 11   5  30  1   
 12   6  10  1   
 13   6  31  1   
 14   6  32  1   
 15   7  11  1   
 16   7  33  1   
 17   7  34  1   
 18   8  12  1   
 19   8  35  1   
 20   8  36  1   
 21   9  13  1   
 22   9  37  1   
 23   9  38  1   
 24  10  13  1   
 25  10  39  1   
 26  10  40  1   
 27  11  14  1   
 28  11  15  1   
 29  11  41  1   
 30  12  15  1   
 31  12  42  1   
 32  12  43  1   
 33  13  16  1   
 34  13  44  1   
 35  14  17  1   
 36  15  18  1   
 37  15  45  1   
 38  16  19  1   
 39  16  20  1   
 40  16  46  1   
 41  17  47  1   
 42  17  48  1   
 43  17  49  1   
 44  18  50  1   
 45  19  21  1   
 46  19  51  1   
 47  19  52  1   
 48  20  22  1   
 49  20  53  1   
 50  20  54  1   
 51  21  23  ar  
 52  21  24  ar  
 53  22  55  1   
 54  22  56  1   
 55  22  57  1   
 56  23  25  ar  
 57  23  58  1   
 58  24  26  ar  
 59  24  59  1   
 60  25  27  ar  
 61  25  60  1   
 62  26  27  ar  
 63  26  61  1   
 64  27  62  1   
@<TRIPOS>SUBSTRUCTURE
  1 ****   9 GROUP 4 **** **** 0

# MOE 2024.06 (io_trps.svl 2023.06)
