@<TRIPOS>MOLECULE
NONAME
52 55 1 0 0 
SMALL
USER_CHARGES


@<TRIPOS>ATOM
  1 F       -0.4310     0.1650     0.2370 F     1 <1>  -0.1900 
  2 C       -1.7020     0.4770     0.1930 C.ar  1 <1>   0.1900 
  3 C       -2.1390     1.8040     0.1270 C.ar  1 <1>   0.0830 
  4 C       -2.5940    -0.5760     0.2180 C.ar  1 <1>  -0.1500 
  5 O       -1.3620     2.9250     0.0970 O.3   1 <1>  -0.3630 
  6 C       -3.5060     2.0280     0.0870 C.ar  1 <1>  -0.1500 
  7 C       -3.9520    -0.3170     0.1780 C.ar  1 <1>  -0.1500 
  8 C        0.0480     2.8840     0.0940 C.3   1 <1>   0.0400 
  9 C       -4.4420     0.9900     0.1090 C.ar  1 <1>   0.0530 
 10 C       -5.8580     1.2770     0.0680 C.2   1 <1>   0.0870 
 11 O       -6.2970     2.4680     0.3910 O.3   1 <1>  -0.0190 
 12 C       -6.9540     0.5360    -0.2480 C.2   1 <1>  -0.0860 
 13 N       -7.5970     2.5790     0.3080 N.2   1 <1>  -0.4100 
 14 C       -8.0170     1.4290    -0.0880 C.2   1 <1>   0.3720 
 15 C       -7.0670    -0.8240    -0.6660 C.2   1 <1>   0.7160 
 16 N       -9.3690     1.1280    -0.3240 N.pl3 1 <1>  -0.8210 
 17 O       -6.5890    -1.1540    -1.7360 O.2   1 <1>  -0.5700 
 18 N       -7.6740    -1.7890     0.1120 N.am  1 <1>  -0.6600 
 19 C       -9.6980     0.9270    -1.7630 C.3   1 <1>   0.1290 
 20 C      -10.3510     2.0320     0.3420 C.3   1 <1>   0.1290 
 21 C       -7.9710    -3.1620    -0.4030 C.3   1 <1>   0.1400 
 22 C       -8.3350    -1.5170     1.4230 C.3   1 <1>   0.1400 
 23 C       -9.4870    -3.4420    -0.3770 C.3   1 <1>   0.2950 
 24 C       -9.8290    -1.8690     1.3430 C.3   1 <1>   0.1200 
 25 O      -10.0000    -3.1870     0.9050 O.3   1 <1>  -0.5600 
 26 C       -9.7850    -4.9000    -0.7740 C.3   1 <1>  -0.1950 
 27 C      -11.0400    -5.6060    -0.3620 C.3   1 <1>  -0.2000 
 28 C       -9.7150    -6.0300     0.2070 C.3   1 <1>  -0.2000 
 29 H       -2.2280    -1.5860     0.2670 H     1 <1>   0.1500 
 30 H       -3.8470     3.0470     0.0330 H     1 <1>   0.1500 
 31 H       -4.6310    -1.1490     0.2020 H     1 <1>   0.1500 
 32 H        0.4110     3.8950     0.0470 H     1 <1>   0.0800 
 33 H        0.3800     2.3370    -0.7710 H     1 <1>   0.0800 
 34 H        0.3870     2.4170     1.0010 H     1 <1>   0.0800 
 35 H       -8.9930     0.2560    -2.2220 H     1 <1>   0.0800 
 36 H       -9.6640     1.8700    -2.2820 H     1 <1>   0.0800 
 37 H      -10.6830     0.5050    -1.8590 H     1 <1>   0.0800 
 38 H      -10.0940     2.1480     1.3810 H     1 <1>   0.0800 
 39 H      -11.3400     1.6150     0.2760 H     1 <1>   0.0800 
 40 H      -10.3400     3.0010    -0.1280 H     1 <1>   0.0800 
 41 H       -7.4700    -3.8880     0.2140 H     1 <1>   0.0800 
 42 H       -7.6100    -3.2820    -1.4090 H     1 <1>   0.0800 
 43 H       -8.2270    -0.4880     1.7140 H     1 <1>   0.0800 
 44 H       -7.8720    -2.1210     2.1840 H     1 <1>   0.0800 
 45 H       -9.9850    -2.7850    -1.0700 H     1 <1>   0.0800 
 46 H      -10.3400    -1.2070     0.6650 H     1 <1>   0.0800 
 47 H      -10.2820    -1.7850     2.3150 H     1 <1>   0.0800 
 48 H       -9.4350    -5.1080    -1.7700 H     1 <1>   0.1000 
 49 H      -11.5300    -6.2530    -1.0690 H     1 <1>   0.1000 
 50 H      -11.7360    -5.1040     0.2890 H     1 <1>   0.1000 
 51 H       -9.5180    -5.8150     1.2440 H     1 <1>   0.1000 
 52 H       -9.2920    -6.9680    -0.1070 H     1 <1>   0.1000 
@<TRIPOS>BOND
  1   1   2  1   
  2   2   3  ar  
  3   2   4  ar  
  4   3   5  1   
  5   3   6  ar  
  6   4   7  ar  
  7   4  29  1   
  8   5   8  1   
  9   6   9  ar  
 10   6  30  1   
 11   7   9  ar  
 12   7  31  1   
 13   8  32  1   
 14   8  33  1   
 15   8  34  1   
 16   9  10  1   
 17  10  11  1   
 18  10  12  2   
 19  11  13  1   
 20  12  14  1   
 21  12  15  1   
 22  13  14  2   
 23  14  16  1   
 24  15  17  2   
 25  15  18  am  
 26  16  19  1   
 27  16  20  1   
 28  18  21  1   
 29  18  22  1   
 30  19  35  1   
 31  19  36  1   
 32  19  37  1   
 33  20  38  1   
 34  20  39  1   
 35  20  40  1   
 36  21  23  1   
 37  21  41  1   
 38  21  42  1   
 39  22  24  1   
 40  22  43  1   
 41  22  44  1   
 42  23  25  1   
 43  23  26  1   
 44  23  45  1   
 45  24  25  1   
 46  24  46  1   
 47  24  47  1   
 48  26  27  1   
 49  26  28  1   
 50  26  48  1   
 51  27  28  1   
 52  27  49  1   
 53  27  50  1   
 54  28  51  1   
 55  28  52  1   
@<TRIPOS>SUBSTRUCTURE
  1 ****  15 GROUP 4 **** **** 0

# MOE 2024.06 (io_trps.svl 2023.06)
