@<TRIPOS>MOLECULE
NONAME
38 39 1 0 0 
SMALL
USER_CHARGES


@<TRIPOS>ATOM
  1 CL       0.6280    -0.5820    -1.2170 Cl    1 <1>  -0.1230 
  2 C        2.3040    -0.5040    -0.7000 C.2   1 <1>   0.1230 
  3 C        3.0730     0.6440    -0.4840 C.2   1 <1>   0.2030 
  4 C        3.0840    -1.5630    -0.4320 C.2   1 <1>  -0.3020 
  5 N        4.2910     0.2830    -0.0950 N.2   1 <1>  -0.7070 
  6 C        2.6460     2.0190    -0.6480 C.2   1 <1>   0.7160 
  7 N        4.2790    -1.0610    -0.0690 N.pl3 1 <1>   0.3140 
  8 O        1.5540     2.3270    -1.0920 O.2   1 <1>  -0.5700 
  9 N        3.5550     2.9880    -0.2980 N.am  1 <1>  -0.4940 
 10 C        5.4590    -1.8450     0.3200 C.3   1 <1>   0.0160 
 11 C        3.5020     4.4030    -0.3300 C.2   1 <1>  -0.0880 
 12 N        4.5650     5.1890    -0.6510 N.pl3 1 <1>   0.3140 
 13 C        2.4780     5.2490    -0.0600 C.2   1 <1>  -0.1810 
 14 N        4.2520     6.5020    -0.5990 N.2   1 <1>  -0.7070 
 15 C        5.9080     4.7380    -1.0670 C.3   1 <1>   0.0960 
 16 C        3.0030     6.5230    -0.2480 C.2   1 <1>   0.1390 
 17 C        1.0550     4.9430     0.3680 C.3   1 <1>  -0.0590 
 18 C        6.7610     4.3470     0.1490 C.3   1 <1>  -0.1600 
 19 C        8.1340     3.8190    -0.2850 C.3   1 <1>  -0.1600 
 20 C        8.9750     3.4180     0.9300 C.3   1 <1>  -0.2400 
 21 H        2.8600    -2.6120    -0.4780 H     1 <1>   0.1500 
 22 H        4.4380     2.5580    -0.0090 H     1 <1>   0.3700 
 23 H        5.2160    -2.4490     1.1740 H     1 <1>   0.0800 
 24 H        6.2630    -1.1770     0.5690 H     1 <1>   0.0800 
 25 H        5.7520    -2.4730    -0.5000 H     1 <1>   0.0800 
 26 H        6.3790     5.5420    -1.6050 H     1 <1>   0.0800 
 27 H        5.7940     3.9040    -1.7330 H     1 <1>   0.0800 
 28 H        2.4450     7.4340    -0.1180 H     1 <1>   0.1500 
 29 H        1.0250     4.0270     0.9280 H     1 <1>   0.0800 
 30 H        0.4300     4.8380    -0.5000 H     1 <1>   0.0800 
 31 H        0.6710     5.7350     0.9850 H     1 <1>   0.0800 
 32 H        6.2540     3.5890     0.7190 H     1 <1>   0.0800 
 33 H        6.8920     5.2140     0.7750 H     1 <1>   0.0800 
 34 H        8.6570     4.5800    -0.8410 H     1 <1>   0.0800 
 35 H        8.0100     2.9620    -0.9260 H     1 <1>   0.0800 
 36 H        9.1310     4.2650     1.5750 H     1 <1>   0.0800 
 37 H        9.9350     3.0530     0.6090 H     1 <1>   0.0800 
 38 H        8.4850     2.6410     1.4900 H     1 <1>   0.0800 
@<TRIPOS>BOND
  1   1   2  1   
  2   2   3  1   
  3   2   4  2   
  4   3   5  2   
  5   3   6  1   
  6   4   7  1   
  7   4  21  1   
  8   5   7  1   
  9   6   8  2   
 10   6   9  am  
 11   7  10  1   
 12   9  11  1   
 13   9  22  1   
 14  10  23  1   
 15  10  24  1   
 16  10  25  1   
 17  11  12  1   
 18  11  13  2   
 19  12  14  1   
 20  12  15  1   
 21  13  16  1   
 22  13  17  1   
 23  14  16  2   
 24  15  18  1   
 25  15  26  1   
 26  15  27  1   
 27  16  28  1   
 28  17  29  1   
 29  17  30  1   
 30  17  31  1   
 31  18  19  1   
 32  18  32  1   
 33  18  33  1   
 34  19  20  1   
 35  19  34  1   
 36  19  35  1   
 37  20  36  1   
 38  20  37  1   
 39  20  38  1   
@<TRIPOS>SUBSTRUCTURE
  1 ****   9 GROUP 4 **** **** 0

# MOE 2024.06 (io_trps.svl 2023.06)
