@<TRIPOS>MOLECULE
NONAME
50 51 1 0 0 
SMALL
USER_CHARGES


@<TRIPOS>ATOM
  1 S        0.2250     0.2420    -0.9060 S.o2  1 <1>   1.3330 
  2 O        0.4760    -0.9970    -1.6080 O.2   1 <1>  -0.6500 
  3 O       -0.9700     1.0010    -1.1960 O.2   1 <1>  -0.6500 
  4 N        0.2110    -0.0980     0.7590 N.am  1 <1>  -0.8490 
  5 C        1.6610     1.2980    -1.1130 C.3   1 <1>  -0.0550 
  6 C       -0.4310    -1.3820     1.0560 C.3   1 <1>   0.1160 
  7 C       -0.4100     0.9610     1.5630 C.3   1 <1>   0.1160 
  8 C        3.0110     0.5850    -0.8810 C.3   1 <1>  -0.0800 
  9 C        4.2380     1.4100    -1.2380 C.3   1 <1>   0.2200 
 10 C        3.2930     0.1690     0.5680 C.3   1 <1>   0.1200 
 11 N        4.1010     2.8040    -0.7560 N.am  1 <1>  -0.7300 
 12 C        5.2970     0.7070    -0.4010 C.3   1 <1>   0.1200 
 13 O        4.6550     0.3980     0.7970 O.3   1 <1>  -0.5600 
 14 C        3.8140     3.8700    -1.5390 C.2   1 <1>   0.5690 
 15 O        3.5270     3.7440    -2.7030 O.2   1 <1>  -0.5700 
 16 C        3.8430     5.2550    -0.9240 C.3   1 <1>  -0.0990 
 17 C        5.2750     5.7100    -0.5990 C.3   1 <1>  -0.1600 
 18 C        5.3060     7.1310    -0.0250 C.3   1 <1>  -0.0170 
 19 C        6.7330     7.5320     0.3090 C.ar  1 <1>  -0.1440 
 20 C        7.5470     8.0920    -0.6630 C.ar  1 <1>  -0.1500 
 21 C        7.2360     7.3400     1.5870 C.ar  1 <1>  -0.1500 
 22 C        8.8480     8.4560    -0.3620 C.ar  1 <1>  -0.1500 
 23 C        8.5370     7.7030     1.8900 C.ar  1 <1>  -0.1500 
 24 C        9.3440     8.2620     0.9150 C.ar  1 <1>  -0.1500 
 25 H        1.6560     1.6750    -2.1190 H     1 <1>   0.0800 
 26 H        1.5780     2.1420    -0.4590 H     1 <1>   0.0800 
 27 H       -0.4160    -1.5730     2.1150 H     1 <1>   0.0800 
 28 H        0.0980    -2.1820     0.5630 H     1 <1>   0.0800 
 29 H       -1.4520    -1.3790     0.7090 H     1 <1>   0.0800 
 30 H       -0.3100     0.7370     2.6110 H     1 <1>   0.0800 
 31 H       -1.4580     1.0520     1.3220 H     1 <1>   0.0800 
 32 H        0.0690     1.9050     1.3690 H     1 <1>   0.0800 
 33 H        3.0310    -0.3070    -1.4840 H     1 <1>   0.0800 
 34 H        4.4650     1.3900    -2.2920 H     1 <1>   0.0800 
 35 H        3.0790    -0.8740     0.7330 H     1 <1>   0.0800 
 36 H        2.7420     0.7670     1.2720 H     1 <1>   0.0800 
 37 H        4.3300     2.9240     0.2330 H     1 <1>   0.3700 
 38 H        6.1570     1.3240    -0.2080 H     1 <1>   0.0800 
 39 H        5.6010    -0.2160    -0.8630 H     1 <1>   0.0800 
 40 H        3.3960     5.9420    -1.6200 H     1 <1>   0.0800 
 41 H        3.2440     5.2490    -0.0330 H     1 <1>   0.0800 
 42 H        5.7200     5.0340     0.1100 H     1 <1>   0.0800 
 43 H        5.8690     5.6800    -1.4980 H     1 <1>   0.0800 
 44 H        4.7010     7.1830     0.8630 H     1 <1>   0.0800 
 45 H        4.8980     7.8250    -0.7400 H     1 <1>   0.0800 
 46 H        7.1710     8.2440    -1.6600 H     1 <1>   0.1500 
 47 H        6.6170     6.9050     2.3530 H     1 <1>   0.1500 
 48 H        9.4740     8.8900    -1.1220 H     1 <1>   0.1500 
 49 H        8.9200     7.5510     2.8830 H     1 <1>   0.1500 
 50 H       10.3550     8.5460     1.1490 H     1 <1>   0.1500 
@<TRIPOS>BOND
  1   1   2  2   
  2   1   3  2   
  3   1   4  am  
  4   1   5  1   
  5   4   6  1   
  6   4   7  1   
  7   5   8  1   
  8   5  25  1   
  9   5  26  1   
 10   6  27  1   
 11   6  28  1   
 12   6  29  1   
 13   7  30  1   
 14   7  31  1   
 15   7  32  1   
 16   8   9  1   
 17   8  10  1   
 18   8  33  1   
 19   9  11  1   
 20   9  12  1   
 21   9  34  1   
 22  10  13  1   
 23  10  35  1   
 24  10  36  1   
 25  11  14  am  
 26  11  37  1   
 27  12  13  1   
 28  12  38  1   
 29  12  39  1   
 30  14  15  2   
 31  14  16  1   
 32  16  17  1   
 33  16  40  1   
 34  16  41  1   
 35  17  18  1   
 36  17  42  1   
 37  17  43  1   
 38  18  19  1   
 39  18  44  1   
 40  18  45  1   
 41  19  20  ar  
 42  19  21  ar  
 43  20  22  ar  
 44  20  46  1   
 45  21  23  ar  
 46  21  47  1   
 47  22  24  ar  
 48  22  48  1   
 49  23  24  ar  
 50  23  49  1   
 51  24  50  1   
@<TRIPOS>SUBSTRUCTURE
  1 ****  11 GROUP 4 **** **** 0

# MOE 2024.06 (io_trps.svl 2023.06)
