@<TRIPOS>MOLECULE
NONAME
42 44 1 0 0 
SMALL
USER_CHARGES


@<TRIPOS>ATOM
  1 O        0.5160     1.2660     0.9730 O.3   1 <1>  -0.3630 
  2 C        1.8170     1.5080     0.6720 C.ar  1 <1>   0.0830 
  3 C       -0.0800     0.0170     0.7030 C.3   1 <1>   0.0400 
  4 C        2.6680     0.5710     0.0960 C.ar  1 <1>  -0.1500 
  5 C        2.3020     2.7680     0.9680 C.ar  1 <1>  -0.1500 
  6 C        3.9890     0.8920    -0.1840 C.ar  1 <1>  -0.1430 
  7 C        3.6160     3.0940     0.6910 C.ar  1 <1>  -0.1500 
  8 C        4.4710     2.1670     0.1070 C.ar  1 <1>  -0.1440 
  9 C        4.8750    -0.1760    -0.8150 C.3   1 <1>  -0.0170 
 10 C        5.9230     2.5650    -0.1720 C.3   1 <1>   0.4330 
 11 C        6.3670     0.1170    -0.6240 C.3   1 <1>  -0.1600 
 12 N        5.9390     3.8550    -0.8690 N.pl3 1 <1>  -0.8690 
 13 C        6.6720     1.5570    -1.0480 C.3   1 <1>  -0.1600 
 14 C        6.5970     4.9270    -0.3870 C.ar  1 <1>   0.7200 
 15 N        7.7550     4.7290     0.2310 N.ar  1 <1>  -0.6200 
 16 N        5.9780     6.0790    -0.5940 N.ar  1 <1>  -0.6200 
 17 C        8.3510     5.8060     0.6750 C.ar  1 <1>   0.1670 
 18 C        6.5930     7.1420    -0.1410 C.ar  1 <1>   0.1670 
 19 C        7.8020     7.0570     0.5110 C.ar  1 <1>  -0.1500 
 20 C        9.6770     5.6150     1.3800 C.3   1 <1>  -0.0970 
 21 C        5.9130     8.4750    -0.3670 C.3   1 <1>  -0.0970 
 22 H       -1.1060     0.0610     1.0190 H     1 <1>   0.0800 
 23 H        0.4410    -0.7440     1.2580 H     1 <1>   0.0800 
 24 H       -0.0300    -0.1730    -0.3540 H     1 <1>   0.0800 
 25 H        2.3160    -0.4140    -0.1410 H     1 <1>   0.1500 
 26 H        1.6450     3.4910     1.4170 H     1 <1>   0.1500 
 27 H        3.9730     4.0810     0.9360 H     1 <1>   0.1500 
 28 H        4.6550    -0.2200    -1.8670 H     1 <1>   0.0800 
 29 H        4.6490    -1.1380    -0.3890 H     1 <1>   0.0800 
 30 H        6.4290     2.6450     0.7760 H     1 <1>   0.0800 
 31 H        6.9490    -0.5700    -1.2130 H     1 <1>   0.0800 
 32 H        6.6310    -0.0190     0.4110 H     1 <1>   0.0800 
 33 H        5.0250     4.1040    -1.2350 H     1 <1>   0.4000 
 34 H        7.7270     1.7490    -0.9690 H     1 <1>   0.0800 
 35 H        6.3790     1.6890    -2.0740 H     1 <1>   0.0800 
 36 H        8.2980     7.9340     0.8780 H     1 <1>   0.1500 
 37 H        9.5400     4.9820     2.2370 H     1 <1>   0.0800 
 38 H       10.0840     6.5560     1.7010 H     1 <1>   0.0800 
 39 H       10.3730     5.1450     0.7100 H     1 <1>   0.0800 
 40 H        4.9440     8.4670     0.0990 H     1 <1>   0.0800 
 41 H        5.7870     8.6380    -1.4210 H     1 <1>   0.0800 
 42 H        6.4920     9.2810     0.0450 H     1 <1>   0.0800 
@<TRIPOS>BOND
  1   1   2  1   
  2   1   3  1   
  3   2   4  ar  
  4   2   5  ar  
  5   3  22  1   
  6   3  23  1   
  7   3  24  1   
  8   4   6  ar  
  9   4  25  1   
 10   5   7  ar  
 11   5  26  1   
 12   6   8  ar  
 13   6   9  1   
 14   7   8  ar  
 15   7  27  1   
 16   8  10  1   
 17   9  11  1   
 18   9  28  1   
 19   9  29  1   
 20  10  12  1   
 21  10  13  1   
 22  10  30  1   
 23  11  13  1   
 24  11  31  1   
 25  11  32  1   
 26  12  14  1   
 27  12  33  1   
 28  13  34  1   
 29  13  35  1   
 30  14  15  ar  
 31  14  16  ar  
 32  15  17  ar  
 33  16  18  ar  
 34  17  19  ar  
 35  17  20  1   
 36  18  19  ar  
 37  18  21  1   
 38  19  36  1   
 39  20  37  1   
 40  20  38  1   
 41  20  39  1   
 42  21  40  1   
 43  21  41  1   
 44  21  42  1   
@<TRIPOS>SUBSTRUCTURE
  1 ****  10 GROUP 4 **** **** 0

# MOE 2024.06 (io_trps.svl 2023.06)
