@<TRIPOS>MOLECULE
NONAME
52 55 1 0 0 
SMALL
USER_CHARGES


@<TRIPOS>ATOM
  1 O        0.8170     0.3120    -2.1180 O.2   1 <1>  -0.5700 
  2 C        1.3330     0.0220    -1.0530 C.2   1 <1>   0.5440 
  3 N        0.5170    -0.1040     0.0490 N.am  1 <1>  -0.6600 
  4 C        2.7580    -0.1930    -1.0000 C.ar  1 <1>   0.0860 
  5 C        0.9170     0.0370     1.4660 C.3   1 <1>   0.1400 
  6 C       -0.9180    -0.4450    -0.0690 C.3   1 <1>   0.1400 
  7 C        3.2970    -1.3900    -0.4920 C.ar  1 <1>   0.4100 
  8 C        3.6420     0.7470    -1.5080 C.ar  1 <1>  -0.1500 
  9 C       -0.1720    -0.7030     2.2300 C.3   1 <1>  -0.1600 
 10 C       -1.4240    -0.5490     1.3680 C.3   1 <1>  -0.1600 
 11 N        4.5930    -1.6840    -0.4900 N.ar  1 <1>  -0.6200 
 12 N        2.4870    -2.3510     0.0520 N.pl3 1 <1>  -0.8690 
 13 C        4.9870     0.4530    -1.4890 C.ar  1 <1>  -0.1500 
 14 C        5.4020    -0.7640    -0.9770 C.ar  1 <1>   0.1600 
 15 C        2.3630    -3.6550    -0.5870 C.3   1 <1>   0.4330 
 16 C        0.8650    -3.8920    -0.7490 C.ar  1 <1>  -0.1430 
 17 C        3.0440    -4.7020     0.2870 C.3   1 <1>  -0.2400 
 18 C        0.0410    -4.0420     0.3600 C.ar  1 <1>  -0.1500 
 19 C        0.2960    -3.9090    -2.0150 C.ar  1 <1>  -0.1500 
 20 C       -1.3250    -4.2080     0.2150 C.ar  1 <1>   0.0830 
 21 C       -1.0700    -4.0710    -2.1700 C.ar  1 <1>  -0.1500 
 22 O       -2.0650    -4.3020     1.3450 O.3   1 <1>  -0.3620 
 23 C       -1.8880    -4.2250    -1.0630 C.ar  1 <1>   0.0830 
 24 C       -2.8380    -5.4620     1.5310 C.3   1 <1>   0.1200 
 25 O       -3.2190    -4.3450    -1.2780 O.3   1 <1>  -0.3630 
 26 C       -4.1220    -5.3950     0.7030 C.3   1 <1>  -0.1600 
 27 C       -3.8640    -5.5010    -0.8010 C.3   1 <1>   0.1200 
 28 H        0.9070     1.0820     1.7260 H     1 <1>   0.0800 
 29 H        1.8930    -0.3720     1.6640 H     1 <1>   0.0800 
 30 H       -1.0180    -1.3890    -0.5780 H     1 <1>   0.0800 
 31 H       -1.4440     0.3150    -0.6210 H     1 <1>   0.0800 
 32 H        3.2720     1.6730    -1.9140 H     1 <1>   0.1500 
 33 H       -0.3060    -0.3070     3.2210 H     1 <1>   0.0800 
 34 H        0.0940    -1.7420     2.3030 H     1 <1>   0.0800 
 35 H       -2.1040    -1.3750     1.4850 H     1 <1>   0.0800 
 36 H       -1.9360     0.3630     1.6220 H     1 <1>   0.0800 
 37 H        1.5350    -2.0090     0.2390 H     1 <1>   0.4000 
 38 H        5.7080     1.1530    -1.8710 H     1 <1>   0.1500 
 39 H        6.4550    -0.9900    -0.9720 H     1 <1>   0.1500 
 40 H        2.8410    -3.6330    -1.5530 H     1 <1>   0.0800 
 41 H        2.6540    -4.6840     1.2870 H     1 <1>   0.0800 
 42 H        4.1000    -4.5020     0.3220 H     1 <1>   0.0800 
 43 H        2.8930    -5.6790    -0.1320 H     1 <1>   0.0800 
 44 H        0.4500    -4.0160     1.3530 H     1 <1>   0.1500 
 45 H        0.9120    -3.7780    -2.8890 H     1 <1>   0.1500 
 46 H       -1.5090    -4.0700    -3.1510 H     1 <1>   0.1500 
 47 H       -3.0790    -5.5150     2.5780 H     1 <1>   0.0800 
 48 H       -2.2410    -6.3190     1.2670 H     1 <1>   0.0800 
 49 H       -4.6610    -4.4910     0.9250 H     1 <1>   0.0800 
 50 H       -4.7450    -6.2220     0.9910 H     1 <1>   0.0800 
 51 H       -3.2570    -6.3560    -1.0400 H     1 <1>   0.0800 
 52 H       -4.7990    -5.5780    -1.3280 H     1 <1>   0.0800 
@<TRIPOS>BOND
  1   1   2  2   
  2   2   3  am  
  3   2   4  1   
  4   3   5  1   
  5   3   6  1   
  6   4   7  ar  
  7   4   8  ar  
  8   5   9  1   
  9   5  28  1   
 10   5  29  1   
 11   6  10  1   
 12   6  30  1   
 13   6  31  1   
 14   7  11  ar  
 15   7  12  1   
 16   8  13  ar  
 17   8  32  1   
 18   9  10  1   
 19   9  33  1   
 20   9  34  1   
 21  10  35  1   
 22  10  36  1   
 23  11  14  ar  
 24  12  15  1   
 25  12  37  1   
 26  13  14  ar  
 27  13  38  1   
 28  14  39  1   
 29  15  16  1   
 30  15  17  1   
 31  15  40  1   
 32  16  18  ar  
 33  16  19  ar  
 34  17  41  1   
 35  17  42  1   
 36  17  43  1   
 37  18  20  ar  
 38  18  44  1   
 39  19  21  ar  
 40  19  45  1   
 41  20  22  1   
 42  20  23  ar  
 43  21  23  ar  
 44  21  46  1   
 45  22  24  1   
 46  23  25  1   
 47  24  26  1   
 48  24  47  1   
 49  24  48  1   
 50  25  27  1   
 51  26  27  1   
 52  26  49  1   
 53  26  50  1   
 54  27  51  1   
 55  27  52  1   
@<TRIPOS>SUBSTRUCTURE
  1 ****  16 GROUP 4 **** **** 0

# MOE 2024.06 (io_trps.svl 2023.06)
