@<TRIPOS>MOLECULE
NONAME
40 41 1 0 0 
SMALL
USER_CHARGES


@<TRIPOS>ATOM
  1 S        0.0390    -0.1130     0.1500 S.o2  1 <1>   1.0900 
  2 O        0.2500    -0.7500     1.4280 O.2   1 <1>  -0.6500 
  3 O       -0.8390    -0.6800    -0.8480 O.2   1 <1>  -0.6500 
  4 C       -0.4190     1.5810     0.3830 C.3   1 <1>  -0.0550 
  5 C        1.5980     0.2660    -0.6270 C.3   1 <1>  -0.0550 
  6 C        0.2230     2.3450    -0.7750 C.3   1 <1>   0.1900 
  7 C        1.6530     1.7800    -0.8870 C.3   1 <1>  -0.1600 
  8 N        0.2250     3.7970    -0.5130 N.3   1 <1>  -0.8100 
  9 C        0.9910     4.5960    -1.5120 C.3   1 <1>   0.2910 
 10 C       -1.1330     4.3660    -0.2940 C.3   1 <1>   0.1100 
 11 C        1.2120     6.0330    -1.0520 C.2   1 <1>   0.1080 
 12 C       -1.3480     4.7450     1.1800 C.3   1 <1>   0.1200 
 13 N        1.8910     6.3480     0.0100 N.2   1 <1>  -0.7070 
 14 C        0.7050     7.1560    -1.6970 C.2   1 <1>  -0.1500 
 15 O       -0.4870     5.7660     1.5410 O.3   1 <1>  -0.6800 
 16 N        1.8230     7.6890     0.0850 N.pl3 1 <1>   0.3140 
 17 C        1.1130     8.1970    -0.9420 C.2   1 <1>  -0.3020 
 18 C        2.4320     8.4430     1.1980 C.3   1 <1>   0.0960 
 19 C        3.7760     9.0540     0.7840 C.3   1 <1>  -0.2400 
 20 H       -0.0060     1.9380     1.3070 H     1 <1>   0.0800 
 21 H       -1.4850     1.6860     0.3950 H     1 <1>   0.0800 
 22 H        1.6750    -0.2700    -1.5540 H     1 <1>   0.0800 
 23 H        2.4160    -0.0260     0.0050 H     1 <1>   0.0800 
 24 H       -0.3190     2.1340    -1.6840 H     1 <1>   0.0800 
 25 H        2.0770     1.9680    -1.8570 H     1 <1>   0.0800 
 26 H        2.2700     2.2380    -0.1320 H     1 <1>   0.0800 
 27 H        0.4770     4.5890    -2.4570 H     1 <1>   0.0800 
 28 H        1.9690     4.1770    -1.6580 H     1 <1>   0.0800 
 29 H       -1.8880     3.6590    -0.5890 H     1 <1>   0.0800 
 30 H       -1.2900     5.2470    -0.8910 H     1 <1>   0.0800 
 31 H       -1.1600     3.9050     1.8230 H     1 <1>   0.0800 
 32 H       -2.3530     5.0940     1.3420 H     1 <1>   0.0800 
 33 H        0.1140     7.1690    -2.5950 H     1 <1>   0.1500 
 34 H        0.3600     5.6830     1.0230 H     1 <1>   0.4000 
 35 H        0.9390     9.2490    -1.0710 H     1 <1>   0.1500 
 36 H        2.5720     7.7670     2.0220 H     1 <1>   0.0800 
 37 H        1.7460     9.2130     1.5020 H     1 <1>   0.0800 
 38 H        4.4560     8.2760     0.4850 H     1 <1>   0.0800 
 39 H        4.2070     9.5850     1.6140 H     1 <1>   0.0800 
 40 H        3.6410     9.7420    -0.0320 H     1 <1>   0.0800 
@<TRIPOS>BOND
  1   1   2  2   
  2   1   3  2   
  3   1   4  1   
  4   1   5  1   
  5   4   6  1   
  6   4  20  1   
  7   4  21  1   
  8   5   7  1   
  9   5  22  1   
 10   5  23  1   
 11   6   7  1   
 12   6   8  1   
 13   6  24  1   
 14   7  25  1   
 15   7  26  1   
 16   8   9  1   
 17   8  10  1   
 18   9  11  1   
 19   9  27  1   
 20   9  28  1   
 21  10  12  1   
 22  10  29  1   
 23  10  30  1   
 24  11  13  2   
 25  11  14  1   
 26  12  15  1   
 27  12  31  1   
 28  12  32  1   
 29  13  16  1   
 30  14  17  2   
 31  14  33  1   
 32  15  34  1   
 33  16  17  1   
 34  16  18  1   
 35  17  35  1   
 36  18  19  1   
 37  18  36  1   
 38  18  37  1   
 39  19  38  1   
 40  19  39  1   
 41  19  40  1   
@<TRIPOS>SUBSTRUCTURE
  1 ****   8 GROUP 4 **** **** 0

# MOE 2024.06 (io_trps.svl 2023.06)
