@<TRIPOS>MOLECULE
NONAME
49 52 1 0 0 
SMALL
USER_CHARGES


@<TRIPOS>ATOM
  1 S       -1.3930     0.5660    -0.5810 S.3   1 <1>  -0.0800 
  2 C        0.2890     0.9960    -0.7470 C.2   1 <1>   0.1980 
  3 C       -1.6900     2.1220     0.1160 C.2   1 <1>  -0.1100 
  4 N        0.5800     2.1600    -0.3240 N.2   1 <1>  -0.5650 
  5 C        1.1980    -0.0420    -1.3650 C.3   1 <1>  -0.0600 
  6 C       -0.5480     2.8410     0.1870 C.2   1 <1>   0.1410 
  7 C       -0.4880     4.2060     0.7150 C.2   1 <1>   0.7160 
  8 O       -1.5090     4.8690     0.7060 O.2   1 <1>  -0.5700 
  9 N        0.6600     4.8060     1.2260 N.am  1 <1>  -0.6600 
 10 C        1.8830     4.0360     1.5980 C.3   1 <1>   0.1400 
 11 C        0.6580     6.2460     1.6170 C.3   1 <1>   0.1400 
 12 C        2.8980     4.0200     0.4380 C.3   1 <1>   0.3430 
 13 C        1.9460     6.9610     1.1940 C.3   1 <1>  -0.1600 
 14 N        3.5090     5.3580     0.1120 N.4   1 <1>  -0.9590 
 15 C        2.5170     6.4540    -0.1300 C.3   1 <1>   0.3430 
 16 C        4.4280     5.2190    -1.0500 C.3   1 <1>   0.4860 
 17 C        5.2920     6.4610    -1.1300 C.ar  1 <1>  -0.1430 
 18 C        6.3090     6.6650    -0.2000 C.ar  1 <1>  -0.1500 
 19 C        5.0660     7.4030    -2.1320 C.ar  1 <1>  -0.1500 
 20 C        7.0680     7.8160    -0.2820 C.ar  1 <1>  -0.1430 
 21 C        5.8340     8.5530    -2.2040 C.ar  1 <1>  -0.1500 
 22 C        6.8280     8.7390    -1.2640 C.ar  1 <1>   0.0820 
 23 C        8.2110     8.3040     0.5590 C.3   1 <1>  -0.0170 
 24 O        7.6500     9.7970    -1.2030 O.3   1 <1>  -0.3620 
 25 C        8.5660     9.6350    -0.1290 C.3   1 <1>   0.1200 
 26 H       -2.6970     2.3650     0.4080 H     1 <1>   0.1500 
 27 H        0.8590    -0.2780    -2.3570 H     1 <1>   0.0800 
 28 H        1.1880    -0.9360    -0.7680 H     1 <1>   0.0800 
 29 H        2.2030     0.3320    -1.4190 H     1 <1>   0.0800 
 30 H        1.6080     3.0240     1.8410 H     1 <1>   0.0800 
 31 H        2.3330     4.4550     2.4810 H     1 <1>   0.0800 
 32 H        0.5190     6.3290     2.6820 H     1 <1>   0.0800 
 33 H       -0.1720     6.7480     1.1470 H     1 <1>   0.0800 
 34 H        2.4010     3.6360    -0.4370 H     1 <1>   0.0800 
 35 H        3.6830     3.3270     0.6910 H     1 <1>   0.0800 
 36 H        2.6820     6.9070     1.9760 H     1 <1>   0.0800 
 37 H        1.7030     8.0030     1.0780 H     1 <1>   0.0800 
 38 H        4.0950     5.6650     0.8960 H     1 <1>   0.4500 
 39 H        3.0120     7.2820    -0.6130 H     1 <1>   0.0800 
 40 H        1.7230     6.1150    -0.7760 H     1 <1>   0.0800 
 41 H        3.8650     5.0960    -1.9610 H     1 <1>   0.0800 
 42 H        5.0630     4.3580    -0.9220 H     1 <1>   0.0800 
 43 H        6.5220     5.9490     0.5750 H     1 <1>   0.1500 
 44 H        4.2940     7.2540    -2.8690 H     1 <1>   0.1500 
 45 H        5.6790     9.2950    -2.9670 H     1 <1>   0.1500 
 46 H        9.0430     7.6240     0.5280 H     1 <1>   0.0800 
 47 H        7.9090     8.4690     1.5780 H     1 <1>   0.0800 
 48 H        9.5600     9.6160    -0.5400 H     1 <1>   0.0800 
 49 H        8.4540    10.4720     0.5370 H     1 <1>   0.0800 
@<TRIPOS>BOND
  1   1   2  1   
  2   1   3  1   
  3   2   4  2   
  4   2   5  1   
  5   3   6  2   
  6   3  26  1   
  7   4   6  1   
  8   5  27  1   
  9   5  28  1   
 10   5  29  1   
 11   6   7  1   
 12   7   8  2   
 13   7   9  am  
 14   9  10  1   
 15   9  11  1   
 16  10  12  1   
 17  10  30  1   
 18  10  31  1   
 19  11  13  1   
 20  11  32  1   
 21  11  33  1   
 22  12  14  1   
 23  12  34  1   
 24  12  35  1   
 25  13  15  1   
 26  13  36  1   
 27  13  37  1   
 28  14  15  1   
 29  14  16  1   
 30  14  38  1   
 31  15  39  1   
 32  15  40  1   
 33  16  17  1   
 34  16  41  1   
 35  16  42  1   
 36  17  18  ar  
 37  17  19  ar  
 38  18  20  ar  
 39  18  43  1   
 40  19  21  ar  
 41  19  44  1   
 42  20  22  ar  
 43  20  23  1   
 44  21  22  ar  
 45  21  45  1   
 46  22  24  1   
 47  23  25  1   
 48  23  46  1   
 49  23  47  1   
 50  24  25  1   
 51  25  48  1   
 52  25  49  1   
@<TRIPOS>SUBSTRUCTURE
  1 ****  14 GROUP 4 **** **** 0

# MOE 2024.06 (io_trps.svl 2023.06)
