@<TRIPOS>MOLECULE
NONAME
47 49 1 0 0 
SMALL
USER_CHARGES


@<TRIPOS>ATOM
  1 O        0.2150    -2.3220    -0.2510 O.3   1 <1>  -0.5600 
  2 C       -0.2890    -3.6100    -0.2170 C.3   1 <1>   0.1200 
  3 C        1.5090    -2.2270    -0.7560 C.3   1 <1>   0.0400 
  4 C       -1.6960    -3.5090     0.3640 C.3   1 <1>  -0.1600 
  5 C       -2.3540    -4.8830     0.4180 C.3   1 <1>   0.3430 
  6 N       -3.7120    -4.7820     1.0290 N.4   1 <1>  -0.9590 
  7 C       -4.7010    -4.0830     0.1350 C.3   1 <1>   0.3430 
  8 C       -4.2550    -6.1500     1.2950 C.3   1 <1>   0.3430 
  9 C       -5.9050    -5.0240    -0.0110 C.3   1 <1>   0.2000 
 10 C       -5.3230    -6.4130     0.2280 C.3   1 <1>  -0.0800 
 11 O       -6.8430    -4.7490     0.9770 O.3   1 <1>  -0.6800 
 12 C       -4.7420    -6.9940    -1.0820 C.3   1 <1>  -0.0170 
 13 C       -3.7740    -8.1370    -0.8280 C.ar  1 <1>   0.1670 
 14 N       -2.5270    -7.8220    -0.6390 N.ar  1 <1>  -0.6200 
 15 C       -4.2640    -9.4520    -0.7980 C.ar  1 <1>  -0.1500 
 16 C       -1.6500    -8.8400    -0.4170 C.ar  1 <1>   0.3100 
 17 C       -3.4100   -10.4840    -0.5580 C.ar  1 <1>  -0.1500 
 18 C       -2.0520   -10.1920    -0.3550 C.ar  1 <1>   0.0000 
 19 C       -0.2900    -8.5390    -0.2350 C.ar  1 <1>  -0.1500 
 20 C       -1.0850   -11.1840    -0.0970 C.ar  1 <1>  -0.1500 
 21 C        0.6340    -9.5190     0.0130 C.ar  1 <1>  -0.1500 
 22 C        0.2300   -10.8550     0.0850 C.ar  1 <1>  -0.1500 
 23 H       -0.3060    -4.0000    -1.2220 H     1 <1>   0.0800 
 24 H        0.3500    -4.2150     0.4060 H     1 <1>   0.0800 
 25 H        1.7990    -1.1910    -0.7400 H     1 <1>   0.0800 
 26 H        1.5260    -2.5900    -1.7690 H     1 <1>   0.0800 
 27 H        2.1790    -2.7980    -0.1360 H     1 <1>   0.0800 
 28 H       -1.6250    -3.1010     1.3560 H     1 <1>   0.0800 
 29 H       -2.2670    -2.8450    -0.2590 H     1 <1>   0.0800 
 30 H       -1.7410    -5.5460     1.0080 H     1 <1>   0.0800 
 31 H       -2.4240    -5.2990    -0.5750 H     1 <1>   0.0800 
 32 H       -3.6250    -4.2700     1.9170 H     1 <1>   0.4500 
 33 H       -5.0060    -3.1300     0.5360 H     1 <1>   0.0800 
 34 H       -4.2610    -3.9290    -0.8360 H     1 <1>   0.0800 
 35 H       -3.4800    -6.8990     1.2940 H     1 <1>   0.0800 
 36 H       -4.7260    -6.1600     2.2640 H     1 <1>   0.0800 
 37 H       -6.3950    -4.9190    -0.9650 H     1 <1>   0.0800 
 38 H       -6.0660    -7.0970     0.6020 H     1 <1>   0.0800 
 39 H       -6.5030    -4.8790     1.8830 H     1 <1>   0.4000 
 40 H       -4.2180    -6.2370    -1.6390 H     1 <1>   0.0800 
 41 H       -5.5460    -7.3390    -1.7090 H     1 <1>   0.0800 
 42 H       -5.3110    -9.6350    -0.9650 H     1 <1>   0.1500 
 43 H       -3.7460   -11.5060    -0.5260 H     1 <1>   0.1500 
 44 H        0.0110    -7.5120    -0.2990 H     1 <1>   0.1500 
 45 H       -1.4000   -12.2120    -0.0470 H     1 <1>   0.1500 
 46 H        1.6750    -9.2790     0.1520 H     1 <1>   0.1500 
 47 H        0.9670   -11.6160     0.2810 H     1 <1>   0.1500 
@<TRIPOS>BOND
  1   1   2  1   
  2   1   3  1   
  3   2   4  1   
  4   2  23  1   
  5   2  24  1   
  6   3  25  1   
  7   3  26  1   
  8   3  27  1   
  9   4   5  1   
 10   4  28  1   
 11   4  29  1   
 12   5   6  1   
 13   5  30  1   
 14   5  31  1   
 15   6   7  1   
 16   6   8  1   
 17   6  32  1   
 18   7   9  1   
 19   7  33  1   
 20   7  34  1   
 21   8  10  1   
 22   8  35  1   
 23   8  36  1   
 24   9  10  1   
 25   9  11  1   
 26   9  37  1   
 27  10  12  1   
 28  10  38  1   
 29  11  39  1   
 30  12  13  1   
 31  12  40  1   
 32  12  41  1   
 33  13  14  ar  
 34  13  15  ar  
 35  14  16  ar  
 36  15  17  ar  
 37  15  42  1   
 38  16  18  ar  
 39  16  19  ar  
 40  17  18  ar  
 41  17  43  1   
 42  18  20  ar  
 43  19  21  ar  
 44  19  44  1   
 45  20  22  ar  
 46  20  45  1   
 47  21  22  ar  
 48  21  46  1   
 49  22  47  1   
@<TRIPOS>SUBSTRUCTURE
  1 ****  14 GROUP 4 **** **** 0

# MOE 2024.06 (io_trps.svl 2023.06)
