@<TRIPOS>MOLECULE
NONAME
44 45 1 0 0 
SMALL
USER_CHARGES


@<TRIPOS>ATOM
  1 O        3.0560     1.0500     1.7840 O.2   1 <1>  -0.5700 
  2 C        2.7560     0.1870     0.9720 C.2   1 <1>   0.6900 
  3 N        3.1160     0.3510    -0.3420 N.am  1 <1>  -0.6600 
  4 N        2.0710    -0.9320     1.3840 N.am  1 <1>  -0.6600 
  5 C        3.4330     1.7100    -0.8490 C.3   1 <1>   0.1400 
  6 C        3.7690    -0.7440    -1.1090 C.3   1 <1>   0.1400 
  7 C        2.0010    -1.2930     2.8240 C.3   1 <1>   0.0600 
  8 C        1.0800    -1.6260     0.5190 C.3   1 <1>   0.0600 
  9 C        4.9420     1.9370    -0.7440 C.3   1 <1>  -0.0190 
 10 C        5.2920    -0.5380    -1.1240 C.3   1 <1>  -0.1600 
 11 C        5.2510     3.3750    -1.1220 C.2   1 <1>   0.5690 
 12 C        5.6910     0.8770    -1.5780 C.3   1 <1>  -0.1600 
 13 O        5.5070     3.6500    -2.2720 O.2   1 <1>  -0.5700 
 14 N        5.1900     4.2990    -0.1230 N.am  1 <1>  -0.4930 
 15 C        5.3940     5.6990    -0.1800 C.2   1 <1>   0.0630 
 16 C        5.2460     6.5700     0.8420 C.2   1 <1>  -0.3320 
 17 C        5.7810     6.4860    -1.2640 C.2   1 <1>   0.1390 
 18 N        5.5410     7.7980     0.3470 N.pl3 1 <1>   0.3140 
 19 C        4.8320     6.3120     2.2850 C.3   1 <1>  -0.0600 
 20 N        5.8710     7.7450    -0.9530 N.2   1 <1>  -0.7070 
 21 C        5.5250     9.0760     1.0690 C.3   1 <1>   0.0160 
 22 H        2.9010     2.4480    -0.2710 H     1 <1>   0.0800 
 23 H        3.1140     1.7960    -1.8740 H     1 <1>   0.0800 
 24 H        3.3880    -0.7400    -2.1160 H     1 <1>   0.0800 
 25 H        3.5450    -1.6980    -0.6660 H     1 <1>   0.0800 
 26 H        2.8360    -0.8690     3.3560 H     1 <1>   0.0800 
 27 H        2.0290    -2.3630     2.9360 H     1 <1>   0.0800 
 28 H        1.0890    -0.9120     3.2500 H     1 <1>   0.0800 
 29 H        0.9820    -1.1210    -0.4260 H     1 <1>   0.0800 
 30 H        0.1180    -1.6330     1.0000 H     1 <1>   0.0800 
 31 H        1.3970    -2.6390     0.3470 H     1 <1>   0.0800 
 32 H        5.2260     1.8080     0.2860 H     1 <1>   0.0800 
 33 H        5.7430    -1.2670    -1.7730 H     1 <1>   0.0800 
 34 H        5.6680    -0.7140    -0.1300 H     1 <1>   0.0800 
 35 H        6.7540     1.0120    -1.4690 H     1 <1>   0.0800 
 36 H        5.4470     1.0010    -2.6200 H     1 <1>   0.0800 
 37 H        4.9310     3.9500     0.7980 H     1 <1>   0.3700 
 38 H        5.9840     6.0990    -2.2480 H     1 <1>   0.1500 
 39 H        4.6350     5.2680     2.4460 H     1 <1>   0.0800 
 40 H        3.9380     6.8630     2.5170 H     1 <1>   0.0800 
 41 H        5.6160     6.6160     2.9550 H     1 <1>   0.0800 
 42 H        6.2140     9.0260     1.8910 H     1 <1>   0.0800 
 43 H        4.5320     9.2650     1.4290 H     1 <1>   0.0800 
 44 H        5.8210     9.8630     0.3990 H     1 <1>   0.0800 
@<TRIPOS>BOND
  1   1   2  2   
  2   2   3  am  
  3   2   4  am  
  4   3   5  1   
  5   3   6  1   
  6   4   7  1   
  7   4   8  1   
  8   5   9  1   
  9   5  22  1   
 10   5  23  1   
 11   6  10  1   
 12   6  24  1   
 13   6  25  1   
 14   7  26  1   
 15   7  27  1   
 16   7  28  1   
 17   8  29  1   
 18   8  30  1   
 19   8  31  1   
 20   9  11  1   
 21   9  12  1   
 22   9  32  1   
 23  10  12  1   
 24  10  33  1   
 25  10  34  1   
 26  11  13  2   
 27  11  14  am  
 28  12  35  1   
 29  12  36  1   
 30  14  15  1   
 31  14  37  1   
 32  15  16  2   
 33  15  17  1   
 34  16  18  1   
 35  16  19  1   
 36  17  20  2   
 37  17  38  1   
 38  18  20  1   
 39  18  21  1   
 40  19  39  1   
 41  19  40  1   
 42  19  41  1   
 43  21  42  1   
 44  21  43  1   
 45  21  44  1   
@<TRIPOS>SUBSTRUCTURE
  1 ****   9 GROUP 4 **** **** 0

# MOE 2024.06 (io_trps.svl 2023.06)
