@<TRIPOS>MOLECULE
NONAME
43 45 1 0 0 
SMALL
USER_CHARGES


@<TRIPOS>ATOM
  1 O       -0.2630     0.9500     1.1560 O.2   1 <1>  -0.5700 
  2 C       -0.1430     1.9620     0.4910 C.2   1 <1>   0.6160 
  3 N       -1.2480     2.7580     0.2820 N.am  1 <1>  -0.6600 
  4 C        1.1560     2.3010    -0.0550 C.2   1 <1>   0.0140 
  5 C       -2.6100     2.2630     0.6640 C.3   1 <1>   0.1400 
  6 C       -1.1470     4.1870    -0.1450 C.3   1 <1>   0.1400 
  7 C        1.3480     2.6810    -1.3570 C.2   1 <1>  -0.1360 
  8 C        2.3140     2.2340     0.7790 C.2   1 <1>  -0.1500 
  9 C       -3.7280     2.9270    -0.1780 C.3   1 <1>   0.0000 
 10 C       -2.3070     5.0100     0.4230 C.3   1 <1>  -0.1600 
 11 C        2.6270     3.0270    -1.8530 C.2   1 <1>   0.6160 
 12 C        3.5470     2.5570     0.3080 C.2   1 <1>  -0.0290 
 13 C       -5.1200     2.3590     0.1630 C.3   1 <1>   0.2000 
 14 C       -3.6880     4.4670     0.0070 C.3   1 <1>  -0.1600 
 15 C       -3.5960     2.5050    -1.6560 C.3   1 <1>  -0.1600 
 16 O        2.8220     3.3940    -3.0000 O.2   1 <1>  -0.5700 
 17 N        3.6870     2.9560    -0.9980 N.am  1 <1>  -0.5390 
 18 C        4.8060     2.5020     1.1480 C.3   1 <1>  -0.1020 
 19 O       -5.2920     2.1250     1.5170 O.3   1 <1>  -0.6800 
 20 C       -5.2760     1.0560    -0.6220 C.3   1 <1>  -0.1600 
 21 C       -4.2340     1.1150    -1.7460 C.3   1 <1>  -0.1600 
 22 H       -2.6470     1.1940     0.5470 H     1 <1>   0.0800 
 23 H       -2.7630     2.4850     1.7060 H     1 <1>   0.0800 
 24 H       -0.2160     4.6060     0.1980 H     1 <1>   0.0800 
 25 H       -1.1680     4.2390    -1.2200 H     1 <1>   0.0800 
 26 H        0.5380     2.7290    -2.0580 H     1 <1>   0.1500 
 27 H        2.1670     1.9110     1.7960 H     1 <1>   0.1500 
 28 H       -2.2280     5.0010     1.4970 H     1 <1>   0.0800 
 29 H       -2.2130     6.0340     0.1050 H     1 <1>   0.0800 
 30 H       -5.8820     3.0550    -0.1490 H     1 <1>   0.0800 
 31 H       -4.0060     4.9530    -0.8980 H     1 <1>   0.0800 
 32 H       -4.3880     4.7500     0.7750 H     1 <1>   0.0800 
 33 H       -4.1610     3.1750    -2.2810 H     1 <1>   0.0800 
 34 H       -2.5800     2.4910    -2.0090 H     1 <1>   0.0800 
 35 H        4.5880     3.2080    -1.4050 H     1 <1>   0.3700 
 36 H        5.5070     1.8120     0.7150 H     1 <1>   0.0800 
 37 H        4.5800     2.1770     2.1480 H     1 <1>   0.0800 
 38 H        5.2580     3.4760     1.1990 H     1 <1>   0.0800 
 39 H       -4.7320     1.3800     1.8030 H     1 <1>   0.4000 
 40 H       -5.0950     0.1950    -0.0030 H     1 <1>   0.0800 
 41 H       -6.2690     0.9960    -1.0320 H     1 <1>   0.0800 
 42 H       -3.4820     0.3610    -1.5810 H     1 <1>   0.0800 
 43 H       -4.6790     0.9520    -2.7120 H     1 <1>   0.0800 
@<TRIPOS>BOND
  1   1   2  2   
  2   2   3  am  
  3   2   4  1   
  4   3   5  1   
  5   3   6  1   
  6   4   7  2   
  7   4   8  1   
  8   5   9  1   
  9   5  22  1   
 10   5  23  1   
 11   6  10  1   
 12   6  24  1   
 13   6  25  1   
 14   7  11  1   
 15   7  26  1   
 16   8  12  2   
 17   8  27  1   
 18   9  13  1   
 19   9  14  1   
 20   9  15  1   
 21  10  14  1   
 22  10  28  1   
 23  10  29  1   
 24  11  16  2   
 25  11  17  am  
 26  12  17  1   
 27  12  18  1   
 28  13  19  1   
 29  13  20  1   
 30  13  30  1   
 31  14  31  1   
 32  14  32  1   
 33  15  21  1   
 34  15  33  1   
 35  15  34  1   
 36  17  35  1   
 37  18  36  1   
 38  18  37  1   
 39  18  38  1   
 40  19  39  1   
 41  20  21  1   
 42  20  40  1   
 43  20  41  1   
 44  21  42  1   
 45  21  43  1   
@<TRIPOS>SUBSTRUCTURE
  1 ****   3 GROUP 4 **** **** 0

# MOE 2024.06 (io_trps.svl 2023.06)
