@<TRIPOS>MOLECULE
NONAME
44 45 1 0 0 
SMALL
USER_CHARGES


@<TRIPOS>ATOM
  1 O        0.5080    -0.3820     1.6420 O.2   1 <1>  -0.5700 
  2 C        0.6670    -0.3980     0.4470 C.2   1 <1>   0.5690 
  3 N        1.1450     0.6700    -0.2400 N.am  1 <1>  -0.7300 
  4 C        0.3310    -1.6610    -0.3090 C.3   1 <1>  -0.0990 
  5 C        1.5490     1.9540     0.3700 C.3   1 <1>   0.1400 
  6 C        1.0590    -2.8560     0.3120 C.3   1 <1>   0.0960 
  7 C        2.9720     2.2860    -0.0730 C.3   1 <1>  -0.1600 
  8 N        0.7470    -4.0870    -0.4400 N.pl3 1 <1>   0.0480 
  9 C        3.4700     3.5820     0.5750 C.3   1 <1>   0.0210 
 10 C       -0.2510    -4.9820    -0.2350 C.2   1 <1>   0.0060 
 11 C        1.4050    -4.5480    -1.5190 C.2   1 <1>  -0.3020 
 12 C        4.8840     3.8840     0.1110 C.2   1 <1>  -0.1810 
 13 N       -0.2640    -5.9490    -1.0930 N.2   1 <1>  -0.5650 
 14 C       -1.2620    -4.8710     0.8880 C.3   1 <1>  -0.0600 
 15 C        0.7770    -5.6800    -1.9010 C.2   1 <1>   0.0770 
 16 C        5.2570     4.6690    -0.9800 C.2   1 <1>   0.1080 
 17 C        6.0510     3.4620     0.6460 C.2   1 <1>  -0.3320 
 18 N        6.5430     4.7390    -1.1190 N.2   1 <1>  -0.7070 
 19 C        4.3150     5.3840    -1.9220 C.3   1 <1>  -0.0590 
 20 N        7.0330     3.9930    -0.1130 N.pl3 1 <1>   0.3000 
 21 C        6.3220     2.5720     1.8470 C.3   1 <1>  -0.0600 
 22 H        1.2460     0.6180    -1.2540 H     1 <1>   0.3700 
 23 H        0.6160    -1.5560    -1.3400 H     1 <1>   0.0800 
 24 H       -0.7310    -1.8120    -0.2550 H     1 <1>   0.0800 
 25 H        1.5050     1.8790     1.4440 H     1 <1>   0.0800 
 26 H        0.8680     2.7270     0.0550 H     1 <1>   0.0800 
 27 H        0.7600    -2.9840     1.3370 H     1 <1>   0.0800 
 28 H        2.1220    -2.6960     0.2880 H     1 <1>   0.0800 
 29 H        3.0050     2.3930    -1.1430 H     1 <1>   0.0800 
 30 H        3.6300     1.4840     0.2120 H     1 <1>   0.0800 
 31 H        3.4630     3.4820     1.6460 H     1 <1>   0.0800 
 32 H        2.8240     4.4020     0.3180 H     1 <1>   0.0800 
 33 H        2.2620    -4.0630    -1.9480 H     1 <1>   0.1500 
 34 H       -1.8040    -3.9470     0.8110 H     1 <1>   0.0800 
 35 H       -0.7640    -4.9160     1.8390 H     1 <1>   0.0800 
 36 H       -1.9610    -5.6850     0.8280 H     1 <1>   0.0800 
 37 H        1.0210    -6.3270    -2.7270 H     1 <1>   0.1500 
 38 H        3.5280     4.7230    -2.2300 H     1 <1>   0.0800 
 39 H        4.8540     5.7120    -2.7930 H     1 <1>   0.0800 
 40 H        3.8950     6.2400    -1.4300 H     1 <1>   0.0800 
 41 H        8.0420     3.8670     0.0270 H     1 <1>   0.2700 
 42 H        5.4000     2.2270     2.2790 H     1 <1>   0.0800 
 43 H        6.8680     3.1170     2.5960 H     1 <1>   0.0800 
 44 H        6.8970     1.7140     1.5490 H     1 <1>   0.0800 
@<TRIPOS>BOND
  1   1   2  2   
  2   2   3  am  
  3   2   4  1   
  4   3   5  1   
  5   3  22  1   
  6   4   6  1   
  7   4  23  1   
  8   4  24  1   
  9   5   7  1   
 10   5  25  1   
 11   5  26  1   
 12   6   8  1   
 13   6  27  1   
 14   6  28  1   
 15   7   9  1   
 16   7  29  1   
 17   7  30  1   
 18   8  10  1   
 19   8  11  1   
 20   9  12  1   
 21   9  31  1   
 22   9  32  1   
 23  10  13  2   
 24  10  14  1   
 25  11  15  2   
 26  11  33  1   
 27  12  16  1   
 28  12  17  2   
 29  13  15  1   
 30  14  34  1   
 31  14  35  1   
 32  14  36  1   
 33  15  37  1   
 34  16  18  2   
 35  16  19  1   
 36  17  20  1   
 37  17  21  1   
 38  18  20  1   
 39  19  38  1   
 40  19  39  1   
 41  19  40  1   
 42  20  41  1   
 43  21  42  1   
 44  21  43  1   
 45  21  44  1   
@<TRIPOS>SUBSTRUCTURE
  1 ****   3 GROUP 4 **** **** 0

# MOE 2024.06 (io_trps.svl 2023.06)
