@<TRIPOS>MOLECULE
NONAME
57 59 1 0 0 
SMALL
USER_CHARGES


@<TRIPOS>ATOM
  1 O       -2.2940     2.0410    -1.1010 O.co2 1 <1>  -0.9000 
  2 C       -1.2410     2.6150    -0.8170 C.2   1 <1>   0.9060 
  3 O       -0.7550     3.4950    -1.5450 O.co2 1 <1>  -0.9000 
  4 C       -0.6170     2.3470     0.5520 C.3   1 <1>  -0.1060 
  5 C       -1.5910     2.7570     1.7020 C.3   1 <1>   0.2000 
  6 C        0.6750     3.1720     0.6330 C.3   1 <1>   0.3430 
  7 C       -0.2700     0.8440     0.6910 C.3   1 <1>  -0.0650 
  8 O       -2.7920     3.2310     1.2130 O.3   1 <1>  -0.6800 
  9 C       -1.0400     3.8780     2.5870 C.3   1 <1>  -0.1600 
 10 N        0.3250     4.6190     0.6170 N.4   1 <1>  -0.9590 
 11 C        0.8120     0.3710    -0.2900 C.3   1 <1>  -0.1950 
 12 C       -0.5870     5.0570     1.7230 C.3   1 <1>   0.3430 
 13 C        1.4950     5.5000     0.3640 C.3   1 <1>   0.3430 
 14 C        1.5500    -0.9020    -0.0270 C.3   1 <1>  -0.2000 
 15 C        2.2680     0.4150     0.0560 C.3   1 <1>  -0.2000 
 16 C        1.0710     6.8250    -0.2710 C.3   1 <1>   0.1200 
 17 O        2.1840     7.6880    -0.2420 O.3   1 <1>  -0.3630 
 18 C        2.0890     8.9900    -0.6250 C.ar  1 <1>   0.0830 
 19 C        3.1470     9.8510    -0.3220 C.ar  1 <1>  -0.1430 
 20 C        0.9700     9.4770    -1.3010 C.ar  1 <1>  -0.1500 
 21 C        3.0510    11.1850    -0.6960 C.ar  1 <1>  -0.1500 
 22 C        4.4060     9.3670     0.4100 C.3   1 <1>   0.0630 
 23 C        0.8960    10.8080    -1.6640 C.ar  1 <1>  -0.1500 
 24 C        1.9370    11.6640    -1.3610 C.ar  1 <1>  -0.1500 
 25 C        4.5610    10.0780     1.7590 C.3   1 <1>  -0.2400 
 26 C        5.6560     9.5680    -0.4540 C.3   1 <1>  -0.2400 
 27 H       -1.8320     1.9020     2.3110 H     1 <1>   0.0800 
 28 H        1.2870     2.9390    -0.2240 H     1 <1>   0.0800 
 29 H        1.2220     2.9270     1.5280 H     1 <1>   0.0800 
 30 H        0.0540     0.6340     1.6960 H     1 <1>   0.0800 
 31 H       -1.1610     0.2640     0.5140 H     1 <1>   0.0800 
 32 H       -2.9870     2.7610     0.3470 H     1 <1>   0.4000 
 33 H       -1.8010     4.2020     3.2760 H     1 <1>   0.0800 
 34 H       -0.2150     3.5170     3.1730 H     1 <1>   0.0800 
 35 H       -0.2470     4.6250    -0.2710 H     1 <1>   0.4500 
 36 H        0.5330     0.5400    -1.3190 H     1 <1>   0.1000 
 37 H       -0.0930     5.7850     2.3450 H     1 <1>   0.0800 
 38 H       -1.4610     5.5200     1.2900 H     1 <1>   0.0800 
 39 H        2.0060     5.6940     1.2920 H     1 <1>   0.0800 
 40 H        2.1750     5.0060    -0.3110 H     1 <1>   0.0800 
 41 H        1.3520    -1.4450     0.8810 H     1 <1>   0.1000 
 42 H        1.7540    -1.5550    -0.8590 H     1 <1>   0.1000 
 43 H        2.9780     0.6560    -0.7170 H     1 <1>   0.1000 
 44 H        2.5910     0.7400     1.0290 H     1 <1>   0.1000 
 45 H        0.2800     7.2890     0.2890 H     1 <1>   0.0800 
 46 H        0.7800     6.6720    -1.2960 H     1 <1>   0.0800 
 47 H        0.1470     8.8400    -1.5610 H     1 <1>   0.1500 
 48 H        3.8500    11.8690    -0.4730 H     1 <1>   0.1500 
 49 H        4.3320     8.3140     0.6140 H     1 <1>   0.0800 
 50 H        0.0300    11.1800    -2.1850 H     1 <1>   0.1500 
 51 H        1.8820    12.7010    -1.6420 H     1 <1>   0.1500 
 52 H        4.7130    11.1340     1.6230 H     1 <1>   0.0800 
 53 H        5.4020     9.6780     2.2960 H     1 <1>   0.0800 
 54 H        3.6750     9.9330     2.3510 H     1 <1>   0.0800 
 55 H        5.8370    10.6110    -0.6370 H     1 <1>   0.0800 
 56 H        5.5270     9.0720    -1.4000 H     1 <1>   0.0800 
 57 H        6.5180     9.1520     0.0350 H     1 <1>   0.0800 
@<TRIPOS>BOND
  1   1   2  ar  
  2   2   3  ar  
  3   2   4  1   
  4   4   5  1   
  5   4   6  1   
  6   4   7  1   
  7   5   8  1   
  8   5   9  1   
  9   5  27  1   
 10   6  10  1   
 11   6  28  1   
 12   6  29  1   
 13   7  11  1   
 14   7  30  1   
 15   7  31  1   
 16   8  32  1   
 17   9  12  1   
 18   9  33  1   
 19   9  34  1   
 20  10  12  1   
 21  10  13  1   
 22  10  35  1   
 23  11  14  1   
 24  11  15  1   
 25  11  36  1   
 26  12  37  1   
 27  12  38  1   
 28  13  16  1   
 29  13  39  1   
 30  13  40  1   
 31  14  15  1   
 32  14  41  1   
 33  14  42  1   
 34  15  43  1   
 35  15  44  1   
 36  16  17  1   
 37  16  45  1   
 38  16  46  1   
 39  17  18  1   
 40  18  19  ar  
 41  18  20  ar  
 42  19  21  ar  
 43  19  22  1   
 44  20  23  ar  
 45  20  47  1   
 46  21  24  ar  
 47  21  48  1   
 48  22  25  1   
 49  22  26  1   
 50  22  49  1   
 51  23  24  ar  
 52  23  50  1   
 53  24  51  1   
 54  25  52  1   
 55  25  53  1   
 56  25  54  1   
 57  26  55  1   
 58  26  56  1   
 59  26  57  1   
@<TRIPOS>SUBSTRUCTURE
  1 ****  13 GROUP 4 **** **** 0

# MOE 2024.06 (io_trps.svl 2023.06)
