@<TRIPOS>MOLECULE
NONAME
49 52 1 0 0 
SMALL
USER_CHARGES


@<TRIPOS>ATOM
  1 O        0.9340     1.5380     0.3690 O.2   1 <1>  -0.5700 
  2 C        0.0690     2.2150    -0.1570 C.2   1 <1>   0.8410 
  3 N       -0.1310     2.0990    -1.5070 N.2   1 <1>  -0.6610 
  4 N       -0.6740     3.1100     0.5970 N.am  1 <1>  -0.4690 
  5 C       -1.0220     2.8470    -2.0480 C.2   1 <1>   0.3760 
  6 C       -1.6210     3.9030    -0.0010 C.2   1 <1>  -0.0410 
  7 C       -0.4490     3.2260     2.0740 C.3   1 <1>   0.2010 
  8 C       -1.8060     3.7800    -1.3350 C.2   1 <1>  -0.1360 
  9 C       -0.0020     4.6230     2.5060 C.2   1 <1>   0.5690 
 10 O       -0.8610     5.3320     2.9810 O.2   1 <1>  -0.5700 
 11 N        1.3000     5.0600     2.3760 N.am  1 <1>  -0.6600 
 12 C        2.3840     4.2690     1.7050 C.3   1 <1>   0.1400 
 13 C        1.7080     6.3770     2.9550 C.3   1 <1>   0.1400 
 14 C        2.4910     4.6040     0.2080 C.3   1 <1>   0.1400 
 15 C        2.6040     7.2190     2.0360 C.3   1 <1>  -0.1600 
 16 N        3.0520     5.9690    -0.0410 N.am  1 <1>  -0.6600 
 17 C        2.2750     7.0960     0.5450 C.3   1 <1>   0.1400 
 18 C        4.1970     6.1320    -0.7840 C.2   1 <1>   0.6300 
 19 O        4.7960     5.1900    -1.2480 O.2   1 <1>  -0.5700 
 20 C        4.7470     7.5280    -1.0650 C.3   1 <1>  -0.1000 
 21 C        6.2190     7.7950    -1.0900 C.3   1 <1>  -0.1520 
 22 C        5.3970     8.3560     0.0240 C.3   1 <1>  -0.2000 
 23 C        7.4620     6.9250    -0.7890 C.3   1 <1>   0.0760 
 24 C        7.1170     8.7210    -1.9400 C.3   1 <1>   0.0760 
 25 C        8.3060     8.1960    -1.0860 C.3   1 <1>   0.0000 
 26 H       -1.1910     2.7680    -3.1080 H     1 <1>   0.0600 
 27 H       -2.1810     4.5940     0.6110 H     1 <1>   0.1500 
 28 H        0.2640     2.5030     2.4210 H     1 <1>   0.0800 
 29 H       -1.3770     3.0060     2.5700 H     1 <1>   0.0800 
 30 H       -2.5270     4.3660    -1.8740 H     1 <1>   0.1500 
 31 H        2.1930     3.2180     1.8100 H     1 <1>   0.0800 
 32 H        3.3300     4.4610     2.1800 H     1 <1>   0.0800 
 33 H        2.2170     6.2040     3.8880 H     1 <1>   0.0800 
 34 H        0.8300     6.9580     3.1780 H     1 <1>   0.0800 
 35 H        1.5220     4.5360    -0.2510 H     1 <1>   0.0800 
 36 H        3.1130     3.8580    -0.2560 H     1 <1>   0.0800 
 37 H        3.6350     6.9670     2.2060 H     1 <1>   0.0800 
 38 H        2.4850     8.2460     2.3280 H     1 <1>   0.0800 
 39 H        2.5250     8.0160     0.0480 H     1 <1>   0.0800 
 40 H        1.2200     6.9310     0.4020 H     1 <1>   0.0800 
 41 H        4.1680     8.0300    -1.8180 H     1 <1>   0.1000 
 42 H        5.5140     7.9300     1.0040 H     1 <1>   0.1000 
 43 H        5.1970     9.4120     0.0510 H     1 <1>   0.1000 
 44 H        7.6090     6.1510    -1.5240 H     1 <1>   0.0000 
 45 H        7.5260     6.5750     0.2260 H     1 <1>   0.0000 
 46 H        6.9140     9.7710    -1.8210 H     1 <1>   0.0000 
 47 H        7.1750     8.4050    -2.9670 H     1 <1>   0.0000 
 48 H        9.1980     8.0030    -1.6550 H     1 <1>   0.0000 
 49 H        8.4780     8.7930    -0.2060 H     1 <1>   0.0000 
@<TRIPOS>BOND
  1   1   2  2   
  2   2   3  1   
  3   2   4  am  
  4   3   5  2   
  5   4   6  1   
  6   4   7  1   
  7   5   8  1   
  8   5  26  1   
  9   6   8  2   
 10   6  27  1   
 11   7   9  1   
 12   7  28  1   
 13   7  29  1   
 14   8  30  1   
 15   9  10  2   
 16   9  11  am  
 17  11  12  1   
 18  11  13  1   
 19  12  14  1   
 20  12  31  1   
 21  12  32  1   
 22  13  15  1   
 23  13  33  1   
 24  13  34  1   
 25  14  16  1   
 26  14  35  1   
 27  14  36  1   
 28  15  17  1   
 29  15  37  1   
 30  15  38  1   
 31  16  17  1   
 32  16  18  am  
 33  17  39  1   
 34  17  40  1   
 35  18  19  2   
 36  18  20  1   
 37  20  21  1   
 38  20  22  1   
 39  20  41  1   
 40  21  22  1   
 41  21  23  1   
 42  21  24  1   
 43  22  42  1   
 44  22  43  1   
 45  23  25  1   
 46  23  44  1   
 47  23  45  1   
 48  24  25  1   
 49  24  46  1   
 50  24  47  1   
 51  25  48  1   
 52  25  49  1   
@<TRIPOS>SUBSTRUCTURE
  1 ****  14 GROUP 4 **** **** 0

# MOE 2024.06 (io_trps.svl 2023.06)
