@<TRIPOS>MOLECULE
NONAME
51 54 1 0 0 
SMALL
USER_CHARGES


@<TRIPOS>ATOM
  1 S        1.1770     0.7190    -2.1900 S.3   1 <1>  -0.0800 
  2 C        1.9150     0.5140    -0.5970 C.2   1 <1>   0.0400 
  3 C        0.7770    -0.9830    -2.3060 C.2   1 <1>  -0.1100 
  4 C        2.4730     1.6560     0.0720 C.2   1 <1>   0.4780 
  5 C        1.8230    -0.7950    -0.2450 C.2   1 <1>  -0.1500 
  6 C        1.1850    -1.6360    -1.2030 C.2   1 <1>  -0.1500 
  7 O        3.0240     1.4960     1.2630 O.3   1 <1>  -0.2800 
  8 N        2.5170     2.8860    -0.3390 N.2   1 <1>  -0.5650 
  9 C        3.4460     2.6690     1.6350 C.2   1 <1>  -0.0400 
 10 C        3.1450     3.5380     0.6570 C.2   1 <1>   0.0460 
 11 C        4.1350     2.8050     2.9770 C.3   1 <1>  -0.0600 
 12 C        3.4170     5.0390     0.5920 C.3   1 <1>   0.2910 
 13 N        4.5290     5.4130    -0.3220 N.3   1 <1>  -0.8100 
 14 C        4.7790     6.8800    -0.2920 C.3   1 <1>   0.3700 
 15 C        5.7560     4.6420    -0.0480 C.3   1 <1>   0.1100 
 16 C        3.5140     7.7220    -0.5010 C.2   1 <1>   0.2980 
 17 C        5.8450     7.2500    -1.3370 C.3   1 <1>  -0.1600 
 18 C        6.8380     4.9700    -1.0810 C.3   1 <1>  -0.1600 
 19 O        2.9090     7.6940    -1.6640 O.3   1 <1>  -0.0190 
 20 N        2.9680     8.4670     0.3800 N.2   1 <1>  -0.5650 
 21 C        7.1460     6.4690    -1.1240 C.3   1 <1>  -0.1600 
 22 N        1.8950     8.4900    -1.5100 N.2   1 <1>  -0.4100 
 23 C        1.9380     8.9270    -0.3170 C.2   1 <1>   0.3350 
 24 C        0.9360     9.8830     0.2930 C.3   1 <1>   0.0210 
 25 C        1.6020    11.2190     0.6070 C.3   1 <1>   0.1200 
 26 O        0.6440    12.0680     1.1540 O.3   1 <1>  -0.5600 
 27 C        1.1320    13.3270     1.4870 C.3   1 <1>   0.0400 
 28 H        0.2750    -1.3150    -3.1970 H     1 <1>   0.1500 
 29 H        2.1960    -1.1960     0.6810 H     1 <1>   0.1500 
 30 H        1.0610    -2.6900    -1.0230 H     1 <1>   0.1500 
 31 H        5.0010     2.1690     3.0040 H     1 <1>   0.0800 
 32 H        3.4620     2.5080     3.7610 H     1 <1>   0.0800 
 33 H        4.4420     3.8200     3.1470 H     1 <1>   0.0800 
 34 H        3.6340     5.3990     1.5820 H     1 <1>   0.0800 
 35 H        2.5060     5.5090     0.2630 H     1 <1>   0.0800 
 36 H        5.1660     7.1330     0.6810 H     1 <1>   0.0800 
 37 H        5.5480     3.5870    -0.1130 H     1 <1>   0.0800 
 38 H        6.1140     4.8600     0.9440 H     1 <1>   0.0800 
 39 H        6.0460     8.3050    -1.2820 H     1 <1>   0.0800 
 40 H        5.4570     7.0390    -2.3190 H     1 <1>   0.0800 
 41 H        6.4980     4.6390    -2.0480 H     1 <1>   0.0800 
 42 H        7.7320     4.4220    -0.8450 H     1 <1>   0.0800 
 43 H        7.6020     6.7700    -0.1960 H     1 <1>   0.0800 
 44 H        7.8360     6.6780    -1.9230 H     1 <1>   0.0800 
 45 H        0.5480     9.4510     1.1970 H     1 <1>   0.0800 
 46 H        0.1280    10.0380    -0.3980 H     1 <1>   0.0800 
 47 H        1.9890    11.6650    -0.2940 H     1 <1>   0.0800 
 48 H        2.3960    11.0840     1.3210 H     1 <1>   0.0800 
 49 H        0.3210    13.9020     1.8990 H     1 <1>   0.0800 
 50 H        1.5050    13.8110     0.6010 H     1 <1>   0.0800 
 51 H        1.9120    13.2230     2.2210 H     1 <1>   0.0800 
@<TRIPOS>BOND
  1   1   2  1   
  2   1   3  1   
  3   2   4  1   
  4   2   5  2   
  5   3   6  2   
  6   3  28  1   
  7   4   7  1   
  8   4   8  2   
  9   5   6  1   
 10   5  29  1   
 11   6  30  1   
 12   7   9  1   
 13   8  10  1   
 14   9  10  2   
 15   9  11  1   
 16  10  12  1   
 17  11  31  1   
 18  11  32  1   
 19  11  33  1   
 20  12  13  1   
 21  12  34  1   
 22  12  35  1   
 23  13  14  1   
 24  13  15  1   
 25  14  16  1   
 26  14  17  1   
 27  14  36  1   
 28  15  18  1   
 29  15  37  1   
 30  15  38  1   
 31  16  19  1   
 32  16  20  2   
 33  17  21  1   
 34  17  39  1   
 35  17  40  1   
 36  18  21  1   
 37  18  41  1   
 38  18  42  1   
 39  19  22  1   
 40  20  23  1   
 41  21  43  1   
 42  21  44  1   
 43  22  23  2   
 44  23  24  1   
 45  24  25  1   
 46  24  45  1   
 47  24  46  1   
 48  25  26  1   
 49  25  47  1   
 50  25  48  1   
 51  26  27  1   
 52  27  49  1   
 53  27  50  1   
 54  27  51  1   
@<TRIPOS>SUBSTRUCTURE
  1 ****  12 GROUP 4 **** **** 0

# MOE 2024.06 (io_trps.svl 2023.06)
