@<TRIPOS>MOLECULE
NONAME
58 59 1 0 0 
SMALL
USER_CHARGES


@<TRIPOS>ATOM
  1 O        0.2690     0.0210     0.9140 O.2   1 <1>  -0.5700 
  2 C        1.0110    -0.4310     0.0630 C.2   1 <1>   0.7160 
  3 N        1.6710     0.4230    -0.8030 N.am  1 <1>  -0.6600 
  4 C        1.1460    -1.8680    -0.0190 C.2   1 <1>  -0.0860 
  5 C        1.8060     1.8950    -0.5640 C.3   1 <1>   0.2200 
  6 C        2.1140    -0.0050    -2.1620 C.3   1 <1>   0.0600 
  7 C        2.2290    -2.6760    -0.2030 C.2   1 <1>  -0.0400 
  8 C        0.0720    -2.7680     0.1290 C.2   1 <1>  -0.1500 
  9 C        2.2670     2.2140     0.8710 C.3   1 <1>  -0.0160 
 10 C        0.4960     2.5940    -0.9450 C.3   1 <1>  -0.2400 
 11 O        1.8780    -3.9390    -0.2050 O.3   1 <1>  -0.2800 
 12 C        3.7010    -2.3500    -0.3600 C.3   1 <1>  -0.0600 
 13 C        0.5830    -4.0120     0.0040 C.2   1 <1>  -0.0400 
 14 C        3.1670     3.4410     0.9060 C.ar  1 <1>   0.1670 
 15 C       -0.0330    -5.3990     0.0770 C.3   1 <1>   0.5230 
 16 N        2.5840     4.6160     0.7230 N.ar  1 <1>  -0.6200 
 17 C        4.5290     3.2800     1.1210 C.ar  1 <1>  -0.1500 
 18 N       -1.5210    -5.3190     0.2070 N.4   1 <1>  -0.9590 
 19 C        3.3880     5.6660     0.7570 C.ar  1 <1>   0.1600 
 20 C        5.3580     4.3820     1.1540 C.ar  1 <1>  -0.1430 
 21 C       -2.1050    -6.6020     0.6800 C.3   1 <1>   0.3430 
 22 C       -2.1280    -4.8660    -1.0740 C.3   1 <1>   0.3430 
 23 C        4.7550     5.6060     0.9640 C.ar  1 <1>  -0.1500 
 24 C        6.8530     4.2520     1.3850 C.3   1 <1>  -0.0970 
 25 C       -1.8180    -6.7800     2.1660 C.3   1 <1>  -0.2400 
 26 C       -3.5100    -4.2820    -0.8030 C.3   1 <1>  -0.2400 
 27 H        2.5750     2.2620    -1.2250 H     1 <1>   0.0800 
 28 H        1.7970    -1.0100    -2.3770 H     1 <1>   0.0800 
 29 H        3.1870     0.0470    -2.2280 H     1 <1>   0.0800 
 30 H        1.6890     0.6460    -2.9060 H     1 <1>   0.0800 
 31 H       -0.9350    -2.4380     0.3160 H     1 <1>   0.1500 
 32 H        2.8110     1.3780     1.2670 H     1 <1>   0.0800 
 33 H        1.4170     2.3830     1.5060 H     1 <1>   0.0800 
 34 H       -0.3000     2.2910    -0.2900 H     1 <1>   0.0800 
 35 H        0.2270     2.3650    -1.9590 H     1 <1>   0.0800 
 36 H        0.6110     3.6590    -0.8610 H     1 <1>   0.0800 
 37 H        3.8760    -1.2990    -0.2210 H     1 <1>   0.0800 
 38 H        4.0390    -2.6380    -1.3390 H     1 <1>   0.0800 
 39 H        4.2700    -2.8890     0.3750 H     1 <1>   0.0800 
 40 H        0.3900    -5.9050     0.9280 H     1 <1>   0.0800 
 41 H        0.2330    -5.9540    -0.8080 H     1 <1>   0.0800 
 42 H        4.9400     2.2980     1.2620 H     1 <1>   0.1500 
 43 H       -1.7070    -4.6000     0.9170 H     1 <1>   0.4500 
 44 H        2.9300     6.6300     0.6120 H     1 <1>   0.1500 
 45 H       -1.7010    -7.4290     0.1180 H     1 <1>   0.0800 
 46 H       -3.1740    -6.5910     0.5370 H     1 <1>   0.0800 
 47 H       -2.1980    -5.6880    -1.7680 H     1 <1>   0.0800 
 48 H       -1.5130    -4.1010    -1.5220 H     1 <1>   0.0800 
 49 H        5.3320     6.5120     0.9750 H     1 <1>   0.1500 
 50 H        7.0580     3.4320     2.0500 H     1 <1>   0.0800 
 51 H        7.2460     5.1510     1.8240 H     1 <1>   0.0800 
 52 H        7.3520     4.0750     0.4500 H     1 <1>   0.0800 
 53 H       -0.7670    -6.8870     2.3610 H     1 <1>   0.0800 
 54 H       -2.3050    -7.6750     2.5120 H     1 <1>   0.0800 
 55 H       -2.2100    -5.9530     2.7330 H     1 <1>   0.0800 
 56 H       -4.1880    -5.0260    -0.4260 H     1 <1>   0.0800 
 57 H       -3.9180    -3.9060    -1.7250 H     1 <1>   0.0800 
 58 H       -3.4500    -3.4610    -0.1110 H     1 <1>   0.0800 
@<TRIPOS>BOND
  1   1   2  2   
  2   2   3  am  
  3   2   4  1   
  4   3   5  1   
  5   3   6  1   
  6   4   7  2   
  7   4   8  1   
  8   5   9  1   
  9   5  10  1   
 10   5  27  1   
 11   6  28  1   
 12   6  29  1   
 13   6  30  1   
 14   7  11  1   
 15   7  12  1   
 16   8  13  2   
 17   8  31  1   
 18   9  14  1   
 19   9  32  1   
 20   9  33  1   
 21  10  34  1   
 22  10  35  1   
 23  10  36  1   
 24  11  13  1   
 25  12  37  1   
 26  12  38  1   
 27  12  39  1   
 28  13  15  1   
 29  14  16  ar  
 30  14  17  ar  
 31  15  18  1   
 32  15  40  1   
 33  15  41  1   
 34  16  19  ar  
 35  17  20  ar  
 36  17  42  1   
 37  18  21  1   
 38  18  22  1   
 39  18  43  1   
 40  19  23  ar  
 41  19  44  1   
 42  20  23  ar  
 43  20  24  1   
 44  21  25  1   
 45  21  45  1   
 46  21  46  1   
 47  22  26  1   
 48  22  47  1   
 49  22  48  1   
 50  23  49  1   
 51  24  50  1   
 52  24  51  1   
 53  24  52  1   
 54  25  53  1   
 55  25  54  1   
 56  25  55  1   
 57  26  56  1   
 58  26  57  1   
 59  26  58  1   
@<TRIPOS>SUBSTRUCTURE
  1 ****   2 GROUP 4 **** **** 0

# MOE 2024.06 (io_trps.svl 2023.06)
