@<TRIPOS>MOLECULE
NONAME
48 49 1 0 0 
SMALL
USER_CHARGES


@<TRIPOS>ATOM
  1 S        0.3200    -0.0630    -0.7070 S.o2  1 <1>   1.3330 
  2 O        0.2790    -1.1070     0.2930 O.2   1 <1>  -0.6500 
  3 O       -0.4300    -0.2210    -1.9320 O.2   1 <1>  -0.6500 
  4 N       -0.2010     1.3760     0.0280 N.am  1 <1>  -0.8490 
  5 C        2.0390     0.2480    -1.1120 C.3   1 <1>  -0.0550 
  6 C       -1.4660     1.1890     0.7410 C.3   1 <1>   0.1160 
  7 C       -0.3170     2.5010    -0.9090 C.3   1 <1>   0.1160 
  8 C        2.8990     0.6770     0.0900 C.3   1 <1>  -0.0800 
  9 C        4.2810     1.1470    -0.3540 C.3   1 <1>   0.2200 
 10 C        3.1880    -0.4510     1.0860 C.3   1 <1>   0.1200 
 11 N        4.5020     2.5240     0.1360 N.am  1 <1>  -0.7300 
 12 C        5.2270     0.1590     0.3230 C.3   1 <1>   0.1200 
 13 O        4.5310    -0.3150     1.4270 O.3   1 <1>  -0.5600 
 14 C        4.0090     3.6250    -0.4800 C.2   1 <1>   0.5690 
 15 O        3.3710     3.5510    -1.5020 O.2   1 <1>  -0.5700 
 16 C        4.2610     4.9810     0.1380 C.3   1 <1>  -0.0990 
 17 C        5.5180     5.6260    -0.4540 C.3   1 <1>  -0.0170 
 18 C        5.7690     6.9830     0.1830 C.ar  1 <1>  -0.1440 
 19 C        5.2300     8.1300    -0.3790 C.ar  1 <1>  -0.1500 
 20 C        6.5360     7.0830     1.3360 C.ar  1 <1>  -0.1500 
 21 C        5.4610     9.3620     0.2110 C.ar  1 <1>   0.0820 
 22 C        6.7640     8.3180     1.9230 C.ar  1 <1>  -0.1500 
 23 O        4.9440    10.4760    -0.3280 O.3   1 <1>  -0.5330 
 24 C        6.2250     9.4600     1.3600 C.ar  1 <1>  -0.1500 
 25 H        2.4610    -0.6310    -1.5590 H     1 <1>   0.0800 
 26 H        2.0750     1.0290    -1.8470 H     1 <1>   0.0800 
 27 H       -1.7590     2.1040     1.2270 H     1 <1>   0.0800 
 28 H       -1.3540     0.4280     1.4960 H     1 <1>   0.0800 
 29 H       -2.2410     0.8850     0.0560 H     1 <1>   0.0800 
 30 H       -0.6210     3.3890    -0.3820 H     1 <1>   0.0800 
 31 H       -1.0420     2.2820    -1.6750 H     1 <1>   0.0800 
 32 H        0.6330     2.7010    -1.3750 H     1 <1>   0.0800 
 33 H        2.3900     1.4670     0.6160 H     1 <1>   0.0800 
 34 H        4.4090     1.1230    -1.4230 H     1 <1>   0.0800 
 35 H        3.0540    -1.4240     0.6430 H     1 <1>   0.0800 
 36 H        2.5880    -0.3730     1.9770 H     1 <1>   0.0800 
 37 H        4.9010     2.5850     1.0750 H     1 <1>   0.3700 
 38 H        6.1510     0.6090     0.6410 H     1 <1>   0.0800 
 39 H        5.4270    -0.6790    -0.3220 H     1 <1>   0.0800 
 40 H        3.4110     5.6100    -0.0540 H     1 <1>   0.0800 
 41 H        4.3660     4.8800     1.2020 H     1 <1>   0.0800 
 42 H        5.3980     5.7390    -1.5180 H     1 <1>   0.0800 
 43 H        6.3680     4.9860    -0.2890 H     1 <1>   0.0800 
 44 H        4.6340     8.0620    -1.2700 H     1 <1>   0.1500 
 45 H        6.9600     6.2020     1.7830 H     1 <1>   0.1500 
 46 H        7.3600     8.3890     2.8160 H     1 <1>   0.1500 
 47 H        4.4350    10.3040    -1.1390 H     1 <1>   0.4500 
 48 H        6.3930    10.4250     1.8030 H     1 <1>   0.1500 
@<TRIPOS>BOND
  1   1   2  2   
  2   1   3  2   
  3   1   4  am  
  4   1   5  1   
  5   4   6  1   
  6   4   7  1   
  7   5   8  1   
  8   5  25  1   
  9   5  26  1   
 10   6  27  1   
 11   6  28  1   
 12   6  29  1   
 13   7  30  1   
 14   7  31  1   
 15   7  32  1   
 16   8   9  1   
 17   8  10  1   
 18   8  33  1   
 19   9  11  1   
 20   9  12  1   
 21   9  34  1   
 22  10  13  1   
 23  10  35  1   
 24  10  36  1   
 25  11  14  am  
 26  11  37  1   
 27  12  13  1   
 28  12  38  1   
 29  12  39  1   
 30  14  15  2   
 31  14  16  1   
 32  16  17  1   
 33  16  40  1   
 34  16  41  1   
 35  17  18  1   
 36  17  42  1   
 37  17  43  1   
 38  18  19  ar  
 39  18  20  ar  
 40  19  21  ar  
 41  19  44  1   
 42  20  22  ar  
 43  20  45  1   
 44  21  23  1   
 45  21  24  ar  
 46  22  24  ar  
 47  22  46  1   
 48  23  47  1   
 49  24  48  1   
@<TRIPOS>SUBSTRUCTURE
  1 ****  14 GROUP 4 **** **** 0

# MOE 2024.06 (io_trps.svl 2023.06)
