@<TRIPOS>MOLECULE
NONAME
48 50 1 0 0 
SMALL
USER_CHARGES


@<TRIPOS>ATOM
  1 CL       0.0810     1.1610     0.8360 Cl    1 <1>  -0.1770 
  2 C        1.4170     0.0470     0.7060 C.ar  1 <1>   0.1770 
  3 C        1.6370    -0.6140    -0.4850 C.ar  1 <1>  -0.1500 
  4 C        2.2380    -0.1590     1.7960 C.ar  1 <1>  -0.1500 
  5 C        2.6950    -1.5010    -0.5800 C.ar  1 <1>  -0.1500 
  6 C        3.2950    -1.0480     1.6920 C.ar  1 <1>  -0.1500 
  7 C        3.5350    -1.7420     0.5070 C.ar  1 <1>  -0.1430 
  8 C        4.7000    -2.7520     0.3450 C.3   1 <1>   0.2040 
  9 C        4.2370    -3.9730    -0.5180 C.2   1 <1>   0.5690 
 10 C        5.8320    -1.9340    -0.3530 C.3   1 <1>  -0.1600 
 11 C        5.2420    -3.3200     1.6990 C.3   1 <1>  -0.1600 
 12 O        4.8050    -4.1660    -1.5720 O.2   1 <1>  -0.5700 
 13 N        3.2200    -4.8270    -0.1240 N.am  1 <1>  -0.6600 
 14 C        7.2260    -2.5520    -0.1650 C.3   1 <1>  -0.1600 
 15 C        6.4410    -2.5520     2.2800 C.3   1 <1>  -0.1600 
 16 C        2.9270    -6.0860    -0.8890 C.3   1 <1>   0.1400 
 17 C        2.2830    -4.6270     1.0180 C.3   1 <1>   0.1400 
 18 C        7.6390    -2.5830     1.3170 C.3   1 <1>  -0.1600 
 19 C        3.0070    -7.3040     0.0410 C.3   1 <1>  -0.1860 
 20 C        2.4040    -5.7970     1.9910 C.3   1 <1>  -0.1600 
 21 C        2.5860    -8.5720    -0.6680 C.2   1 <1>   0.9060 
 22 C        2.1190    -7.1110     1.2700 C.3   1 <1>   0.2000 
 23 O        2.1190    -8.5170    -1.8100 O.co2 1 <1>  -0.9000 
 24 O        2.6780    -9.6360    -0.0420 O.co2 1 <1>  -0.9000 
 25 O        2.3600    -8.1420     2.1480 O.3   1 <1>  -0.6800 
 26 H        0.9900    -0.4360    -1.3240 H     1 <1>   0.1500 
 27 H        2.0520     0.3720     2.7120 H     1 <1>   0.1500 
 28 H        2.8590    -2.0060    -1.5180 H     1 <1>   0.1500 
 29 H        3.9220    -1.1820     2.5530 H     1 <1>   0.1500 
 30 H        5.6190    -1.8290    -1.4030 H     1 <1>   0.0800 
 31 H        5.8560    -0.9370     0.0530 H     1 <1>   0.0800 
 32 H        4.4600    -3.3810     2.4310 H     1 <1>   0.0800 
 33 H        5.5740    -4.3320     1.5330 H     1 <1>   0.0800 
 34 H        7.2140    -3.5570    -0.5540 H     1 <1>   0.0800 
 35 H        7.9530    -1.9970    -0.7320 H     1 <1>   0.0800 
 36 H        6.1630    -1.5280     2.4610 H     1 <1>   0.0800 
 37 H        6.7300    -2.9810     3.2240 H     1 <1>   0.0800 
 38 H        1.9400    -6.0180    -1.3150 H     1 <1>   0.0800 
 39 H        3.6200    -6.2210    -1.7020 H     1 <1>   0.0800 
 40 H        2.4710    -3.7130     1.5400 H     1 <1>   0.0800 
 41 H        1.2780    -4.5790     0.6340 H     1 <1>   0.0800 
 42 H        8.2750    -1.7420     1.5310 H     1 <1>   0.0800 
 43 H        8.2160    -3.4760     1.4900 H     1 <1>   0.0800 
 44 H        4.0290    -7.4240     0.3460 H     1 <1>   0.0800 
 45 H        1.6990    -5.6720     2.7930 H     1 <1>   0.0800 
 46 H        3.3980    -5.8160     2.4020 H     1 <1>   0.0800 
 47 H        1.0830    -7.1630     0.9780 H     1 <1>   0.0800 
 48 H        2.4700    -8.9610     1.5810 H     1 <1>   0.4000 
@<TRIPOS>BOND
  1   1   2  1   
  2   2   3  ar  
  3   2   4  ar  
  4   3   5  ar  
  5   3  26  1   
  6   4   6  ar  
  7   4  27  1   
  8   5   7  ar  
  9   5  28  1   
 10   6   7  ar  
 11   6  29  1   
 12   7   8  1   
 13   8   9  1   
 14   8  10  1   
 15   8  11  1   
 16   9  12  2   
 17   9  13  am  
 18  10  14  1   
 19  10  30  1   
 20  10  31  1   
 21  11  15  1   
 22  11  32  1   
 23  11  33  1   
 24  13  16  1   
 25  13  17  1   
 26  14  18  1   
 27  14  34  1   
 28  14  35  1   
 29  15  18  1   
 30  15  36  1   
 31  15  37  1   
 32  16  19  1   
 33  16  38  1   
 34  16  39  1   
 35  17  20  1   
 36  17  40  1   
 37  17  41  1   
 38  18  42  1   
 39  18  43  1   
 40  19  21  1   
 41  19  22  1   
 42  19  44  1   
 43  20  22  1   
 44  20  45  1   
 45  20  46  1   
 46  21  23  ar  
 47  21  24  ar  
 48  22  25  1   
 49  22  47  1   
 50  25  48  1   
@<TRIPOS>SUBSTRUCTURE
  1 ****  13 GROUP 4 **** **** 0

# MOE 2024.06 (io_trps.svl 2023.06)
