@<TRIPOS>MOLECULE
NONAME
49 50 1 0 0 
SMALL
USER_CHARGES


@<TRIPOS>ATOM
  1 O        0.4340    -0.3610    -1.6910 O.2   1 <1>  -0.5700 
  2 C        1.4180    -0.7140    -1.0910 C.2   1 <1>   0.5690 
  3 N        2.3370     0.1440    -0.5540 N.am  1 <1>  -0.4940 
  4 C        1.6620    -2.2020    -0.9290 C.3   1 <1>  -0.0990 
  5 C        2.4370     1.5540    -0.5570 C.2   1 <1>  -0.0880 
  6 C        1.0740    -2.7390     0.3870 C.3   1 <1>  -0.1600 
  7 N        1.4420     2.4830    -0.5970 N.pl3 1 <1>   0.3140 
  8 C        3.6100     2.2420    -0.4800 C.2   1 <1>  -0.0540 
  9 C        1.2680    -4.2500     0.5080 C.3   1 <1>   0.1400 
 10 N        1.9380     3.7390    -0.5450 N.2   1 <1>  -0.7070 
 11 C       -0.0130     2.2870    -0.6070 C.3   1 <1>   0.0160 
 12 C        4.9500     1.7070    -0.4370 C.ar  1 <1>   0.0540 
 13 C        3.2190     3.5850    -0.4750 C.2   1 <1>   0.1080 
 14 N        0.6880    -4.7080     1.7870 N.am  1 <1>  -0.7300 
 15 C        5.7900     1.8560     0.6740 C.ar  1 <1>   0.0820 
 16 C        5.4310     1.0070    -1.5400 C.ar  1 <1>  -0.1500 
 17 C        4.1640     4.7620    -0.3990 C.3   1 <1>  -0.0590 
 18 C       -0.3360    -5.5610     2.0100 C.2   1 <1>   0.5690 
 19 O        5.2990     2.5350     1.7470 O.3   1 <1>  -0.3630 
 20 C        7.0720     1.3140     0.6580 C.ar  1 <1>  -0.1500 
 21 C        6.7040     0.4690    -1.5520 C.ar  1 <1>  -0.1500 
 22 O       -0.6600    -5.8260     3.1380 O.2   1 <1>  -0.5700 
 23 C       -1.0880    -6.1910     0.8630 C.3   1 <1>  -0.1790 
 24 C        6.0800     2.7950     2.8920 C.3   1 <1>   0.0400 
 25 C        7.5270     0.6230    -0.4510 C.ar  1 <1>  -0.1500 
 26 H        3.1610    -0.3060    -0.1540 H     1 <1>   0.3700 
 27 H        2.7180    -2.3960    -0.9710 H     1 <1>   0.0800 
 28 H        1.2020    -2.7070    -1.7600 H     1 <1>   0.0800 
 29 H        0.0210    -2.5160     0.4160 H     1 <1>   0.0800 
 30 H        1.5490    -2.2470     1.2180 H     1 <1>   0.0800 
 31 H        2.3170    -4.4940     0.4920 H     1 <1>   0.0800 
 32 H        0.7920    -4.7480    -0.3190 H     1 <1>   0.0800 
 33 H       -0.2660     1.4610     0.0300 H     1 <1>   0.0800 
 34 H       -0.3310     2.0870    -1.6120 H     1 <1>   0.0800 
 35 H       -0.4920     3.1790    -0.2490 H     1 <1>   0.0800 
 36 H        1.1190    -4.3320     2.6350 H     1 <1>   0.3700 
 37 H        4.7930     0.8940    -2.3990 H     1 <1>   0.1500 
 38 H        5.0910     4.5280    -0.8870 H     1 <1>   0.0800 
 39 H        4.3550     4.9990     0.6310 H     1 <1>   0.0800 
 40 H        3.7210     5.6150    -0.8780 H     1 <1>   0.0800 
 41 H        7.7340     1.4170     1.4970 H     1 <1>   0.1500 
 42 H        7.0570    -0.0650    -2.4180 H     1 <1>   0.1500 
 43 H       -1.5150    -5.4250     0.2440 H     1 <1>   0.0800 
 44 H       -1.8790    -6.8080     1.2470 H     1 <1>   0.0800 
 45 H       -0.4220    -6.8010     0.2830 H     1 <1>   0.0800 
 46 H        5.4810     3.3670     3.5790 H     1 <1>   0.0800 
 47 H        6.9460     3.3630     2.6020 H     1 <1>   0.0800 
 48 H        6.3610     1.8610     3.3430 H     1 <1>   0.0800 
 49 H        8.5200     0.2070    -0.4590 H     1 <1>   0.1500 
@<TRIPOS>BOND
  1   1   2  2   
  2   2   3  am  
  3   2   4  1   
  4   3   5  1   
  5   3  26  1   
  6   4   6  1   
  7   4  27  1   
  8   4  28  1   
  9   5   7  1   
 10   5   8  2   
 11   6   9  1   
 12   6  29  1   
 13   6  30  1   
 14   7  10  1   
 15   7  11  1   
 16   8  12  1   
 17   8  13  1   
 18   9  14  1   
 19   9  31  1   
 20   9  32  1   
 21  10  13  2   
 22  11  33  1   
 23  11  34  1   
 24  11  35  1   
 25  12  15  ar  
 26  12  16  ar  
 27  13  17  1   
 28  14  18  am  
 29  14  36  1   
 30  15  19  1   
 31  15  20  ar  
 32  16  21  ar  
 33  16  37  1   
 34  17  38  1   
 35  17  39  1   
 36  17  40  1   
 37  18  22  2   
 38  18  23  1   
 39  19  24  1   
 40  20  25  ar  
 41  20  41  1   
 42  21  25  ar  
 43  21  42  1   
 44  23  43  1   
 45  23  44  1   
 46  23  45  1   
 47  24  46  1   
 48  24  47  1   
 49  24  48  1   
 50  25  49  1   
@<TRIPOS>SUBSTRUCTURE
  1 ****   3 GROUP 4 **** **** 0

# MOE 2024.06 (io_trps.svl 2023.06)
