@<TRIPOS>MOLECULE
NONAME
44 46 1 0 0 
SMALL
USER_CHARGES


@<TRIPOS>ATOM
  1 O        2.2040    -1.2020    -2.4880 O.2   1 <1>  -0.5700 
  2 C        1.8060    -1.7210    -1.4570 C.2   1 <1>   0.5440 
  3 N        1.3450    -0.8690    -0.4660 N.am  1 <1>  -0.6600 
  4 C        1.8720    -3.1800    -1.3330 C.ar  1 <1>   0.3960 
  5 C        1.3940     0.6050    -0.5930 C.3   1 <1>   0.1400 
  6 C        0.8980    -1.2640     0.8900 C.3   1 <1>   0.1400 
  7 N        1.0040    -3.8600    -0.5620 N.ar  1 <1>  -0.6200 
  8 C        2.8690    -3.8460    -2.0580 C.ar  1 <1>   0.1600 
  9 C        1.3310     1.1170     0.8400 C.3   1 <1>  -0.1600 
 10 C        0.5530     0.0450     1.5960 C.3   1 <1>  -0.1600 
 11 C        1.1960    -5.1600    -0.5670 C.ar  1 <1>   0.4100 
 12 N        3.0830    -5.1560    -2.0640 N.ar  1 <1>  -0.6200 
 13 N        0.2980    -5.8440     0.2080 N.pl3 1 <1>  -0.8690 
 14 C        2.2190    -5.7850    -1.2950 C.ar  1 <1>   0.1600 
 15 C       -0.4280    -7.0040    -0.3390 C.3   1 <1>   0.2090 
 16 C       -1.7880    -7.0910     0.3470 C.3   1 <1>  -0.1600 
 17 C       -2.6000    -8.2920    -0.1610 C.3   1 <1>  -0.0170 
 18 C       -3.9700    -8.3390     0.4960 C.ar  1 <1>   0.1670 
 19 N       -4.8580    -7.4620     0.0530 N.ar  1 <1>  -0.6200 
 20 C       -4.2250    -9.2630     1.4980 C.ar  1 <1>  -0.1500 
 21 C       -6.0480    -7.5090     0.6300 C.ar  1 <1>   0.1600 
 22 C       -5.4690    -9.3010     2.0910 C.ar  1 <1>  -0.1500 
 23 C       -6.4000    -8.3930     1.6360 C.ar  1 <1>  -0.1500 
 24 H        0.5360     0.9340    -1.1530 H     1 <1>   0.0800 
 25 H        2.2950     0.9240    -1.0890 H     1 <1>   0.0800 
 26 H        1.7010    -1.7700     1.3980 H     1 <1>   0.0800 
 27 H        0.0360    -1.9070     0.8390 H     1 <1>   0.0800 
 28 H        3.5300    -3.2520    -2.6660 H     1 <1>   0.1500 
 29 H        0.8630     2.0840     0.8980 H     1 <1>   0.0800 
 30 H        2.3320     1.1870     1.2290 H     1 <1>   0.0800 
 31 H        0.8060     0.0130     2.6410 H     1 <1>   0.0800 
 32 H       -0.5030     0.2240     1.4980 H     1 <1>   0.0800 
 33 H       -0.3360    -5.1820     0.6650 H     1 <1>   0.4000 
 34 H        2.3060    -6.8520    -1.2180 H     1 <1>   0.1500 
 35 H        0.1400    -7.9000    -0.1530 H     1 <1>   0.0800 
 36 H       -0.5600    -6.8850    -1.4030 H     1 <1>   0.0800 
 37 H       -2.3430    -6.1900     0.1500 H     1 <1>   0.0800 
 38 H       -1.6500    -7.1850     1.4100 H     1 <1>   0.0800 
 39 H       -2.0680    -9.2040     0.0410 H     1 <1>   0.0800 
 40 H       -2.7360    -8.2160    -1.2250 H     1 <1>   0.0800 
 41 H       -3.4600    -9.9480     1.8150 H     1 <1>   0.1500 
 42 H       -6.7830    -6.8040     0.2830 H     1 <1>   0.1500 
 43 H       -5.7020   -10.0060     2.8710 H     1 <1>   0.1500 
 44 H       -7.3900    -8.3680     2.0540 H     1 <1>   0.1500 
@<TRIPOS>BOND
  1   1   2  2   
  2   2   3  am  
  3   2   4  1   
  4   3   5  1   
  5   3   6  1   
  6   4   7  ar  
  7   4   8  ar  
  8   5   9  1   
  9   5  24  1   
 10   5  25  1   
 11   6  10  1   
 12   6  26  1   
 13   6  27  1   
 14   7  11  ar  
 15   8  12  ar  
 16   8  28  1   
 17   9  10  1   
 18   9  29  1   
 19   9  30  1   
 20  10  31  1   
 21  10  32  1   
 22  11  13  1   
 23  11  14  ar  
 24  12  14  ar  
 25  13  15  1   
 26  13  33  1   
 27  14  34  1   
 28  15  16  1   
 29  15  35  1   
 30  15  36  1   
 31  16  17  1   
 32  16  37  1   
 33  16  38  1   
 34  17  18  1   
 35  17  39  1   
 36  17  40  1   
 37  18  19  ar  
 38  18  20  ar  
 39  19  21  ar  
 40  20  22  ar  
 41  20  41  1   
 42  21  23  ar  
 43  21  42  1   
 44  22  23  ar  
 45  22  43  1   
 46  23  44  1   
@<TRIPOS>SUBSTRUCTURE
  1 ****  13 GROUP 4 **** **** 0

# MOE 2024.06 (io_trps.svl 2023.06)
