@<TRIPOS>MOLECULE
NONAME
40 41 1 0 0 
SMALL
USER_CHARGES


@<TRIPOS>ATOM
  1 O        1.0370     0.3230    -0.9450 O.2   1 <1>  -0.5700 
  2 C        1.6790    -0.3620    -0.1680 C.2   1 <1>   0.7150 
  3 N        2.3130     0.2510     0.8960 N.am  1 <1>  -0.6600 
  4 C        1.7610    -1.7880    -0.3740 C.2   1 <1>  -0.2370 
  5 C        2.4910     1.7280     0.9470 C.3   1 <1>   0.1400 
  6 C        2.7810    -0.4880     2.1020 C.3   1 <1>   0.0600 
  7 N        0.7070    -2.5620    -0.7940 N.pl3 1 <1>   0.0480 
  8 C        2.8430    -2.6200    -0.2210 C.2   1 <1>  -0.1500 
  9 C        3.8860     2.0890     0.4330 C.3   1 <1>  -0.1600 
 10 C        1.1330    -3.8450    -0.8830 C.2   1 <1>  -0.3020 
 11 C       -0.6610    -2.1040    -1.1050 C.3   1 <1>   0.0160 
 12 C        2.4450    -3.9150    -0.5370 C.2   1 <1>  -0.1500 
 13 C        4.1210     3.6070     0.4900 C.3   1 <1>  -0.1600 
 14 C        5.5170     3.9990    -0.0020 C.3   1 <1>   0.2000 
 15 O        5.6670     5.3690     0.1400 O.3   1 <1>  -0.5600 
 16 C        5.7730     3.7410    -1.4790 C.3   1 <1>  -0.1600 
 17 C        6.6270     5.8570    -0.7430 C.3   1 <1>   0.1200 
 18 C        6.8090     4.7950    -1.8250 C.3   1 <1>  -0.1600 
 19 H        2.3640     2.0750     1.9580 H     1 <1>   0.0800 
 20 H        1.7460     2.2150     0.3400 H     1 <1>   0.0800 
 21 H        2.3090    -1.4530     2.1630 H     1 <1>   0.0800 
 22 H        2.5310     0.0620     2.9920 H     1 <1>   0.0800 
 23 H        3.8470    -0.6190     2.0560 H     1 <1>   0.0800 
 24 H        3.8360    -2.3380     0.0810 H     1 <1>   0.1500 
 25 H        3.9750     1.7460    -0.5830 H     1 <1>   0.0800 
 26 H        4.6280     1.5920     1.0320 H     1 <1>   0.0800 
 27 H        0.4890    -4.6500    -1.1910 H     1 <1>   0.1500 
 28 H       -1.0360    -1.5200    -0.2840 H     1 <1>   0.0800 
 29 H       -1.3000    -2.9520    -1.2660 H     1 <1>   0.0800 
 30 H       -0.6350    -1.4970    -1.9920 H     1 <1>   0.0800 
 31 H        3.0740    -4.7880    -0.5100 H     1 <1>   0.1500 
 32 H        4.0150     3.9430     1.5060 H     1 <1>   0.0800 
 33 H        3.3830     4.1090    -0.1110 H     1 <1>   0.0800 
 34 H        6.2790     3.5300     0.5990 H     1 <1>   0.0800 
 35 H        4.8710     3.9100    -2.0400 H     1 <1>   0.0800 
 36 H        6.1230     2.7400    -1.6590 H     1 <1>   0.0800 
 37 H        7.5380     6.0240    -0.1960 H     1 <1>   0.0800 
 38 H        6.2650     6.7860    -1.1490 H     1 <1>   0.0800 
 39 H        6.6560     5.2030    -2.8090 H     1 <1>   0.0800 
 40 H        7.8030     4.3890    -1.7630 H     1 <1>   0.0800 
@<TRIPOS>BOND
  1   1   2  2   
  2   2   3  am  
  3   2   4  1   
  4   3   5  1   
  5   3   6  1   
  6   4   7  1   
  7   4   8  2   
  8   5   9  1   
  9   5  19  1   
 10   5  20  1   
 11   6  21  1   
 12   6  22  1   
 13   6  23  1   
 14   7  10  1   
 15   7  11  1   
 16   8  12  1   
 17   8  24  1   
 18   9  13  1   
 19   9  25  1   
 20   9  26  1   
 21  10  12  2   
 22  10  27  1   
 23  11  28  1   
 24  11  29  1   
 25  11  30  1   
 26  12  31  1   
 27  13  14  1   
 28  13  32  1   
 29  13  33  1   
 30  14  15  1   
 31  14  16  1   
 32  14  34  1   
 33  15  17  1   
 34  16  18  1   
 35  16  35  1   
 36  16  36  1   
 37  17  18  1   
 38  17  37  1   
 39  17  38  1   
 40  18  39  1   
 41  18  40  1   
@<TRIPOS>SUBSTRUCTURE
  1 ****   3 GROUP 4 **** **** 0

# MOE 2024.06 (io_trps.svl 2023.06)
