@<TRIPOS>MOLECULE
NONAME
43 45 1 0 0 
SMALL
USER_CHARGES


@<TRIPOS>ATOM
  1 O       -9.8230    -0.2610     1.4420 O.2   1 <1>  -0.5700 
  2 C      -10.0800    -0.5500     0.2990 C.2   1 <1>   0.6590 
  3 O      -11.3410    -0.7210    -0.0880 O.3   1 <1>  -0.4300 
  4 C       -9.0230    -0.7010    -0.8250 C.3   1 <1>   0.2510 
  5 C      -12.4150    -0.6080     0.8150 C.3   1 <1>   0.1200 
  6 N       -8.8290    -2.1130    -1.2780 N.3   1 <1>  -0.9900 
  7 C       -7.6430    -0.0190    -0.5740 C.3   1 <1>   0.2070 
  8 C      -13.7090    -0.8360     0.0410 C.3   1 <1>  -0.2400 
  9 C       -6.6800    -0.8400     0.3260 C.ar  1 <1>  -0.1440 
 10 C       -7.6380     1.5180    -0.3280 C.ar  1 <1>  -0.1430 
 11 C       -5.3050    -0.6780     0.1780 C.ar  1 <1>  -0.1430 
 12 C       -7.1180    -1.7740     1.2660 C.ar  1 <1>  -0.1500 
 13 C       -6.4570     2.2600    -0.1490 C.ar  1 <1>  -0.1430 
 14 C       -8.8420     2.2300    -0.3340 C.ar  1 <1>  -0.1500 
 15 C       -4.4140    -1.4410     0.9200 C.ar  1 <1>  -0.1500 
 16 C       -4.7380     0.3720    -0.7580 C.3   1 <1>  -0.0170 
 17 C       -6.2300    -2.5290     2.0090 C.ar  1 <1>  -0.1500 
 18 C       -6.5330     3.6310     0.0650 C.ar  1 <1>  -0.1500 
 19 C       -5.0120     1.7480    -0.1600 C.3   1 <1>  -0.0170 
 20 C       -8.8970     3.5930    -0.1260 C.ar  1 <1>  -0.1500 
 21 C       -4.8720    -2.3680     1.8330 C.ar  1 <1>  -0.1500 
 22 C       -7.7370     4.3010     0.0810 C.ar  1 <1>  -0.1500 
 23 H       -9.4550    -0.1840    -1.6640 H     1 <1>   0.0800 
 24 H      -12.3930     0.3760     1.2520 H     1 <1>   0.0800 
 25 H      -12.2900    -1.3490     1.5870 H     1 <1>   0.0800 
 26 H       -8.3020    -2.6060    -0.5420 H     1 <1>   0.3600 
 27 H       -8.2280    -2.1270    -2.1080 H     1 <1>   0.3600 
 28 H       -7.2180    -0.0900    -1.5550 H     1 <1>   0.0800 
 29 H      -13.8150    -0.0950    -0.7310 H     1 <1>   0.0800 
 30 H      -14.5490    -0.7600     0.7070 H     1 <1>   0.0800 
 31 H      -13.7080    -1.8170    -0.3990 H     1 <1>   0.0800 
 32 H       -8.1580    -1.9490     1.4510 H     1 <1>   0.1500 
 33 H       -9.7890     1.7640    -0.5060 H     1 <1>   0.1500 
 34 H       -3.3530    -1.3120     0.8010 H     1 <1>   0.1500 
 35 H       -5.1330     0.2960    -1.7530 H     1 <1>   0.0800 
 36 H       -3.6740     0.2440    -0.8400 H     1 <1>   0.0800 
 37 H       -6.6000    -3.2400     2.7270 H     1 <1>   0.1500 
 38 H       -5.6350     4.2030     0.2230 H     1 <1>   0.1500 
 39 H       -4.6510     1.7550     0.8540 H     1 <1>   0.0800 
 40 H       -4.4130     2.4510    -0.7110 H     1 <1>   0.0800 
 41 H       -9.8450     4.1030    -0.1260 H     1 <1>   0.1500 
 42 H       -4.1770    -2.9550     2.4080 H     1 <1>   0.1500 
 43 H       -7.7680     5.3620     0.2520 H     1 <1>   0.1500 
@<TRIPOS>BOND
  1   1   2  2   
  2   2   3  1   
  3   2   4  1   
  4   3   5  1   
  5   4   6  1   
  6   4   7  1   
  7   4  23  1   
  8   5   8  1   
  9   5  24  1   
 10   5  25  1   
 11   6  26  1   
 12   6  27  1   
 13   7   9  1   
 14   7  10  1   
 15   7  28  1   
 16   8  29  1   
 17   8  30  1   
 18   8  31  1   
 19   9  11  ar  
 20   9  12  ar  
 21  10  13  ar  
 22  10  14  ar  
 23  11  15  ar  
 24  11  16  1   
 25  12  17  ar  
 26  12  32  1   
 27  13  18  ar  
 28  13  19  1   
 29  14  20  ar  
 30  14  33  1   
 31  15  21  ar  
 32  15  34  1   
 33  16  19  1   
 34  16  35  1   
 35  16  36  1   
 36  17  21  ar  
 37  17  37  1   
 38  18  22  ar  
 39  18  38  1   
 40  19  39  1   
 41  19  40  1   
 42  20  22  ar  
 43  20  41  1   
 44  21  42  1   
 45  22  43  1   
@<TRIPOS>SUBSTRUCTURE
  1 ****   7 GROUP 4 **** **** 0

# MOE 2024.06 (io_trps.svl 2023.06)
