@<TRIPOS>MOLECULE
NONAME
49 51 1 0 0 
SMALL
USER_CHARGES


@<TRIPOS>ATOM
  1 F        0.8340    -0.5300    -0.8090 F     1 <1>  -0.1900 
  2 C        0.5110    -1.7930    -0.7310 C.ar  1 <1>   0.1900 
  3 C       -0.7920    -2.1660    -0.9950 C.ar  1 <1>  -0.1500 
  4 C        1.4850    -2.7100    -0.3870 C.ar  1 <1>  -0.1500 
  5 C       -1.1290    -3.5060    -0.9110 C.ar  1 <1>  -0.1500 
  6 C        1.1370    -4.0480    -0.3060 C.ar  1 <1>  -0.1500 
  7 C       -0.1680    -4.4500    -0.5670 C.ar  1 <1>  -0.1430 
  8 C       -0.5400    -5.9200    -0.4710 C.3   1 <1>  -0.0160 
  9 C       -0.8690    -6.2940     0.9790 C.3   1 <1>  -0.0990 
 10 C       -1.3540    -7.7290     1.0800 C.2   1 <1>   0.5690 
 11 O       -0.5040    -8.5670     1.2730 O.2   1 <1>  -0.5700 
 12 N       -2.6840    -8.0620     0.9530 N.am  1 <1>  -0.6600 
 13 C       -3.7500    -7.0760     0.5970 C.3   1 <1>   0.2200 
 14 C       -3.1010    -9.4800     1.1900 C.3   1 <1>   0.0600 
 15 C       -4.7720    -7.5740    -0.4250 C.3   1 <1>  -0.1600 
 16 C       -4.5900    -6.6700     1.8010 C.3   1 <1>  -0.1600 
 17 C       -5.9680    -6.6280    -0.2520 C.3   1 <1>  -0.0800 
 18 C       -5.8730    -6.0860     1.1950 C.3   1 <1>  -0.0800 
 19 C       -7.3120    -7.2890    -0.6160 C.3   1 <1>   0.1400 
 20 C       -7.1250    -6.3680     2.0430 C.3   1 <1>  -0.0990 
 21 N       -8.4380    -6.5130    -0.0400 N.am  1 <1>  -0.6600 
 22 C       -8.3790    -6.0600     1.2500 C.2   1 <1>   0.5690 
 23 C       -9.6310    -6.3140    -0.9060 C.3   1 <1>   0.0600 
 24 O       -9.2680    -5.4380     1.7780 O.2   1 <1>  -0.5700 
 25 H       -1.5210    -1.4210    -1.2600 H     1 <1>   0.1500 
 26 H        2.4900    -2.3830    -0.1890 H     1 <1>   0.1500 
 27 H       -2.1400    -3.8100    -1.1150 H     1 <1>   0.1500 
 28 H        1.8830    -4.7760    -0.0390 H     1 <1>   0.1500 
 29 H       -1.3810    -6.1250    -1.1080 H     1 <1>   0.0800 
 30 H        0.2790    -6.5270    -0.8180 H     1 <1>   0.0800 
 31 H       -1.5960    -5.6210     1.3920 H     1 <1>   0.0800 
 32 H        0.0210    -6.1960     1.5740 H     1 <1>   0.0800 
 33 H       -3.3120    -6.1850     0.1840 H     1 <1>   0.0800 
 34 H       -4.0410    -9.5180     1.7100 H     1 <1>   0.0800 
 35 H       -2.3700    -9.9970     1.7880 H     1 <1>   0.0800 
 36 H       -3.1930    -9.9910     0.2480 H     1 <1>   0.0800 
 37 H       -4.3770    -7.5370    -1.4250 H     1 <1>   0.0800 
 38 H       -5.0840    -8.5760    -0.1990 H     1 <1>   0.0800 
 39 H       -4.8220    -7.5350     2.3960 H     1 <1>   0.0800 
 40 H       -4.0780    -5.9470     2.4120 H     1 <1>   0.0800 
 41 H       -5.8290    -5.7930    -0.9190 H     1 <1>   0.0800 
 42 H       -5.7610    -5.0160     1.1270 H     1 <1>   0.0800 
 43 H       -7.3570    -8.2880    -0.2160 H     1 <1>   0.0800 
 44 H       -7.4090    -7.3490    -1.6860 H     1 <1>   0.0800 
 45 H       -7.1100    -5.7700     2.9370 H     1 <1>   0.0800 
 46 H       -7.1660    -7.4020     2.3290 H     1 <1>   0.0800 
 47 H       -9.3550    -5.7580    -1.7840 H     1 <1>   0.0800 
 48 H      -10.3930    -5.7660    -0.3780 H     1 <1>   0.0800 
 49 H      -10.0330    -7.2680    -1.1970 H     1 <1>   0.0800 
@<TRIPOS>BOND
  1   1   2  1   
  2   2   3  ar  
  3   2   4  ar  
  4   3   5  ar  
  5   3  25  1   
  6   4   6  ar  
  7   4  26  1   
  8   5   7  ar  
  9   5  27  1   
 10   6   7  ar  
 11   6  28  1   
 12   7   8  1   
 13   8   9  1   
 14   8  29  1   
 15   8  30  1   
 16   9  10  1   
 17   9  31  1   
 18   9  32  1   
 19  10  11  2   
 20  10  12  am  
 21  12  13  1   
 22  12  14  1   
 23  13  15  1   
 24  13  16  1   
 25  13  33  1   
 26  14  34  1   
 27  14  35  1   
 28  14  36  1   
 29  15  17  1   
 30  15  37  1   
 31  15  38  1   
 32  16  18  1   
 33  16  39  1   
 34  16  40  1   
 35  17  18  1   
 36  17  19  1   
 37  17  41  1   
 38  18  20  1   
 39  18  42  1   
 40  19  21  1   
 41  19  43  1   
 42  19  44  1   
 43  20  22  1   
 44  20  45  1   
 45  20  46  1   
 46  21  22  am  
 47  21  23  1   
 48  22  24  2   
 49  23  47  1   
 50  23  48  1   
 51  23  49  1   
@<TRIPOS>SUBSTRUCTURE
  1 ****  13 GROUP 4 **** **** 0

# MOE 2024.06 (io_trps.svl 2023.06)
