@<TRIPOS>MOLECULE
NONAME
36 36 1 0 0 
SMALL
USER_CHARGES


@<TRIPOS>ATOM
  1 O       -0.3490    -0.7610     0.9980 O.2   1 <1>  -0.5700 
  2 C       -1.4320    -1.2810     0.8140 C.2   1 <1>   0.7800 
  3 O       -2.4750    -0.5810     0.3600 O.3   1 <1>  -0.4300 
  4 N       -1.6420    -2.6050     1.0440 N.am  1 <1>  -0.5100 
  5 C       -2.5090     0.7940     0.0440 C.3   1 <1>   0.2800 
  6 C       -0.5900    -3.6680     1.0310 C.3   1 <1>   0.2250 
  7 C       -2.5810    -3.4940     0.2930 C.3   1 <1>   0.2250 
  8 C       -2.2170     1.6330     1.2940 C.3   1 <1>  -0.2400 
  9 C       -3.9410     1.0620    -0.4190 C.3   1 <1>  -0.2400 
 10 C       -1.5410     1.0990    -1.1050 C.3   1 <1>  -0.2400 
 11 C       -1.3430    -4.3080    -0.1620 C.3   1 <1>   0.0000 
 12 C       -1.4750    -5.8490    -0.1630 C.3   1 <1>   0.2000 
 13 C       -2.0070    -6.3700     1.1440 C.1   1 <1>   0.3570 
 14 C       -2.4270    -6.2740    -1.2970 C.3   1 <1>  -0.2400 
 15 C       -0.0940    -6.4750    -0.4280 C.3   1 <1>  -0.2400 
 16 N       -2.4110    -6.7590     2.1340 N.1   1 <1>  -0.5570 
 17 H       -0.6080    -4.2360     1.9440 H     1 <1>   0.0000 
 18 H        0.3820    -3.2880     0.7720 H     1 <1>   0.0000 
 19 H       -3.0800    -2.9860    -0.5120 H     1 <1>   0.0000 
 20 H       -3.2450    -4.0060     0.9670 H     1 <1>   0.0000 
 21 H       -2.8670     1.3420     2.1000 H     1 <1>   0.0800 
 22 H       -2.3800     2.6740     1.0830 H     1 <1>   0.0800 
 23 H       -1.1950     1.5220     1.6070 H     1 <1>   0.0800 
 24 H       -4.6370     0.8280     0.3670 H     1 <1>   0.0800 
 25 H       -4.1730     0.4630    -1.2820 H     1 <1>   0.0800 
 26 H       -4.0630     2.0970    -0.6820 H     1 <1>   0.0800 
 27 H       -0.5190     0.9890    -0.7920 H     1 <1>   0.0800 
 28 H       -1.6710     2.1140    -1.4330 H     1 <1>   0.0800 
 29 H       -1.7300     0.4460    -1.9370 H     1 <1>   0.0800 
 30 H       -0.9630    -3.9380    -1.0990 H     1 <1>   0.0000 
 31 H       -3.4120    -5.8710    -1.1380 H     1 <1>   0.0800 
 32 H       -2.5080    -7.3460    -1.3390 H     1 <1>   0.0800 
 33 H       -2.0650    -5.9230    -2.2480 H     1 <1>   0.0800 
 34 H        0.5980    -6.2170     0.3550 H     1 <1>   0.0800 
 35 H        0.3080    -6.1280    -1.3640 H     1 <1>   0.0800 
 36 H       -0.1670    -7.5480    -0.4670 H     1 <1>   0.0800 
@<TRIPOS>BOND
  1   1   2  2   
  2   2   3  1   
  3   2   4  am  
  4   3   5  1   
  5   4   6  1   
  6   4   7  1   
  7   5   8  1   
  8   5   9  1   
  9   5  10  1   
 10   6  11  1   
 11   6  17  1   
 12   6  18  1   
 13   7  11  1   
 14   7  19  1   
 15   7  20  1   
 16   8  21  1   
 17   8  22  1   
 18   8  23  1   
 19   9  24  1   
 20   9  25  1   
 21   9  26  1   
 22  10  27  1   
 23  10  28  1   
 24  10  29  1   
 25  11  12  1   
 26  11  30  1   
 27  12  13  1   
 28  12  14  1   
 29  12  15  1   
 30  13  16  3   
 31  14  31  1   
 32  14  32  1   
 33  14  33  1   
 34  15  34  1   
 35  15  35  1   
 36  15  36  1   
@<TRIPOS>SUBSTRUCTURE
  1 ****   4 GROUP 4 **** **** 0

# MOE 2024.06 (io_trps.svl 2023.06)
