@<TRIPOS>MOLECULE
NONAME
40 41 1 0 0 
SMALL
USER_CHARGES


@<TRIPOS>ATOM
  1 O       -0.6640    -0.4110     0.3670 O.3   1 <1>  -0.5600 
  2 C       -1.7220    -0.8960    -0.3880 C.3   1 <1>   0.1200 
  3 C       -0.4550     0.9580     0.2570 C.3   1 <1>   0.1200 
  4 C       -1.8310    -2.3960    -0.1010 C.3   1 <1>   0.3430 
  5 C        0.7380     1.3100     1.1350 C.3   1 <1>  -0.2400 
  6 N       -2.7390    -3.1170    -1.0610 N.4   1 <1>  -0.9590 
  7 C       -4.1650    -2.6930    -0.9320 C.3   1 <1>   0.3430 
  8 C       -2.7550    -4.5710    -0.7400 C.3   1 <1>   0.3430 
  9 C       -4.7430    -3.5170     0.2240 C.3   1 <1>   0.2000 
 10 C       -3.9280    -4.8180     0.2260 C.3   1 <1>  -0.0800 
 11 O       -4.4990    -2.8390     1.4100 O.3   1 <1>  -0.6800 
 12 C       -4.7780    -6.0360    -0.1900 C.3   1 <1>  -0.0170 
 13 C       -3.9700    -7.3260    -0.1870 C.ar  1 <1>   0.1670 
 14 N       -3.0890    -7.4660    -1.1650 N.ar  1 <1>  -0.6200 
 15 C       -4.1770    -8.2830     0.8060 C.ar  1 <1>   0.1600 
 16 C       -2.4440    -8.6210    -1.0920 C.ar  1 <1>   0.1600 
 17 N       -3.5230    -9.4280     0.8870 N.ar  1 <1>  -0.6200 
 18 C       -2.6540    -9.5700    -0.0980 C.ar  1 <1>   0.1600 
 19 H       -2.6190    -0.3820    -0.0890 H     1 <1>   0.0800 
 20 H       -1.5020    -0.7160    -1.4260 H     1 <1>   0.0800 
 21 H       -0.2520     1.2030    -0.7720 H     1 <1>   0.0800 
 22 H       -1.3370     1.4770     0.5940 H     1 <1>   0.0800 
 23 H       -2.1850    -2.5280     0.9090 H     1 <1>   0.0800 
 24 H       -0.8420    -2.8180    -0.1680 H     1 <1>   0.0800 
 25 H        1.6130     0.7810     0.8020 H     1 <1>   0.0800 
 26 H        0.5330     1.0540     2.1590 H     1 <1>   0.0800 
 27 H        0.9340     2.3650     1.0790 H     1 <1>   0.0800 
 28 H       -2.3920    -2.9740    -2.0200 H     1 <1>   0.4500 
 29 H       -4.2680    -1.6370    -0.7440 H     1 <1>   0.0800 
 30 H       -4.6930    -2.9440    -1.8370 H     1 <1>   0.0800 
 31 H       -2.9210    -5.1300    -1.6480 H     1 <1>   0.0800 
 32 H       -1.8210    -4.8960    -0.3100 H     1 <1>   0.0800 
 33 H       -5.8070    -3.6580     0.1240 H     1 <1>   0.0800 
 34 H       -3.5280    -5.0100     1.2070 H     1 <1>   0.0800 
 35 H       -4.9700    -3.2490     2.1660 H     1 <1>   0.4000 
 36 H       -5.1830    -5.8900    -1.1770 H     1 <1>   0.0800 
 37 H       -5.6100    -6.1380     0.4860 H     1 <1>   0.0800 
 38 H       -4.9120    -8.0990     1.5690 H     1 <1>   0.1500 
 39 H       -1.7140    -8.8320    -1.8540 H     1 <1>   0.1500 
 40 H       -2.0800   -10.4800    -0.1200 H     1 <1>   0.1500 
@<TRIPOS>BOND
  1   1   2  1   
  2   1   3  1   
  3   2   4  1   
  4   2  19  1   
  5   2  20  1   
  6   3   5  1   
  7   3  21  1   
  8   3  22  1   
  9   4   6  1   
 10   4  23  1   
 11   4  24  1   
 12   5  25  1   
 13   5  26  1   
 14   5  27  1   
 15   6   7  1   
 16   6   8  1   
 17   6  28  1   
 18   7   9  1   
 19   7  29  1   
 20   7  30  1   
 21   8  10  1   
 22   8  31  1   
 23   8  32  1   
 24   9  10  1   
 25   9  11  1   
 26   9  33  1   
 27  10  12  1   
 28  10  34  1   
 29  11  35  1   
 30  12  13  1   
 31  12  36  1   
 32  12  37  1   
 33  13  14  ar  
 34  13  15  ar  
 35  14  16  ar  
 36  15  17  ar  
 37  15  38  1   
 38  16  18  ar  
 39  16  39  1   
 40  17  18  ar  
 41  18  40  1   
@<TRIPOS>SUBSTRUCTURE
  1 ****   8 GROUP 4 **** **** 0

# MOE 2024.06 (io_trps.svl 2023.06)
