@<TRIPOS>MOLECULE
NONAME
30 31 1 0 0 
SMALL
USER_CHARGES


@<TRIPOS>ATOM
  1 F        0.5510    -0.7680     0.2090 F     1 <1>  -0.2320 
  2 C        1.7810    -0.2960     0.3800 C.3   1 <1>   0.4630 
  3 F        2.4680    -1.2250     1.0320 F     1 <1>  -0.2320 
  4 C        2.0580     1.1690     0.4970 C.3   1 <1>  -0.1150 
  5 C        2.4520     0.4150    -0.7480 C.3   1 <1>  -0.2000 
  6 C        0.9480     2.2390     0.3640 C.ar  1 <1>  -0.0320 
  7 C        3.1400     1.4780     1.5190 C.2   1 <1>   0.9470 
  8 C       -0.1260     2.0780    -0.5060 C.ar  1 <1>  -0.1500 
  9 C        0.9940     3.4110     1.1090 C.ar  1 <1>  -0.1500 
 10 O        4.2580     1.8220     1.1150 O.co2 1 <1>  -0.9000 
 11 O        2.8790     1.4040     2.7250 O.co2 1 <1>  -0.9000 
 12 C       -1.1090     3.0460    -0.6260 C.ar  1 <1>  -0.1500 
 13 C        0.0140     4.3810     0.9910 C.ar  1 <1>  -0.1500 
 14 C       -1.0510     4.2110     0.1210 C.ar  1 <1>  -0.1430 
 15 C       -2.1240     5.2910     0.0050 C.3   1 <1>   0.0630 
 16 C       -3.4950     4.7470     0.4200 C.3   1 <1>  -0.2400 
 17 C       -2.1720     5.8620    -1.4160 C.3   1 <1>  -0.2400 
 18 H        1.9130     0.5980    -1.6560 H     1 <1>   0.1000 
 19 H        3.5070     0.2830    -0.9060 H     1 <1>   0.1000 
 20 H       -0.2150     1.1920    -1.1040 H     1 <1>   0.1500 
 21 H        1.8010     3.5860     1.8010 H     1 <1>   0.1500 
 22 H       -1.9220     2.8810    -1.3090 H     1 <1>   0.1500 
 23 H        0.0930     5.2700     1.5910 H     1 <1>   0.1500 
 24 H       -1.8740     6.0970     0.6740 H     1 <1>   0.0800 
 25 H       -3.8140     3.9670    -0.2470 H     1 <1>   0.0800 
 26 H       -4.2280     5.5330     0.4080 H     1 <1>   0.0800 
 27 H       -3.4380     4.3440     1.4150 H     1 <1>   0.0800 
 28 H       -2.4620     5.1060    -2.1230 H     1 <1>   0.0800 
 29 H       -1.2000     6.2320    -1.6910 H     1 <1>   0.0800 
 30 H       -2.8750     6.6730    -1.4690 H     1 <1>   0.0800 
@<TRIPOS>BOND
  1   1   2  1   
  2   2   3  1   
  3   2   4  1   
  4   2   5  1   
  5   4   5  1   
  6   4   6  1   
  7   4   7  1   
  8   5  18  1   
  9   5  19  1   
 10   6   8  ar  
 11   6   9  ar  
 12   7  10  ar  
 13   7  11  ar  
 14   8  12  ar  
 15   8  20  1   
 16   9  13  ar  
 17   9  21  1   
 18  12  14  ar  
 19  12  22  1   
 20  13  14  ar  
 21  13  23  1   
 22  14  15  1   
 23  15  16  1   
 24  15  17  1   
 25  15  24  1   
 26  16  25  1   
 27  16  26  1   
 28  16  27  1   
 29  17  28  1   
 30  17  29  1   
 31  17  30  1   
@<TRIPOS>SUBSTRUCTURE
  1 ****   6 GROUP 4 **** **** 0

# MOE 2024.06 (io_trps.svl 2023.06)
