@<TRIPOS>MOLECULE
Untitled Document
55 59 1 0 0 
SMALL
USER_CHARGES


@<TRIPOS>ATOM
  1 O       -0.6590    -0.4160    -1.1720 O.2   1 <1>  -0.5700 
  2 C       -0.1760    -1.3310    -0.5380 C.2   1 <1>   0.6340 
  3 O        1.1530    -1.4210    -0.4510 O.3   1 <1>  -0.4300 
  4 C       -0.9720    -2.3400     0.1380 C.ar  1 <1>   0.0860 
  5 C        2.0110    -0.4910    -1.0650 C.3   1 <1>   0.3380 
  6 C       -0.3890    -3.3730     0.8790 C.ar  1 <1>  -0.1500 
  7 C       -2.3670    -2.3160     0.0720 C.ar  1 <1>  -0.1500 
  8 C        2.1570     0.7120    -0.1520 C.2   1 <1>  -0.2880 
  9 C        3.3660    -1.1690    -1.2300 C.3   1 <1>  -0.1600 
 10 C       -1.1580    -4.3290     1.5180 C.ar  1 <1>  -0.1500 
 11 C       -3.1410    -3.2690     0.7080 C.ar  1 <1>  -0.1500 
 12 C        3.2930     1.3980     0.0050 C.2   1 <1>  -0.2880 
 13 C        4.4710    -0.1800    -1.6380 C.3   1 <1>   0.2000 
 14 C       -2.5370    -4.2800     1.4330 C.ar  1 <1>  -0.1500 
 15 C        4.5930     1.1090    -0.7540 C.3   1 <1>   0.2820 
 16 O        5.6860    -0.8880    -1.4640 O.3   1 <1>  -0.3630 
 17 C        5.7690     0.7270     0.1100 C.ar  1 <1>  -0.1430 
 18 C        4.9850     2.3700    -1.5600 C.3   1 <1>  -0.1600 
 19 C        6.3210    -0.4320    -0.3650 C.ar  1 <1>   0.0830 
 20 C        6.3560     1.4180     1.1560 C.ar  1 <1>  -0.1430 
 21 C        6.1310     3.2160    -0.9650 C.3   1 <1>   0.3430 
 22 C        7.4360    -1.0050     0.2360 C.ar  1 <1>   0.0830 
 23 C        7.4680     0.8610     1.7750 C.ar  1 <1>  -0.1500 
 24 C        5.7990     2.7710     1.5510 C.3   1 <1>   0.4860 
 25 N        5.9090     3.7710     0.4230 N.4   1 <1>  -0.9590 
 26 O        7.9170    -2.1700    -0.2760 O.3   1 <1>  -0.3630 
 27 C        7.9980    -0.3440     1.3260 C.ar  1 <1>  -0.1500 
 28 C        4.7860     4.7580     0.4590 C.3   1 <1>   0.2630 
 29 C        8.9980    -2.8450     0.3250 C.3   1 <1>   0.0400 
 30 H        1.6020    -0.2090    -2.0220 H     1 <1>   0.0800 
 31 H        0.6820    -3.4310     0.9590 H     1 <1>   0.1500 
 32 H       -2.8510    -1.5350    -0.4900 H     1 <1>   0.1500 
 33 H        1.2400     0.9590     0.3570 H     1 <1>   0.1500 
 34 H        3.2900    -1.9440    -1.9700 H     1 <1>   0.0800 
 35 H        3.6340    -1.6120    -0.2860 H     1 <1>   0.0800 
 36 H       -0.6830    -5.1140     2.0820 H     1 <1>   0.1500 
 37 H       -4.2150    -3.2260     0.6390 H     1 <1>   0.1500 
 38 H        3.3320     2.2310     0.6710 H     1 <1>   0.1500 
 39 H        4.3690     0.0640    -2.6800 H     1 <1>   0.0800 
 40 H       -3.1370    -5.0230     1.9300 H     1 <1>   0.1500 
 41 H        4.1220     2.9840    -1.7420 H     1 <1>   0.0800 
 42 H        5.3350     2.0540    -2.5270 H     1 <1>   0.0800 
 43 H        6.3230     4.0360    -1.6390 H     1 <1>   0.0800 
 44 H        7.0240     2.6100    -0.9560 H     1 <1>   0.0800 
 45 H        7.9420     1.3560     2.6060 H     1 <1>   0.1500 
 46 H        6.3340     3.1370     2.4120 H     1 <1>   0.0800 
 47 H        4.7730     2.6470     1.8450 H     1 <1>   0.0800 
 48 H        6.7740     4.2900     0.6310 H     1 <1>   0.4500 
 49 H        8.8560    -0.7480     1.8320 H     1 <1>   0.1500 
 50 H        3.8500     4.2730     0.2350 H     1 <1>   0.0800 
 51 H        4.9490     5.5360    -0.2700 H     1 <1>   0.0800 
 52 H        4.7140     5.2140     1.4340 H     1 <1>   0.0800 
 53 H        9.1780    -3.7460    -0.2330 H     1 <1>   0.0800 
 54 H        8.7380    -3.0900     1.3390 H     1 <1>   0.0800 
 55 H        9.8680    -2.2140     0.2880 H     1 <1>   0.0800 
@<TRIPOS>BOND
  1   1   2  2   
  2   2   3  1   
  3   2   4  1   
  4   3   5  1   
  5   4   6  ar  
  6   4   7  ar  
  7   5   8  1   
  8   5   9  1   
  9   5  30  1   
 10   6  10  ar  
 11   6  31  1   
 12   7  11  ar  
 13   7  32  1   
 14   8  12  2   
 15   8  33  1   
 16   9  13  1   
 17   9  34  1   
 18   9  35  1   
 19  10  14  ar  
 20  10  36  1   
 21  11  14  ar  
 22  11  37  1   
 23  12  15  1   
 24  12  38  1   
 25  13  15  1   
 26  13  16  1   
 27  13  39  1   
 28  14  40  1   
 29  15  17  1   
 30  15  18  1   
 31  16  19  1   
 32  17  19  ar  
 33  17  20  ar  
 34  18  21  1   
 35  18  41  1   
 36  18  42  1   
 37  19  22  ar  
 38  20  23  ar  
 39  20  24  1   
 40  21  25  1   
 41  21  43  1   
 42  21  44  1   
 43  22  26  1   
 44  22  27  ar  
 45  23  27  ar  
 46  23  45  1   
 47  24  25  1   
 48  24  46  1   
 49  24  47  1   
 50  25  28  1   
 51  25  48  1   
 52  26  29  1   
 53  27  49  1   
 54  28  50  1   
 55  28  51  1   
 56  28  52  1   
 57  29  53  1   
 58  29  54  1   
 59  29  55  1   
@<TRIPOS>SUBSTRUCTURE
  1 ****   9 GROUP 4 **** **** 0

# MOE 2024.06 (io_trps.svl 2023.06)
