@<TRIPOS>MOLECULE
NONAME
47 49 1 0 0 
SMALL
USER_CHARGES


@<TRIPOS>ATOM
  1 CL      -1.8630     1.2340     3.5130 Cl    1 <1>  -0.1770 
  2 C       -3.0460     1.7420     2.3320 C.ar  1 <1>   0.1770 
  3 C       -4.3970     1.5690     2.5720 C.ar  1 <1>  -0.1440 
  4 C       -2.6000     2.3120     1.1570 C.ar  1 <1>  -0.1500 
  5 C       -5.2930     1.9930     1.6050 C.ar  1 <1>  -0.1500 
  6 C       -4.8990     0.9280     3.8580 C.3   1 <1>  -0.0960 
  7 C       -3.5070     2.7320     0.1940 C.ar  1 <1>  -0.1430 
  8 C       -4.8820     2.5930     0.4150 C.ar  1 <1>  -0.0090 
  9 C       -2.9500     3.3310    -1.0910 C.3   1 <1>  -0.0960 
 10 S       -6.1500     3.1230    -0.7880 S.o2  1 <1>   1.4470 
 11 O       -6.5980     1.9670    -1.5310 O.2   1 <1>  -0.6500 
 12 O       -5.7450     4.3060    -1.5180 O.2   1 <1>  -0.6500 
 13 N       -7.4500     3.6130     0.1920 N.am  1 <1>  -0.8490 
 14 C       -8.7120     3.6630    -0.5730 C.3   1 <1>   0.1960 
 15 C       -7.1880     4.9070     0.8370 C.3   1 <1>   0.1960 
 16 C       -9.9320     3.9690     0.3380 C.3   1 <1>   0.0000 
 17 C       -8.3140     5.2590     1.8140 C.3   1 <1>  -0.1600 
 18 C      -10.2950     2.7830     1.2600 C.3   1 <1>   0.2000 
 19 C       -9.6800     5.2780     1.1140 C.3   1 <1>  -0.1600 
 20 C      -11.1960     4.0790    -0.5270 C.3   1 <1>  -0.1600 
 21 O       -9.1730     2.1530     1.7560 O.3   1 <1>  -0.6800 
 22 C      -11.1080     1.8120     0.4060 C.3   1 <1>  -0.1600 
 23 C      -11.6620     2.6380    -0.7640 C.3   1 <1>  -0.1600 
 24 H       -1.5410     2.4200     1.0070 H     1 <1>   0.1500 
 25 H       -6.3460     1.8500     1.7800 H     1 <1>   0.1500 
 26 H       -5.9740     0.8770     3.8720 H     1 <1>   0.0800 
 27 H       -4.5750     1.5030     4.7070 H     1 <1>   0.0800 
 28 H       -4.5100    -0.0700     3.9460 H     1 <1>   0.0800 
 29 H       -1.8900     3.1710    -1.1670 H     1 <1>   0.0800 
 30 H       -3.1320     4.3920    -1.1160 H     1 <1>   0.0800 
 31 H       -3.4130     2.8790    -1.9510 H     1 <1>   0.0800 
 32 H       -8.6310     4.4160    -1.3390 H     1 <1>   0.0800 
 33 H       -8.8730     2.7170    -1.0640 H     1 <1>   0.0800 
 34 H       -6.2560     4.8630     1.3770 H     1 <1>   0.0800 
 35 H       -7.1050     5.6820     0.0910 H     1 <1>   0.0800 
 36 H       -8.3180     4.5470     2.6210 H     1 <1>   0.0800 
 37 H       -8.1190     6.2270     2.2420 H     1 <1>   0.0800 
 38 H      -10.8890     3.1180     2.0940 H     1 <1>   0.0800 
 39 H       -9.7000     6.1040     0.4230 H     1 <1>   0.0800 
 40 H      -10.4580     5.4410     1.8400 H     1 <1>   0.0800 
 41 H      -11.9630     4.5990     0.0220 H     1 <1>   0.0800 
 42 H      -11.0250     4.6020    -1.4520 H     1 <1>   0.0800 
 43 H       -8.3990     2.5480     1.2770 H     1 <1>   0.4000 
 44 H      -10.4850     1.0190     0.0280 H     1 <1>   0.0800 
 45 H      -11.9060     1.3880     0.9890 H     1 <1>   0.0800 
 46 H      -11.2540     2.2670    -1.6890 H     1 <1>   0.0800 
 47 H      -12.7360     2.5810    -0.8140 H     1 <1>   0.0800 
@<TRIPOS>BOND
  1   1   2  1   
  2   2   3  ar  
  3   2   4  ar  
  4   3   5  ar  
  5   3   6  1   
  6   4   7  ar  
  7   4  24  1   
  8   5   8  ar  
  9   5  25  1   
 10   6  26  1   
 11   6  27  1   
 12   6  28  1   
 13   7   8  ar  
 14   7   9  1   
 15   8  10  1   
 16   9  29  1   
 17   9  30  1   
 18   9  31  1   
 19  10  11  2   
 20  10  12  2   
 21  10  13  am  
 22  13  14  1   
 23  13  15  1   
 24  14  16  1   
 25  14  32  1   
 26  14  33  1   
 27  15  17  1   
 28  15  34  1   
 29  15  35  1   
 30  16  18  1   
 31  16  19  1   
 32  16  20  1   
 33  17  19  1   
 34  17  36  1   
 35  17  37  1   
 36  18  21  1   
 37  18  22  1   
 38  18  38  1   
 39  19  39  1   
 40  19  40  1   
 41  20  23  1   
 42  20  41  1   
 43  20  42  1   
 44  21  43  1   
 45  22  23  1   
 46  22  44  1   
 47  22  45  1   
 48  23  46  1   
 49  23  47  1   
@<TRIPOS>SUBSTRUCTURE
  1 ****  13 GROUP 4 **** **** 0

# MOE 2024.06 (io_trps.svl 2023.06)
