@<TRIPOS>MOLECULE
NONAME
57 59 1 0 0 
SMALL
USER_CHARGES


@<TRIPOS>ATOM
  1 S        0.0350     0.2670    -0.6870 S.o2  1 <1>   1.4470 
  2 O        0.2450     1.6840    -0.5050 O.2   1 <1>  -0.6500 
  3 O        0.3480    -0.3610    -1.9500 O.2   1 <1>  -0.6500 
  4 N        1.0190    -0.4340     0.4760 N.am  1 <1>  -0.9140 
  5 C       -1.6390    -0.1990    -0.1590 C.ar  1 <1>  -0.0090 
  6 C        2.3870    -0.6010     0.0260 C.3   1 <1>   0.1960 
  7 C       -2.6420     0.7510    -0.0070 C.ar  1 <1>  -0.1500 
  8 C       -1.9640    -1.5250     0.1000 C.ar  1 <1>  -0.1500 
  9 C        3.2270    -1.1100     1.1960 C.3   1 <1>  -0.1600 
 10 C       -3.9190     0.3900     0.3870 C.ar  1 <1>  -0.1500 
 11 C       -3.2400    -1.8870     0.4950 C.ar  1 <1>  -0.1500 
 12 C        4.6880    -1.3230     0.7830 C.3   1 <1>  -0.2400 
 13 C       -4.2500    -0.9400     0.6400 C.ar  1 <1>   0.0860 
 14 C       -5.5860    -1.3310     1.0470 C.2   1 <1>   0.5440 
 15 O       -5.7230    -1.9450     2.0880 O.2   1 <1>  -0.5700 
 16 N       -6.6970    -1.0400     0.2800 N.am  1 <1>  -0.6600 
 17 C       -8.0870    -1.2930     0.7770 C.3   1 <1>   0.1400 
 18 C       -6.6410    -0.6250    -1.1480 C.3   1 <1>   0.1400 
 19 C       -8.7890    -2.3890    -0.0650 C.3   1 <1>   0.0000 
 20 C       -7.3100    -1.6890    -2.0250 C.3   1 <1>  -0.1600 
 21 C      -10.2330    -2.6220     0.4130 C.3   1 <1>   0.2000 
 22 C       -8.7430    -1.9980    -1.5580 C.3   1 <1>  -0.1600 
 23 C       -8.1510    -3.7640     0.2020 C.3   1 <1>  -0.1600 
 24 O      -10.8730    -1.4190     0.7220 O.3   1 <1>  -0.5600 
 25 C      -10.1220    -3.5300     1.6420 C.3   1 <1>  -0.1600 
 26 C       -8.7780    -4.2600     1.5080 C.3   1 <1>  -0.1600 
 27 C      -12.2540    -1.5100     0.8730 C.3   1 <1>   0.0400 
 28 H        1.0380     0.2630     1.2180 H     1 <1>   0.4200 
 29 H        2.4180    -1.3150    -0.7830 H     1 <1>   0.0800 
 30 H        2.7780     0.3390    -0.3300 H     1 <1>   0.0800 
 31 H       -2.4200     1.7890    -0.1970 H     1 <1>   0.1500 
 32 H       -1.2050    -2.2820    -0.0070 H     1 <1>   0.1500 
 33 H        3.1920    -0.3990     2.0030 H     1 <1>   0.0800 
 34 H        2.8210    -2.0450     1.5430 H     1 <1>   0.0800 
 35 H       -4.6780     1.1440     0.5070 H     1 <1>   0.1500 
 36 H       -3.4690    -2.9200     0.6990 H     1 <1>   0.1500 
 37 H        5.1250    -0.3980     0.4460 H     1 <1>   0.0800 
 38 H        4.7540    -2.0470    -0.0110 H     1 <1>   0.0800 
 39 H        5.2580    -1.6840     1.6210 H     1 <1>   0.0800 
 40 H       -8.0740    -1.5730     1.8150 H     1 <1>   0.0800 
 41 H       -8.6410    -0.3740     0.7040 H     1 <1>   0.0800 
 42 H       -7.1570     0.3140    -1.2570 H     1 <1>   0.0800 
 43 H       -5.6250    -0.4900    -1.4750 H     1 <1>   0.0800 
 44 H       -7.3320    -1.3440    -3.0430 H     1 <1>   0.0800 
 45 H       -6.7150    -2.5850    -1.9990 H     1 <1>   0.0800 
 46 H      -10.7840    -3.1240    -0.3640 H     1 <1>   0.0800 
 47 H       -9.1580    -2.7860    -2.1620 H     1 <1>   0.0800 
 48 H       -9.3520    -1.1220    -1.7020 H     1 <1>   0.0800 
 49 H       -8.4120    -4.4450    -0.5890 H     1 <1>   0.0800 
 50 H       -7.0780    -3.7200     0.2730 H     1 <1>   0.0800 
 51 H      -10.1190    -2.9400     2.5420 H     1 <1>   0.0800 
 52 H      -10.9370    -4.2310     1.6690 H     1 <1>   0.0800 
 53 H       -8.1390    -3.9950     2.3350 H     1 <1>   0.0800 
 54 H       -8.9020    -5.3290     1.4960 H     1 <1>   0.0800 
 55 H      -12.6320    -0.5260     1.0840 H     1 <1>   0.0800 
 56 H      -12.4840    -2.1680     1.6930 H     1 <1>   0.0800 
 57 H      -12.6890    -1.8770    -0.0410 H     1 <1>   0.0800 
@<TRIPOS>BOND
  1   1   2  2   
  2   1   3  2   
  3   1   4  am  
  4   1   5  1   
  5   4   6  1   
  6   4  28  1   
  7   5   7  ar  
  8   5   8  ar  
  9   6   9  1   
 10   6  29  1   
 11   6  30  1   
 12   7  10  ar  
 13   7  31  1   
 14   8  11  ar  
 15   8  32  1   
 16   9  12  1   
 17   9  33  1   
 18   9  34  1   
 19  10  13  ar  
 20  10  35  1   
 21  11  13  ar  
 22  11  36  1   
 23  12  37  1   
 24  12  38  1   
 25  12  39  1   
 26  13  14  1   
 27  14  15  2   
 28  14  16  am  
 29  16  17  1   
 30  16  18  1   
 31  17  19  1   
 32  17  40  1   
 33  17  41  1   
 34  18  20  1   
 35  18  42  1   
 36  18  43  1   
 37  19  21  1   
 38  19  22  1   
 39  19  23  1   
 40  20  22  1   
 41  20  44  1   
 42  20  45  1   
 43  21  24  1   
 44  21  25  1   
 45  21  46  1   
 46  22  47  1   
 47  22  48  1   
 48  23  26  1   
 49  23  49  1   
 50  23  50  1   
 51  24  27  1   
 52  25  26  1   
 53  25  51  1   
 54  25  52  1   
 55  26  53  1   
 56  26  54  1   
 57  27  55  1   
 58  27  56  1   
 59  27  57  1   
@<TRIPOS>SUBSTRUCTURE
  1 ****  13 GROUP 4 **** **** 0

# MOE 2024.06 (io_trps.svl 2023.06)
