@<TRIPOS>MOLECULE
NONAME
43 45 1 0 0 
SMALL
USER_CHARGES


@<TRIPOS>ATOM
  1 CL      -0.7790     1.3770     0.5820 Cl    1 <1>  -0.1230 
  2 C       -2.2530     0.6770    -0.0490 C.2   1 <1>   0.4120 
  3 N       -2.7080     0.9080    -1.2250 N.2   1 <1>  -0.4100 
  4 C       -3.0600    -0.1890     0.6760 C.2   1 <1>  -0.1500 
  5 O       -3.8060     0.2060    -1.3020 O.3   1 <1>  -0.0190 
  6 C       -4.0480    -0.4540    -0.1940 C.2   1 <1>  -0.0400 
  7 C       -5.2850    -1.3260    -0.0820 C.3   1 <1>   0.0200 
  8 C       -6.5620    -0.4900    -0.2570 C.3   1 <1>  -0.0990 
  9 C       -7.8420    -1.2930    -0.0820 C.2   1 <1>   0.5690 
 10 O       -7.7560    -2.4950     0.0220 O.2   1 <1>  -0.5700 
 11 N       -9.0540    -0.6530    -0.0410 N.am  1 <1>  -0.6600 
 12 C       -9.2220     0.8180    -0.2600 C.3   1 <1>   0.1400 
 13 C      -10.2980    -1.4350     0.2420 C.3   1 <1>   0.1400 
 14 C      -10.6230     1.1150    -0.7890 C.3   1 <1>  -0.1600 
 15 C      -11.3130    -0.5740     0.9970 C.3   1 <1>  -0.1600 
 16 C      -11.6970     0.7050     0.2320 C.3   1 <1>   0.4180 
 17 O      -11.7890     1.7100     1.2130 O.3   1 <1>  -0.5600 
 18 C      -13.0430     0.5070    -0.4640 C.2   1 <1>  -0.2880 
 19 C      -12.5810     2.8320     0.9360 C.3   1 <1>   0.1200 
 20 C      -14.1220     1.2630    -0.2480 C.2   1 <1>  -0.2760 
 21 C      -14.0450     2.4280     0.7200 C.3   1 <1>  -0.0220 
 22 C      -15.4740     1.0440    -0.9020 C.3   1 <1>  -0.1020 
 23 H       -2.8900    -0.5300     1.6790 H     1 <1>   0.1500 
 24 H       -5.2960    -1.8060     0.8820 H     1 <1>   0.0800 
 25 H       -5.2460    -2.0930    -0.8360 H     1 <1>   0.0800 
 26 H       -6.5630    -0.0600    -1.2410 H     1 <1>   0.0800 
 27 H       -6.5550     0.3050     0.4650 H     1 <1>   0.0800 
 28 H       -8.4980     1.1740    -0.9710 H     1 <1>   0.0800 
 29 H       -9.0720     1.3350     0.6740 H     1 <1>   0.0800 
 30 H      -10.0590    -2.3020     0.8340 H     1 <1>   0.0800 
 31 H      -10.7190    -1.7730    -0.6890 H     1 <1>   0.0800 
 32 H      -10.7600     0.5630    -1.7010 H     1 <1>   0.0800 
 33 H      -10.7130     2.1550    -1.0360 H     1 <1>   0.0800 
 34 H      -10.8780    -0.3170     1.9460 H     1 <1>   0.0800 
 35 H      -12.1930    -1.1570     1.1960 H     1 <1>   0.0800 
 36 H      -13.0380    -0.3240    -1.1460 H     1 <1>   0.1500 
 37 H      -12.1960     3.3210     0.0600 H     1 <1>   0.0800 
 38 H      -12.5000     3.5060     1.7710 H     1 <1>   0.0800 
 39 H      -14.5790     3.2750     0.3280 H     1 <1>   0.0800 
 40 H      -14.4910     2.1540     1.6600 H     1 <1>   0.0800 
 41 H      -15.7520     1.9080    -1.4800 H     1 <1>   0.0800 
 42 H      -16.2240     0.8700    -0.1520 H     1 <1>   0.0800 
 43 H      -15.4420     0.1920    -1.5570 H     1 <1>   0.0800 
@<TRIPOS>BOND
  1   1   2  1   
  2   2   3  2   
  3   2   4  1   
  4   3   5  1   
  5   4   6  2   
  6   4  23  1   
  7   5   6  1   
  8   6   7  1   
  9   7   8  1   
 10   7  24  1   
 11   7  25  1   
 12   8   9  1   
 13   8  26  1   
 14   8  27  1   
 15   9  10  2   
 16   9  11  am  
 17  11  12  1   
 18  11  13  1   
 19  12  14  1   
 20  12  28  1   
 21  12  29  1   
 22  13  15  1   
 23  13  30  1   
 24  13  31  1   
 25  14  16  1   
 26  14  32  1   
 27  14  33  1   
 28  15  16  1   
 29  15  34  1   
 30  15  35  1   
 31  16  17  1   
 32  16  18  1   
 33  17  19  1   
 34  18  20  2   
 35  18  36  1   
 36  19  21  1   
 37  19  37  1   
 38  19  38  1   
 39  20  21  1   
 40  20  22  1   
 41  21  39  1   
 42  21  40  1   
 43  22  41  1   
 44  22  42  1   
 45  22  43  1   
@<TRIPOS>SUBSTRUCTURE
  1 ****  12 GROUP 4 **** **** 0

# MOE 2024.06 (io_trps.svl 2023.06)
