@<TRIPOS>MOLECULE
NONAME
57 60 1 0 0 
SMALL
USER_CHARGES


@<TRIPOS>ATOM
  1 O       -0.6730    -1.2840    -1.0680 O.3   1 <1>  -0.3630 
  2 C       -1.5580    -1.7210    -0.1390 C.ar  1 <1>   0.0830 
  3 C       -0.1940     0.0410    -0.9180 C.3   1 <1>   0.1200 
  4 C       -2.2160    -0.8310     0.7100 C.ar  1 <1>   0.0830 
  5 C       -1.8010    -3.0790    -0.0400 C.ar  1 <1>  -0.1500 
  6 C       -1.3440     0.9840    -0.5340 C.3   1 <1>   0.1200 
  7 O       -2.0120     0.5070     0.6200 O.3   1 <1>  -0.3630 
  8 C       -3.0960    -1.3110     1.6630 C.ar  1 <1>  -0.1500 
  9 C       -2.7000    -3.5600     0.9030 C.ar  1 <1>  -0.1430 
 10 C       -3.3380    -2.6720     1.7600 C.ar  1 <1>  -0.1500 
 11 C       -2.9810    -5.0450     0.9780 C.3   1 <1>   0.4860 
 12 N       -3.8310    -5.3970    -0.1890 N.4   1 <1>  -0.9590 
 13 C       -3.8900    -6.8800    -0.3930 C.3   1 <1>   0.5660 
 14 C       -5.2010    -4.7930    -0.0950 C.3   1 <1>   0.3430 
 15 C       -2.4880    -7.3530    -0.7530 C.ar  1 <1>  -0.1430 
 16 C       -4.9270    -7.3140    -1.4640 C.3   1 <1>   0.2000 
 17 C       -6.1020    -5.2630    -1.2500 C.3   1 <1>   0.1200 
 18 C       -1.8600    -8.2740     0.0730 C.ar  1 <1>  -0.1500 
 19 C       -1.8190    -6.8820    -1.8780 C.ar  1 <1>  -0.1500 
 20 O       -6.1590    -6.6580    -1.2760 O.3   1 <1>  -0.5600 
 21 C       -5.1670    -8.8310    -1.3930 C.3   1 <1>   0.1200 
 22 C       -0.5780    -8.7160    -0.2020 C.ar  1 <1>   0.0830 
 23 C       -0.5320    -7.3110    -2.1530 C.ar  1 <1>  -0.1500 
 24 O       -5.3600    -9.2240    -0.0700 O.3   1 <1>  -0.6800 
 25 O       -0.0500    -9.6320     0.6430 O.3   1 <1>  -0.3630 
 26 C        0.1040    -8.2100    -1.3140 C.ar  1 <1>   0.0830 
 27 C        0.2620   -10.8980     0.1000 C.3   1 <1>   0.0400 
 28 O        1.3760    -8.5550    -1.6230 O.3   1 <1>  -0.3630 
 29 C        2.3810    -8.1550    -0.7170 C.3   1 <1>   0.0400 
 30 H        0.5600     0.0410    -0.1500 H     1 <1>   0.0800 
 31 H        0.2520     0.3410    -1.8490 H     1 <1>   0.0800 
 32 H       -1.2700    -3.7380    -0.7050 H     1 <1>   0.1500 
 33 H       -2.0600     1.0460    -1.3340 H     1 <1>   0.0800 
 34 H       -0.9730     1.9700    -0.3170 H     1 <1>   0.0800 
 35 H       -3.5850    -0.6140     2.3210 H     1 <1>   0.1500 
 36 H       -4.0250    -3.0220     2.5130 H     1 <1>   0.1500 
 37 H       -3.4820    -5.2900     1.9000 H     1 <1>   0.0800 
 38 H       -2.0460    -5.5820     0.9410 H     1 <1>   0.0800 
 39 H       -3.3610    -5.0020    -1.0070 H     1 <1>   0.4500 
 40 H       -4.1790    -7.3430     0.5360 H     1 <1>   0.0800 
 41 H       -5.6650    -5.0800     0.8350 H     1 <1>   0.0800 
 42 H       -5.1300    -3.7170    -0.1120 H     1 <1>   0.0800 
 43 H       -4.5780    -7.0660    -2.4500 H     1 <1>   0.0800 
 44 H       -5.7400    -4.9080    -2.2000 H     1 <1>   0.0800 
 45 H       -7.1050    -4.8980    -1.1070 H     1 <1>   0.0800 
 46 H       -2.3570    -8.6740     0.9410 H     1 <1>   0.1500 
 47 H       -2.2770    -6.1830    -2.5570 H     1 <1>   0.1500 
 48 H       -4.3160    -9.3690    -1.7750 H     1 <1>   0.0800 
 49 H       -6.0390    -9.0970    -1.9670 H     1 <1>   0.0800 
 50 H       -0.0050    -6.9490    -3.0190 H     1 <1>   0.1500 
 51 H       -5.7450   -10.1260    -0.0310 H     1 <1>   0.4000 
 52 H        0.5430   -11.5500     0.9080 H     1 <1>   0.0800 
 53 H        1.0800   -10.8020    -0.5900 H     1 <1>   0.0800 
 54 H       -0.6060   -11.2860    -0.4020 H     1 <1>   0.0800 
 55 H        3.3350    -8.4250    -1.1320 H     1 <1>   0.0800 
 56 H        2.2370    -8.6560     0.2230 H     1 <1>   0.0800 
 57 H        2.3260    -7.0890    -0.5850 H     1 <1>   0.0800 
@<TRIPOS>BOND
  1   1   2  1   
  2   1   3  1   
  3   2   4  ar  
  4   2   5  ar  
  5   3   6  1   
  6   3  30  1   
  7   3  31  1   
  8   4   7  1   
  9   4   8  ar  
 10   5   9  ar  
 11   5  32  1   
 12   6   7  1   
 13   6  33  1   
 14   6  34  1   
 15   8  10  ar  
 16   8  35  1   
 17   9  10  ar  
 18   9  11  1   
 19  10  36  1   
 20  11  12  1   
 21  11  37  1   
 22  11  38  1   
 23  12  13  1   
 24  12  14  1   
 25  12  39  1   
 26  13  15  1   
 27  13  16  1   
 28  13  40  1   
 29  14  17  1   
 30  14  41  1   
 31  14  42  1   
 32  15  18  ar  
 33  15  19  ar  
 34  16  20  1   
 35  16  21  1   
 36  16  43  1   
 37  17  20  1   
 38  17  44  1   
 39  17  45  1   
 40  18  22  ar  
 41  18  46  1   
 42  19  23  ar  
 43  19  47  1   
 44  21  24  1   
 45  21  48  1   
 46  21  49  1   
 47  22  25  1   
 48  22  26  ar  
 49  23  26  ar  
 50  23  50  1   
 51  24  51  1   
 52  25  27  1   
 53  26  28  1   
 54  27  52  1   
 55  27  53  1   
 56  27  54  1   
 57  28  29  1   
 58  29  55  1   
 59  29  56  1   
 60  29  57  1   
@<TRIPOS>SUBSTRUCTURE
  1 ****  11 GROUP 4 **** **** 0

# MOE 2024.06 (io_trps.svl 2023.06)
