@<TRIPOS>MOLECULE
NONAME
50 53 1 0 0 
SMALL
USER_CHARGES


@<TRIPOS>ATOM
  1 O        1.8950    -0.1960     1.5240 O.2   1 <1>  -0.5700 
  2 C        2.3930    -0.4240     0.4370 C.2   1 <1>   0.7030 
  3 N        3.3590     0.4410    -0.0390 N.am  1 <1>  -0.6600 
  4 C        1.9470    -1.5880    -0.3220 C.2   1 <1>   0.2770 
  5 C        4.5140    -0.0070    -0.8900 C.3   1 <1>   0.1400 
  6 C        3.3710     1.8670     0.4150 C.3   1 <1>   0.1400 
  7 N        1.4790    -2.8080     0.1800 N.pl3 1 <1>  -0.7640 
  8 C        1.8750    -1.7040    -1.6730 C.2   1 <1>   0.2000 
  9 C        5.8810     0.2630    -0.2460 C.3   1 <1>   0.1400 
 10 C        4.4090     2.0850     1.5240 C.3   1 <1>  -0.1600 
 11 C        1.1610    -3.5850    -0.8460 C.cat 1 <1>   0.6500 
 12 C        1.3370    -3.1150     1.6330 C.3   1 <1>   0.2740 
 13 N        1.3960    -2.9470    -1.9820 N.pl3 1 <1>  -0.7000 
 14 N        6.1730     1.7220    -0.2370 N.am  1 <1>  -0.6600 
 15 C        5.8060     2.4560     1.0080 C.3   1 <1>   0.1400 
 16 C        6.7750     2.2990    -1.3320 C.2   1 <1>   0.5690 
 17 O        6.9160     1.6730    -2.3580 O.2   1 <1>  -0.5700 
 18 C        7.2720     3.7350    -1.3220 C.3   1 <1>   0.0820 
 19 C        8.3210     3.9570    -0.2520 C.2   1 <1>   0.1080 
 20 N        8.1920     4.8260     0.6960 N.2   1 <1>  -0.7070 
 21 C        9.5320     3.2440    -0.1800 C.ar  1 <1>   0.0000 
 22 N        9.3290     4.7170     1.4220 N.pl3 1 <1>   0.3000 
 23 C       10.1670     3.7650     0.9260 C.ar  1 <1>  -0.1520 
 24 C       10.1510     2.2250    -0.9180 C.ar  1 <1>  -0.1500 
 25 C       11.4240     3.3010     1.3310 C.ar  1 <1>  -0.1500 
 26 C       11.3850     1.7630    -0.5260 C.ar  1 <1>  -0.1500 
 27 C       12.0230     2.3020     0.6010 C.ar  1 <1>  -0.1500 
 28 H        4.4750     0.4900    -1.8450 H     1 <1>   0.0800 
 29 H        4.4510    -1.0650    -1.0660 H     1 <1>   0.0800 
 30 H        2.3970     2.1230     0.8000 H     1 <1>   0.0800 
 31 H        3.5680     2.5190    -0.4200 H     1 <1>   0.0800 
 32 H        2.1340    -0.9650    -2.4160 H     1 <1>   0.1500 
 33 H        6.6410    -0.2410    -0.8190 H     1 <1>   0.0800 
 34 H        5.9160    -0.1370     0.7520 H     1 <1>   0.0800 
 35 H        4.4590     1.2160     2.1560 H     1 <1>   0.0800 
 36 H        4.0750     2.8950     2.1470 H     1 <1>   0.0800 
 37 H        0.7630    -4.5880    -0.7680 H     1 <1>   0.1500 
 38 H        2.2790    -2.9660     2.1350 H     1 <1>   0.0800 
 39 H        1.0240    -4.1350     1.7780 H     1 <1>   0.0800 
 40 H        0.6050    -2.4600     2.0760 H     1 <1>   0.0800 
 41 H        1.2310    -3.3150    -2.9260 H     1 <1>   0.4500 
 42 H        6.5430     2.2570     1.7690 H     1 <1>   0.0800 
 43 H        5.8160     3.5150     0.8220 H     1 <1>   0.0800 
 44 H        6.4430     4.3980    -1.1710 H     1 <1>   0.0800 
 45 H        7.7050     3.9650    -2.2770 H     1 <1>   0.0800 
 46 H        9.5210     5.3010     2.2440 H     1 <1>   0.2700 
 47 H        9.6530     1.8180    -1.7810 H     1 <1>   0.1500 
 48 H       11.9060     3.7210     2.1960 H     1 <1>   0.1500 
 49 H       11.8740     0.9810    -1.0810 H     1 <1>   0.1500 
 50 H       12.9900     1.9220     0.8840 H     1 <1>   0.1500 
@<TRIPOS>BOND
  1   1   2  2   
  2   2   3  am  
  3   2   4  1   
  4   3   5  1   
  5   3   6  1   
  6   4   7  1   
  7   4   8  2   
  8   5   9  1   
  9   5  28  1   
 10   5  29  1   
 11   6  10  1   
 12   6  30  1   
 13   6  31  1   
 14   7  11  ar  
 15   7  12  1   
 16   8  13  1   
 17   8  32  1   
 18   9  14  1   
 19   9  33  1   
 20   9  34  1   
 21  10  15  1   
 22  10  35  1   
 23  10  36  1   
 24  11  13  ar  
 25  11  37  1   
 26  12  38  1   
 27  12  39  1   
 28  12  40  1   
 29  13  41  1   
 30  14  15  1   
 31  14  16  am  
 32  15  42  1   
 33  15  43  1   
 34  16  17  2   
 35  16  18  1   
 36  18  19  1   
 37  18  44  1   
 38  18  45  1   
 39  19  20  2   
 40  19  21  1   
 41  20  22  1   
 42  21  23  ar  
 43  21  24  ar  
 44  22  23  1   
 45  22  46  1   
 46  23  25  ar  
 47  24  26  ar  
 48  24  47  1   
 49  25  27  ar  
 50  25  48  1   
 51  26  27  ar  
 52  26  49  1   
 53  27  50  1   
@<TRIPOS>SUBSTRUCTURE
  1 ****  14 GROUP 4 **** **** 0

# MOE 2024.06 (io_trps.svl 2023.06)
