@<TRIPOS>MOLECULE
NONAME
45 47 1 0 0 
SMALL
USER_CHARGES


@<TRIPOS>ATOM
  1 CL      -0.5570    -0.3270     1.2000 Cl    1 <1>  -0.1770 
  2 C       -2.0680     0.0620     0.4100 C.ar  1 <1>   0.1770 
  3 C       -2.3490     1.3730     0.0540 C.ar  1 <1>  -0.1440 
  4 C       -2.9550    -0.9640     0.1560 C.ar  1 <1>  -0.1500 
  5 C       -3.5580     1.6340    -0.5700 C.ar  1 <1>  -0.1500 
  6 C       -1.3660     2.4990     0.3370 C.3   1 <1>  -0.0960 
  7 C       -4.1750    -0.7140    -0.4700 C.ar  1 <1>   0.0530 
  8 C       -4.4510     0.6070    -0.8260 C.ar  1 <1>  -0.1500 
  9 C       -5.1150    -1.7810    -0.7400 C.2   1 <1>   0.0870 
 10 O       -4.7930    -3.0390    -0.4680 O.3   1 <1>  -0.2800 
 11 C       -6.3720    -1.7620    -1.2590 C.2   1 <1>  -0.1500 
 12 C       -5.8000    -3.8220    -0.7920 C.2   1 <1>  -0.0400 
 13 C       -6.8140    -3.0850    -1.2940 C.2   1 <1>  -0.1500 
 14 C       -5.6550    -5.3200    -0.5680 C.3   1 <1>   0.2900 
 15 N       -6.9660    -6.0010    -0.5340 N.3   1 <1>  -0.8100 
 16 C       -6.7850    -7.4780    -0.6030 C.3   1 <1>   0.1100 
 17 C       -7.6920    -5.6800     0.7250 C.3   1 <1>   0.1100 
 18 C       -8.1100    -8.2640    -0.4130 C.3   1 <1>   0.3170 
 19 C       -9.0720    -6.3790     0.8140 C.3   1 <1>   0.3430 
 20 N       -9.2970    -7.2980    -0.3520 N.4   1 <1>  -0.9590 
 21 C       -8.0040    -9.2170     0.7970 C.2   1 <1>   0.9060 
 22 C      -10.5710    -8.0640    -0.2350 C.3   1 <1>   0.2630 
 23 O       -7.6180    -8.7700     1.8850 O.co2 1 <1>  -0.9000 
 24 O       -8.4290   -10.3660     0.6570 O.co2 1 <1>  -0.9000 
 25 H       -2.6960    -1.9640     0.4500 H     1 <1>   0.1500 
 26 H       -3.8110     2.6390    -0.8610 H     1 <1>   0.1500 
 27 H       -0.4340     2.3060    -0.1650 H     1 <1>   0.0800 
 28 H       -1.1820     2.5680     1.3940 H     1 <1>   0.0800 
 29 H       -1.7490     3.4430    -0.0060 H     1 <1>   0.0800 
 30 H       -5.3800     0.8390    -1.3130 H     1 <1>   0.1500 
 31 H       -6.9420    -0.9130    -1.5890 H     1 <1>   0.1500 
 32 H       -7.7680    -3.4260    -1.6540 H     1 <1>   0.1500 
 33 H       -5.1310    -5.4920     0.3570 H     1 <1>   0.0800 
 34 H       -5.0560    -5.7180    -1.3690 H     1 <1>   0.0800 
 35 H       -6.0750    -7.7930     0.1460 H     1 <1>   0.0800 
 36 H       -6.3690    -7.7400    -1.5600 H     1 <1>   0.0800 
 37 H       -7.8360    -4.6170     0.8110 H     1 <1>   0.0800 
 38 H       -7.1040    -5.9960     1.5730 H     1 <1>   0.0800 
 39 H       -8.2330    -8.9080    -1.2640 H     1 <1>   0.0800 
 40 H       -9.8460    -5.6320     0.8480 H     1 <1>   0.0800 
 41 H       -9.1120    -6.9400     1.7340 H     1 <1>   0.0800 
 42 H       -9.2260    -6.7210    -1.1980 H     1 <1>   0.4500 
 43 H      -10.5600    -8.6640     0.6620 H     1 <1>   0.0800 
 44 H      -10.6850    -8.7240    -1.0790 H     1 <1>   0.0800 
 45 H      -11.4120    -7.3920    -0.1970 H     1 <1>   0.0800 
@<TRIPOS>BOND
  1   1   2  1   
  2   2   3  ar  
  3   2   4  ar  
  4   3   5  ar  
  5   3   6  1   
  6   4   7  ar  
  7   4  25  1   
  8   5   8  ar  
  9   5  26  1   
 10   6  27  1   
 11   6  28  1   
 12   6  29  1   
 13   7   8  ar  
 14   7   9  1   
 15   8  30  1   
 16   9  10  1   
 17   9  11  2   
 18  10  12  1   
 19  11  13  1   
 20  11  31  1   
 21  12  13  2   
 22  12  14  1   
 23  13  32  1   
 24  14  15  1   
 25  14  33  1   
 26  14  34  1   
 27  15  16  1   
 28  15  17  1   
 29  16  18  1   
 30  16  35  1   
 31  16  36  1   
 32  17  19  1   
 33  17  37  1   
 34  17  38  1   
 35  18  20  1   
 36  18  21  1   
 37  18  39  1   
 38  19  20  1   
 39  19  40  1   
 40  19  41  1   
 41  20  22  1   
 42  20  42  1   
 43  21  23  ar  
 44  21  24  ar  
 45  22  43  1   
 46  22  44  1   
 47  22  45  1   
@<TRIPOS>SUBSTRUCTURE
  1 ****  12 GROUP 4 **** **** 0

# MOE 2024.06 (io_trps.svl 2023.06)
