@<TRIPOS>MOLECULE
NONAME
47 49 1 0 0 
SMALL
USER_CHARGES


@<TRIPOS>ATOM
  1 S        0.5140     0.2310     0.9760 S.o2  1 <1>   1.3330 
  2 O       -0.2180     1.4410     1.2710 O.2   1 <1>  -0.6500 
  3 O        1.2140    -0.4530     2.0410 O.2   1 <1>  -0.6500 
  4 N       -0.5630    -0.8800     0.2760 N.am  1 <1>  -0.8490 
  5 C        1.6380     0.5850    -0.3760 C.3   1 <1>  -0.0550 
  6 C       -1.8970    -0.8170     0.8820 C.3   1 <1>   0.1160 
  7 C       -0.0700    -2.2610     0.2990 C.3   1 <1>   0.1160 
  8 C        2.7250     1.6230    -0.0310 C.3   1 <1>  -0.0800 
  9 C        3.4940     2.0370    -1.2730 C.3   1 <1>   0.2200 
 10 C        3.8410     1.0190     0.8220 C.3   1 <1>   0.1200 
 11 N        4.1240     3.3540    -1.0360 N.am  1 <1>  -0.7300 
 12 C        4.5740     0.9600    -1.3640 C.3   1 <1>   0.1200 
 13 O        4.7380     0.4380    -0.0750 O.3   1 <1>  -0.5600 
 14 C        3.8860     4.5050    -1.7270 C.2   1 <1>   0.5440 
 15 O        3.0660     4.4670    -2.6240 O.2   1 <1>  -0.5700 
 16 C        4.5860     5.7360    -1.4070 C.ar  1 <1>   0.0860 
 17 C        5.5640     5.8150    -0.4030 C.ar  1 <1>   0.1400 
 18 C        4.3250     6.9230    -2.0890 C.ar  1 <1>  -0.1500 
 19 O        6.0060     4.8370     0.3960 O.3   1 <1>  -0.2800 
 20 C        6.2310     6.9910    -0.1010 C.ar  1 <1>   0.0000 
 21 C        4.9890     8.1140    -1.7960 C.ar  1 <1>  -0.1500 
 22 C        6.9320     5.3500     1.1950 C.2   1 <1>  -0.0400 
 23 C        5.9440     8.1580    -0.8030 C.ar  1 <1>  -0.1500 
 24 C        7.1170     6.6580     0.9440 C.2   1 <1>  -0.1500 
 25 C        7.5910     4.4300     2.1990 C.3   1 <1>  -0.0600 
 26 H        2.1030    -0.3250    -0.7010 H     1 <1>   0.0800 
 27 H        1.0550     0.9630    -1.1940 H     1 <1>   0.0800 
 28 H       -2.5570    -1.5220     0.4070 H     1 <1>   0.0800 
 29 H       -2.3130     0.1690     0.7560 H     1 <1>   0.0800 
 30 H       -1.8400    -1.0360     1.9360 H     1 <1>   0.0800 
 31 H       -0.7460    -2.9040    -0.2390 H     1 <1>   0.0800 
 32 H        0.0160    -2.6140     1.3140 H     1 <1>   0.0800 
 33 H        0.8980    -2.3190    -0.1680 H     1 <1>   0.0800 
 34 H        2.2670     2.4720     0.4490 H     1 <1>   0.0800 
 35 H        2.8830     2.0700    -2.1600 H     1 <1>   0.0800 
 36 H        3.5070     0.2710     1.5190 H     1 <1>   0.0800 
 37 H        4.3700     1.7910     1.3560 H     1 <1>   0.0800 
 38 H        4.8420     3.3770    -0.3040 H     1 <1>   0.3700 
 39 H        5.5130     1.3500    -1.7160 H     1 <1>   0.0800 
 40 H        4.2540     0.1550    -2.0000 H     1 <1>   0.0800 
 41 H        3.5840     6.9240    -2.8720 H     1 <1>   0.1500 
 42 H        4.7480     9.0030    -2.3540 H     1 <1>   0.1500 
 43 H        6.4640     9.0690    -0.5650 H     1 <1>   0.1500 
 44 H        7.7890     7.3520     1.4150 H     1 <1>   0.1500 
 45 H        8.3170     4.9700     2.7790 H     1 <1>   0.0800 
 46 H        8.0830     3.6240     1.6860 H     1 <1>   0.0800 
 47 H        6.8490     4.0210     2.8610 H     1 <1>   0.0800 
@<TRIPOS>BOND
  1   1   2  2   
  2   1   3  2   
  3   1   4  am  
  4   1   5  1   
  5   4   6  1   
  6   4   7  1   
  7   5   8  1   
  8   5  26  1   
  9   5  27  1   
 10   6  28  1   
 11   6  29  1   
 12   6  30  1   
 13   7  31  1   
 14   7  32  1   
 15   7  33  1   
 16   8   9  1   
 17   8  10  1   
 18   8  34  1   
 19   9  11  1   
 20   9  12  1   
 21   9  35  1   
 22  10  13  1   
 23  10  36  1   
 24  10  37  1   
 25  11  14  am  
 26  11  38  1   
 27  12  13  1   
 28  12  39  1   
 29  12  40  1   
 30  14  15  2   
 31  14  16  1   
 32  16  17  ar  
 33  16  18  ar  
 34  17  19  1   
 35  17  20  ar  
 36  18  21  ar  
 37  18  41  1   
 38  19  22  1   
 39  20  23  ar  
 40  20  24  1   
 41  21  23  ar  
 42  21  42  1   
 43  22  24  2   
 44  22  25  1   
 45  23  43  1   
 46  24  44  1   
 47  25  45  1   
 48  25  46  1   
 49  25  47  1   
@<TRIPOS>SUBSTRUCTURE
  1 ****  11 GROUP 4 **** **** 0

# MOE 2024.06 (io_trps.svl 2023.06)
