@<TRIPOS>MOLECULE
NONAME
49 52 1 0 0 
SMALL
USER_CHARGES


@<TRIPOS>ATOM
  1 F       -0.3500    -0.4900     0.1270 F     1 <1>  -0.1900 
  2 C       -1.5250    -1.0580     0.0880 C.ar  1 <1>   0.1900 
  3 C       -2.1100    -1.4620     1.2720 C.ar  1 <1>  -0.1500 
  4 C       -2.1400    -1.2340    -1.1360 C.ar  1 <1>  -0.1500 
  5 C       -3.3580    -2.0610     1.2240 C.ar  1 <1>  -0.1500 
  6 C       -3.3880    -1.8350    -1.1710 C.ar  1 <1>  -0.1500 
  7 C       -4.0030    -2.2460     0.0060 C.ar  1 <1>  -0.1430 
  8 C       -5.3870    -2.8950    -0.0330 C.3   1 <1>   0.0440 
  9 C       -5.3930    -4.4190     0.0740 C.2   1 <1>   0.5690 
 10 O       -4.4290    -4.9710     0.5520 O.2   1 <1>  -0.5700 
 11 N       -6.4850    -5.1420    -0.3470 N.am  1 <1>  -0.6600 
 12 C       -7.8150    -4.5820    -0.7500 C.3   1 <1>   0.1400 
 13 C       -6.4610    -6.6390    -0.3730 C.3   1 <1>   0.1400 
 14 C       -8.9570    -5.2230     0.0640 C.3   1 <1>   0.1900 
 15 C       -7.6390    -7.2310     0.4180 C.3   1 <1>   0.1100 
 16 N       -8.9340    -6.7000    -0.0630 N.3   1 <1>  -0.8100 
 17 C      -10.3200    -4.6640    -0.3910 C.3   1 <1>   0.1200 
 18 C      -10.0780    -7.2900     0.6740 C.3   1 <1>   0.3330 
 19 O      -11.3560    -5.2390     0.3520 O.3   1 <1>  -0.5600 
 20 C      -10.1590    -8.7990     0.4490 C.ar  1 <1>  -0.1430 
 21 C      -11.4070    -6.6370     0.2360 C.3   1 <1>   0.1200 
 22 C      -10.3400    -9.6550     1.5260 C.ar  1 <1>  -0.1500 
 23 C      -10.0590    -9.3360    -0.8280 C.ar  1 <1>  -0.1500 
 24 C      -10.4210   -11.0230     1.3310 C.ar  1 <1>  -0.1500 
 25 C      -10.1400   -10.7030    -1.0250 C.ar  1 <1>  -0.1500 
 26 C      -10.3210   -11.5480     0.0550 C.ar  1 <1>  -0.1500 
 27 H       -1.5990    -1.3140     2.2060 H     1 <1>   0.1500 
 28 H       -1.6510    -0.9100    -2.0360 H     1 <1>   0.1500 
 29 H       -3.8230    -2.3920     2.1360 H     1 <1>   0.1500 
 30 H       -3.8740    -1.9810    -2.1200 H     1 <1>   0.1500 
 31 H       -5.8610    -2.6120    -0.9530 H     1 <1>   0.0800 
 32 H       -5.9760    -2.5040     0.7750 H     1 <1>   0.0800 
 33 H       -7.8450    -3.5190    -0.6010 H     1 <1>   0.0800 
 34 H       -7.9740    -4.7800    -1.7960 H     1 <1>   0.0800 
 35 H       -6.5220    -6.9740    -1.3930 H     1 <1>   0.0800 
 36 H       -5.5400    -7.0140     0.0390 H     1 <1>   0.0800 
 37 H       -8.8210    -4.9510     1.0970 H     1 <1>   0.0800 
 38 H       -7.5100    -7.0050     1.4630 H     1 <1>   0.0800 
 39 H       -7.6170    -8.3010     0.3030 H     1 <1>   0.0800 
 40 H      -10.4880    -4.8720    -1.4340 H     1 <1>   0.0800 
 41 H      -10.3620    -3.6010    -0.2350 H     1 <1>   0.0800 
 42 H       -9.9500    -7.1000     1.7260 H     1 <1>   0.0800 
 43 H      -12.2110    -6.9900     0.8570 H     1 <1>   0.0800 
 44 H      -11.6270    -6.8890    -0.7860 H     1 <1>   0.0800 
 45 H      -10.4200    -9.2620     2.5250 H     1 <1>   0.1500 
 46 H       -9.9120    -8.6820    -1.6710 H     1 <1>   0.1500 
 47 H      -10.5610   -11.6790     2.1720 H     1 <1>   0.1500 
 48 H      -10.0600   -11.1080    -2.0190 H     1 <1>   0.1500 
 49 H      -10.3840   -12.6110    -0.0970 H     1 <1>   0.1500 
@<TRIPOS>BOND
  1   1   2  1   
  2   2   3  ar  
  3   2   4  ar  
  4   3   5  ar  
  5   3  27  1   
  6   4   6  ar  
  7   4  28  1   
  8   5   7  ar  
  9   5  29  1   
 10   6   7  ar  
 11   6  30  1   
 12   7   8  1   
 13   8   9  1   
 14   8  31  1   
 15   8  32  1   
 16   9  10  2   
 17   9  11  am  
 18  11  12  1   
 19  11  13  1   
 20  12  14  1   
 21  12  33  1   
 22  12  34  1   
 23  13  15  1   
 24  13  35  1   
 25  13  36  1   
 26  14  16  1   
 27  14  17  1   
 28  14  37  1   
 29  15  16  1   
 30  15  38  1   
 31  15  39  1   
 32  16  18  1   
 33  17  19  1   
 34  17  40  1   
 35  17  41  1   
 36  18  20  1   
 37  18  21  1   
 38  18  42  1   
 39  19  21  1   
 40  20  22  ar  
 41  20  23  ar  
 42  21  43  1   
 43  21  44  1   
 44  22  24  ar  
 45  22  45  1   
 46  23  25  ar  
 47  23  46  1   
 48  24  26  ar  
 49  24  47  1   
 50  25  26  ar  
 51  25  48  1   
 52  26  49  1   
@<TRIPOS>SUBSTRUCTURE
  1 ****  11 GROUP 4 **** **** 0

# MOE 2024.06 (io_trps.svl 2023.06)
