@<TRIPOS>MOLECULE
NONAME
40 41 1 0 0 
SMALL
USER_CHARGES


@<TRIPOS>ATOM
  1 O        2.4590    -1.0460     0.3120 O.2   1 <1>  -0.5700 
  2 C        2.0220    -1.0060    -0.8140 C.2   1 <1>   0.5690 
  3 N        2.4440    -0.0850    -1.7290 N.am  1 <1>  -0.4930 
  4 C        0.9490    -2.0490    -1.1910 C.3   1 <1>   0.4040 
  5 C        3.3700     0.9700    -1.6080 C.2   1 <1>   0.3520 
  6 N        0.3030    -2.7170     0.0030 N.4   1 <1>  -0.9590 
  7 N        3.7770     1.5540    -2.6630 N.2   1 <1>  -0.4100 
  8 C        3.9740     1.5900    -0.5000 C.2   1 <1>   0.3520 
  9 C       -0.4360    -3.9710    -0.3530 C.3   1 <1>   0.3430 
 10 C       -0.5290    -1.7840     0.8160 C.3   1 <1>   0.3430 
 11 O        4.5880     2.4710    -2.2240 O.3   1 <1>   0.2420 
 12 N        4.7280     2.5240    -0.9340 N.2   1 <1>  -0.4100 
 13 N        3.7980     1.2750     0.8580 N.am  1 <1>  -0.4930 
 14 C       -1.3130    -4.4880     0.8080 C.3   1 <1>  -0.0800 
 15 C       -0.8070    -2.4170     2.1850 C.3   1 <1>  -0.1600 
 16 C        4.0880     1.9340     2.0050 C.2   1 <1>   0.5690 
 17 C       -0.8430    -3.9580     2.1730 C.3   1 <1>  -0.1600 
 18 C       -1.3470    -6.0220     0.8150 C.3   1 <1>  -0.2400 
 19 O        3.7770     1.4390     3.0570 O.2   1 <1>  -0.5700 
 20 C        4.7760     3.2800     2.0120 C.3   1 <1>  -0.1790 
 21 H        2.1150    -0.1560    -2.6930 H     1 <1>   0.3700 
 22 H        1.4270    -2.8000    -1.7970 H     1 <1>   0.0800 
 23 H        0.1910    -1.5710    -1.7880 H     1 <1>   0.0800 
 24 H        1.0760    -2.9800     0.6380 H     1 <1>   0.4500 
 25 H        0.2780    -4.7350    -0.6160 H     1 <1>   0.0800 
 26 H       -1.0680    -3.8020    -1.2100 H     1 <1>   0.0800 
 27 H       -1.4620    -1.5980     0.3090 H     1 <1>   0.0800 
 28 H       -0.0220    -0.8420     0.9590 H     1 <1>   0.0800 
 29 H        3.3550     0.3680     1.0340 H     1 <1>   0.3700 
 30 H       -2.3200    -4.1420     0.6410 H     1 <1>   0.0800 
 31 H       -1.7510    -2.0400     2.5370 H     1 <1>   0.0800 
 32 H       -0.0610    -2.0860     2.8880 H     1 <1>   0.0800 
 33 H        0.1440    -4.3380     2.3810 H     1 <1>   0.0800 
 34 H       -1.4930    -4.3090     2.9570 H     1 <1>   0.0800 
 35 H       -0.3660    -6.4300     0.9880 H     1 <1>   0.0800 
 36 H       -1.7170    -6.4000    -0.1220 H     1 <1>   0.0800 
 37 H       -2.0010    -6.3760     1.5950 H     1 <1>   0.0800 
 38 H        4.2070     3.9850     1.4360 H     1 <1>   0.0800 
 39 H        5.7610     3.1870     1.5960 H     1 <1>   0.0800 
 40 H        4.8580     3.6410     3.0200 H     1 <1>   0.0800 
@<TRIPOS>BOND
  1   1   2  2   
  2   2   3  am  
  3   2   4  1   
  4   3   5  1   
  5   3  21  1   
  6   4   6  1   
  7   4  22  1   
  8   4  23  1   
  9   5   7  2   
 10   5   8  1   
 11   6   9  1   
 12   6  10  1   
 13   6  24  1   
 14   7  11  1   
 15   8  12  2   
 16   8  13  1   
 17   9  14  1   
 18   9  25  1   
 19   9  26  1   
 20  10  15  1   
 21  10  27  1   
 22  10  28  1   
 23  11  12  1   
 24  13  16  am  
 25  13  29  1   
 26  14  17  1   
 27  14  18  1   
 28  14  30  1   
 29  15  17  1   
 30  15  31  1   
 31  15  32  1   
 32  16  19  2   
 33  16  20  1   
 34  17  33  1   
 35  17  34  1   
 36  18  35  1   
 37  18  36  1   
 38  18  37  1   
 39  20  38  1   
 40  20  39  1   
 41  20  40  1   
@<TRIPOS>SUBSTRUCTURE
  1 ****   1 GROUP 4 **** **** 0

# MOE 2024.06 (io_trps.svl 2023.06)
