@<TRIPOS>MOLECULE
NONAME
34 35 1 0 0 
SMALL
USER_CHARGES


@<TRIPOS>ATOM
  1 F       -0.2130     1.3900    -1.3400 F     1 <1>  -0.3400 
  2 C        0.1150     1.8830    -0.1500 C.3   1 <1>   1.1640 
  3 F       -0.6840     1.2730     0.7230 F     1 <1>  -0.3400 
  4 F        1.3400     1.4370     0.1150 F     1 <1>  -0.3400 
  5 C        0.0140     3.4380    -0.0890 C.ar  1 <1>   0.1660 
  6 N        0.7700     4.1690    -0.9200 N.ar  1 <1>  -0.6200 
  7 C       -0.8550     4.0390     0.8190 C.ar  1 <1>  -0.1500 
  8 C        0.6530     5.4840    -0.8410 C.ar  1 <1>   0.1600 
  9 C       -0.9520     5.4120     0.8920 C.ar  1 <1>  -0.1500 
 10 C       -0.1660     6.1770     0.0440 C.ar  1 <1>   0.0860 
 11 C       -0.1910     7.6220     0.0750 C.2   1 <1>   0.5440 
 12 O       -1.2450     8.2050     0.2350 O.2   1 <1>  -0.5700 
 13 N        0.9780     8.3260    -0.0570 N.am  1 <1>  -0.4930 
 14 C        1.1890     9.7260    -0.1210 C.2   1 <1>   0.0630 
 15 C        2.3880    10.3440    -0.2090 C.2   1 <1>  -0.3320 
 16 C        0.2550    10.7630    -0.1130 C.2   1 <1>   0.1390 
 17 N        2.1330    11.6790    -0.2460 N.pl3 1 <1>   0.3140 
 18 C        3.7870     9.7440    -0.2610 C.3   1 <1>  -0.0600 
 19 N        0.8140    11.9330    -0.1900 N.2   1 <1>  -0.7070 
 20 C        3.1100    12.7870    -0.3390 C.3   1 <1>   0.0960 
 21 C        3.5950    13.2180     1.0510 C.3   1 <1>  -0.2400 
 22 H       -1.4650     3.4450     1.4790 H     1 <1>   0.1500 
 23 H        1.2490     6.0540    -1.5340 H     1 <1>   0.1500 
 24 H       -1.6220     5.8920     1.5870 H     1 <1>   0.1500 
 25 H        1.8410     7.7880    -0.0440 H     1 <1>   0.3700 
 26 H       -0.8100    10.6190    -0.0510 H     1 <1>   0.1500 
 27 H        3.7470     8.6720    -0.2110 H     1 <1>   0.0800 
 28 H        4.3740    10.0990     0.5680 H     1 <1>   0.0800 
 29 H        4.2750    10.0220    -1.1780 H     1 <1>   0.0800 
 30 H        2.6270    13.6140    -0.8280 H     1 <1>   0.0800 
 31 H        3.9370    12.4710    -0.9460 H     1 <1>   0.0800 
 32 H        2.7580    13.5460     1.6430 H     1 <1>   0.0800 
 33 H        4.2890    14.0330     0.9590 H     1 <1>   0.0800 
 34 H        4.0840    12.4020     1.5520 H     1 <1>   0.0800 
@<TRIPOS>BOND
  1   1   2  1   
  2   2   3  1   
  3   2   4  1   
  4   2   5  1   
  5   5   6  ar  
  6   5   7  ar  
  7   6   8  ar  
  8   7   9  ar  
  9   7  22  1   
 10   8  10  ar  
 11   8  23  1   
 12   9  10  ar  
 13   9  24  1   
 14  10  11  1   
 15  11  12  2   
 16  11  13  am  
 17  13  14  1   
 18  13  25  1   
 19  14  15  2   
 20  14  16  1   
 21  15  17  1   
 22  15  18  1   
 23  16  19  2   
 24  16  26  1   
 25  17  19  1   
 26  17  20  1   
 27  18  27  1   
 28  18  28  1   
 29  18  29  1   
 30  20  21  1   
 31  20  30  1   
 32  20  31  1   
 33  21  32  1   
 34  21  33  1   
 35  21  34  1   
@<TRIPOS>SUBSTRUCTURE
  1 ****  11 GROUP 4 **** **** 0

# MOE 2024.06 (io_trps.svl 2023.06)
