@<TRIPOS>MOLECULE
NONAME
61 63 1 0 0 
SMALL
USER_CHARGES


@<TRIPOS>ATOM
  1 O        2.2250    -2.6130     1.2330 O.2   1 <1>  -0.5700 
  2 C        1.7780    -2.3240     0.1410 C.2   1 <1>   0.7160 
  3 N        2.6730    -2.2030    -0.8740 N.am  1 <1>  -0.7300 
  4 C        0.3670    -2.1210    -0.0910 C.2   1 <1>  -0.0860 
  5 C        3.1570    -3.3470    -1.6750 C.3   1 <1>   0.3000 
  6 C       -0.7040    -2.4210     0.7610 C.2   1 <1>   0.1080 
  7 C       -0.2560    -1.5960    -1.1840 C.2   1 <1>  -0.3020 
  8 C        4.2320    -4.1550    -0.8820 C.3   1 <1>   0.2000 
  9 C        3.8170    -2.7460    -2.9290 C.3   1 <1>  -0.1600 
 10 C        1.9530    -4.2120    -2.0870 C.3   1 <1>  -0.2400 
 11 N       -1.8540    -2.1180     0.2490 N.2   1 <1>  -0.7070 
 12 C       -0.5930    -3.0350     2.1400 C.3   1 <1>  -0.0590 
 13 N       -1.5740    -1.6050    -0.9550 N.pl3 1 <1>   0.3140 
 14 O        4.6130    -5.2830    -1.6280 O.3   1 <1>  -0.6800 
 15 C        5.4800    -3.2650    -0.5100 C.3   1 <1>   0.2800 
 16 C        5.2630    -2.2780    -2.6970 C.3   1 <1>   0.1200 
 17 C       -2.6390    -1.1360    -1.8470 C.3   1 <1>   0.0160 
 18 O        5.5190    -2.1180    -1.3350 O.3   1 <1>  -0.5600 
 19 C        5.3530    -2.7270     0.9410 C.3   1 <1>  -0.1600 
 20 C        6.8450    -3.9800    -0.6520 C.3   1 <1>  -0.1600 
 21 C        6.6590    -2.6440     1.7430 C.3   1 <1>   0.1400 
 22 C        8.0200    -3.0400    -0.3470 C.3   1 <1>   0.1400 
 23 N        7.7880    -2.2210     0.8770 N.am  1 <1>  -0.6600 
 24 C        8.5730    -1.1390     1.1980 C.2   1 <1>   0.5690 
 25 O        8.4370    -0.5390     2.2410 O.2   1 <1>  -0.5700 
 26 C        9.6650    -0.6360     0.2440 C.3   1 <1>   0.1810 
 27 O       10.6670    -1.5890    -0.0310 O.3   1 <1>  -0.5600 
 28 C       11.4430    -1.9340     1.0700 C.3   1 <1>   0.1200 
 29 C       12.5000    -2.9210     0.5930 C.3   1 <1>  -0.2400 
 30 H        3.4950    -1.6540    -0.6070 H     1 <1>   0.3700 
 31 H        0.1870    -1.2250    -2.0890 H     1 <1>   0.1500 
 32 H        3.7800    -4.5510     0.0100 H     1 <1>   0.0800 
 33 H        3.2240    -1.9250    -3.2940 H     1 <1>   0.0800 
 34 H        3.8380    -3.4770    -3.7170 H     1 <1>   0.0800 
 35 H        2.2600    -5.0030    -2.7470 H     1 <1>   0.0800 
 36 H        1.2180    -3.6190    -2.6000 H     1 <1>   0.0800 
 37 H        1.5010    -4.6710    -1.2250 H     1 <1>   0.0800 
 38 H       -0.0680    -3.9690     2.0830 H     1 <1>   0.0800 
 39 H       -1.5730    -3.2090     2.5460 H     1 <1>   0.0800 
 40 H       -0.0600    -2.3680     2.7920 H     1 <1>   0.0800 
 41 H        5.0360    -5.0070    -2.4620 H     1 <1>   0.4000 
 42 H        5.4280    -1.3270    -3.1730 H     1 <1>   0.0800 
 43 H        5.9700    -2.9830    -3.0980 H     1 <1>   0.0800 
 44 H       -2.2090    -0.7260    -2.7410 H     1 <1>   0.0800 
 45 H       -3.2110    -0.3830    -1.3370 H     1 <1>   0.0800 
 46 H       -3.2760    -1.9650    -2.0920 H     1 <1>   0.0800 
 47 H        4.8960    -1.7540     0.9310 H     1 <1>   0.0800 
 48 H        4.7040    -3.3610     1.5150 H     1 <1>   0.0800 
 49 H        6.8790    -4.8180     0.0220 H     1 <1>   0.0800 
 50 H        6.9800    -4.3750    -1.6400 H     1 <1>   0.0800 
 51 H        6.8940    -3.6100     2.1550 H     1 <1>   0.0800 
 52 H        6.5300    -1.9620     2.5660 H     1 <1>   0.0800 
 53 H        8.1570    -2.3790    -1.1850 H     1 <1>   0.0800 
 54 H        8.9230    -3.6130    -0.2250 H     1 <1>   0.0800 
 55 H       10.1330     0.2390     0.6570 H     1 <1>   0.0800 
 56 H        9.2120    -0.3650    -0.6910 H     1 <1>   0.0800 
 57 H       11.9030    -1.0450     1.4670 H     1 <1>   0.0800 
 58 H       10.8140    -2.3870     1.8190 H     1 <1>   0.0800 
 59 H       13.1160    -2.4650    -0.1620 H     1 <1>   0.0800 
 60 H       12.0290    -3.8000     0.1900 H     1 <1>   0.0800 
 61 H       13.1240    -3.2120     1.4170 H     1 <1>   0.0800 
@<TRIPOS>BOND
  1   1   2  2   
  2   2   3  am  
  3   2   4  1   
  4   3   5  1   
  5   3  30  1   
  6   4   6  1   
  7   4   7  2   
  8   5   8  1   
  9   5   9  1   
 10   5  10  1   
 11   6  11  2   
 12   6  12  1   
 13   7  13  1   
 14   7  31  1   
 15   8  14  1   
 16   8  15  1   
 17   8  32  1   
 18   9  16  1   
 19   9  33  1   
 20   9  34  1   
 21  10  35  1   
 22  10  36  1   
 23  10  37  1   
 24  11  13  1   
 25  12  38  1   
 26  12  39  1   
 27  12  40  1   
 28  13  17  1   
 29  14  41  1   
 30  15  18  1   
 31  15  19  1   
 32  15  20  1   
 33  16  18  1   
 34  16  42  1   
 35  16  43  1   
 36  17  44  1   
 37  17  45  1   
 38  17  46  1   
 39  19  21  1   
 40  19  47  1   
 41  19  48  1   
 42  20  22  1   
 43  20  49  1   
 44  20  50  1   
 45  21  23  1   
 46  21  51  1   
 47  21  52  1   
 48  22  23  1   
 49  22  53  1   
 50  22  54  1   
 51  23  24  am  
 52  24  25  2   
 53  24  26  1   
 54  26  27  1   
 55  26  55  1   
 56  26  56  1   
 57  27  28  1   
 58  28  29  1   
 59  28  57  1   
 60  28  58  1   
 61  29  59  1   
 62  29  60  1   
 63  29  61  1   
@<TRIPOS>SUBSTRUCTURE
  1 ****  15 GROUP 4 **** **** 0

# MOE 2024.06 (io_trps.svl 2023.06)
