@<TRIPOS>MOLECULE
NONAME
52 54 1 0 0 
SMALL
USER_CHARGES


@<TRIPOS>ATOM
  1 O       -0.7200     0.3480     0.5410 O.3   1 <1>  -0.3630 
  2 C       -1.8080     0.9620     1.0770 C.ar  1 <1>   0.0830 
  3 C        0.2530     1.0360    -0.2240 C.3   1 <1>   0.2000 
  4 C       -2.7400     0.1450     1.7050 C.ar  1 <1>  -0.1440 
  5 C       -2.0270     2.3350     1.0120 C.ar  1 <1>  -0.1500 
  6 C       -0.2850     1.2770    -1.6360 C.3   1 <1>  -0.1600 
  7 C        1.4170     0.0780    -0.4450 C.3   1 <1>  -0.1600 
  8 C       -3.8840     0.6990     2.2600 C.ar  1 <1>  -0.1500 
  9 C       -2.4890    -1.3480     1.7820 C.3   1 <1>   0.4860 
 10 C       -3.1700     2.8800     1.5680 C.ar  1 <1>  -0.1500 
 11 C        0.0030    -0.0020    -2.4340 C.3   1 <1>  -0.1600 
 12 C        0.9690    -0.8370    -1.5850 C.3   1 <1>  -0.1600 
 13 C       -4.0980     2.0640     2.1900 C.ar  1 <1>  -0.1500 
 14 N       -3.3040    -2.0580     0.7620 N.4   1 <1>  -0.9590 
 15 C       -3.2930    -3.5220     0.9740 C.3   1 <1>   0.5230 
 16 C       -2.9520    -1.6440    -0.6350 C.3   1 <1>   0.3430 
 17 C       -4.1750    -4.1820    -0.0550 C.2   1 <1>  -0.3320 
 18 C       -4.2300    -1.3040    -1.4310 C.3   1 <1>   0.1200 
 19 N       -5.5260    -4.2200    -0.0330 N.pl3 1 <1>   0.0480 
 20 C       -3.7890    -4.8430    -1.1700 C.2   1 <1>   0.0770 
 21 O       -5.2490    -0.8740    -0.5690 O.3   1 <1>  -0.6800 
 22 C       -5.8630    -4.8880    -1.1590 C.2   1 <1>   0.0360 
 23 C       -6.4640    -3.7030     0.9840 C.3   1 <1>   0.0160 
 24 N       -4.8510    -5.2690    -1.8680 N.2   1 <1>  -0.5650 
 25 H        0.5580     1.9280     0.2960 H     1 <1>   0.0800 
 26 H       -1.3270     2.9970     0.5380 H     1 <1>   0.1500 
 27 H        0.2730     2.0870    -2.0740 H     1 <1>   0.0800 
 28 H       -1.3270     1.5420    -1.6440 H     1 <1>   0.0800 
 29 H        1.6770    -0.4620     0.4490 H     1 <1>   0.0800 
 30 H        2.2730     0.6460    -0.7660 H     1 <1>   0.0800 
 31 H       -4.6170     0.0840     2.7530 H     1 <1>   0.1500 
 32 H       -2.7530    -1.6910     2.7690 H     1 <1>   0.0800 
 33 H       -1.4410    -1.5500     1.6260 H     1 <1>   0.0800 
 34 H       -3.3390     3.9430     1.5180 H     1 <1>   0.1500 
 35 H        0.4510     0.2480    -3.3810 H     1 <1>   0.0800 
 36 H       -0.9030    -0.5510    -2.6190 H     1 <1>   0.0800 
 37 H        0.4500    -1.6870    -1.1770 H     1 <1>   0.0800 
 38 H        1.8090    -1.1870    -2.1620 H     1 <1>   0.0800 
 39 H       -4.9850     2.4960     2.6210 H     1 <1>   0.1500 
 40 H       -4.2730    -1.7050     0.8350 H     1 <1>   0.4500 
 41 H       -3.6460    -3.7630     1.9640 H     1 <1>   0.0800 
 42 H       -2.2870    -3.8960     0.8710 H     1 <1>   0.0800 
 43 H       -2.3940    -2.4150    -1.1410 H     1 <1>   0.0800 
 44 H       -2.3370    -0.7620    -0.6180 H     1 <1>   0.0800 
 45 H       -4.5840    -2.1700    -1.9640 H     1 <1>   0.0800 
 46 H       -4.0240    -0.5220    -2.1420 H     1 <1>   0.0800 
 47 H       -2.7900    -5.0410    -1.5260 H     1 <1>   0.1500 
 48 H       -5.9860    -0.4800    -1.0870 H     1 <1>   0.4000 
 49 H       -6.8880    -5.0810    -1.4270 H     1 <1>   0.1500 
 50 H       -6.3830    -2.6350     1.0450 H     1 <1>   0.0800 
 51 H       -6.2390    -4.1430     1.9380 H     1 <1>   0.0800 
 52 H       -7.4710    -3.9630     0.7080 H     1 <1>   0.0800 
@<TRIPOS>BOND
  1   1   2  1   
  2   1   3  1   
  3   2   4  ar  
  4   2   5  ar  
  5   3   6  1   
  6   3   7  1   
  7   3  25  1   
  8   4   8  ar  
  9   4   9  1   
 10   5  10  ar  
 11   5  26  1   
 12   6  11  1   
 13   6  27  1   
 14   6  28  1   
 15   7  12  1   
 16   7  29  1   
 17   7  30  1   
 18   8  13  ar  
 19   8  31  1   
 20   9  14  1   
 21   9  32  1   
 22   9  33  1   
 23  10  13  ar  
 24  10  34  1   
 25  11  12  1   
 26  11  35  1   
 27  11  36  1   
 28  12  37  1   
 29  12  38  1   
 30  13  39  1   
 31  14  15  1   
 32  14  16  1   
 33  14  40  1   
 34  15  17  1   
 35  15  41  1   
 36  15  42  1   
 37  16  18  1   
 38  16  43  1   
 39  16  44  1   
 40  17  19  1   
 41  17  20  2   
 42  18  21  1   
 43  18  45  1   
 44  18  46  1   
 45  19  22  1   
 46  19  23  1   
 47  20  24  1   
 48  20  47  1   
 49  21  48  1   
 50  22  24  2   
 51  22  49  1   
 52  23  50  1   
 53  23  51  1   
 54  23  52  1   
@<TRIPOS>SUBSTRUCTURE
  1 ****  16 GROUP 4 **** **** 0

# MOE 2024.06 (io_trps.svl 2023.06)
