@<TRIPOS>MOLECULE
NONAME
50 53 1 0 0 
SMALL
USER_CHARGES


@<TRIPOS>ATOM
  1 O        4.4410    -2.3730    -0.1260 O.2   1 <1>  -0.5700 
  2 C        3.2770    -2.0220    -0.1630 C.2   1 <1>   0.7030 
  3 N        3.0480    -0.6950     0.1280 N.am  1 <1>  -0.6600 
  4 C        2.2230    -2.9490    -0.5610 C.2   1 <1>   0.2770 
  5 C        3.7460    -0.0860     1.3290 C.3   1 <1>   0.2200 
  6 C        2.5810     0.2040    -0.9720 C.3   1 <1>   0.1400 
  7 N        0.8570    -2.8400    -0.2450 N.pl3 1 <1>  -0.6290 
  8 C        2.3480    -4.0890    -1.3020 C.2   1 <1>   0.1820 
  9 C        2.9930     1.1230     1.9090 C.3   1 <1>   0.1200 
 10 C        5.2210     0.2970     1.0360 C.3   1 <1>   0.3430 
 11 C        3.2970     1.5670    -1.0420 C.3   1 <1>  -0.0800 
 12 C        0.2210    -3.8950    -0.8070 C.cat 1 <1>   0.7910 
 13 C        0.1360    -1.9530     0.5270 C.2   1 <1>   0.2290 
 14 N        1.1200    -4.6500    -1.4500 N.pl3 1 <1>  -0.7000 
 15 C        3.5520    -4.7650    -1.9390 C.3   1 <1>  -0.0720 
 16 O        3.3810     2.2950     1.2590 O.3   1 <1>  -0.5600 
 17 N        5.5230     0.3920    -0.4330 N.4   1 <1>  -0.9590 
 18 C        2.7890     2.5440     0.0310 C.3   1 <1>   0.1200 
 19 C        4.8410     1.5380    -1.1240 C.3   1 <1>   0.3430 
 20 C       -1.1630    -4.0730    -0.6660 C.2   1 <1>  -0.1410 
 21 C       -1.2120    -2.1080     0.6830 C.2   1 <1>  -0.1500 
 22 C        6.9990     0.4370    -0.6560 C.3   1 <1>   0.2630 
 23 C       -1.8920    -3.1810     0.0750 C.2   1 <1>  -0.1380 
 24 C       -3.3930    -3.3170     0.2660 C.3   1 <1>  -0.1020 
 25 H        3.7590    -0.8310     2.1070 H     1 <1>   0.0800 
 26 H        2.7180    -0.2980    -1.9160 H     1 <1>   0.0800 
 27 H        1.5220     0.3710    -0.8570 H     1 <1>   0.0800 
 28 H        3.2680     1.2470     2.9430 H     1 <1>   0.0800 
 29 H        1.9250     1.0050     1.8570 H     1 <1>   0.0800 
 30 H        5.8470    -0.4640     1.4710 H     1 <1>   0.0800 
 31 H        5.4580     1.2270     1.5260 H     1 <1>   0.0800 
 32 H        2.9710     2.0100    -1.9670 H     1 <1>   0.0800 
 33 H        0.6550    -1.1410     1.0070 H     1 <1>   0.1500 
 34 H        0.8940    -5.5160    -1.9470 H     1 <1>   0.4500 
 35 H        4.4460    -4.1810    -1.8310 H     1 <1>   0.0800 
 36 H        3.3780    -4.9150    -2.9900 H     1 <1>   0.0800 
 37 H        3.7190    -5.7230    -1.4800 H     1 <1>   0.0800 
 38 H        5.1630    -0.4980    -0.8180 H     1 <1>   0.4500 
 39 H        1.7170     2.5050     0.1410 H     1 <1>   0.0800 
 40 H        3.0540     3.5530    -0.2400 H     1 <1>   0.0800 
 41 H        5.2200     2.4670    -0.7270 H     1 <1>   0.0800 
 42 H        5.1130     1.5070    -2.1670 H     1 <1>   0.0800 
 43 H       -1.6240    -4.9150    -1.1470 H     1 <1>   0.1500 
 44 H       -1.7770    -1.4120     1.2810 H     1 <1>   0.1500 
 45 H        7.4160     1.3310    -0.2220 H     1 <1>   0.0800 
 46 H        7.2190     0.4310    -1.7120 H     1 <1>   0.0800 
 47 H        7.4710    -0.4200    -0.2040 H     1 <1>   0.0800 
 48 H       -3.8960    -2.4430    -0.1100 H     1 <1>   0.0800 
 49 H       -3.6260    -3.4230     1.3120 H     1 <1>   0.0800 
 50 H       -3.7750    -4.1770    -0.2540 H     1 <1>   0.0800 
@<TRIPOS>BOND
  1   1   2  2   
  2   2   3  am  
  3   2   4  1   
  4   3   5  1   
  5   3   6  1   
  6   4   7  1   
  7   4   8  2   
  8   5   9  1   
  9   5  10  1   
 10   5  25  1   
 11   6  11  1   
 12   6  26  1   
 13   6  27  1   
 14   7  12  ar  
 15   7  13  1   
 16   8  14  1   
 17   8  15  1   
 18   9  16  1   
 19   9  28  1   
 20   9  29  1   
 21  10  17  1   
 22  10  30  1   
 23  10  31  1   
 24  11  18  1   
 25  11  19  1   
 26  11  32  1   
 27  12  14  ar  
 28  12  20  1   
 29  13  21  2   
 30  13  33  1   
 31  14  34  1   
 32  15  35  1   
 33  15  36  1   
 34  15  37  1   
 35  16  18  1   
 36  17  19  1   
 37  17  22  1   
 38  17  38  1   
 39  18  39  1   
 40  18  40  1   
 41  19  41  1   
 42  19  42  1   
 43  20  23  2   
 44  20  43  1   
 45  21  23  1   
 46  21  44  1   
 47  22  45  1   
 48  22  46  1   
 49  22  47  1   
 50  23  24  1   
 51  24  48  1   
 52  24  49  1   
 53  24  50  1   
@<TRIPOS>SUBSTRUCTURE
  1 ****   3 GROUP 4 **** **** 0

# MOE 2024.06 (io_trps.svl 2023.06)
