@<TRIPOS>MOLECULE
NONAME
44 45 1 0 0 
SMALL
USER_CHARGES


@<TRIPOS>ATOM
  1 O       -1.7310     1.0240     2.1660 O.2   1 <1>  -0.5700 
  2 C       -1.1430     1.4890     1.2080 C.2   1 <1>   0.7800 
  3 O        0.1430     1.8300     1.3260 O.3   1 <1>  -0.4300 
  4 N       -1.7520     1.6870     0.0020 N.am  1 <1>  -0.6600 
  5 C        0.8370     1.6590     2.5450 C.3   1 <1>   0.0400 
  6 C       -3.1940     1.3060    -0.1850 C.3   1 <1>   0.2810 
  7 C       -1.0660     2.2540    -1.1870 C.3   1 <1>   0.1400 
  8 C       -3.3810    -0.2240    -0.3530 C.2   1 <1>   0.5690 
  9 C       -3.8260     2.0940    -1.3570 C.3   1 <1>  -0.1600 
 10 C       -1.7660     3.5520    -1.6190 C.3   1 <1>  -0.1600 
 11 O       -3.0090    -0.7300    -1.3940 O.2   1 <1>  -0.5700 
 12 N       -3.9850    -1.0060     0.6050 N.am  1 <1>  -0.6600 
 13 C       -3.2950     3.5330    -1.4220 C.3   1 <1>  -0.1600 
 14 C       -4.0690    -2.4840     0.4130 C.3   1 <1>   0.3200 
 15 C       -4.6850    -0.4980     1.8230 C.3   1 <1>   0.1400 
 16 C       -5.2720    -2.8260    -0.4480 C.2   1 <1>   0.0060 
 17 C       -6.1340    -0.1290     1.4850 C.3   1 <1>   0.1200 
 18 N       -6.3280    -3.4620    -0.0470 N.2   1 <1>  -0.5650 
 19 N       -5.3190    -2.4620    -1.7460 N.pl3 1 <1>   0.0330 
 20 O       -6.7350     0.4440     2.5960 O.3   1 <1>  -0.6800 
 21 C       -7.1040    -3.5160    -1.1480 C.2   1 <1>   0.0770 
 22 C       -6.5040    -2.9090    -2.1960 C.2   1 <1>  -0.3020 
 23 H        1.8490     1.9930     2.4100 H     1 <1>   0.0800 
 24 H        0.8210     0.6160     2.8090 H     1 <1>   0.0800 
 25 H        0.3510     2.2440     3.3060 H     1 <1>   0.0800 
 26 H       -3.7130     1.6290     0.6970 H     1 <1>   0.0800 
 27 H       -1.1200     1.5300    -1.9830 H     1 <1>   0.0800 
 28 H       -0.0260     2.4450    -0.9880 H     1 <1>   0.0800 
 29 H       -4.8950     2.1020    -1.2380 H     1 <1>   0.0800 
 30 H       -3.6130     1.6000    -2.2890 H     1 <1>   0.0800 
 31 H       -1.5390     3.7220    -2.6570 H     1 <1>   0.0800 
 32 H       -1.3500     4.3760    -1.0650 H     1 <1>   0.0800 
 33 H       -3.5350     4.0300    -0.4970 H     1 <1>   0.0800 
 34 H       -3.7750     4.0750    -2.2190 H     1 <1>   0.0800 
 35 H       -4.1540    -2.9810     1.3630 H     1 <1>   0.0800 
 36 H       -3.1730    -2.8420    -0.0640 H     1 <1>   0.0800 
 37 H       -4.1720     0.3590     2.2200 H     1 <1>   0.0800 
 38 H       -4.6780    -1.2570     2.5850 H     1 <1>   0.0800 
 39 H       -6.7030    -0.9980     1.2000 H     1 <1>   0.0800 
 40 H       -6.1620     0.5970     0.6910 H     1 <1>   0.0800 
 41 H       -4.5820    -1.9300    -2.2320 H     1 <1>   0.2700 
 42 H       -6.9260    -0.2350     3.2730 H     1 <1>   0.4000 
 43 H       -8.0680    -3.9960    -1.1280 H     1 <1>   0.1500 
 44 H       -6.8460    -2.7740    -3.2060 H     1 <1>   0.1500 
@<TRIPOS>BOND
  1   1   2  2   
  2   2   3  1   
  3   2   4  am  
  4   3   5  1   
  5   4   6  1   
  6   4   7  1   
  7   5  23  1   
  8   5  24  1   
  9   5  25  1   
 10   6   8  1   
 11   6   9  1   
 12   6  26  1   
 13   7  10  1   
 14   7  27  1   
 15   7  28  1   
 16   8  11  2   
 17   8  12  am  
 18   9  13  1   
 19   9  29  1   
 20   9  30  1   
 21  10  13  1   
 22  10  31  1   
 23  10  32  1   
 24  12  14  1   
 25  12  15  1   
 26  13  33  1   
 27  13  34  1   
 28  14  16  1   
 29  14  35  1   
 30  14  36  1   
 31  15  17  1   
 32  15  37  1   
 33  15  38  1   
 34  16  18  2   
 35  16  19  1   
 36  17  20  1   
 37  17  39  1   
 38  17  40  1   
 39  18  21  1   
 40  19  22  1   
 41  19  41  1   
 42  20  42  1   
 43  21  22  2   
 44  21  43  1   
 45  22  44  1   
@<TRIPOS>SUBSTRUCTURE
  1 ****   8 GROUP 4 **** **** 0

# MOE 2024.06 (io_trps.svl 2023.06)
