@<TRIPOS>MOLECULE
NONAME
50 52 1 0 0 
SMALL
USER_CHARGES


@<TRIPOS>ATOM
  1 F        2.0700     1.2260    -0.1450 F     1 <1>  -0.3400 
  2 C        2.1330     1.8750     1.0170 C.3   1 <1>   1.2010 
  3 F        0.8960     1.8600     1.5100 F     1 <1>  -0.3400 
  4 F        2.8510     1.0960     1.8250 F     1 <1>  -0.3400 
  5 C        2.7060     3.3180     0.8710 C.2   1 <1>   0.3350 
  6 N        3.7600     3.7600     1.4550 N.2   1 <1>  -0.4100 
  7 N        2.1310     4.2560     0.1010 N.2   1 <1>  -0.5650 
  8 O        3.9300     4.9940     1.0940 O.3   1 <1>  -0.0190 
  9 C        2.9290     5.2330     0.2860 C.2   1 <1>   0.2980 
 10 C        2.8110     6.6230    -0.3300 C.3   1 <1>   0.2900 
 11 N        3.9520     6.9530    -1.2260 N.3   1 <1>  -0.8100 
 12 C        4.0390     8.3870    -1.5300 C.3   1 <1>   0.1100 
 13 C        3.8890     6.1500    -2.4580 C.3   1 <1>   0.0300 
 14 C        4.7990     9.1310    -0.4150 C.3   1 <1>  -0.0800 
 15 C        4.9390    10.6220    -0.7640 C.3   1 <1>  -0.1600 
 16 C        6.1950     8.5230    -0.1760 C.3   1 <1>  -0.1600 
 17 C        5.7670    11.3780     0.2770 C.3   1 <1>   0.3430 
 18 C        7.0010     9.3130     0.8530 C.3   1 <1>   0.3430 
 19 N        7.1050    10.7330     0.4210 N.4   1 <1>  -0.9590 
 20 C        8.0000    11.5120     1.3190 C.3   1 <1>   0.4860 
 21 C        8.2500    12.8700     0.6950 C.ar  1 <1>  -0.1440 
 22 C        7.6330    14.0000     1.2120 C.ar  1 <1>  -0.1500 
 23 C        9.0940    12.9930    -0.4010 C.ar  1 <1>  -0.1500 
 24 C        7.8460    15.2380     0.6310 C.ar  1 <1>  -0.1500 
 25 C        9.3050    14.2320    -0.9800 C.ar  1 <1>  -0.1500 
 26 C        8.6800    15.3530    -0.4660 C.ar  1 <1>  -0.1500 
 27 H        2.7650     7.3300     0.4770 H     1 <1>   0.0800 
 28 H        1.8870     6.6880    -0.8790 H     1 <1>   0.0800 
 29 H        3.0520     8.8000    -1.6650 H     1 <1>   0.0800 
 30 H        4.5790     8.5230    -2.4530 H     1 <1>   0.0800 
 31 H        3.8850     5.0990    -2.2210 H     1 <1>   0.0800 
 32 H        4.7540     6.3460    -3.0700 H     1 <1>   0.0800 
 33 H        3.0010     6.3840    -3.0210 H     1 <1>   0.0800 
 34 H        4.2290     9.0560     0.4950 H     1 <1>   0.0800 
 35 H        3.9620    11.0710    -0.8190 H     1 <1>   0.0800 
 36 H        5.4000    10.7380    -1.7290 H     1 <1>   0.0800 
 37 H        6.7420     8.4740    -1.1010 H     1 <1>   0.0800 
 38 H        6.0910     7.5130     0.1830 H     1 <1>   0.0800 
 39 H        5.2520    11.3690     1.2250 H     1 <1>   0.0800 
 40 H        5.8810    12.4040    -0.0380 H     1 <1>   0.0800 
 41 H        7.9840     8.8780     0.9460 H     1 <1>   0.0800 
 42 H        6.5110     9.2560     1.8110 H     1 <1>   0.0800 
 43 H        7.5390    10.7530    -0.5100 H     1 <1>   0.4500 
 44 H        8.9420    11.0000     1.4400 H     1 <1>   0.0800 
 45 H        7.5470    11.6290     2.2900 H     1 <1>   0.0800 
 46 H        6.9840    13.9370     2.0700 H     1 <1>   0.1500 
 47 H        9.5990    12.1380    -0.8150 H     1 <1>   0.1500 
 48 H        7.3670    16.1160     1.0320 H     1 <1>   0.1500 
 49 H        9.9600    14.3300    -1.8310 H     1 <1>   0.1500 
 50 H        8.8460    16.3170    -0.9170 H     1 <1>   0.1500 
@<TRIPOS>BOND
  1   1   2  1   
  2   2   3  1   
  3   2   4  1   
  4   2   5  1   
  5   5   6  2   
  6   5   7  1   
  7   6   8  1   
  8   7   9  2   
  9   8   9  1   
 10   9  10  1   
 11  10  11  1   
 12  10  27  1   
 13  10  28  1   
 14  11  12  1   
 15  11  13  1   
 16  12  14  1   
 17  12  29  1   
 18  12  30  1   
 19  13  31  1   
 20  13  32  1   
 21  13  33  1   
 22  14  15  1   
 23  14  16  1   
 24  14  34  1   
 25  15  17  1   
 26  15  35  1   
 27  15  36  1   
 28  16  18  1   
 29  16  37  1   
 30  16  38  1   
 31  17  19  1   
 32  17  39  1   
 33  17  40  1   
 34  18  19  1   
 35  18  41  1   
 36  18  42  1   
 37  19  20  1   
 38  19  43  1   
 39  20  21  1   
 40  20  44  1   
 41  20  45  1   
 42  21  22  ar  
 43  21  23  ar  
 44  22  24  ar  
 45  22  46  1   
 46  23  25  ar  
 47  23  47  1   
 48  24  26  ar  
 49  24  48  1   
 50  25  26  ar  
 51  25  49  1   
 52  26  50  1   
@<TRIPOS>SUBSTRUCTURE
  1 ****  14 GROUP 4 **** **** 0

# MOE 2024.06 (io_trps.svl 2023.06)
