@<TRIPOS>MOLECULE
NONAME
50 52 1 0 0 
SMALL
USER_CHARGES


@<TRIPOS>ATOM
  1 S       -0.8290    -0.2360     0.1450 S.3   1 <1>  -0.0800 
  2 C       -1.2020     1.4810     0.0980 C.2   1 <1>  -0.1400 
  3 C       -2.5320    -0.6440    -0.0260 C.2   1 <1>  -0.1100 
  4 C       -2.5190     1.6740    -0.0560 C.2   1 <1>  -0.1810 
  5 C       -0.1310     2.5620     0.2060 C.3   1 <1>   0.4600 
  6 C       -3.2860     0.4680    -0.1180 C.2   1 <1>  -0.1500 
  7 C       -3.0560     3.0820    -0.1600 C.3   1 <1>   0.0210 
  8 O       -0.7700     3.8330     0.2430 O.3   1 <1>  -0.5600 
  9 C        0.8040     2.5410    -1.0100 C.3   1 <1>  -0.1600 
 10 C        0.6750     2.4260     1.5160 C.3   1 <1>  -0.1600 
 11 C       -1.9060     4.0180    -0.5740 C.3   1 <1>   0.1200 
 12 C        1.7990     3.7050    -0.9410 C.3   1 <1>   0.1400 
 13 C        2.1690     2.7480     1.3610 C.3   1 <1>   0.1400 
 14 N        2.3260     3.9070     0.4470 N.am  1 <1>  -0.6600 
 15 C        2.7940     5.1010     0.9530 C.2   1 <1>   0.5690 
 16 O        3.5790     5.1130     1.8760 O.2   1 <1>  -0.5700 
 17 C        2.2810     6.4630     0.4370 C.3   1 <1>   0.2810 
 18 N        0.7810     6.4790     0.4280 N.am  1 <1>  -0.7300 
 19 C        2.8850     6.9020    -0.9280 C.3   1 <1>  -0.0800 
 20 C        0.0390     7.4710     0.9690 C.2   1 <1>   0.5690 
 21 C        4.4220     6.9030    -0.8840 C.3   1 <1>  -0.2400 
 22 C        2.4080     8.3000    -1.3550 C.3   1 <1>  -0.2400 
 23 O        0.5030     8.5380     1.2810 O.2   1 <1>  -0.5700 
 24 C       -1.4270     7.2220     1.1980 C.3   1 <1>  -0.1790 
 25 H       -2.7910    -1.6870    -0.0380 H     1 <1>   0.1500 
 26 H       -4.3570     0.4900    -0.2280 H     1 <1>   0.1500 
 27 H       -3.4620     3.3900     0.7870 H     1 <1>   0.0800 
 28 H       -3.8370     3.1260    -0.8980 H     1 <1>   0.0800 
 29 H        0.2390     2.5900    -1.9210 H     1 <1>   0.0800 
 30 H        1.3420     1.6110    -1.0290 H     1 <1>   0.0800 
 31 H        0.6070     1.4230     1.8910 H     1 <1>   0.0800 
 32 H        0.2460     3.0650     2.2670 H     1 <1>   0.0800 
 33 H       -2.2160     5.0430    -0.4870 H     1 <1>   0.0800 
 34 H       -1.6260     3.8340    -1.5970 H     1 <1>   0.0800 
 35 H        1.2870     4.5880    -1.2700 H     1 <1>   0.0800 
 36 H        2.6230     3.5220    -1.6100 H     1 <1>   0.0800 
 37 H        2.6930     1.9040     0.9460 H     1 <1>   0.0800 
 38 H        2.5970     2.9550     2.3290 H     1 <1>   0.0800 
 39 H        2.6050     7.1900     1.1630 H     1 <1>   0.0800 
 40 H        0.3590     5.5440     0.3410 H     1 <1>   0.3700 
 41 H        2.5880     6.2110    -1.6920 H     1 <1>   0.0800 
 42 H        4.7760     7.5710    -0.1180 H     1 <1>   0.0800 
 43 H        4.8260     7.2230    -1.8290 H     1 <1>   0.0800 
 44 H        4.8030     5.9180    -0.6780 H     1 <1>   0.0800 
 45 H        2.6500     9.0280    -0.6000 H     1 <1>   0.0800 
 46 H        1.3420     8.3100    -1.5010 H     1 <1>   0.0800 
 47 H        2.8710     8.5960    -2.2800 H     1 <1>   0.0800 
 48 H       -1.5740     6.2380     1.6020 H     1 <1>   0.0800 
 49 H       -1.9550     7.3200     0.2700 H     1 <1>   0.0800 
 50 H       -1.8100     7.9440     1.8960 H     1 <1>   0.0800 
@<TRIPOS>BOND
  1   1   2  1   
  2   1   3  1   
  3   2   4  2   
  4   2   5  1   
  5   3   6  2   
  6   3  25  1   
  7   4   6  1   
  8   4   7  1   
  9   5   8  1   
 10   5   9  1   
 11   5  10  1   
 12   6  26  1   
 13   7  11  1   
 14   7  27  1   
 15   7  28  1   
 16   8  11  1   
 17   9  12  1   
 18   9  29  1   
 19   9  30  1   
 20  10  13  1   
 21  10  31  1   
 22  10  32  1   
 23  11  33  1   
 24  11  34  1   
 25  12  14  1   
 26  12  35  1   
 27  12  36  1   
 28  13  14  1   
 29  13  37  1   
 30  13  38  1   
 31  14  15  am  
 32  15  16  2   
 33  15  17  1   
 34  17  18  1   
 35  17  19  1   
 36  17  39  1   
 37  18  20  am  
 38  18  40  1   
 39  19  21  1   
 40  19  22  1   
 41  19  41  1   
 42  20  23  2   
 43  20  24  1   
 44  21  42  1   
 45  21  43  1   
 46  21  44  1   
 47  22  45  1   
 48  22  46  1   
 49  22  47  1   
 50  24  48  1   
 51  24  49  1   
 52  24  50  1   
@<TRIPOS>SUBSTRUCTURE
  1 ****   8 GROUP 4 **** **** 0

# MOE 2024.06 (io_trps.svl 2023.06)
