@<TRIPOS>MOLECULE
NONAME
46 49 1 0 0 
SMALL
USER_CHARGES


@<TRIPOS>ATOM
  1 S        0.2400     0.4800     0.7260 S.3   1 <1>  -0.0800 
  2 C        1.8760     0.0980     0.2860 C.2   1 <1>  -0.1400 
  3 C       -0.2100    -1.1670     0.3160 C.2   1 <1>   0.1980 
  4 C        1.9360    -1.1720    -0.1230 C.2   1 <1>   0.0460 
  5 C        3.0000     1.1040     0.3790 C.3   1 <1>   0.0200 
  6 N        0.7560    -1.8940    -0.1020 N.2   1 <1>  -0.5650 
  7 C       -1.6730    -1.5400     0.5010 C.3   1 <1>   0.3200 
  8 C        3.2300    -1.8100    -0.5870 C.3   1 <1>   0.0210 
  9 C        4.3420     0.3580     0.2420 C.3   1 <1>  -0.1600 
 10 N       -1.8790    -2.9630     0.1640 N.am  1 <1>  -0.7300 
 11 C        4.3030    -0.7310    -0.8550 C.3   1 <1>  -0.1600 
 12 C       -2.9920    -3.6850     0.4350 C.2   1 <1>   0.5690 
 13 O       -3.9570    -3.1560     0.9360 O.2   1 <1>  -0.5700 
 14 C       -3.0030    -5.1830     0.0930 C.3   1 <1>   0.2610 
 15 O       -1.6980    -5.7210     0.2680 O.3   1 <1>  -0.5600 
 16 C       -4.0680    -5.9530     0.9280 C.3   1 <1>   0.3640 
 17 C       -1.5610    -7.0850    -0.0590 C.3   1 <1>   0.1810 
 18 N       -3.7380    -7.3910     1.0920 N.am  1 <1>  -0.7300 
 19 C       -5.4480    -5.8650     0.2830 C.ar  1 <1>  -0.1440 
 20 C       -2.5920    -7.9580     0.6560 C.2   1 <1>   0.5690 
 21 C       -5.7630    -6.6190    -0.8410 C.ar  1 <1>   0.1600 
 22 C       -6.4150    -5.0240     0.8010 C.ar  1 <1>  -0.1500 
 23 O       -2.3950    -9.1370     0.8030 O.2   1 <1>  -0.5700 
 24 N       -6.9250    -6.5980    -1.4720 N.ar  1 <1>  -0.6200 
 25 C       -7.6340    -4.9920     0.1580 C.ar  1 <1>  -0.1500 
 26 C       -7.8340    -5.7860    -0.9580 C.ar  1 <1>   0.1600 
 27 H        2.8900     1.8230    -0.4140 H     1 <1>   0.0800 
 28 H        2.9600     1.6210     1.3220 H     1 <1>   0.0800 
 29 H       -2.2850    -0.9300    -0.1400 H     1 <1>   0.0800 
 30 H       -1.9630    -1.3690     1.5230 H     1 <1>   0.0800 
 31 H        3.5670    -2.4880     0.1760 H     1 <1>   0.0800 
 32 H        3.0500    -2.3740    -1.4850 H     1 <1>   0.0800 
 33 H        5.1240     1.0650     0.0290 H     1 <1>   0.0800 
 34 H        4.5720    -0.1130     1.1830 H     1 <1>   0.0800 
 35 H       -1.0140    -3.4400    -0.1220 H     1 <1>   0.3700 
 36 H        5.2670    -1.2020    -0.9370 H     1 <1>   0.0800 
 37 H        4.0880    -0.2600    -1.7990 H     1 <1>   0.0800 
 38 H       -3.2440    -5.2710    -0.9510 H     1 <1>   0.0800 
 39 H       -4.1110    -5.5150     1.9110 H     1 <1>   0.0800 
 40 H       -1.6660    -7.1960    -1.1220 H     1 <1>   0.0800 
 41 H       -0.5730    -7.3940     0.2290 H     1 <1>   0.0800 
 42 H       -4.4240    -7.9820     1.5660 H     1 <1>   0.3700 
 43 H       -5.0190    -7.2830    -1.2480 H     1 <1>   0.1500 
 44 H       -6.2310    -4.4080     1.6650 H     1 <1>   0.1500 
 45 H       -8.4230    -4.3560     0.5150 H     1 <1>   0.1500 
 46 H       -8.7900    -5.7510    -1.4520 H     1 <1>   0.1500 
@<TRIPOS>BOND
  1   1   2  1   
  2   1   3  1   
  3   2   4  2   
  4   2   5  1   
  5   3   6  2   
  6   3   7  1   
  7   4   6  1   
  8   4   8  1   
  9   5   9  1   
 10   5  27  1   
 11   5  28  1   
 12   7  10  1   
 13   7  29  1   
 14   7  30  1   
 15   8  11  1   
 16   8  31  1   
 17   8  32  1   
 18   9  11  1   
 19   9  33  1   
 20   9  34  1   
 21  10  12  am  
 22  10  35  1   
 23  11  36  1   
 24  11  37  1   
 25  12  13  2   
 26  12  14  1   
 27  14  15  1   
 28  14  16  1   
 29  14  38  1   
 30  15  17  1   
 31  16  18  1   
 32  16  19  1   
 33  16  39  1   
 34  17  20  1   
 35  17  40  1   
 36  17  41  1   
 37  18  20  am  
 38  18  42  1   
 39  19  21  ar  
 40  19  22  ar  
 41  20  23  2   
 42  21  24  ar  
 43  21  43  1   
 44  22  25  ar  
 45  22  44  1   
 46  24  26  ar  
 47  25  26  ar  
 48  25  45  1   
 49  26  46  1   
@<TRIPOS>SUBSTRUCTURE
  1 ****  10 GROUP 4 **** **** 0

# MOE 2024.06 (io_trps.svl 2023.06)
