@<TRIPOS>MOLECULE
NONAME
54 56 1 0 0 
SMALL
USER_CHARGES


@<TRIPOS>ATOM
  1 O       -1.2030    -0.3990     2.0290 O.3   1 <1>  -0.3630 
  2 C       -1.2510     0.8340     1.4630 C.ar  1 <1>   0.0820 
  3 C       -2.1220    -1.3610     1.5710 C.3   1 <1>   0.1200 
  4 C       -1.0690     1.0540     0.0910 C.ar  1 <1>   0.0820 
  5 C       -1.4820     1.9030     2.3120 C.ar  1 <1>  -0.1500 
  6 C       -1.3270    -2.4850     0.9000 C.3   1 <1>   0.3430 
  7 O       -0.7910     0.0030    -0.7350 O.3   1 <1>  -0.3630 
  8 C       -1.1660     2.3520    -0.4030 C.ar  1 <1>  -0.1500 
  9 C       -1.5640     3.1900     1.8110 C.ar  1 <1>  -0.1500 
 10 N       -2.1740    -3.3240    -0.0110 N.4   1 <1>  -0.9590 
 11 C        0.0750     0.2160    -1.8340 C.3   1 <1>   0.0400 
 12 C       -1.4110     3.4120     0.4540 C.ar  1 <1>  -0.1500 
 13 C       -1.4960    -4.6040    -0.3800 C.3   1 <1>   0.3430 
 14 C       -2.5810    -2.5810    -1.2340 C.3   1 <1>   0.3430 
 15 C       -2.5050    -5.7720    -0.4350 C.3   1 <1>   0.2090 
 16 C       -3.9660    -3.0390    -1.6910 C.3   1 <1>  -0.1600 
 17 N       -3.9270    -5.3360    -0.7080 N.pl3 1 <1>  -0.8380 
 18 C       -4.0910    -4.5410    -1.9690 C.3   1 <1>   0.2090 
 19 C       -5.0080    -5.9310    -0.1140 C.ar  1 <1>   0.1000 
 20 C       -6.2540    -5.2870    -0.0380 C.ar  1 <1>  -0.1500 
 21 C       -4.9540    -7.2250     0.4300 C.ar  1 <1>  -0.1500 
 22 C       -7.3470    -5.8890     0.5340 C.ar  1 <1>   0.2170 
 23 C       -6.0590    -7.8060     0.9970 C.ar  1 <1>   0.2110 
 24 N       -7.2370    -7.1380     1.0450 N.ar  1 <1>  -0.1790 
 25 C       -8.6980    -5.1960     0.6160 C.3   1 <1>  -0.0970 
 26 H       -2.8110    -0.8860     0.8960 H     1 <1>   0.0800 
 27 H       -2.6570    -1.7320     2.4270 H     1 <1>   0.0800 
 28 H       -1.6000     1.7260     3.3670 H     1 <1>   0.1500 
 29 H       -0.8970    -3.1010     1.6720 H     1 <1>   0.0800 
 30 H       -0.5230    -2.0470     0.3320 H     1 <1>   0.0800 
 31 H       -1.0550     2.5590    -1.4500 H     1 <1>   0.1500 
 32 H       -1.7470     4.0170     2.4760 H     1 <1>   0.1500 
 33 H       -3.0500    -3.6180     0.4540 H     1 <1>   0.4500 
 34 H        0.3960    -0.7400    -2.2060 H     1 <1>   0.0800 
 35 H        0.9290     0.7820    -1.5030 H     1 <1>   0.0800 
 36 H       -0.4550     0.7460    -2.6050 H     1 <1>   0.0800 
 37 H       -1.4810     4.4140     0.0650 H     1 <1>   0.1500 
 38 H       -0.7320    -4.8460     0.3410 H     1 <1>   0.0800 
 39 H       -1.0140    -4.5000    -1.3380 H     1 <1>   0.0800 
 40 H       -1.8580    -2.7340    -2.0190 H     1 <1>   0.0800 
 41 H       -2.6210    -1.5230    -1.0300 H     1 <1>   0.0800 
 42 H       -2.4620    -6.2710     0.5170 H     1 <1>   0.0800 
 43 H       -2.1910    -6.4800    -1.1830 H     1 <1>   0.0800 
 44 H       -4.1950    -2.5140    -2.6020 H     1 <1>   0.0800 
 45 H       -4.7000    -2.7360    -0.9680 H     1 <1>   0.0800 
 46 H       -3.3580    -4.8480    -2.6970 H     1 <1>   0.0800 
 47 H       -5.0590    -4.7420    -2.3970 H     1 <1>   0.0800 
 48 H       -6.3470    -4.2950    -0.4380 H     1 <1>   0.1500 
 49 H       -4.0390    -7.7850     0.3880 H     1 <1>   0.1500 
 50 H       -6.0120    -8.8030     1.4090 H     1 <1>   0.1500 
 51 H       -8.0600    -7.5850     1.4670 H     1 <1>   0.4570 
 52 H       -8.6490    -4.2140     0.1790 H     1 <1>   0.0800 
 53 H       -9.0060    -5.0890     1.6420 H     1 <1>   0.0800 
 54 H       -9.4430    -5.7610     0.0830 H     1 <1>   0.0800 
@<TRIPOS>BOND
  1   1   2  1   
  2   1   3  1   
  3   2   4  ar  
  4   2   5  ar  
  5   3   6  1   
  6   3  26  1   
  7   3  27  1   
  8   4   7  1   
  9   4   8  ar  
 10   5   9  ar  
 11   5  28  1   
 12   6  10  1   
 13   6  29  1   
 14   6  30  1   
 15   7  11  1   
 16   8  12  ar  
 17   8  31  1   
 18   9  12  ar  
 19   9  32  1   
 20  10  13  1   
 21  10  14  1   
 22  10  33  1   
 23  11  34  1   
 24  11  35  1   
 25  11  36  1   
 26  12  37  1   
 27  13  15  1   
 28  13  38  1   
 29  13  39  1   
 30  14  16  1   
 31  14  40  1   
 32  14  41  1   
 33  15  17  1   
 34  15  42  1   
 35  15  43  1   
 36  16  18  1   
 37  16  44  1   
 38  16  45  1   
 39  17  18  1   
 40  17  19  1   
 41  18  46  1   
 42  18  47  1   
 43  19  20  ar  
 44  19  21  ar  
 45  20  22  ar  
 46  20  48  1   
 47  21  23  ar  
 48  21  49  1   
 49  22  24  ar  
 50  22  25  1   
 51  23  24  ar  
 52  23  50  1   
 53  24  51  1   
 54  25  52  1   
 55  25  53  1   
 56  25  54  1   
@<TRIPOS>SUBSTRUCTURE
  1 ****  10 GROUP 4 **** **** 0

# MOE 2024.06 (io_trps.svl 2023.06)
