@<TRIPOS>MOLECULE
NONAME
56 58 1 0 0 
SMALL
USER_CHARGES


@<TRIPOS>ATOM
  1 O        0.1310     0.4130    -0.5940 O.2   1 <1>  -0.5700 
  2 C        0.1400     1.6180    -0.5000 C.2   1 <1>   0.5690 
  3 N       -0.8860     2.3140     0.0830 N.am  1 <1>  -0.6600 
  4 C        1.3370     2.3710    -1.0900 C.3   1 <1>   0.1810 
  5 C       -0.8400     3.8090     0.2010 C.3   1 <1>   0.3640 
  6 C       -2.0180     1.6310     0.7760 C.3   1 <1>   0.0600 
  7 O        1.4730     3.6840    -0.6020 O.3   1 <1>  -0.5600 
  8 C       -2.1880     4.4140    -0.2250 C.ar  1 <1>  -0.1430 
  9 C        0.2830     4.4430    -0.6510 C.3   1 <1>   0.2610 
 10 C       -2.9030     5.3020     0.5790 C.ar  1 <1>  -0.1430 
 11 C       -2.7030     4.0690    -1.4710 C.ar  1 <1>  -0.1500 
 12 C        0.5130     5.8840    -0.1880 C.2   1 <1>   0.5690 
 13 C       -4.0970     5.8350     0.1140 C.ar  1 <1>  -0.1500 
 14 C       -2.4320     5.7230     1.9660 C.3   1 <1>  -0.0960 
 15 C       -3.8950     4.6030    -1.9230 C.ar  1 <1>  -0.1500 
 16 O        0.8170     6.0940     0.9650 O.2   1 <1>  -0.5700 
 17 N        0.3280     6.8960    -1.0850 N.am  1 <1>  -0.5790 
 18 C       -4.5920     5.4920    -1.1300 C.ar  1 <1>  -0.1500 
 19 C        0.3060     8.3300    -0.7630 C.3   1 <1>   0.0540 
 20 C       -1.0180     8.8290    -0.2510 C.3   1 <1>  -0.2000 
 21 C       -0.5940     9.1620    -1.6330 C.3   1 <1>  -0.2000 
 22 C        1.7320     8.9010    -0.5520 C.3   1 <1>  -0.0650 
 23 C        2.0280     9.8740     0.6210 C.3   1 <1>   0.0000 
 24 C        1.4060    11.2630     0.4000 C.3   1 <1>  -0.2400 
 25 C        1.5720     9.2890     1.9670 C.3   1 <1>  -0.2400 
 26 C        3.5520    10.0720     0.6950 C.3   1 <1>  -0.2400 
 27 H        1.2390     2.4150    -2.1590 H     1 <1>   0.0800 
 28 H        2.2400     1.8410    -0.8480 H     1 <1>   0.0800 
 29 H       -0.6380     4.0360     1.2310 H     1 <1>   0.0800 
 30 H       -2.1070     2.0010     1.7820 H     1 <1>   0.0800 
 31 H       -1.8560     0.5680     0.8140 H     1 <1>   0.0800 
 32 H       -2.9370     1.8190     0.2490 H     1 <1>   0.0800 
 33 H       -0.0270     4.4690    -1.6790 H     1 <1>   0.0800 
 34 H       -2.1800     3.3700    -2.0990 H     1 <1>   0.1500 
 35 H       -4.6550     6.5260     0.7210 H     1 <1>   0.1500 
 36 H       -3.1900     6.2910     2.4740 H     1 <1>   0.0800 
 37 H       -1.5540     6.3380     1.8950 H     1 <1>   0.0800 
 38 H       -2.2120     4.8610     2.5690 H     1 <1>   0.0800 
 39 H       -4.2810     4.3260    -2.8890 H     1 <1>   0.1500 
 40 H        0.0630     6.6850    -2.0460 H     1 <1>   0.3700 
 41 H       -5.5190     5.9130    -1.4760 H     1 <1>   0.1500 
 42 H       -1.8080     8.1120    -0.1140 H     1 <1>   0.1000 
 43 H       -1.0790     9.6210     0.4670 H     1 <1>   0.1000 
 44 H       -0.3440    10.1900    -1.8320 H     1 <1>   0.1000 
 45 H       -1.1110     8.7010    -2.4550 H     1 <1>   0.1000 
 46 H        2.3870     8.0580    -0.4180 H     1 <1>   0.0800 
 47 H        2.0400     9.3710    -1.4680 H     1 <1>   0.0800 
 48 H        1.7090    11.9360     1.1810 H     1 <1>   0.0800 
 49 H        0.3360    11.2280     0.4020 H     1 <1>   0.0800 
 50 H        1.7270    11.6730    -0.5410 H     1 <1>   0.0800 
 51 H        1.8610     9.9330     2.7780 H     1 <1>   0.0800 
 52 H        2.0200     8.3230     2.1240 H     1 <1>   0.0800 
 53 H        0.5080     9.1660     2.0050 H     1 <1>   0.0800 
 54 H        3.8110    10.7480     1.4910 H     1 <1>   0.0800 
 55 H        3.9290    10.4780    -0.2280 H     1 <1>   0.0800 
 56 H        4.0490     9.1350     0.8800 H     1 <1>   0.0800 
@<TRIPOS>BOND
  1   1   2  2   
  2   2   3  am  
  3   2   4  1   
  4   3   5  1   
  5   3   6  1   
  6   4   7  1   
  7   4  27  1   
  8   4  28  1   
  9   5   8  1   
 10   5   9  1   
 11   5  29  1   
 12   6  30  1   
 13   6  31  1   
 14   6  32  1   
 15   7   9  1   
 16   8  10  ar  
 17   8  11  ar  
 18   9  12  1   
 19   9  33  1   
 20  10  13  ar  
 21  10  14  1   
 22  11  15  ar  
 23  11  34  1   
 24  12  16  2   
 25  12  17  am  
 26  13  18  ar  
 27  13  35  1   
 28  14  36  1   
 29  14  37  1   
 30  14  38  1   
 31  15  18  ar  
 32  15  39  1   
 33  17  19  1   
 34  17  40  1   
 35  18  41  1   
 36  19  20  1   
 37  19  21  1   
 38  19  22  1   
 39  20  21  1   
 40  20  42  1   
 41  20  43  1   
 42  21  44  1   
 43  21  45  1   
 44  22  23  1   
 45  22  46  1   
 46  22  47  1   
 47  23  24  1   
 48  23  25  1   
 49  23  26  1   
 50  24  48  1   
 51  24  49  1   
 52  24  50  1   
 53  25  51  1   
 54  25  52  1   
 55  25  53  1   
 56  26  54  1   
 57  26  55  1   
 58  26  56  1   
@<TRIPOS>SUBSTRUCTURE
  1 ****  12 GROUP 4 **** **** 0

# MOE 2024.06 (io_trps.svl 2023.06)
