@<TRIPOS>MOLECULE
NONAME
52 54 1 0 0 
SMALL
USER_CHARGES


@<TRIPOS>ATOM
  1 S       -0.0800    -0.0640     1.8920 S.o2  1 <1>   1.4470 
  2 O       -0.7010    -1.2040     2.5350 O.2   1 <1>  -0.6500 
  3 O        0.1860     1.1260     2.6700 O.2   1 <1>  -0.6500 
  4 N       -1.0920     0.4000     0.6140 N.am  1 <1>  -0.8490 
  5 C        1.4270    -0.6220     1.0470 C.ar  1 <1>  -0.0090 
  6 C       -2.4890     0.5220     1.0630 C.3   1 <1>   0.1960 
  7 C       -0.6540     1.6480    -0.0220 C.3   1 <1>   0.1960 
  8 C        2.5040     0.2270     0.8490 C.ar  1 <1>  -0.1500 
  9 C        1.5270    -1.9110     0.5450 C.ar  1 <1>  -0.1500 
 10 C       -3.4570     0.7690    -0.1220 C.3   1 <1>   0.0000 
 11 C       -1.5170     1.9530    -1.2500 C.3   1 <1>  -0.1600 
 12 C        3.6690    -0.1460     0.1720 C.ar  1 <1>   0.0860 
 13 C        2.6620    -2.3310    -0.1210 C.ar  1 <1>  -0.1500 
 14 C       -4.9250     0.8810     0.3360 C.3   1 <1>   0.2000 
 15 C       -3.0080     2.0310    -0.8860 C.3   1 <1>  -0.1600 
 16 C       -3.5120    -0.4720    -1.0320 C.3   1 <1>  -0.1600 
 17 C        3.7350    -1.4640    -0.3140 C.ar  1 <1>   0.0830 
 18 C        4.7230     0.8460     0.0060 C.2   1 <1>   0.5440 
 19 O       -5.0680     1.5340     1.5480 O.3   1 <1>  -0.6800 
 20 C       -5.4700    -0.5450     0.4370 C.3   1 <1>  -0.1600 
 21 C       -4.5020    -1.4280    -0.3620 C.3   1 <1>  -0.1600 
 22 O        4.8490    -1.8700    -0.9760 O.3   1 <1>  -0.3630 
 23 O        4.4590     2.0330     0.0630 O.2   1 <1>  -0.5700 
 24 N        6.0260     0.4910    -0.2020 N.am  1 <1>  -0.7300 
 25 C        4.9680    -3.1370    -1.5890 C.3   1 <1>   0.0400 
 26 C        7.1760     1.4120    -0.3760 C.3   1 <1>   0.0600 
 27 H       -2.7860    -0.3790     1.5710 H     1 <1>   0.0800 
 28 H       -2.5560     1.3350     1.7680 H     1 <1>   0.0800 
 29 H       -0.7220     2.4640     0.6810 H     1 <1>   0.0800 
 30 H        0.3730     1.5610    -0.3350 H     1 <1>   0.0800 
 31 H        2.4390     1.2310     1.2390 H     1 <1>   0.1500 
 32 H        0.7020    -2.5920     0.6810 H     1 <1>   0.1500 
 33 H       -1.2040     2.8890    -1.6780 H     1 <1>   0.0800 
 34 H       -1.3550     1.1870    -1.9880 H     1 <1>   0.0800 
 35 H        2.6850    -3.3420    -0.4810 H     1 <1>   0.1500 
 36 H       -5.4910     1.4280    -0.4000 H     1 <1>   0.0800 
 37 H       -3.5960     2.1630    -1.7770 H     1 <1>   0.0800 
 38 H       -3.1690     2.8910    -0.2580 H     1 <1>   0.0800 
 39 H       -3.9000    -0.1960    -1.9980 H     1 <1>   0.0800 
 40 H       -2.5490    -0.9320    -1.1730 H     1 <1>   0.0800 
 41 H       -4.8090     0.9450     2.2820 H     1 <1>   0.4000 
 42 H       -5.5140    -0.8860     1.4570 H     1 <1>   0.0800 
 43 H       -6.4550    -0.5860     0.0070 H     1 <1>   0.0800 
 44 H       -3.9710    -2.0820     0.3100 H     1 <1>   0.0800 
 45 H       -5.0180    -2.0290    -1.0910 H     1 <1>   0.0800 
 46 H        6.1980    -0.5030    -0.3910 H     1 <1>   0.3700 
 47 H        5.9240    -3.1840    -2.0790 H     1 <1>   0.0800 
 48 H        4.1820    -3.2500    -2.3150 H     1 <1>   0.0800 
 49 H        4.9090    -3.9000    -0.8330 H     1 <1>   0.0800 
 50 H        6.8850     2.4230    -0.1470 H     1 <1>   0.0800 
 51 H        7.5220     1.3720    -1.3940 H     1 <1>   0.0800 
 52 H        7.9750     1.1240     0.2840 H     1 <1>   0.0800 
@<TRIPOS>BOND
  1   1   2  2   
  2   1   3  2   
  3   1   4  am  
  4   1   5  1   
  5   4   6  1   
  6   4   7  1   
  7   5   8  ar  
  8   5   9  ar  
  9   6  10  1   
 10   6  27  1   
 11   6  28  1   
 12   7  11  1   
 13   7  29  1   
 14   7  30  1   
 15   8  12  ar  
 16   8  31  1   
 17   9  13  ar  
 18   9  32  1   
 19  10  14  1   
 20  10  15  1   
 21  10  16  1   
 22  11  15  1   
 23  11  33  1   
 24  11  34  1   
 25  12  17  ar  
 26  12  18  1   
 27  13  17  ar  
 28  13  35  1   
 29  14  19  1   
 30  14  20  1   
 31  14  36  1   
 32  15  37  1   
 33  15  38  1   
 34  16  21  1   
 35  16  39  1   
 36  16  40  1   
 37  17  22  1   
 38  18  23  2   
 39  18  24  am  
 40  19  41  1   
 41  20  21  1   
 42  20  42  1   
 43  20  43  1   
 44  21  44  1   
 45  21  45  1   
 46  22  25  1   
 47  24  26  1   
 48  24  46  1   
 49  25  47  1   
 50  25  48  1   
 51  25  49  1   
 52  26  50  1   
 53  26  51  1   
 54  26  52  1   
@<TRIPOS>SUBSTRUCTURE
  1 ****   5 GROUP 4 **** **** 0

# MOE 2024.06 (io_trps.svl 2023.06)
