@<TRIPOS>MOLECULE
NONAME
51 53 1 0 0 
SMALL
USER_CHARGES


@<TRIPOS>ATOM
  1 O        0.3320     1.2040     0.8360 O.2   1 <1>  -0.5700 
  2 C        0.1120     2.3040     0.3870 C.2   1 <1>   0.5690 
  3 N       -0.7610     3.1780     0.9780 N.am  1 <1>  -0.6600 
  4 C        0.8230     2.7120    -0.9040 C.3   1 <1>   0.1810 
  5 C       -1.0550     4.5160     0.3670 C.3   1 <1>   0.3640 
  6 C       -1.4040     2.8980     2.2950 C.3   1 <1>   0.0600 
  7 O        0.9010     4.1070    -1.0620 O.3   1 <1>  -0.5600 
  8 C       -2.5700     4.7600     0.2670 C.ar  1 <1>  -0.1430 
  9 C       -0.3530     4.7660    -0.9930 C.3   1 <1>   0.2610 
 10 C       -3.4840     3.8740    -0.3140 C.ar  1 <1>  -0.1430 
 11 C       -3.0420     5.9570     0.7950 C.ar  1 <1>  -0.1500 
 12 C       -0.1680     6.2720    -1.1970 C.2   1 <1>   0.5690 
 13 C       -4.8320     4.2060    -0.3400 C.ar  1 <1>  -0.1500 
 14 C       -3.0940     2.5320    -0.9240 C.3   1 <1>  -0.0960 
 15 C       -4.3850     6.2770     0.7600 C.ar  1 <1>  -0.1500 
 16 O       -1.0600     6.9310    -1.6710 O.2   1 <1>  -0.5700 
 17 N        1.0020     6.8520    -0.8330 N.am  1 <1>  -0.7300 
 18 C       -5.2840     5.3980     0.1910 C.ar  1 <1>  -0.1500 
 19 C        1.3120     8.2990    -0.9600 C.3   1 <1>   0.3210 
 20 C        2.5140     8.7090    -0.1100 C.2   1 <1>   0.3350 
 21 N        3.2810     7.9150     0.5300 N.2   1 <1>  -0.4100 
 22 N        2.8580     9.9840     0.0170 N.2   1 <1>  -0.5650 
 23 O        4.1800     8.6420     1.1200 O.3   1 <1>  -0.0190 
 24 C        3.8760     9.8700     0.7750 C.2   1 <1>   0.2980 
 25 C        4.7590    11.0000     1.3090 C.3   1 <1>   0.1000 
 26 C        4.1060    12.3830     1.1500 C.3   1 <1>  -0.2400 
 27 C        6.1280    10.9900     0.6150 C.3   1 <1>  -0.2400 
 28 H        0.3050     2.2980    -1.7500 H     1 <1>   0.0800 
 29 H        1.8270     2.3280    -0.8910 H     1 <1>   0.0800 
 30 H       -0.6530     5.2430     1.0510 H     1 <1>   0.0800 
 31 H       -1.1840     3.6930     2.9860 H     1 <1>   0.0800 
 32 H       -1.0380     1.9730     2.7090 H     1 <1>   0.0800 
 33 H       -2.4700     2.8200     2.1750 H     1 <1>   0.0800 
 34 H       -0.9620     4.4010    -1.7980 H     1 <1>   0.0800 
 35 H       -2.3620     6.6650     1.2370 H     1 <1>   0.1500 
 36 H       -5.5480     3.5330    -0.7790 H     1 <1>   0.1500 
 37 H       -3.8960     2.1330    -1.5190 H     1 <1>   0.0800 
 38 H       -2.8760     1.8230    -0.1460 H     1 <1>   0.0800 
 39 H       -2.2370     2.6270    -1.5610 H     1 <1>   0.0800 
 40 H       -4.7290     7.2100     1.1710 H     1 <1>   0.1500 
 41 H        1.7820     6.2640    -0.5160 H     1 <1>   0.3700 
 42 H       -6.3320     5.6410     0.1600 H     1 <1>   0.1500 
 43 H        1.5220     8.5240    -1.9900 H     1 <1>   0.0800 
 44 H        0.4550     8.8750    -0.6580 H     1 <1>   0.0800 
 45 H        4.9080    10.8240     2.3600 H     1 <1>   0.0800 
 46 H        3.9500    12.6080     0.1100 H     1 <1>   0.0800 
 47 H        4.7300    13.1460     1.5800 H     1 <1>   0.0800 
 48 H        3.1530    12.3990     1.6490 H     1 <1>   0.0800 
 49 H        6.0100    11.1510    -0.4420 H     1 <1>   0.0800 
 50 H        6.6130    10.0410     0.7640 H     1 <1>   0.0800 
 51 H        6.7600    11.7630     1.0160 H     1 <1>   0.0800 
@<TRIPOS>BOND
  1   1   2  2   
  2   2   3  am  
  3   2   4  1   
  4   3   5  1   
  5   3   6  1   
  6   4   7  1   
  7   4  28  1   
  8   4  29  1   
  9   5   8  1   
 10   5   9  1   
 11   5  30  1   
 12   6  31  1   
 13   6  32  1   
 14   6  33  1   
 15   7   9  1   
 16   8  10  ar  
 17   8  11  ar  
 18   9  12  1   
 19   9  34  1   
 20  10  13  ar  
 21  10  14  1   
 22  11  15  ar  
 23  11  35  1   
 24  12  16  2   
 25  12  17  am  
 26  13  18  ar  
 27  13  36  1   
 28  14  37  1   
 29  14  38  1   
 30  14  39  1   
 31  15  18  ar  
 32  15  40  1   
 33  17  19  1   
 34  17  41  1   
 35  18  42  1   
 36  19  20  1   
 37  19  43  1   
 38  19  44  1   
 39  20  21  2   
 40  20  22  1   
 41  21  23  1   
 42  22  24  2   
 43  23  24  1   
 44  24  25  1   
 45  25  26  1   
 46  25  27  1   
 47  25  45  1   
 48  26  46  1   
 49  26  47  1   
 50  26  48  1   
 51  27  49  1   
 52  27  50  1   
 53  27  51  1   
@<TRIPOS>SUBSTRUCTURE
  1 ****  12 GROUP 4 **** **** 0

# MOE 2024.06 (io_trps.svl 2023.06)
