@<TRIPOS>MOLECULE
NONAME
54 56 1 0 0 
SMALL
USER_CHARGES


@<TRIPOS>ATOM
  1 O       -0.3210     0.7510    -1.4160 O.2   1 <1>  -0.5700 
  2 C       -0.3010     1.8850    -0.9960 C.2   1 <1>   0.5690 
  3 N       -1.3210     2.4130    -0.2480 N.am  1 <1>  -0.6600 
  4 C        0.9220     2.7360    -1.3460 C.3   1 <1>   0.1810 
  5 C       -1.2750     3.8650     0.1720 C.3   1 <1>   0.3640 
  6 C       -2.3450     1.4950     0.3470 C.3   1 <1>   0.2200 
  7 O        1.0950     3.8310    -0.4830 O.3   1 <1>  -0.5600 
  8 C       -2.5320     4.6140    -0.2740 C.ar  1 <1>  -0.1440 
  9 C       -0.0540     4.6460    -0.3810 C.3   1 <1>   0.2610 
 10 C       -3.6430     1.5230    -0.4560 C.3   1 <1>  -0.2400 
 11 C       -2.6020     1.7850     1.8270 C.3   1 <1>  -0.2400 
 12 C       -3.2050     5.4280     0.6260 C.ar  1 <1>  -0.1500 
 13 C       -3.0010     4.5220    -1.5790 C.ar  1 <1>  -0.1500 
 14 C        0.2330     5.9090     0.4500 C.2   1 <1>   0.5690 
 15 C       -4.3300     6.1310     0.2330 C.ar  1 <1>  -0.1500 
 16 C       -4.1260     5.2240    -1.9730 C.ar  1 <1>  -0.1500 
 17 O       -0.0820     5.9220     1.6220 O.2   1 <1>  -0.5700 
 18 N        0.8270     7.0030    -0.1420 N.am  1 <1>  -0.5090 
 19 C       -4.7920     6.0290    -1.0670 C.ar  1 <1>  -0.1500 
 20 C        0.9010     8.3120     0.5590 C.3   1 <1>   0.0540 
 21 C        1.5450     6.9520    -1.4450 C.3   1 <1>   0.0600 
 22 C       -0.4060     8.9880     0.8450 C.3   1 <1>  -0.2000 
 23 C        0.4850     9.5280    -0.2250 C.3   1 <1>  -0.2000 
 24 C        1.9950     8.3250     1.6510 C.3   1 <1>   0.2150 
 25 O        2.3510     9.6270     2.0280 O.3   1 <1>  -0.5600 
 26 C        3.4570    10.1450     1.3610 C.3   1 <1>   0.0400 
 27 H        0.8310     3.1000    -2.3520 H     1 <1>   0.0800 
 28 H        1.8040     2.1270    -1.2770 H     1 <1>   0.0800 
 29 H       -1.2170     3.8850     1.2450 H     1 <1>   0.0800 
 30 H       -1.9630     0.4880     0.2930 H     1 <1>   0.0800 
 31 H       -0.2950     4.9710    -1.3760 H     1 <1>   0.0800 
 32 H       -4.1740     2.4440    -0.3090 H     1 <1>   0.0800 
 33 H       -4.2810     0.7200    -0.1350 H     1 <1>   0.0800 
 34 H       -3.4320     1.3870    -1.5020 H     1 <1>   0.0800 
 35 H       -3.1040     2.7260     1.9590 H     1 <1>   0.0800 
 36 H       -1.6760     1.7840     2.3730 H     1 <1>   0.0800 
 37 H       -3.2320     1.0160     2.2370 H     1 <1>   0.0800 
 38 H       -2.8520     5.5260     1.6400 H     1 <1>   0.1500 
 39 H       -2.4970     3.8920    -2.2920 H     1 <1>   0.1500 
 40 H       -4.8440     6.7600     0.9390 H     1 <1>   0.1500 
 41 H       -4.4860     5.1410    -2.9840 H     1 <1>   0.1500 
 42 H       -5.6680     6.5750    -1.3720 H     1 <1>   0.1500 
 43 H        2.3760     7.6360    -1.4290 H     1 <1>   0.0800 
 44 H        0.8750     7.2350    -2.2380 H     1 <1>   0.0800 
 45 H        1.9270     5.9650    -1.6320 H     1 <1>   0.0800 
 46 H       -1.3140     8.4780     0.5770 H     1 <1>   0.1000 
 47 H       -0.5030     9.5540     1.7550 H     1 <1>   0.1000 
 48 H        0.9390    10.4830    -0.0340 H     1 <1>   0.1000 
 49 H        0.1510     9.4290    -1.2420 H     1 <1>   0.1000 
 50 H        2.8740     7.8020     1.3150 H     1 <1>   0.0800 
 51 H        1.6180     7.8290     2.5280 H     1 <1>   0.0800 
 52 H        3.5870    11.1670     1.6720 H     1 <1>   0.0800 
 53 H        3.2880    10.1070     0.2990 H     1 <1>   0.0800 
 54 H        4.3290     9.5730     1.6260 H     1 <1>   0.0800 
@<TRIPOS>BOND
  1   1   2  2   
  2   2   3  am  
  3   2   4  1   
  4   3   5  1   
  5   3   6  1   
  6   4   7  1   
  7   4  27  1   
  8   4  28  1   
  9   5   8  1   
 10   5   9  1   
 11   5  29  1   
 12   6  10  1   
 13   6  11  1   
 14   6  30  1   
 15   7   9  1   
 16   8  12  ar  
 17   8  13  ar  
 18   9  14  1   
 19   9  31  1   
 20  10  32  1   
 21  10  33  1   
 22  10  34  1   
 23  11  35  1   
 24  11  36  1   
 25  11  37  1   
 26  12  15  ar  
 27  12  38  1   
 28  13  16  ar  
 29  13  39  1   
 30  14  17  2   
 31  14  18  am  
 32  15  19  ar  
 33  15  40  1   
 34  16  19  ar  
 35  16  41  1   
 36  18  20  1   
 37  18  21  1   
 38  19  42  1   
 39  20  22  1   
 40  20  23  1   
 41  20  24  1   
 42  21  43  1   
 43  21  44  1   
 44  21  45  1   
 45  22  23  1   
 46  22  46  1   
 47  22  47  1   
 48  23  48  1   
 49  23  49  1   
 50  24  25  1   
 51  24  50  1   
 52  24  51  1   
 53  25  26  1   
 54  26  52  1   
 55  26  53  1   
 56  26  54  1   
@<TRIPOS>SUBSTRUCTURE
  1 ****   9 GROUP 4 **** **** 0

# MOE 2024.06 (io_trps.svl 2023.06)
