@<TRIPOS>MOLECULE
NONAME
53 54 1 0 0 
SMALL
USER_CHARGES


@<TRIPOS>ATOM
  1 O       -1.8900    -3.7570    -1.6910 O.2   1 <1>  -0.5700 
  2 C       -0.9880    -2.9390    -1.6450 C.2   1 <1>   0.5440 
  3 N       -1.2290    -1.7570    -2.2580 N.am  1 <1>  -0.8000 
  4 C        0.2650    -3.2070    -0.9710 C.ar  1 <1>   0.0860 
  5 C        0.8380    -4.4910    -0.9760 C.ar  1 <1>   0.4100 
  6 C        0.9380    -2.2140    -0.2720 C.ar  1 <1>  -0.1500 
  7 N        1.9510    -4.8130    -0.3330 N.ar  1 <1>  -0.6200 
  8 N        0.2380    -5.5160    -1.6670 N.pl3 1 <1>  -0.8690 
  9 C        2.1090    -2.5350     0.3800 C.ar  1 <1>  -0.1430 
 10 C        2.5690    -3.8480     0.3170 C.ar  1 <1>   0.1670 
 11 C        0.5450    -6.9750    -1.5450 C.3   1 <1>   0.2090 
 12 C        2.8550    -1.4500     1.1470 C.3   1 <1>  -0.0970 
 13 C        3.8520    -4.2590     1.0180 C.3   1 <1>  -0.0970 
 14 C       -0.2350    -7.7340    -0.4160 C.3   1 <1>   0.5030 
 15 N       -1.6530    -7.2760    -0.2220 N.4   1 <1>  -0.9590 
 16 C        0.5140    -7.6300     0.9210 C.3   1 <1>  -0.2400 
 17 C       -0.3050    -9.2240    -0.7730 C.3   1 <1>  -0.2400 
 18 C       -2.4850    -7.1800    -1.4700 C.3   1 <1>   0.3430 
 19 C       -1.8350    -6.0070     0.5740 C.3   1 <1>   0.3430 
 20 C       -3.9830    -6.9870    -1.1320 C.3   1 <1>   0.1100 
 21 C       -3.3310    -5.6780     0.7930 C.3   1 <1>   0.1100 
 22 N       -4.2130    -6.7670     0.3150 N.3   1 <1>  -0.8100 
 23 C       -5.6230    -6.4650     0.5860 C.3   1 <1>   0.0300 
 24 H       -2.1150    -1.6150    -2.7460 H     1 <1>   0.3700 
 25 H       -0.5170    -1.0410    -2.4070 H     1 <1>   0.3700 
 26 H        0.5430    -1.2140    -0.2350 H     1 <1>   0.1500 
 27 H       -0.6480    -5.2620    -2.1250 H     1 <1>   0.4000 
 28 H        1.6030    -7.1060    -1.3920 H     1 <1>   0.0800 
 29 H        0.3240    -7.4330    -2.4930 H     1 <1>   0.0800 
 30 H        2.3040    -0.5270     1.1490 H     1 <1>   0.0800 
 31 H        3.8130    -1.2690     0.6930 H     1 <1>   0.0800 
 32 H        3.0050    -1.7510     2.1690 H     1 <1>   0.0800 
 33 H        4.1260    -5.2620     0.7430 H     1 <1>   0.0800 
 34 H        3.7140    -4.2240     2.0830 H     1 <1>   0.0800 
 35 H        4.6560    -3.6040     0.7400 H     1 <1>   0.0800 
 36 H       -2.1490    -7.9720     0.3480 H     1 <1>   0.4500 
 37 H        0.6780    -6.6060     1.2010 H     1 <1>   0.0800 
 38 H        1.4850    -8.0840     0.8350 H     1 <1>   0.0800 
 39 H       -0.0200    -8.1340     1.7070 H     1 <1>   0.0800 
 40 H       -0.7890    -9.3840    -1.7190 H     1 <1>   0.0800 
 41 H       -0.8280    -9.7770    -0.0130 H     1 <1>   0.0800 
 42 H        0.6880    -9.6300    -0.8490 H     1 <1>   0.0800 
 43 H       -2.3760    -8.0680    -2.0680 H     1 <1>   0.0800 
 44 H       -2.1560    -6.3420    -2.0610 H     1 <1>   0.0800 
 45 H       -1.3650    -5.1790     0.0770 H     1 <1>   0.0800 
 46 H       -1.3700    -6.1100     1.5380 H     1 <1>   0.0800 
 47 H       -4.5290    -7.8600    -1.4460 H     1 <1>   0.0800 
 48 H       -4.3580    -6.1490    -1.6960 H     1 <1>   0.0800 
 49 H       -3.5660    -4.7620     0.2750 H     1 <1>   0.0800 
 50 H       -3.5000    -5.5080     1.8430 H     1 <1>   0.0800 
 51 H       -6.2450    -7.2770     0.2480 H     1 <1>   0.0800 
 52 H       -5.9240    -5.5610     0.0840 H     1 <1>   0.0800 
 53 H       -5.7760    -6.3440     1.6460 H     1 <1>   0.0800 
@<TRIPOS>BOND
  1   1   2  2   
  2   2   3  am  
  3   2   4  1   
  4   3  24  1   
  5   3  25  1   
  6   4   5  ar  
  7   4   6  ar  
  8   5   7  ar  
  9   5   8  1   
 10   6   9  ar  
 11   6  26  1   
 12   7  10  ar  
 13   8  11  1   
 14   8  27  1   
 15   9  10  ar  
 16   9  12  1   
 17  10  13  1   
 18  11  14  1   
 19  11  28  1   
 20  11  29  1   
 21  12  30  1   
 22  12  31  1   
 23  12  32  1   
 24  13  33  1   
 25  13  34  1   
 26  13  35  1   
 27  14  15  1   
 28  14  16  1   
 29  14  17  1   
 30  15  18  1   
 31  15  19  1   
 32  15  36  1   
 33  16  37  1   
 34  16  38  1   
 35  16  39  1   
 36  17  40  1   
 37  17  41  1   
 38  17  42  1   
 39  18  20  1   
 40  18  43  1   
 41  18  44  1   
 42  19  21  1   
 43  19  45  1   
 44  19  46  1   
 45  20  22  1   
 46  20  47  1   
 47  20  48  1   
 48  21  22  1   
 49  21  49  1   
 50  21  50  1   
 51  22  23  1   
 52  23  51  1   
 53  23  52  1   
 54  23  53  1   
@<TRIPOS>SUBSTRUCTURE
  1 ****   8 GROUP 4 **** **** 0

# MOE 2024.06 (io_trps.svl 2023.06)
