@<TRIPOS>MOLECULE
NONAME
55 58 1 0 0 
SMALL
USER_CHARGES


@<TRIPOS>ATOM
  1 O       -1.7770     0.2270     1.8260 O.2   1 <1>  -0.5700 
  2 C       -2.0190     0.5840     0.6850 C.2   1 <1>   0.7160 
  3 N       -2.9180    -0.1560    -0.0450 N.am  1 <1>  -0.6600 
  4 C       -1.3730     1.7680     0.1460 C.2   1 <1>   0.1410 
  5 C       -2.8860    -1.6510     0.0660 C.3   1 <1>   0.3640 
  6 C       -4.1740     0.4730    -0.5360 C.3   1 <1>   0.1400 
  7 N       -1.5090     2.1990    -1.1290 N.2   1 <1>  -0.2270 
  8 C       -0.5370     2.6260     0.7710 C.2   1 <1>  -0.3020 
  9 C       -1.4540    -2.1080    -0.2360 C.ar  1 <1>  -0.1440 
 10 C       -3.8750    -2.3880    -0.8920 C.3   1 <1>   0.2000 
 11 C       -4.8180    -0.3670    -1.6380 C.3   1 <1>   0.1200 
 12 N       -0.8050     3.2590    -1.2830 N.2   1 <1>  -0.4180 
 13 N       -0.1800     3.5490    -0.1250 N.pl3 1 <1>   0.5930 
 14 C       -0.7640    -2.8900     0.6790 C.ar  1 <1>  -0.1500 
 15 C       -0.8240    -1.7460    -1.4220 C.ar  1 <1>  -0.1500 
 16 O       -5.0420    -1.6520    -1.1540 O.3   1 <1>  -0.5600 
 17 C       -4.3470    -3.7460    -0.3460 C.3   1 <1>   0.1200 
 18 C        0.6930     4.6610     0.0640 C.ar  1 <1>  -0.0230 
 19 C        0.5260    -3.3200     0.4160 C.ar  1 <1>   0.0830 
 20 C        0.4700    -2.1590    -1.6880 C.ar  1 <1>  -0.1500 
 21 O       -3.2830    -4.5770    -0.0100 O.3   1 <1>  -0.6800 
 22 C        0.5100     5.8380    -0.6590 C.ar  1 <1>  -0.1500 
 23 C        1.7470     4.6000     0.9740 C.ar  1 <1>  -0.1500 
 24 O        1.1230    -4.1140     1.3370 O.3   1 <1>  -0.3630 
 25 C        1.1570    -2.9360    -0.7710 C.ar  1 <1>   0.0830 
 26 C        1.3490     6.9220    -0.4740 C.ar  1 <1>  -0.1500 
 27 C        2.5860     5.6850     1.1600 C.ar  1 <1>  -0.1500 
 28 C        1.3040    -5.4610     0.9630 C.3   1 <1>   0.0400 
 29 O        2.4300    -3.2870    -1.0780 O.3   1 <1>  -0.3630 
 30 C        2.3870     6.8470     0.4360 C.ar  1 <1>  -0.1500 
 31 C        3.4410    -2.7740    -0.2390 C.3   1 <1>   0.0400 
 32 H       -3.1360    -1.9140     1.0800 H     1 <1>   0.0800 
 33 H       -4.8660     0.5640     0.2840 H     1 <1>   0.0800 
 34 H       -3.9760     1.4600    -0.9130 H     1 <1>   0.0800 
 35 H       -0.1940     2.6130     1.7870 H     1 <1>   0.1500 
 36 H       -3.3960    -2.5520    -1.8410 H     1 <1>   0.0800 
 37 H       -4.1870    -0.4150    -2.5100 H     1 <1>   0.0800 
 38 H       -5.7690     0.0520    -1.9160 H     1 <1>   0.0800 
 39 H       -1.2250    -3.1810     1.6070 H     1 <1>   0.1500 
 40 H       -1.3360    -1.1280    -2.1400 H     1 <1>   0.1500 
 41 H       -4.9420    -4.2530    -1.0850 H     1 <1>   0.0800 
 42 H       -4.9350    -3.6010     0.5440 H     1 <1>   0.0800 
 43 H        0.9560    -1.8730    -2.6030 H     1 <1>   0.1500 
 44 H       -2.6680    -4.6920    -0.7620 H     1 <1>   0.4000 
 45 H       -0.2940     5.9090    -1.3730 H     1 <1>   0.1500 
 46 H        1.9230     3.7030     1.5420 H     1 <1>   0.1500 
 47 H        1.1940     7.8250    -1.0410 H     1 <1>   0.1500 
 48 H        3.3960     5.6260     1.8670 H     1 <1>   0.1500 
 49 H        1.7360    -5.9860     1.7950 H     1 <1>   0.0800 
 50 H        1.9630    -5.5090     0.1140 H     1 <1>   0.0800 
 51 H        0.3450    -5.8830     0.7180 H     1 <1>   0.0800 
 52 H        3.0400     7.6910     0.5800 H     1 <1>   0.1500 
 53 H        4.3940    -3.0040    -0.6810 H     1 <1>   0.0800 
 54 H        3.3680    -3.2320     0.7300 H     1 <1>   0.0800 
 55 H        3.3180    -1.7080    -0.1590 H     1 <1>   0.0800 
@<TRIPOS>BOND
  1   1   2  2   
  2   2   3  am  
  3   2   4  1   
  4   3   5  1   
  5   3   6  1   
  6   4   7  1   
  7   4   8  2   
  8   5   9  1   
  9   5  10  1   
 10   5  32  1   
 11   6  11  1   
 12   6  33  1   
 13   6  34  1   
 14   7  12  2   
 15   8  13  1   
 16   8  35  1   
 17   9  14  ar  
 18   9  15  ar  
 19  10  16  1   
 20  10  17  1   
 21  10  36  1   
 22  11  16  1   
 23  11  37  1   
 24  11  38  1   
 25  12  13  1   
 26  13  18  1   
 27  14  19  ar  
 28  14  39  1   
 29  15  20  ar  
 30  15  40  1   
 31  17  21  1   
 32  17  41  1   
 33  17  42  1   
 34  18  22  ar  
 35  18  23  ar  
 36  19  24  1   
 37  19  25  ar  
 38  20  25  ar  
 39  20  43  1   
 40  21  44  1   
 41  22  26  ar  
 42  22  45  1   
 43  23  27  ar  
 44  23  46  1   
 45  24  28  1   
 46  25  29  1   
 47  26  30  ar  
 48  26  47  1   
 49  27  30  ar  
 50  27  48  1   
 51  28  49  1   
 52  28  50  1   
 53  28  51  1   
 54  29  31  1   
 55  30  52  1   
 56  31  53  1   
 57  31  54  1   
 58  31  55  1   
@<TRIPOS>SUBSTRUCTURE
  1 ****   2 GROUP 4 **** **** 0

# MOE 2024.06 (io_trps.svl 2023.06)
