@<TRIPOS>MOLECULE
NONAME
50 51 1 0 0 
SMALL
USER_CHARGES


@<TRIPOS>ATOM
  1 O        1.0710     0.4230     0.9270 O.2   1 <1>  -0.5700 
  2 C        1.6700    -0.1180     0.0190 C.2   1 <1>   0.5440 
  3 N        2.2280     0.6650    -0.9530 N.am  1 <1>  -0.7300 
  4 C        1.7850    -1.5650    -0.0400 C.ar  1 <1>   0.0860 
  5 C        2.0810     2.1380    -1.0450 C.3   1 <1>   0.1400 
  6 C        0.7840    -2.3830     0.4810 C.ar  1 <1>  -0.1500 
  7 C        2.8920    -2.1950    -0.6150 C.ar  1 <1>  -0.1500 
  8 C        3.0780     2.8170    -0.1030 C.3   1 <1>  -0.0990 
  9 C        0.8630    -3.7630     0.4240 C.ar  1 <1>   0.0830 
 10 C        2.9850    -3.5740    -0.6780 C.ar  1 <1>  -0.1500 
 11 C        3.0950     4.3290    -0.2560 C.2   1 <1>   0.5690 
 12 O       -0.1730    -4.4570     0.9570 O.3   1 <1>  -0.3630 
 13 C        1.9740    -4.3630    -0.1620 C.ar  1 <1>  -0.1500 
 14 O        2.3150     4.8420    -1.0240 O.2   1 <1>  -0.5700 
 15 N        3.9920     5.0790     0.4580 N.am  1 <1>  -0.6600 
 16 C       -0.1800    -5.8670     0.9820 C.3   1 <1>   0.0400 
 17 C        4.1360     6.5510     0.1830 C.3   1 <1>   0.3210 
 18 C        4.9040     4.5410     1.5100 C.3   1 <1>   0.0600 
 19 C        5.5630     6.9550    -0.1890 C.2   1 <1>   0.3350 
 20 N        5.9970     7.0950    -1.3790 N.2   1 <1>  -0.4100 
 21 N        6.4840     7.2100     0.7380 N.2   1 <1>  -0.5650 
 22 O        7.2430     7.4470    -1.2970 O.3   1 <1>  -0.0190 
 23 C        7.4750     7.4990    -0.0080 C.2   1 <1>   0.2980 
 24 C        8.8670     7.8910     0.4800 C.3   1 <1>   0.1000 
 25 C        9.2390     9.3070     0.0200 C.3   1 <1>  -0.2400 
 26 C        9.9230     6.8810     0.0100 C.3   1 <1>  -0.2400 
 27 H        2.6270     0.2140    -1.7770 H     1 <1>   0.3700 
 28 H        1.0770     2.4210    -0.7740 H     1 <1>   0.0800 
 29 H        2.2580     2.4520    -2.0600 H     1 <1>   0.0800 
 30 H       -0.0770    -1.9310     0.9400 H     1 <1>   0.1500 
 31 H        3.6950    -1.6000    -1.0100 H     1 <1>   0.1500 
 32 H        4.0640     2.4460    -0.3060 H     1 <1>   0.0800 
 33 H        2.8060     2.5770     0.9080 H     1 <1>   0.0800 
 34 H        3.8480    -4.0370    -1.1270 H     1 <1>   0.1500 
 35 H        2.0660    -5.4300    -0.2230 H     1 <1>   0.1500 
 36 H       -1.0880    -6.1870     1.4590 H     1 <1>   0.0800 
 37 H        0.6700    -6.2110     1.5450 H     1 <1>   0.0800 
 38 H       -0.1490    -6.2340    -0.0290 H     1 <1>   0.0800 
 39 H        3.8380     7.1000     1.0570 H     1 <1>   0.0800 
 40 H        3.4890     6.8490    -0.6220 H     1 <1>   0.0800 
 41 H        4.5240     3.6260     1.9280 H     1 <1>   0.0800 
 42 H        5.0050     5.2560     2.3080 H     1 <1>   0.0800 
 43 H        5.8770     4.3580     1.0860 H     1 <1>   0.0800 
 44 H        8.8490     7.8810     1.5570 H     1 <1>   0.0800 
 45 H        9.2820     9.3570    -1.0540 H     1 <1>   0.0800 
 46 H       10.1970     9.5910     0.4180 H     1 <1>   0.0800 
 47 H        8.5030    10.0100     0.3660 H     1 <1>   0.0800 
 48 H        9.9830     6.8690    -1.0640 H     1 <1>   0.0800 
 49 H        9.6640     5.8940     0.3500 H     1 <1>   0.0800 
 50 H       10.8890     7.1360     0.4080 H     1 <1>   0.0800 
@<TRIPOS>BOND
  1   1   2  2   
  2   2   3  am  
  3   2   4  1   
  4   3   5  1   
  5   3  27  1   
  6   4   6  ar  
  7   4   7  ar  
  8   5   8  1   
  9   5  28  1   
 10   5  29  1   
 11   6   9  ar  
 12   6  30  1   
 13   7  10  ar  
 14   7  31  1   
 15   8  11  1   
 16   8  32  1   
 17   8  33  1   
 18   9  12  1   
 19   9  13  ar  
 20  10  13  ar  
 21  10  34  1   
 22  11  14  2   
 23  11  15  am  
 24  12  16  1   
 25  13  35  1   
 26  15  17  1   
 27  15  18  1   
 28  16  36  1   
 29  16  37  1   
 30  16  38  1   
 31  17  19  1   
 32  17  39  1   
 33  17  40  1   
 34  18  41  1   
 35  18  42  1   
 36  18  43  1   
 37  19  20  2   
 38  19  21  1   
 39  20  22  1   
 40  21  23  2   
 41  22  23  1   
 42  23  24  1   
 43  24  25  1   
 44  24  26  1   
 45  24  44  1   
 46  25  45  1   
 47  25  46  1   
 48  25  47  1   
 49  26  48  1   
 50  26  49  1   
 51  26  50  1   
@<TRIPOS>SUBSTRUCTURE
  1 ****   8 GROUP 4 **** **** 0

# MOE 2024.06 (io_trps.svl 2023.06)
