@<TRIPOS>MOLECULE
NONAME
43 44 1 0 0 
SMALL
USER_CHARGES


@<TRIPOS>ATOM
  1 O       -1.0530    -0.0110     2.1020 O.2   1 <1>  -0.5700 
  2 C       -1.5350     0.4810     1.1090 C.2   1 <1>   0.5690 
  3 N       -1.9940    -0.3030     0.0770 N.am  1 <1>  -0.6600 
  4 C       -1.6230     2.0020     1.0900 C.3   1 <1>  -0.0990 
  5 C       -2.0090    -1.7810     0.2380 C.3   1 <1>   0.3200 
  6 C       -2.5380     0.2170    -1.2190 C.3   1 <1>   0.1400 
  7 C       -0.2570     2.6810     0.8720 C.3   1 <1>  -0.0800 
  8 C       -3.3820    -2.1950     0.7290 C.2   1 <1>  -0.3320 
  9 C       -4.0750     0.3050    -1.2520 C.3   1 <1>   0.1200 
 10 C       -0.3870     4.2050     1.0320 C.3   1 <1>   0.1200 
 11 C        0.3520     2.3460    -0.5000 C.3   1 <1>  -0.1600 
 12 N       -4.2410    -3.0180     0.0950 N.pl3 1 <1>   0.0480 
 13 C       -3.9870    -1.8170     1.8770 C.2   1 <1>   0.0770 
 14 O       -4.5640     0.8570    -0.0800 O.3   1 <1>  -0.6800 
 15 O        0.8520     4.8150     0.8260 O.3   1 <1>  -0.5600 
 16 C        1.6350     3.1580    -0.7100 C.3   1 <1>  -0.1600 
 17 C       -5.3250    -3.0660     0.9030 C.2   1 <1>   0.0360 
 18 C       -4.0590    -3.7370    -1.1780 C.3   1 <1>   0.0160 
 19 N       -5.2140    -2.3560     1.9780 N.2   1 <1>  -0.5650 
 20 C        1.3840     4.6490    -0.4520 C.3   1 <1>   0.1200 
 21 H       -2.0010     2.3000     2.0510 H     1 <1>   0.0800 
 22 H       -2.3350     2.3470     0.3660 H     1 <1>   0.0800 
 23 H       -1.2670    -2.0910     0.9550 H     1 <1>   0.0800 
 24 H       -1.7710    -2.2520    -0.6980 H     1 <1>   0.0800 
 25 H       -2.2090    -0.4180    -2.0220 H     1 <1>   0.0800 
 26 H       -2.1380     1.1910    -1.4240 H     1 <1>   0.0800 
 27 H        0.4120     2.3320     1.6410 H     1 <1>   0.0800 
 28 H       -4.5140    -0.6690    -1.3680 H     1 <1>   0.0800 
 29 H       -4.3940     0.9260    -2.0700 H     1 <1>   0.0800 
 30 H       -0.7060     4.4520     2.0300 H     1 <1>   0.0800 
 31 H       -1.0910     4.6150     0.3290 H     1 <1>   0.0800 
 32 H       -0.3460     2.5990    -1.2780 H     1 <1>   0.0800 
 33 H        0.5750     1.2950    -0.5660 H     1 <1>   0.0800 
 34 H       -3.5910    -1.1710     2.6450 H     1 <1>   0.1500 
 35 H       -4.4210     0.2190     0.6550 H     1 <1>   0.4000 
 36 H        1.9970     3.0220    -1.7130 H     1 <1>   0.0800 
 37 H        2.4000     2.8160    -0.0340 H     1 <1>   0.0800 
 38 H       -6.1940    -3.6500     0.6590 H     1 <1>   0.1500 
 39 H       -3.2370    -4.4240    -1.0820 H     1 <1>   0.0800 
 40 H       -3.8540    -3.0330    -1.9620 H     1 <1>   0.0800 
 41 H       -4.9530    -4.2840    -1.4150 H     1 <1>   0.0800 
 42 H        2.3060     5.2010    -0.4970 H     1 <1>   0.0800 
 43 H        0.6930     5.0590    -1.1680 H     1 <1>   0.0800 
@<TRIPOS>BOND
  1   1   2  2   
  2   2   3  am  
  3   2   4  1   
  4   3   5  1   
  5   3   6  1   
  6   4   7  1   
  7   4  21  1   
  8   4  22  1   
  9   5   8  1   
 10   5  23  1   
 11   5  24  1   
 12   6   9  1   
 13   6  25  1   
 14   6  26  1   
 15   7  10  1   
 16   7  11  1   
 17   7  27  1   
 18   8  12  1   
 19   8  13  2   
 20   9  14  1   
 21   9  28  1   
 22   9  29  1   
 23  10  15  1   
 24  10  30  1   
 25  10  31  1   
 26  11  16  1   
 27  11  32  1   
 28  11  33  1   
 29  12  17  1   
 30  12  18  1   
 31  13  19  1   
 32  13  34  1   
 33  14  35  1   
 34  15  20  1   
 35  16  20  1   
 36  16  36  1   
 37  16  37  1   
 38  17  19  2   
 39  17  38  1   
 40  18  39  1   
 41  18  40  1   
 42  18  41  1   
 43  20  42  1   
 44  20  43  1   
@<TRIPOS>SUBSTRUCTURE
  1 ****   3 GROUP 4 **** **** 0

# MOE 2024.06 (io_trps.svl 2023.06)
