@<TRIPOS>MOLECULE
NONAME
49 50 1 0 0 
SMALL
USER_CHARGES


@<TRIPOS>ATOM
  1 S        0.7530     0.2080     0.7140 S.o2  1 <1>   1.3330 
  2 O        1.9390     0.3450     1.5290 O.2   1 <1>  -0.6500 
  3 O       -0.5520     0.2390     1.3340 O.2   1 <1>  -0.6500 
  4 N        0.8930    -1.2340    -0.1700 N.am  1 <1>  -0.8490 
  5 C        0.7770     1.4640    -0.5620 C.3   1 <1>  -0.0550 
  6 C        0.2440    -2.3630     0.5030 C.3   1 <1>   0.1160 
  7 C        2.2780    -1.5810    -0.5050 C.3   1 <1>   0.1160 
  8 C        0.5110     2.8820    -0.0270 C.3   1 <1>  -0.0800 
  9 C        0.4940     3.9230    -1.1430 C.3   1 <1>   0.2000 
 10 C        1.5690     3.3960     0.9530 C.3   1 <1>   0.1400 
 11 O       -0.7550     3.9590    -1.7390 O.3   1 <1>  -0.6800 
 12 C        0.8470     5.2490    -0.4740 C.3   1 <1>   0.1400 
 13 N        1.6200     4.8600     0.7310 N.am  1 <1>  -0.6600 
 14 C        2.3930     5.7080     1.4890 C.2   1 <1>   0.5440 
 15 O        3.0060     5.2490     2.4330 O.2   1 <1>  -0.5700 
 16 C        2.5060     7.1120     1.1740 C.ar  1 <1>   0.0860 
 17 C        3.2090     7.5950     0.0580 C.ar  1 <1>   0.0820 
 18 C        1.8730     8.0450     1.9960 C.ar  1 <1>  -0.1500 
 19 O        3.8940     6.8030    -0.8000 O.3   1 <1>  -0.3630 
 20 C        3.2220     8.9520    -0.2290 C.ar  1 <1>  -0.1500 
 21 C        1.9020     9.3980     1.7130 C.ar  1 <1>  -0.1500 
 22 C        4.7930     5.8270    -0.3130 C.3   1 <1>   0.2580 
 23 C        2.5740     9.8530     0.5930 C.ar  1 <1>  -0.1500 
 24 C        5.8200     5.5610    -1.3950 C.2   1 <1>  -0.2880 
 25 C        7.1450     5.6550    -1.2430 C.2   1 <1>  -0.3000 
 26 H        1.7240     1.4440    -1.0650 H     1 <1>   0.0800 
 27 H        0.0190     1.2300    -1.2850 H     1 <1>   0.0800 
 28 H        0.3370    -3.2560    -0.0910 H     1 <1>   0.0800 
 29 H       -0.8050    -2.1580     0.6400 H     1 <1>   0.0800 
 30 H        0.6920    -2.5300     1.4690 H     1 <1>   0.0800 
 31 H        2.2980    -2.4530    -1.1370 H     1 <1>   0.0800 
 32 H        2.8420    -1.7850     0.3910 H     1 <1>   0.0800 
 33 H        2.7480    -0.7690    -1.0320 H     1 <1>   0.0800 
 34 H       -0.4340     2.8960     0.4910 H     1 <1>   0.0800 
 35 H        1.2250     3.6980    -1.9020 H     1 <1>   0.0800 
 36 H        2.5390     2.9770     0.7410 H     1 <1>   0.0800 
 37 H        1.3080     3.1750     1.9760 H     1 <1>   0.0800 
 38 H       -1.4490     4.1250    -1.0710 H     1 <1>   0.4000 
 39 H       -0.0390     5.7770    -0.1690 H     1 <1>   0.0800 
 40 H        1.4380     5.8590    -1.1330 H     1 <1>   0.0800 
 41 H        1.3500     7.6930     2.8690 H     1 <1>   0.1500 
 42 H        3.7520     9.2970    -1.0990 H     1 <1>   0.1500 
 43 H        1.4030    10.0970     2.3620 H     1 <1>   0.1500 
 44 H        5.2580     6.1950     0.5860 H     1 <1>   0.0800 
 45 H        4.2460     4.9260    -0.1000 H     1 <1>   0.0800 
 46 H        2.5940    10.9050     0.3650 H     1 <1>   0.1500 
 47 H        5.3600     5.2810    -2.3270 H     1 <1>   0.1500 
 48 H        7.8530     5.4610    -2.0300 H     1 <1>   0.1500 
 49 H        7.6330     5.9350    -0.3250 H     1 <1>   0.1500 
@<TRIPOS>BOND
  1   1   2  2   
  2   1   3  2   
  3   1   4  am  
  4   1   5  1   
  5   4   6  1   
  6   4   7  1   
  7   5   8  1   
  8   5  26  1   
  9   5  27  1   
 10   6  28  1   
 11   6  29  1   
 12   6  30  1   
 13   7  31  1   
 14   7  32  1   
 15   7  33  1   
 16   8   9  1   
 17   8  10  1   
 18   8  34  1   
 19   9  11  1   
 20   9  12  1   
 21   9  35  1   
 22  10  13  1   
 23  10  36  1   
 24  10  37  1   
 25  11  38  1   
 26  12  13  1   
 27  12  39  1   
 28  12  40  1   
 29  13  14  am  
 30  14  15  2   
 31  14  16  1   
 32  16  17  ar  
 33  16  18  ar  
 34  17  19  1   
 35  17  20  ar  
 36  18  21  ar  
 37  18  41  1   
 38  19  22  1   
 39  20  23  ar  
 40  20  42  1   
 41  21  23  ar  
 42  21  43  1   
 43  22  24  1   
 44  22  44  1   
 45  22  45  1   
 46  23  46  1   
 47  24  25  2   
 48  24  47  1   
 49  25  48  1   
 50  25  49  1   
@<TRIPOS>SUBSTRUCTURE
  1 ****  13 GROUP 4 **** **** 0

# MOE 2024.06 (io_trps.svl 2023.06)
