@<TRIPOS>MOLECULE
NONAME
58 61 1 0 0 
SMALL
USER_CHARGES


@<TRIPOS>ATOM
  1 O       -0.9780    -1.4060     1.8500 O.3   1 <1>  -0.5600 
  2 C        0.3050    -1.8910     1.5910 C.3   1 <1>   0.1200 
  3 C       -1.9300    -1.7480     0.8830 C.3   1 <1>   0.1200 
  4 C        0.2950    -3.4300     1.5390 C.3   1 <1>   0.2090 
  5 C       -2.0680    -3.2770     0.7730 C.3   1 <1>   0.2090 
  6 N       -0.7310    -3.9350     0.5610 N.pl3 1 <1>  -0.8380 
  7 C       -0.6170    -5.0480    -0.2130 C.ar  1 <1>   0.7710 
  8 N       -1.6800    -5.7860    -0.4400 N.ar  1 <1>  -0.6200 
  9 N        0.5920    -5.3490    -0.7280 N.ar  1 <1>  -0.1790 
 10 C       -1.5280    -6.8660    -1.1970 C.ar  1 <1>   0.4100 
 11 C        0.7920    -6.4390    -1.4880 C.ar  1 <1>   0.4610 
 12 N       -2.6430    -7.6090    -1.4210 N.pl3 1 <1>  -0.8380 
 13 C       -0.3010    -7.2270    -1.7290 C.ar  1 <1>  -0.1500 
 14 N        2.0300    -6.7020    -1.9750 N.pl3 1 <1>  -0.9000 
 15 C       -2.7860    -8.9910    -0.8860 C.3   1 <1>   0.2090 
 16 C       -3.9140    -6.9650    -1.8640 C.3   1 <1>   0.2090 
 17 C       -3.8270    -9.0250     0.2670 C.3   1 <1>   0.4230 
 18 C       -4.9080    -6.9700    -0.7000 C.3   1 <1>  -0.1600 
 19 N       -3.9590   -10.3850     0.9500 N.4   1 <1>  -0.9590 
 20 C       -5.1920    -8.3910    -0.1390 C.3   1 <1>   0.0000 
 21 C       -5.2080   -10.5390     1.7690 C.3   1 <1>   0.3430 
 22 C       -3.8050   -11.5790     0.0550 C.3   1 <1>   0.2630 
 23 C       -6.0940    -8.2470     1.1230 C.3   1 <1>  -0.1600 
 24 C       -5.8960    -9.2700    -1.2120 C.3   1 <1>   0.1200 
 25 C       -5.7000    -9.1860     2.2780 C.3   1 <1>  -0.1600 
 26 O       -6.9870    -8.6240    -1.7680 O.3   1 <1>  -0.6800 
 27 H        0.6500    -1.4720     0.6620 H     1 <1>   0.0800 
 28 H        0.9470    -1.5490     2.3840 H     1 <1>   0.0800 
 29 H       -2.8680    -1.3120     1.1790 H     1 <1>   0.0800 
 30 H       -1.6350    -1.3220    -0.0600 H     1 <1>   0.0800 
 31 H        0.0520    -3.7970     2.5230 H     1 <1>   0.0800 
 32 H        1.2800    -3.7830     1.2950 H     1 <1>   0.0800 
 33 H       -2.7360    -3.5030    -0.0410 H     1 <1>   0.0800 
 34 H       -2.5130    -3.6530     1.6790 H     1 <1>   0.0800 
 35 H        1.3250    -4.6760    -0.5790 H     1 <1>   0.4570 
 36 H       -0.2260    -8.1080    -2.3360 H     1 <1>   0.1500 
 37 H        2.8830    -6.1520    -1.8210 H     1 <1>   0.4000 
 38 H        2.2090    -7.5090    -2.5880 H     1 <1>   0.4000 
 39 H       -3.0830    -9.6360    -1.6930 H     1 <1>   0.0800 
 40 H       -1.8340    -9.3240    -0.5110 H     1 <1>   0.0800 
 41 H       -3.7250    -5.9500    -2.1740 H     1 <1>   0.0800 
 42 H       -4.3180    -7.4950    -2.7110 H     1 <1>   0.0800 
 43 H       -3.4290    -8.3550     1.0110 H     1 <1>   0.0800 
 44 H       -4.4990    -6.3430     0.0730 H     1 <1>   0.0800 
 45 H       -5.8200    -6.5010    -1.0260 H     1 <1>   0.0800 
 46 H       -3.1850   -10.4200     1.6290 H     1 <1>   0.4500 
 47 H       -5.9870   -10.9800     1.1690 H     1 <1>   0.0800 
 48 H       -5.0210   -11.1970     2.6040 H     1 <1>   0.0800 
 49 H       -4.5720   -11.5870    -0.7020 H     1 <1>   0.0800 
 50 H       -3.8840   -12.4890     0.6290 H     1 <1>   0.0800 
 51 H       -2.8420   -11.5710    -0.4290 H     1 <1>   0.0800 
 52 H       -6.0580    -7.2400     1.5040 H     1 <1>   0.0800 
 53 H       -7.1230    -8.4270     0.8640 H     1 <1>   0.0800 
 54 H       -6.2510   -10.1950    -0.7950 H     1 <1>   0.0800 
 55 H       -5.2340    -9.4980    -2.0280 H     1 <1>   0.0800 
 56 H       -6.5550    -9.3370     2.9160 H     1 <1>   0.0800 
 57 H       -4.9330    -8.7330     2.8840 H     1 <1>   0.0800 
 58 H       -7.6830    -8.4340    -1.1080 H     1 <1>   0.4000 
@<TRIPOS>BOND
  1   1   2  1   
  2   1   3  1   
  3   2   4  1   
  4   2  27  1   
  5   2  28  1   
  6   3   5  1   
  7   3  29  1   
  8   3  30  1   
  9   4   6  1   
 10   4  31  1   
 11   4  32  1   
 12   5   6  1   
 13   5  33  1   
 14   5  34  1   
 15   6   7  1   
 16   7   8  ar  
 17   7   9  ar  
 18   8  10  ar  
 19   9  11  ar  
 20   9  35  1   
 21  10  12  1   
 22  10  13  ar  
 23  11  13  ar  
 24  11  14  1   
 25  12  15  1   
 26  12  16  1   
 27  13  36  1   
 28  14  37  1   
 29  14  38  1   
 30  15  17  1   
 31  15  39  1   
 32  15  40  1   
 33  16  18  1   
 34  16  41  1   
 35  16  42  1   
 36  17  19  1   
 37  17  20  1   
 38  17  43  1   
 39  18  20  1   
 40  18  44  1   
 41  18  45  1   
 42  19  21  1   
 43  19  22  1   
 44  19  46  1   
 45  20  23  1   
 46  20  24  1   
 47  21  25  1   
 48  21  47  1   
 49  21  48  1   
 50  22  49  1   
 51  22  50  1   
 52  22  51  1   
 53  23  25  1   
 54  23  52  1   
 55  23  53  1   
 56  24  26  1   
 57  24  54  1   
 58  24  55  1   
 59  25  56  1   
 60  25  57  1   
 61  26  58  1   
@<TRIPOS>SUBSTRUCTURE
  1 ****   8 GROUP 4 **** **** 0

# MOE 2024.06 (io_trps.svl 2023.06)
