@<TRIPOS>MOLECULE
NONAME
41 42 1 0 0 
SMALL
USER_CHARGES


@<TRIPOS>ATOM
  1 CL      -2.2120     0.3230    -1.3250 Cl    1 <1>  -0.1770 
  2 C       -2.8240    -0.9890    -0.3530 C.ar  1 <1>   0.1770 
  3 C       -2.7990    -2.2740    -0.8560 C.ar  1 <1>  -0.1500 
  4 C       -3.3240    -0.7190     0.9050 C.ar  1 <1>  -0.1500 
  5 C       -3.2790    -3.3460    -0.1020 C.ar  1 <1>   0.0860 
  6 C       -3.8100    -1.7640     1.6700 C.ar  1 <1>  -0.1500 
  7 C       -3.2440    -4.6990    -0.6360 C.2   1 <1>   0.5440 
  8 C       -3.7870    -3.0550     1.1690 C.ar  1 <1>  -0.1500 
  9 O       -3.1080    -4.8980    -1.8260 O.2   1 <1>  -0.5700 
 10 N       -3.3700    -5.7870     0.1790 N.am  1 <1>  -0.7300 
 11 C       -3.2480    -7.2020    -0.2490 C.3   1 <1>   0.2200 
 12 C       -4.6180    -7.8500    -0.3760 C.3   1 <1>  -0.0800 
 13 C       -2.6710    -8.0070     0.9060 C.3   1 <1>   0.1200 
 14 C       -4.9420    -8.2440     1.0710 C.3   1 <1>   0.1200 
 15 C       -5.6830    -6.9810    -1.0800 C.3   1 <1>  -0.0550 
 16 O       -3.7400    -8.1770     1.7860 O.3   1 <1>  -0.5600 
 17 S       -7.2260    -7.8360    -1.4150 S.o2  1 <1>   1.3330 
 18 O       -6.9080    -9.1340    -1.9680 O.2   1 <1>  -0.6500 
 19 O       -8.1170    -6.9510    -2.1310 O.2   1 <1>  -0.6500 
 20 N       -7.8950    -8.0790     0.1290 N.am  1 <1>  -0.8490 
 21 C       -8.6130    -6.9060     0.6400 C.3   1 <1>   0.1160 
 22 C       -8.7740    -9.2520     0.1700 C.3   1 <1>   0.1160 
 23 H       -2.4040    -2.4460    -1.8420 H     1 <1>   0.1500 
 24 H       -3.3320     0.2920     1.2740 H     1 <1>   0.1500 
 25 H       -4.2060    -1.5700     2.6530 H     1 <1>   0.1500 
 26 H       -4.1780    -3.8470     1.7830 H     1 <1>   0.1500 
 27 H       -3.4680    -5.6790     1.1900 H     1 <1>   0.3700 
 28 H       -2.6570    -7.2850    -1.1460 H     1 <1>   0.0800 
 29 H       -4.4980    -8.7590    -0.9400 H     1 <1>   0.0800 
 30 H       -1.8610    -7.5050     1.4060 H     1 <1>   0.0800 
 31 H       -2.3540    -8.9810     0.5750 H     1 <1>   0.0800 
 32 H       -5.3340    -9.2450     1.1340 H     1 <1>   0.0800 
 33 H       -5.6300    -7.5560     1.5300 H     1 <1>   0.0800 
 34 H       -5.2740    -6.6520    -2.0170 H     1 <1>   0.0800 
 35 H       -5.8830    -6.1050    -0.4980 H     1 <1>   0.0800 
 36 H       -8.9350    -7.0820     1.6530 H     1 <1>   0.0800 
 37 H       -9.4760    -6.6960     0.0300 H     1 <1>   0.0800 
 38 H       -7.9690    -6.0440     0.6340 H     1 <1>   0.0800 
 39 H       -9.1740    -9.3850     1.1610 H     1 <1>   0.0800 
 40 H       -8.2190   -10.1390    -0.0890 H     1 <1>   0.0800 
 41 H       -9.5850    -9.1360    -0.5290 H     1 <1>   0.0800 
@<TRIPOS>BOND
  1   1   2  1   
  2   2   3  ar  
  3   2   4  ar  
  4   3   5  ar  
  5   3  23  1   
  6   4   6  ar  
  7   4  24  1   
  8   5   7  1   
  9   5   8  ar  
 10   6   8  ar  
 11   6  25  1   
 12   7   9  2   
 13   7  10  am  
 14   8  26  1   
 15  10  11  1   
 16  10  27  1   
 17  11  12  1   
 18  11  13  1   
 19  11  28  1   
 20  12  14  1   
 21  12  15  1   
 22  12  29  1   
 23  13  16  1   
 24  13  30  1   
 25  13  31  1   
 26  14  16  1   
 27  14  32  1   
 28  14  33  1   
 29  15  17  1   
 30  15  34  1   
 31  15  35  1   
 32  17  18  2   
 33  17  19  2   
 34  17  20  am  
 35  20  21  1   
 36  20  22  1   
 37  21  36  1   
 38  21  37  1   
 39  21  38  1   
 40  22  39  1   
 41  22  40  1   
 42  22  41  1   
@<TRIPOS>SUBSTRUCTURE
  1 ****  10 GROUP 4 **** **** 0

# MOE 2024.06 (io_trps.svl 2023.06)
