@<TRIPOS>MOLECULE
NONAME
45 47 1 0 0 
SMALL
USER_CHARGES


@<TRIPOS>ATOM
  1 CL       0.7820     0.7010    -0.0630 Cl    1 <1>  -0.1770 
  2 C        1.4210    -0.8380    -0.6180 C.ar  1 <1>   0.1770 
  3 C        0.8680    -2.0590    -0.2380 C.ar  1 <1>   0.4100 
  4 C        2.5120    -0.8500    -1.4430 C.ar  1 <1>   0.1600 
  5 N        1.4120    -3.1890    -0.6620 N.ar  1 <1>  -0.6200 
  6 N       -0.2500    -2.1720     0.5740 N.pl3 1 <1>  -0.8380 
  7 N        3.0500    -1.9760    -1.8800 N.ar  1 <1>  -0.6200 
  8 C        2.4620    -3.0810    -1.4540 C.ar  1 <1>   0.4770 
  9 C       -1.5440    -1.5810     0.1510 C.3   1 <1>   0.2090 
 10 C       -0.3640    -3.2790     1.5600 C.3   1 <1>   0.2090 
 11 C        3.0590    -4.3810    -1.9350 C.3   1 <1>  -0.0960 
 12 C       -2.4490    -2.6780    -0.4160 C.3   1 <1>  -0.1600 
 13 C       -1.2740    -4.3830     1.0110 C.3   1 <1>  -0.1600 
 14 C       -2.6470    -3.8380     0.5740 C.3   1 <1>  -0.0800 
 15 C       -3.5250    -4.9260    -0.0710 C.3   1 <1>  -0.1600 
 16 C       -3.8700    -6.0650     0.8930 C.3   1 <1>   0.1400 
 17 N       -4.8520    -6.9720     0.2610 N.am  1 <1>  -0.6600 
 18 C       -6.1650    -7.0390     0.5740 C.2   1 <1>   0.5690 
 19 C       -4.4620    -7.9240    -0.7910 C.3   1 <1>   0.1400 
 20 O       -6.7340    -6.3710     1.4030 O.2   1 <1>  -0.5700 
 21 C       -6.8600    -8.0770    -0.2620 C.3   1 <1>  -0.0990 
 22 C       -5.7060    -8.8050    -0.9750 C.3   1 <1>  -0.1600 
 23 H        2.9580     0.0790    -1.7520 H     1 <1>   0.1500 
 24 H       -1.3850    -0.8300    -0.6030 H     1 <1>   0.0800 
 25 H       -2.0130    -1.1140     1.0000 H     1 <1>   0.0800 
 26 H       -0.7740    -2.8890     2.4750 H     1 <1>   0.0800 
 27 H        0.6110    -3.6810     1.7760 H     1 <1>   0.0800 
 28 H        3.0410    -5.1060    -1.1430 H     1 <1>   0.0800 
 29 H        4.0760    -4.2330    -2.2490 H     1 <1>   0.0800 
 30 H        2.4840    -4.7490    -2.7640 H     1 <1>   0.0800 
 31 H       -2.0040    -3.0450    -1.3250 H     1 <1>   0.0800 
 32 H       -3.4010    -2.2460    -0.6660 H     1 <1>   0.0800 
 33 H       -1.3900    -5.1290     1.7750 H     1 <1>   0.0800 
 34 H       -0.7780    -4.8420     0.1730 H     1 <1>   0.0800 
 35 H       -3.1570    -3.4550     1.4430 H     1 <1>   0.0800 
 36 H       -3.0220    -5.3270    -0.9320 H     1 <1>   0.0800 
 37 H       -4.4460    -4.4750    -0.3960 H     1 <1>   0.0800 
 38 H       -4.2970    -5.6580     1.7950 H     1 <1>   0.0800 
 39 H       -2.9910    -6.6260     1.1560 H     1 <1>   0.0800 
 40 H       -3.6100    -8.5060    -0.4820 H     1 <1>   0.0800 
 41 H       -4.2340    -7.3860    -1.6960 H     1 <1>   0.0800 
 42 H       -7.5030    -7.5820    -0.9650 H     1 <1>   0.0800 
 43 H       -7.4320    -8.7410     0.3590 H     1 <1>   0.0800 
 44 H       -5.5320    -9.7560    -0.5030 H     1 <1>   0.0800 
 45 H       -5.9180    -8.9710    -2.0160 H     1 <1>   0.0800 
@<TRIPOS>BOND
  1   1   2  1   
  2   2   3  ar  
  3   2   4  ar  
  4   3   5  ar  
  5   3   6  1   
  6   4   7  ar  
  7   4  23  1   
  8   5   8  ar  
  9   6   9  1   
 10   6  10  1   
 11   7   8  ar  
 12   8  11  1   
 13   9  12  1   
 14   9  24  1   
 15   9  25  1   
 16  10  13  1   
 17  10  26  1   
 18  10  27  1   
 19  11  28  1   
 20  11  29  1   
 21  11  30  1   
 22  12  14  1   
 23  12  31  1   
 24  12  32  1   
 25  13  14  1   
 26  13  33  1   
 27  13  34  1   
 28  14  15  1   
 29  14  35  1   
 30  15  16  1   
 31  15  36  1   
 32  15  37  1   
 33  16  17  1   
 34  16  38  1   
 35  16  39  1   
 36  17  18  am  
 37  17  19  1   
 38  18  20  2   
 39  18  21  1   
 40  19  22  1   
 41  19  40  1   
 42  19  41  1   
 43  21  22  1   
 44  21  42  1   
 45  21  43  1   
 46  22  44  1   
 47  22  45  1   
@<TRIPOS>SUBSTRUCTURE
  1 ****  13 GROUP 4 **** **** 0

# MOE 2024.06 (io_trps.svl 2023.06)
