@<TRIPOS>MOLECULE
NONAME
46 47 1 0 0 
SMALL
USER_CHARGES


@<TRIPOS>ATOM
  1 O       -2.7450     1.1800    -1.3910 O.co2 1 <1>  -0.9000 
  2 C       -1.5750     1.5310    -1.6170 C.2   1 <1>   0.9060 
  3 O       -1.1070     1.4400    -2.7590 O.co2 1 <1>  -0.9000 
  4 C       -0.6790     2.0860    -0.4940 C.3   1 <1>  -0.1060 
  5 C       -1.4730     2.4300     0.8000 C.3   1 <1>   0.2000 
  6 C       -0.0710     3.3840    -1.0890 C.3   1 <1>   0.2090 
  7 C        0.4240     1.0270    -0.1880 C.3   1 <1>  -0.1600 
  8 O       -2.3960     1.4530     1.1120 O.3   1 <1>  -0.6800 
  9 C       -2.1980     3.7650     0.6710 C.3   1 <1>  -0.1600 
 10 N        0.0960     4.4820    -0.0700 N.pl3 1 <1>  -0.8380 
 11 C        1.5520     1.4700     0.7630 C.3   1 <1>  -0.1600 
 12 C       -1.1600     4.8910     0.6310 C.3   1 <1>   0.2090 
 13 C        1.2350     5.2600     0.0140 C.ar  1 <1>   0.7200 
 14 C        2.5910     0.3580     0.9300 C.3   1 <1>  -0.2400 
 15 N        2.2860     4.9040    -0.7240 N.ar  1 <1>  -0.6200 
 16 N        1.1900     6.3130     0.8330 N.ar  1 <1>  -0.6200 
 17 C        3.3550     5.6530    -0.6280 C.ar  1 <1>   0.1600 
 18 C        2.2740     7.0440     0.9080 C.ar  1 <1>   0.1600 
 19 C        3.4110     6.7580     0.1890 C.ar  1 <1>  -0.1440 
 20 C        4.6600     7.6190     0.2870 C.3   1 <1>  -0.0170 
 21 C        4.6280     8.7320    -0.7660 C.3   1 <1>  -0.1600 
 22 C        5.8790     9.6130    -0.6900 C.3   1 <1>  -0.2400 
 23 H       -0.8100     2.5020     1.6410 H     1 <1>   0.0800 
 24 H       -0.7250     3.7670    -1.8540 H     1 <1>   0.0800 
 25 H        0.8550     3.1440    -1.5820 H     1 <1>   0.0800 
 26 H       -0.0550     0.1520     0.2170 H     1 <1>   0.0800 
 27 H        0.8700     0.7330    -1.1240 H     1 <1>   0.0800 
 28 H       -2.7880     1.1790     0.2240 H     1 <1>   0.4000 
 29 H       -2.7870     3.7780    -0.2290 H     1 <1>   0.0800 
 30 H       -2.8510     3.9170     1.5100 H     1 <1>   0.0800 
 31 H        2.0400     2.3450     0.3700 H     1 <1>   0.0800 
 32 H        1.1550     1.7190     1.7290 H     1 <1>   0.0800 
 33 H       -0.9140     5.1570     1.6450 H     1 <1>   0.0800 
 34 H       -1.5750     5.7590     0.1480 H     1 <1>   0.0800 
 35 H        3.0280     0.1110    -0.0210 H     1 <1>   0.0800 
 36 H        2.1300    -0.5230     1.3410 H     1 <1>   0.0800 
 37 H        3.3710     0.6830     1.5950 H     1 <1>   0.0800 
 38 H        4.2090     5.3770    -1.2200 H     1 <1>   0.1500 
 39 H        2.2540     7.8980     1.5620 H     1 <1>   0.1500 
 40 H        4.7250     8.0500     1.2710 H     1 <1>   0.0800 
 41 H        5.5320     7.0050     0.1410 H     1 <1>   0.0800 
 42 H        4.5610     8.2950    -1.7480 H     1 <1>   0.0800 
 43 H        3.7540     9.3420    -0.6170 H     1 <1>   0.0800 
 44 H        6.7660     9.0280    -0.8620 H     1 <1>   0.0800 
 45 H        5.9540    10.0820     0.2760 H     1 <1>   0.0800 
 46 H        5.8300    10.3850    -1.4390 H     1 <1>   0.0800 
@<TRIPOS>BOND
  1   1   2  ar  
  2   2   3  ar  
  3   2   4  1   
  4   4   5  1   
  5   4   6  1   
  6   4   7  1   
  7   5   8  1   
  8   5   9  1   
  9   5  23  1   
 10   6  10  1   
 11   6  24  1   
 12   6  25  1   
 13   7  11  1   
 14   7  26  1   
 15   7  27  1   
 16   8  28  1   
 17   9  12  1   
 18   9  29  1   
 19   9  30  1   
 20  10  12  1   
 21  10  13  1   
 22  11  14  1   
 23  11  31  1   
 24  11  32  1   
 25  12  33  1   
 26  12  34  1   
 27  13  15  ar  
 28  13  16  ar  
 29  14  35  1   
 30  14  36  1   
 31  14  37  1   
 32  15  17  ar  
 33  16  18  ar  
 34  17  19  ar  
 35  17  38  1   
 36  18  19  ar  
 37  18  39  1   
 38  19  20  1   
 39  20  21  1   
 40  20  40  1   
 41  20  41  1   
 42  21  22  1   
 43  21  42  1   
 44  21  43  1   
 45  22  44  1   
 46  22  45  1   
 47  22  46  1   
@<TRIPOS>SUBSTRUCTURE
  1 ****  10 GROUP 4 **** **** 0

# MOE 2024.06 (io_trps.svl 2023.06)
