@<TRIPOS>MOLECULE
NONAME
47 49 1 0 0 
SMALL
USER_CHARGES


@<TRIPOS>ATOM
  1 F        0.4110     1.1520     0.9510 F     1 <1>  -0.1900 
  2 C        0.3370     2.0300    -0.0140 C.ar  1 <1>   0.1900 
  3 C       -0.3670     3.2140     0.1850 C.ar  1 <1>  -0.1440 
  4 C        0.9760     1.7300    -1.2020 C.ar  1 <1>  -0.1500 
  5 C       -0.4390     4.1210    -0.8670 C.ar  1 <1>  -0.1500 
  6 C       -1.0470     3.5470     1.5160 C.3   1 <1>   0.0450 
  7 C        0.8850     2.6610    -2.2160 C.ar  1 <1>   0.1900 
  8 C        0.1890     3.8480    -2.0730 C.ar  1 <1>  -0.1500 
  9 C       -0.6260     4.9150     2.0380 C.2   1 <1>   0.5690 
 10 F        1.4780     2.4140    -3.3520 F     1 <1>  -0.1900 
 11 O       -1.4580     5.7910     2.0110 O.2   1 <1>  -0.5700 
 12 N        0.6530     5.1550     2.4840 N.am  1 <1>  -0.6600 
 13 C        1.7610     4.1510     2.5070 C.3   1 <1>   0.1400 
 14 C        1.1140     6.5340     2.7920 C.3   1 <1>   0.1400 
 15 C        2.8090     4.5180     1.4510 C.3   1 <1>   0.2000 
 16 C        2.1170     6.9640     1.7170 C.3   1 <1>  -0.1600 
 17 O        3.8810     3.6470     1.5840 O.3   1 <1>  -0.6800 
 18 C        3.2910     5.9790     1.6180 C.3   1 <1>   0.2200 
 19 N        4.1540     6.4010     0.4850 N.am  1 <1>  -0.7300 
 20 C        5.4740     6.0890     0.3300 C.2   1 <1>   0.5440 
 21 O        5.9730     5.3240     1.1310 O.2   1 <1>  -0.5700 
 22 C        6.2440     6.6250    -0.7800 C.ar  1 <1>   0.0860 
 23 C        7.3270     5.9200    -1.3060 C.ar  1 <1>  -0.1500 
 24 C        5.9370     7.8570    -1.3650 C.ar  1 <1>  -0.1500 
 25 C        8.0610     6.4090    -2.3710 C.ar  1 <1>  -0.1500 
 26 C        6.6670     8.3510    -2.4310 C.ar  1 <1>  -0.1500 
 27 C        7.7300     7.6260    -2.9380 C.ar  1 <1>  -0.1500 
 28 H        1.5200     0.8130    -1.3300 H     1 <1>   0.1500 
 29 H       -0.9840     5.0440    -0.7500 H     1 <1>   0.1500 
 30 H       -0.8390     2.8130     2.2700 H     1 <1>   0.0800 
 31 H       -2.1110     3.5510     1.3640 H     1 <1>   0.0800 
 32 H        0.1390     4.5430    -2.8930 H     1 <1>   0.1500 
 33 H        2.2190     4.1630     3.4810 H     1 <1>   0.0800 
 34 H        1.4000     3.1580     2.3230 H     1 <1>   0.0800 
 35 H        0.2840     7.2210     2.8130 H     1 <1>   0.0800 
 36 H        1.5770     6.5460     3.7650 H     1 <1>   0.0800 
 37 H        2.3910     4.3790     0.4690 H     1 <1>   0.0800 
 38 H        2.4900     7.9420     1.9610 H     1 <1>   0.0800 
 39 H        1.5980     7.0190     0.7770 H     1 <1>   0.0800 
 40 H        4.7210     4.1340     1.3680 H     1 <1>   0.4000 
 41 H        3.8580     6.0400     2.5330 H     1 <1>   0.0800 
 42 H        3.6720     6.8760    -0.2780 H     1 <1>   0.3700 
 43 H        7.5940     4.9730    -0.8690 H     1 <1>   0.1500 
 44 H        5.1230     8.4420    -0.9770 H     1 <1>   0.1500 
 45 H        8.8910     5.8430    -2.7590 H     1 <1>   0.1500 
 46 H        6.4120     9.3020    -2.8670 H     1 <1>   0.1500 
 47 H        8.3000     8.0090    -3.7670 H     1 <1>   0.1500 
@<TRIPOS>BOND
  1   1   2  1   
  2   2   3  ar  
  3   2   4  ar  
  4   3   5  ar  
  5   3   6  1   
  6   4   7  ar  
  7   4  28  1   
  8   5   8  ar  
  9   5  29  1   
 10   6   9  1   
 11   6  30  1   
 12   6  31  1   
 13   7   8  ar  
 14   7  10  1   
 15   8  32  1   
 16   9  11  2   
 17   9  12  am  
 18  12  13  1   
 19  12  14  1   
 20  13  15  1   
 21  13  33  1   
 22  13  34  1   
 23  14  16  1   
 24  14  35  1   
 25  14  36  1   
 26  15  17  1   
 27  15  18  1   
 28  15  37  1   
 29  16  18  1   
 30  16  38  1   
 31  16  39  1   
 32  17  40  1   
 33  18  19  1   
 34  18  41  1   
 35  19  20  am  
 36  19  42  1   
 37  20  21  2   
 38  20  22  1   
 39  22  23  ar  
 40  22  24  ar  
 41  23  25  ar  
 42  23  43  1   
 43  24  26  ar  
 44  24  44  1   
 45  25  27  ar  
 46  25  45  1   
 47  26  27  ar  
 48  26  46  1   
 49  27  47  1   
@<TRIPOS>SUBSTRUCTURE
  1 ****  15 GROUP 4 **** **** 0

# MOE 2024.06 (io_trps.svl 2023.06)
