@<TRIPOS>MOLECULE
NONAME
39 41 1 0 0 
SMALL
USER_CHARGES


@<TRIPOS>ATOM
  1 CL      -1.1850     0.1350    -1.9320 Cl    1 <1>  -0.1770 
  2 C       -1.9570    -0.8710    -0.7330 C.ar  1 <1>   0.1770 
  3 C       -2.5600    -0.2940     0.3710 C.ar  1 <1>   0.1600 
  4 C       -1.9640    -2.2370    -0.8940 C.ar  1 <1>  -0.1500 
  5 N       -3.1640    -0.9860     1.3290 N.ar  1 <1>  -0.6200 
  6 C       -2.5970    -2.9910     0.0860 C.ar  1 <1>   0.0860 
  7 C       -3.1550    -2.3020     1.1640 C.ar  1 <1>   0.1600 
  8 C       -2.6700    -4.4330     0.0050 C.2   1 <1>   0.5440 
  9 O       -1.6760    -5.0640    -0.2910 O.2   1 <1>  -0.5700 
 10 N       -3.8420    -5.1130     0.2400 N.am  1 <1>  -0.6600 
 11 C       -5.2060    -4.5360     0.1050 C.3   1 <1>   0.1400 
 12 C       -3.9070    -6.5980     0.2070 C.3   1 <1>   0.1400 
 13 C       -6.0890    -5.7140    -0.3030 C.3   1 <1>   0.2000 
 14 C       -5.3950    -6.9450     0.2720 C.3   1 <1>  -0.0800 
 15 O       -7.3690    -5.5950     0.2110 O.3   1 <1>  -0.6800 
 16 C       -5.7550    -8.2450    -0.4620 C.3   1 <1>   0.0210 
 17 C       -4.9660    -9.4140     0.0920 C.2   1 <1>   0.1080 
 18 N       -5.0740    -9.8150     1.3210 N.2   1 <1>  -0.7070 
 19 C       -4.0470   -10.1690    -0.6280 C.2   1 <1>  -0.1500 
 20 N       -4.2190   -10.8500     1.4170 N.pl3 1 <1>   0.3000 
 21 C       -3.5830   -11.0820     0.2500 C.2   1 <1>  -0.3320 
 22 C       -2.5540   -12.1780     0.0420 C.3   1 <1>  -0.0600 
 23 H       -2.5400     0.7780     0.4670 H     1 <1>   0.1500 
 24 H       -1.4970    -2.7070    -1.7410 H     1 <1>   0.1500 
 25 H       -3.6220    -2.8850     1.9400 H     1 <1>   0.1500 
 26 H       -5.5210    -4.1420     1.0550 H     1 <1>   0.0800 
 27 H       -5.2280    -3.7650    -0.6470 H     1 <1>   0.0800 
 28 H       -3.4680    -6.9500    -0.7110 H     1 <1>   0.0800 
 29 H       -3.3700    -7.0230     1.0390 H     1 <1>   0.0800 
 30 H       -6.1550    -5.7630    -1.3770 H     1 <1>   0.0800 
 31 H       -5.6480    -7.0490     1.3130 H     1 <1>   0.0800 
 32 H       -7.3670    -5.7610     1.1740 H     1 <1>   0.4000 
 33 H       -5.5550    -8.1460    -1.5140 H     1 <1>   0.0800 
 34 H       -6.8040    -8.4480    -0.3390 H     1 <1>   0.0800 
 35 H       -3.7810   -10.0320    -1.6610 H     1 <1>   0.1500 
 36 H       -4.0920   -11.3750     2.2910 H     1 <1>   0.2700 
 37 H       -2.1930   -12.1590    -0.9710 H     1 <1>   0.0800 
 38 H       -2.9930   -13.1420     0.2300 H     1 <1>   0.0800 
 39 H       -1.7190   -12.0360     0.7050 H     1 <1>   0.0800 
@<TRIPOS>BOND
  1   1   2  1   
  2   2   3  ar  
  3   2   4  ar  
  4   3   5  ar  
  5   3  23  1   
  6   4   6  ar  
  7   4  24  1   
  8   5   7  ar  
  9   6   7  ar  
 10   6   8  1   
 11   7  25  1   
 12   8   9  2   
 13   8  10  am  
 14  10  11  1   
 15  10  12  1   
 16  11  13  1   
 17  11  26  1   
 18  11  27  1   
 19  12  14  1   
 20  12  28  1   
 21  12  29  1   
 22  13  14  1   
 23  13  15  1   
 24  13  30  1   
 25  14  16  1   
 26  14  31  1   
 27  15  32  1   
 28  16  17  1   
 29  16  33  1   
 30  16  34  1   
 31  17  18  2   
 32  17  19  1   
 33  18  20  1   
 34  19  21  2   
 35  19  35  1   
 36  20  21  1   
 37  20  36  1   
 38  21  22  1   
 39  22  37  1   
 40  22  38  1   
 41  22  39  1   
@<TRIPOS>SUBSTRUCTURE
  1 ****  10 GROUP 4 **** **** 0

# MOE 2024.06 (io_trps.svl 2023.06)
