@<TRIPOS>MOLECULE
NONAME
45 46 1 0 0 
SMALL
USER_CHARGES


@<TRIPOS>ATOM
  1 O        1.5340    -1.8480     2.1800 O.2   1 <1>  -0.5700 
  2 C        1.3100    -1.7370     0.9990 C.2   1 <1>   0.5690 
  3 N        0.9950    -2.8130     0.2390 N.am  1 <1>  -0.7300 
  4 C        1.3800    -0.3560     0.3440 C.3   1 <1>  -0.0190 
  5 C        0.8980    -4.1790     0.7550 C.3   1 <1>   0.2010 
  6 C        0.0240     0.0690    -0.2470 C.3   1 <1>  -0.2400 
  7 C        2.4730    -0.2880    -0.7360 C.3   1 <1>  -0.2400 
  8 C        0.3530    -5.1840    -0.2780 C.2   1 <1>   0.5690 
  9 O        0.1840    -4.8480    -1.4470 O.2   1 <1>  -0.5700 
 10 N        0.0480    -6.4420     0.1350 N.am  1 <1>  -0.7300 
 11 C       -0.4640    -7.5220    -0.7420 C.3   1 <1>   0.2200 
 12 C       -1.9560    -7.7450    -0.5310 C.3   1 <1>  -0.0800 
 13 C        0.0860    -8.8510    -0.2450 C.3   1 <1>   0.1200 
 14 C       -2.0000    -8.6810     0.6820 C.3   1 <1>   0.1200 
 15 C       -2.8150    -6.4740    -0.3860 C.3   1 <1>  -0.0170 
 16 O       -0.7000    -9.1680     0.8630 O.3   1 <1>  -0.5600 
 17 C       -4.2890    -6.8270    -0.2680 C.ar  1 <1>  -0.1440 
 18 C       -5.0540    -7.1270    -1.3770 C.ar  1 <1>  -0.1500 
 19 C       -4.9400    -6.8670     0.9490 C.ar  1 <1>  -0.1500 
 20 C       -6.3920    -7.4490    -1.2200 C.ar  1 <1>   0.1600 
 21 C       -6.2830    -7.2010     0.9970 C.ar  1 <1>   0.1600 
 22 N       -7.0240    -7.4960    -0.0580 N.ar  1 <1>  -0.6200 
 23 H        0.8040    -2.6940    -0.7450 H     1 <1>   0.3700 
 24 H        1.6370     0.3480     1.1180 H     1 <1>   0.0800 
 25 H        1.8840    -4.5160     1.0750 H     1 <1>   0.0800 
 26 H        0.2400    -4.1890     1.6240 H     1 <1>   0.0800 
 27 H       -0.2680    -0.5880    -1.0470 H     1 <1>   0.0800 
 28 H        0.0810     1.0730    -0.6280 H     1 <1>   0.0800 
 29 H       -0.7330     0.0370     0.5170 H     1 <1>   0.0800 
 30 H        2.2500    -0.9550    -1.5490 H     1 <1>   0.0800 
 31 H        3.4220    -0.5670    -0.3130 H     1 <1>   0.0800 
 32 H        2.5550     0.7130    -1.1220 H     1 <1>   0.0800 
 33 H        0.1540    -6.7280     1.1120 H     1 <1>   0.3700 
 34 H       -0.2110    -7.3320    -1.7720 H     1 <1>   0.0800 
 35 H       -2.3250    -8.3000    -1.3760 H     1 <1>   0.0800 
 36 H        1.1200    -8.7970     0.0440 H     1 <1>   0.0800 
 37 H       -0.0520    -9.6240    -0.9820 H     1 <1>   0.0800 
 38 H       -2.6660    -9.5110     0.5210 H     1 <1>   0.0800 
 39 H       -2.2800    -8.1600     1.5810 H     1 <1>   0.0800 
 40 H       -2.6670    -5.8430    -1.2460 H     1 <1>   0.0800 
 41 H       -2.5150    -5.9130     0.4810 H     1 <1>   0.0800 
 42 H       -4.6240    -7.1130    -2.3620 H     1 <1>   0.1500 
 43 H       -4.4180    -6.6410     1.8610 H     1 <1>   0.1500 
 44 H       -6.9730    -7.6800    -2.0960 H     1 <1>   0.1500 
 45 H       -6.7740    -7.2280     1.9550 H     1 <1>   0.1500 
@<TRIPOS>BOND
  1   1   2  2   
  2   2   3  am  
  3   2   4  1   
  4   3   5  1   
  5   3  23  1   
  6   4   6  1   
  7   4   7  1   
  8   4  24  1   
  9   5   8  1   
 10   5  25  1   
 11   5  26  1   
 12   6  27  1   
 13   6  28  1   
 14   6  29  1   
 15   7  30  1   
 16   7  31  1   
 17   7  32  1   
 18   8   9  2   
 19   8  10  am  
 20  10  11  1   
 21  10  33  1   
 22  11  12  1   
 23  11  13  1   
 24  11  34  1   
 25  12  14  1   
 26  12  15  1   
 27  12  35  1   
 28  13  16  1   
 29  13  36  1   
 30  13  37  1   
 31  14  16  1   
 32  14  38  1   
 33  14  39  1   
 34  15  17  1   
 35  15  40  1   
 36  15  41  1   
 37  17  18  ar  
 38  17  19  ar  
 39  18  20  ar  
 40  18  42  1   
 41  19  21  ar  
 42  19  43  1   
 43  20  22  ar  
 44  20  44  1   
 45  21  22  ar  
 46  21  45  1   
@<TRIPOS>SUBSTRUCTURE
  1 ****  15 GROUP 4 **** **** 0

# MOE 2024.06 (io_trps.svl 2023.06)
