@<TRIPOS>MOLECULE
NONAME
41 42 1 0 0 
SMALL
USER_CHARGES


@<TRIPOS>ATOM
  1 S        0.0080    -0.1540    -0.7120 S.o2  1 <1>   1.4470 
  2 O        0.5240    -1.1710    -1.6040 O.2   1 <1>  -0.6500 
  3 O       -1.0410     0.7100    -1.2180 O.2   1 <1>  -0.6500 
  4 N       -0.5430    -0.9230     0.7010 N.am  1 <1>  -0.8490 
  5 C        1.4310     0.8050    -0.1200 C.ar  1 <1>  -0.0090 
  6 C       -0.8870    -2.3480     0.5690 C.3   1 <1>   0.1960 
  7 C       -1.5080    -0.1620     1.5150 C.3   1 <1>   0.1960 
  8 C        1.3050     2.0590     0.4760 C.ar  1 <1>   0.0820 
  9 C        2.7140     0.2780    -0.2280 C.ar  1 <1>  -0.1500 
 10 C       -2.2400    -2.5720    -0.1210 C.3   1 <1>  -0.1860 
 11 C       -2.9370    -0.7220     1.4580 C.3   1 <1>  -0.1600 
 12 O        0.0950     2.6300     0.6480 O.3   1 <1>  -0.3620 
 13 C        2.4140     2.7520     0.9380 C.ar  1 <1>  -0.1500 
 14 C        3.8310     0.9600     0.2240 C.ar  1 <1>   0.0820 
 15 C       -2.7150    -3.9300     0.3550 C.2   1 <1>   0.9060 
 16 C       -3.2100    -1.3960     0.1170 C.3   1 <1>   0.2000 
 17 C       -0.2680     3.6190    -0.2900 C.3   1 <1>   0.0400 
 18 C        3.6780     2.2100     0.8120 C.ar  1 <1>  -0.1500 
 19 O        5.0290     0.3440     0.0600 O.3   1 <1>  -0.3630 
 20 O       -2.1120    -4.9280    -0.0450 O.co2 1 <1>  -0.9000 
 21 O       -3.6500    -4.0130     1.1640 O.co2 1 <1>  -0.9000 
 22 O       -4.5180    -1.8250     0.1160 O.3   1 <1>  -0.6800 
 23 C        6.2270     0.9470     0.4940 C.3   1 <1>   0.0400 
 24 H       -0.1160    -2.8860     0.0420 H     1 <1>   0.0800 
 25 H       -0.9310    -2.7690     1.5610 H     1 <1>   0.0800 
 26 H       -1.1760    -0.1700     2.5390 H     1 <1>   0.0800 
 27 H       -1.5290     0.8660     1.1990 H     1 <1>   0.0800 
 28 H        2.8540    -0.6920    -0.6730 H     1 <1>   0.1500 
 29 H       -2.0700    -2.6560    -1.1770 H     1 <1>   0.0800 
 30 H       -3.6370     0.0760     1.6180 H     1 <1>   0.0800 
 31 H       -3.0620    -1.4440     2.2460 H     1 <1>   0.0800 
 32 H        2.2800     3.7130     1.4020 H     1 <1>   0.1500 
 33 H       -3.1120    -0.6710    -0.6730 H     1 <1>   0.0800 
 34 H       -1.2750     3.9300    -0.0760 H     1 <1>   0.0800 
 35 H       -0.2200     3.1990    -1.2790 H     1 <1>   0.0800 
 36 H        0.4050     4.4530    -0.2010 H     1 <1>   0.0800 
 37 H        4.5210     2.7670     1.1760 H     1 <1>   0.1500 
 38 H       -4.5080    -2.7090     0.5950 H     1 <1>   0.4000 
 39 H        7.0390     0.2800     0.2640 H     1 <1>   0.0800 
 40 H        6.1740     1.1040     1.5570 H     1 <1>   0.0800 
 41 H        6.3600     1.8780    -0.0290 H     1 <1>   0.0800 
@<TRIPOS>BOND
  1   1   2  2   
  2   1   3  2   
  3   1   4  am  
  4   1   5  1   
  5   4   6  1   
  6   4   7  1   
  7   5   8  ar  
  8   5   9  ar  
  9   6  10  1   
 10   6  24  1   
 11   6  25  1   
 12   7  11  1   
 13   7  26  1   
 14   7  27  1   
 15   8  12  1   
 16   8  13  ar  
 17   9  14  ar  
 18   9  28  1   
 19  10  15  1   
 20  10  16  1   
 21  10  29  1   
 22  11  16  1   
 23  11  30  1   
 24  11  31  1   
 25  12  17  1   
 26  13  18  ar  
 27  13  32  1   
 28  14  18  ar  
 29  14  19  1   
 30  15  20  ar  
 31  15  21  ar  
 32  16  22  1   
 33  16  33  1   
 34  17  34  1   
 35  17  35  1   
 36  17  36  1   
 37  18  37  1   
 38  19  23  1   
 39  22  38  1   
 40  23  39  1   
 41  23  40  1   
 42  23  41  1   
@<TRIPOS>SUBSTRUCTURE
  1 ****   1 GROUP 4 **** **** 0

# MOE 2024.06 (io_trps.svl 2023.06)
