@<TRIPOS>MOLECULE
NONAME
55 58 1 0 0 
SMALL
USER_CHARGES


@<TRIPOS>ATOM
  1 O       -1.0880    -0.2170    -0.6150 O.3   1 <1>  -0.3630 
  2 C       -2.2550    -0.6370    -1.1580 C.ar  1 <1>   0.0830 
  3 C       -0.8010     1.1540    -0.4630 C.3   1 <1>   0.1200 
  4 C       -2.3870    -2.0010    -1.3540 C.ar  1 <1>  -0.1500 
  5 C       -3.2980     0.2110    -1.5180 C.ar  1 <1>  -0.1500 
  6 C        0.6080     1.2800     0.1150 C.3   1 <1>  -0.1600 
  7 C       -3.5480    -2.5310    -1.8970 C.ar  1 <1>  -0.1440 
  8 C       -4.4540    -0.3120    -2.0690 C.ar  1 <1>  -0.1500 
  9 C        0.9940     2.7510     0.3070 C.3   1 <1>   0.0960 
 10 C       -4.5800    -1.6780    -2.2590 C.ar  1 <1>  -0.1500 
 11 C       -3.6850    -4.0290    -2.0810 C.3   1 <1>   0.4860 
 12 N        2.3570     2.8560     0.8620 N.pl3 1 <1>   0.0480 
 13 N       -3.8340    -4.6560    -0.7410 N.4   1 <1>  -0.9590 
 14 C        2.7180     2.9640     2.1610 C.2   1 <1>   0.0360 
 15 C        3.5180     2.8710     0.1840 C.2   1 <1>  -0.3020 
 16 C       -3.7360    -6.1500    -0.8430 C.3   1 <1>   0.3430 
 17 C       -5.0950    -4.2210    -0.0710 C.3   1 <1>   0.3430 
 18 N        3.9950     3.0450     2.3480 N.2   1 <1>  -0.5650 
 19 C        4.5020     2.9850     1.1020 C.2   1 <1>   0.0770 
 20 C       -3.8390    -6.8430     0.5280 C.3   1 <1>   0.1000 
 21 C       -5.1790    -4.8410     1.3260 C.3   1 <1>  -0.1600 
 22 C       -3.8680    -8.3480     0.3100 C.2   1 <1>   0.0060 
 23 C       -5.0960    -6.3760     1.2800 C.3   1 <1>  -0.1600 
 24 N       -3.9930    -8.8900    -0.8580 N.2   1 <1>  -0.5650 
 25 N       -3.7650    -9.2510     1.3140 N.pl3 1 <1>   0.0330 
 26 C       -3.9730   -10.2140    -0.6080 C.2   1 <1>   0.0770 
 27 C       -3.8340   -10.4510     0.7130 C.2   1 <1>  -0.3020 
 28 H       -1.5300     1.5810     0.2050 H     1 <1>   0.0800 
 29 H       -0.8610     1.6220    -1.4310 H     1 <1>   0.0800 
 30 H       -1.5580    -2.6290    -1.0770 H     1 <1>   0.1500 
 31 H       -3.2290     1.2740    -1.3800 H     1 <1>   0.1500 
 32 H        1.3060     0.8140    -0.5600 H     1 <1>   0.0800 
 33 H        0.6450     0.7750     1.0650 H     1 <1>   0.0800 
 34 H       -5.2570     0.3480    -2.3520 H     1 <1>   0.1500 
 35 H        0.3100     3.2320     0.9830 H     1 <1>   0.0800 
 36 H        0.9690     3.2700    -0.6350 H     1 <1>   0.0800 
 37 H       -5.4890    -2.0580    -2.6940 H     1 <1>   0.1500 
 38 H       -2.8030    -4.4080    -2.5730 H     1 <1>   0.0800 
 39 H       -4.5420    -4.2520    -2.6970 H     1 <1>   0.0800 
 40 H       -3.0540    -4.3060    -0.1720 H     1 <1>   0.4500 
 41 H        1.9930     2.9790     2.9550 H     1 <1>   0.1500 
 42 H        3.5840     2.7990    -0.8860 H     1 <1>   0.1500 
 43 H       -2.8050    -6.4340    -1.3050 H     1 <1>   0.0800 
 44 H       -4.5350    -6.5200    -1.4660 H     1 <1>   0.0800 
 45 H       -5.9460    -4.5350    -0.6550 H     1 <1>   0.0800 
 46 H       -5.1190    -3.1450     0.0120 H     1 <1>   0.0800 
 47 H        5.5650     3.0290     0.9310 H     1 <1>   0.1500 
 48 H       -2.9600    -6.6010     1.0990 H     1 <1>   0.0800 
 49 H       -6.1130    -4.5520     1.7770 H     1 <1>   0.0800 
 50 H       -4.3910    -4.4440     1.9410 H     1 <1>   0.0800 
 51 H       -5.0930    -6.7680     2.2830 H     1 <1>   0.0800 
 52 H       -5.9690    -6.7640     0.7810 H     1 <1>   0.0800 
 53 H       -3.6600    -9.0720     2.3180 H     1 <1>   0.2700 
 54 H       -4.0610   -10.9390    -1.4020 H     1 <1>   0.1500 
 55 H       -3.7820   -11.3870     1.2420 H     1 <1>   0.1500 
@<TRIPOS>BOND
  1   1   2  1   
  2   1   3  1   
  3   2   4  ar  
  4   2   5  ar  
  5   3   6  1   
  6   3  28  1   
  7   3  29  1   
  8   4   7  ar  
  9   4  30  1   
 10   5   8  ar  
 11   5  31  1   
 12   6   9  1   
 13   6  32  1   
 14   6  33  1   
 15   7  10  ar  
 16   7  11  1   
 17   8  10  ar  
 18   8  34  1   
 19   9  12  1   
 20   9  35  1   
 21   9  36  1   
 22  10  37  1   
 23  11  13  1   
 24  11  38  1   
 25  11  39  1   
 26  12  14  1   
 27  12  15  1   
 28  13  16  1   
 29  13  17  1   
 30  13  40  1   
 31  14  18  2   
 32  14  41  1   
 33  15  19  2   
 34  15  42  1   
 35  16  20  1   
 36  16  43  1   
 37  16  44  1   
 38  17  21  1   
 39  17  45  1   
 40  17  46  1   
 41  18  19  1   
 42  19  47  1   
 43  20  22  1   
 44  20  23  1   
 45  20  48  1   
 46  21  23  1   
 47  21  49  1   
 48  21  50  1   
 49  22  24  2   
 50  22  25  1   
 51  23  51  1   
 52  23  52  1   
 53  24  26  1   
 54  25  27  1   
 55  25  53  1   
 56  26  27  2   
 57  26  54  1   
 58  27  55  1   
@<TRIPOS>SUBSTRUCTURE
  1 ****   4 GROUP 4 **** **** 0

# MOE 2024.06 (io_trps.svl 2023.06)
