@<TRIPOS>MOLECULE
NONAME
43 45 1 0 0 
SMALL
USER_CHARGES


@<TRIPOS>ATOM
  1 F        1.0360     0.1250    -0.3750 F     1 <1>  -0.1900 
  2 C        1.5190    -0.8510     0.3590 C.ar  1 <1>   0.1900 
  3 C        0.9550    -2.1360     0.2940 C.ar  1 <1>   0.4100 
  4 C        2.5830    -0.5670     1.1780 C.ar  1 <1>  -0.1500 
  5 N        1.4280    -3.1500     1.0240 N.ar  1 <1>  -0.6200 
  6 N       -0.1370    -2.4380    -0.5210 N.pl3 1 <1>  -0.8380 
  7 C        3.0610    -1.6250     1.9280 C.ar  1 <1>  -0.1500 
  8 C        2.4590    -2.8670     1.8130 C.ar  1 <1>   0.1600 
  9 C       -0.2560    -3.8120    -1.0750 C.3   1 <1>   0.2090 
 10 C       -1.4370    -1.7910    -0.1950 C.3   1 <1>   0.2090 
 11 C       -1.0230    -4.7210    -0.0840 C.3   1 <1>   0.4230 
 12 C       -2.1970    -2.6780     0.7990 C.3   1 <1>  -0.1600 
 13 N       -1.0570    -6.1940    -0.4830 N.4   1 <1>  -0.9590 
 14 C       -2.4150    -4.1350     0.2990 C.3   1 <1>   0.0000 
 15 C       -2.1100    -6.9940     0.2210 C.3   1 <1>   0.3430 
 16 C       -1.1060    -6.4600    -1.9570 C.3   1 <1>   0.2630 
 17 C       -3.0250    -4.9720     1.4630 C.3   1 <1>  -0.1600 
 18 C       -3.3590    -4.1460    -0.9360 C.3   1 <1>   0.1200 
 19 C       -2.4360    -6.3900     1.5850 C.3   1 <1>  -0.1600 
 20 O       -4.5340    -3.4560    -0.6900 O.3   1 <1>  -0.6800 
 21 H        3.0120     0.4170     1.2260 H     1 <1>   0.1500 
 22 H        3.8940    -1.4850     2.5940 H     1 <1>   0.1500 
 23 H        2.8510    -3.6750     2.4070 H     1 <1>   0.1500 
 24 H       -0.7580    -3.7520    -2.0230 H     1 <1>   0.0800 
 25 H        0.7320    -4.2060    -1.2400 H     1 <1>   0.0800 
 26 H       -1.2700    -0.8210     0.2430 H     1 <1>   0.0800 
 27 H       -2.0090    -1.6480    -1.0960 H     1 <1>   0.0800 
 28 H       -0.4470    -4.6740     0.8260 H     1 <1>   0.0800 
 29 H       -1.6280    -2.6870     1.7130 H     1 <1>   0.0800 
 30 H       -3.1380    -2.2080     1.0280 H     1 <1>   0.0800 
 31 H       -0.1530    -6.5570    -0.1440 H     1 <1>   0.4500 
 32 H       -3.0120    -7.0090    -0.3700 H     1 <1>   0.0800 
 33 H       -1.7760    -8.0130     0.3420 H     1 <1>   0.0800 
 34 H       -2.0090    -6.0570    -2.3840 H     1 <1>   0.0800 
 35 H       -1.0810    -7.5210    -2.1460 H     1 <1>   0.0800 
 36 H       -0.2590    -6.0110    -2.4520 H     1 <1>   0.0800 
 37 H       -2.8660    -4.4790     2.4080 H     1 <1>   0.0800 
 38 H       -4.0920    -5.0480     1.3440 H     1 <1>   0.0800 
 39 H       -3.6290    -5.1490    -1.2160 H     1 <1>   0.0800 
 40 H       -2.9010    -3.6700    -1.7850 H     1 <1>   0.0800 
 41 H       -3.1440    -7.0230     2.0940 H     1 <1>   0.0800 
 42 H       -1.5420    -6.3710     2.1850 H     1 <1>   0.0800 
 43 H       -5.0320    -3.8300     0.0630 H     1 <1>   0.4000 
@<TRIPOS>BOND
  1   1   2  1   
  2   2   3  ar  
  3   2   4  ar  
  4   3   5  ar  
  5   3   6  1   
  6   4   7  ar  
  7   4  21  1   
  8   5   8  ar  
  9   6   9  1   
 10   6  10  1   
 11   7   8  ar  
 12   7  22  1   
 13   8  23  1   
 14   9  11  1   
 15   9  24  1   
 16   9  25  1   
 17  10  12  1   
 18  10  26  1   
 19  10  27  1   
 20  11  13  1   
 21  11  14  1   
 22  11  28  1   
 23  12  14  1   
 24  12  29  1   
 25  12  30  1   
 26  13  15  1   
 27  13  16  1   
 28  13  31  1   
 29  14  17  1   
 30  14  18  1   
 31  15  19  1   
 32  15  32  1   
 33  15  33  1   
 34  16  34  1   
 35  16  35  1   
 36  16  36  1   
 37  17  19  1   
 38  17  37  1   
 39  17  38  1   
 40  18  20  1   
 41  18  39  1   
 42  18  40  1   
 43  19  41  1   
 44  19  42  1   
 45  20  43  1   
@<TRIPOS>SUBSTRUCTURE
  1 ****   6 GROUP 4 **** **** 0

# MOE 2024.06 (io_trps.svl 2023.06)
