@<TRIPOS>MOLECULE
NONAME
44 45 1 0 0 
SMALL
USER_CHARGES


@<TRIPOS>ATOM
  1 CL      -1.0930    -1.1330    -0.1600 Cl    1 <1>  -0.1770 
  2 C       -2.0900     0.3080    -0.2390 C.ar  1 <1>   0.1770 
  3 C       -3.4510     0.2080    -0.5460 C.ar  1 <1>   0.0860 
  4 C       -1.4720     1.5300     0.0010 C.ar  1 <1>  -0.1440 
  5 C       -4.1440    -1.0440    -0.7820 C.2   1 <1>   0.5440 
  6 C       -4.1670     1.4040    -0.6230 C.ar  1 <1>  -0.1500 
  7 C       -2.2230     2.6910    -0.0750 C.ar  1 <1>  -0.1500 
  8 C        0.0110     1.6170     0.3400 C.3   1 <1>  -0.0960 
  9 O       -5.0170    -1.1130    -1.6250 O.2   1 <1>  -0.5700 
 10 N       -3.8950    -2.1580    -0.0350 N.am  1 <1>  -0.7300 
 11 C       -3.5680     2.6270    -0.3890 C.ar  1 <1>  -0.1500 
 12 C       -4.5460    -3.4720    -0.2310 C.3   1 <1>   0.2200 
 13 C       -5.8450    -3.5120     0.5760 C.3   1 <1>  -0.0800 
 14 C       -3.7110    -4.5890     0.3920 C.3   1 <1>   0.1200 
 15 C       -5.6070    -4.6260     1.6020 C.3   1 <1>   0.1200 
 16 C       -7.1080    -3.6240    -0.3070 C.3   1 <1>  -0.0550 
 17 O       -4.2260    -4.7580     1.6740 O.3   1 <1>  -0.5600 
 18 S       -7.3690    -5.1670    -1.1960 S.o2  1 <1>   1.3330 
 19 O       -8.3930    -4.9680    -2.1950 O.2   1 <1>  -0.6500 
 20 O       -6.0890    -5.7170    -1.5870 O.2   1 <1>  -0.6500 
 21 N       -8.0340    -6.1910    -0.0130 N.am  1 <1>  -0.8490 
 22 C       -9.4810    -6.0190     0.1630 C.3   1 <1>   0.1160 
 23 C       -7.7320    -7.6040    -0.2680 C.3   1 <1>   0.1160 
 24 H       -5.2150     1.3680    -0.8710 H     1 <1>   0.1500 
 25 H       -1.7690     3.6500     0.1060 H     1 <1>   0.1500 
 26 H        0.3120     2.6360     0.5050 H     1 <1>   0.0800 
 27 H        0.5970     1.2180    -0.4680 H     1 <1>   0.0800 
 28 H        0.2200     1.0540     1.2320 H     1 <1>   0.0800 
 29 H       -3.1920    -2.1310     0.7080 H     1 <1>   0.3700 
 30 H       -4.1480     3.5320    -0.4540 H     1 <1>   0.1500 
 31 H       -4.6880    -3.6490    -1.2840 H     1 <1>   0.0800 
 32 H       -5.9380    -2.5960     1.1330 H     1 <1>   0.0800 
 33 H       -2.6630    -4.3540     0.4470 H     1 <1>   0.0800 
 34 H       -3.8550    -5.5110    -0.1460 H     1 <1>   0.0800 
 35 H       -5.9970    -5.5770     1.2890 H     1 <1>   0.0800 
 36 H       -5.9880    -4.3780     2.5770 H     1 <1>   0.0800 
 37 H       -7.0570    -2.8310    -1.0300 H     1 <1>   0.0800 
 38 H       -7.9680    -3.4290     0.3010 H     1 <1>   0.0800 
 39 H       -9.8270    -6.6190     0.9870 H     1 <1>   0.0800 
 40 H      -10.0070    -6.3150    -0.7300 H     1 <1>   0.0800 
 41 H       -9.7120    -4.9890     0.3720 H     1 <1>   0.0800 
 42 H       -8.1610    -8.2230     0.5010 H     1 <1>   0.0800 
 43 H       -6.6660    -7.7600    -0.2690 H     1 <1>   0.0800 
 44 H       -8.1260    -7.9030    -1.2260 H     1 <1>   0.0800 
@<TRIPOS>BOND
  1   1   2  1   
  2   2   3  ar  
  3   2   4  ar  
  4   3   5  1   
  5   3   6  ar  
  6   4   7  ar  
  7   4   8  1   
  8   5   9  2   
  9   5  10  am  
 10   6  11  ar  
 11   6  24  1   
 12   7  11  ar  
 13   7  25  1   
 14   8  26  1   
 15   8  27  1   
 16   8  28  1   
 17  10  12  1   
 18  10  29  1   
 19  11  30  1   
 20  12  13  1   
 21  12  14  1   
 22  12  31  1   
 23  13  15  1   
 24  13  16  1   
 25  13  32  1   
 26  14  17  1   
 27  14  33  1   
 28  14  34  1   
 29  15  17  1   
 30  15  35  1   
 31  15  36  1   
 32  16  18  1   
 33  16  37  1   
 34  16  38  1   
 35  18  19  2   
 36  18  20  2   
 37  18  21  am  
 38  21  22  1   
 39  21  23  1   
 40  22  39  1   
 41  22  40  1   
 42  22  41  1   
 43  23  42  1   
 44  23  43  1   
 45  23  44  1   
@<TRIPOS>SUBSTRUCTURE
  1 ****  10 GROUP 4 **** **** 0

# MOE 2024.06 (io_trps.svl 2023.06)
