@<TRIPOS>MOLECULE
NONAME
45 47 1 0 0 
SMALL
USER_CHARGES


@<TRIPOS>ATOM
  1 O       -3.1750     1.9120     2.1730 O.2   1 <1>  -0.5700 
  2 C       -2.4500     2.0890     1.2070 C.2   1 <1>   0.5440 
  3 N       -1.8110     0.9780     0.6770 N.am  1 <1>  -0.6600 
  4 C       -2.3250     3.4450     0.6680 C.ar  1 <1>   0.3960 
  5 C       -1.7230    -0.3190     1.4180 C.3   1 <1>   0.1400 
  6 C       -1.1340     0.9400    -0.6570 C.3   1 <1>   0.1400 
  7 N       -1.1700     3.8730     0.1320 N.ar  1 <1>  -0.6200 
  8 C       -3.4440     4.2800     0.7400 C.ar  1 <1>   0.1600 
  9 C       -2.0900    -1.5000     0.5070 C.3   1 <1>   0.1200 
 10 C       -1.5180    -0.3280    -1.4390 C.3   1 <1>   0.1200 
 11 C       -1.2080     5.1150    -0.3200 C.ar  1 <1>   0.4100 
 12 N       -3.5080     5.5280     0.3000 N.ar  1 <1>  -0.6200 
 13 O       -1.3230    -1.4750    -0.6640 O.3   1 <1>  -0.5600 
 14 N       -0.0440     5.5960    -0.9010 N.pl3 1 <1>  -0.8380 
 15 C       -2.3610     5.9120    -0.2220 C.ar  1 <1>   0.1600 
 16 C        1.2940     4.9910    -0.5750 C.3   1 <1>   0.3530 
 17 C       -0.0670     6.4130    -2.1480 C.3   1 <1>   0.1290 
 18 C        2.4110     6.0390    -0.5130 C.ar  1 <1>   0.1670 
 19 N        3.2060     6.0970    -1.5790 N.ar  1 <1>  -0.6200 
 20 C        2.5540     6.8590     0.6070 C.ar  1 <1>  -0.1430 
 21 C        4.1760     6.9930    -1.5310 C.ar  1 <1>   0.1600 
 22 C        3.5760     7.7870     0.6300 C.ar  1 <1>  -0.1500 
 23 C        1.6160     6.7690     1.8060 C.3   1 <1>  -0.0970 
 24 C        4.4020     7.8480    -0.4690 C.ar  1 <1>  -0.1500 
 25 H       -2.3760    -0.3190     2.2730 H     1 <1>   0.0800 
 26 H       -0.7160    -0.4500     1.7740 H     1 <1>   0.0800 
 27 H       -0.0680     0.9620    -0.5130 H     1 <1>   0.0800 
 28 H       -1.4090     1.7930    -1.2490 H     1 <1>   0.0800 
 29 H       -4.3380     3.8840     1.1920 H     1 <1>   0.1500 
 30 H       -3.1320    -1.4630     0.2410 H     1 <1>   0.0800 
 31 H       -1.8940    -2.4300     1.0090 H     1 <1>   0.0800 
 32 H       -0.9060    -0.4190    -2.3190 H     1 <1>   0.0800 
 33 H       -2.5500    -0.2880    -1.7400 H     1 <1>   0.0800 
 34 H       -2.3020     6.9160    -0.5950 H     1 <1>   0.1500 
 35 H        1.5370     4.2600    -1.3250 H     1 <1>   0.0800 
 36 H        1.2500     4.4770     0.3690 H     1 <1>   0.0800 
 37 H       -1.0640     6.4790    -2.5470 H     1 <1>   0.0800 
 38 H        0.5680     5.9630    -2.8930 H     1 <1>   0.0800 
 39 H        0.2990     7.4030    -1.9380 H     1 <1>   0.0800 
 40 H        4.8280     7.0500    -2.3860 H     1 <1>   0.1500 
 41 H        3.7290     8.4420     1.4700 H     1 <1>   0.1500 
 42 H        0.5970     6.9100     1.4910 H     1 <1>   0.0800 
 43 H        1.8460     7.5240     2.5350 H     1 <1>   0.0800 
 44 H        1.7050     5.8070     2.2770 H     1 <1>   0.0800 
 45 H        5.2140     8.5510    -0.5050 H     1 <1>   0.1500 
@<TRIPOS>BOND
  1   1   2  2   
  2   2   3  am  
  3   2   4  1   
  4   3   5  1   
  5   3   6  1   
  6   4   7  ar  
  7   4   8  ar  
  8   5   9  1   
  9   5  25  1   
 10   5  26  1   
 11   6  10  1   
 12   6  27  1   
 13   6  28  1   
 14   7  11  ar  
 15   8  12  ar  
 16   8  29  1   
 17   9  13  1   
 18   9  30  1   
 19   9  31  1   
 20  10  13  1   
 21  10  32  1   
 22  10  33  1   
 23  11  14  1   
 24  11  15  ar  
 25  12  15  ar  
 26  14  16  1   
 27  14  17  1   
 28  15  34  1   
 29  16  18  1   
 30  16  35  1   
 31  16  36  1   
 32  17  37  1   
 33  17  38  1   
 34  17  39  1   
 35  18  19  ar  
 36  18  20  ar  
 37  19  21  ar  
 38  20  22  ar  
 39  20  23  1   
 40  21  24  ar  
 41  21  40  1   
 42  22  24  ar  
 43  22  41  1   
 44  23  42  1   
 45  23  43  1   
 46  23  44  1   
 47  24  45  1   
@<TRIPOS>SUBSTRUCTURE
  1 ****   7 GROUP 4 **** **** 0

# MOE 2024.06 (io_trps.svl 2023.06)
