@<TRIPOS>MOLECULE
NONAME
53 55 1 0 0 
SMALL
USER_CHARGES


@<TRIPOS>ATOM
  1 S       -1.9450    -0.5390    -0.3470 S.o2  1 <1>   1.3330 
  2 O       -2.2430    -0.7560     1.0440 O.2   1 <1>  -0.6500 
  3 O       -2.8620    -0.9560    -1.3810 O.2   1 <1>  -0.6500 
  4 N       -0.4830    -1.3040    -0.6210 N.am  1 <1>  -0.9140 
  5 C       -1.5330     1.1730    -0.6020 C.3   1 <1>  -0.1350 
  6 C       -0.6320    -2.7370    -0.9370 C.3   1 <1>   0.2570 
  7 C       -1.0220    -3.6010     0.2760 C.2   1 <1>   0.5690 
  8 O       -0.1420    -3.7760     1.0880 O.2   1 <1>  -0.5700 
  9 N       -2.2780    -4.1410     0.4490 N.am  1 <1>  -0.6600 
 10 C       -2.6250    -4.8770     1.6990 C.3   1 <1>   0.1400 
 11 C       -3.4590    -3.9230    -0.4350 C.3   1 <1>   0.1400 
 12 C       -3.2140    -6.2430     1.3390 C.3   1 <1>  -0.1600 
 13 C       -4.0580    -5.2760    -0.8220 C.3   1 <1>  -0.1600 
 14 C       -4.4300    -6.1160     0.4110 C.3   1 <1>   0.4240 
 15 O       -5.3910    -5.4050     1.1560 O.3   1 <1>  -0.5600 
 16 C       -4.9480    -7.5090    -0.0030 C.ar  1 <1>  -0.1430 
 17 C       -6.7230    -5.5100     0.7600 C.3   1 <1>   0.1200 
 18 C       -6.2520    -7.9050     0.2650 C.ar  1 <1>  -0.1430 
 19 C       -4.1150    -8.4010    -0.6660 C.ar  1 <1>  -0.1500 
 20 C       -7.1870    -6.9470     0.9780 C.3   1 <1>  -0.0170 
 21 C       -6.7020    -9.1580    -0.1170 C.ar  1 <1>  -0.1500 
 22 C       -4.5450    -9.6590    -1.0510 C.ar  1 <1>   0.0830 
 23 C       -5.8660   -10.0500    -0.7850 C.ar  1 <1>   0.0830 
 24 O       -3.5980   -10.4120    -1.6820 O.3   1 <1>  -0.3630 
 25 O       -6.3140   -11.2740    -1.1930 O.3   1 <1>  -0.3620 
 26 C       -3.5910   -11.8190    -1.5780 C.3   1 <1>   0.0400 
 27 C       -7.6690   -11.6530    -1.0890 C.3   1 <1>   0.0400 
 28 H       -0.0300    -1.3000     0.2970 H     1 <1>   0.4200 
 29 H       -2.4000     1.7850    -0.4470 H     1 <1>   0.0800 
 30 H       -1.1800     1.3210    -1.6030 H     1 <1>   0.0800 
 31 H       -0.7690     1.4780     0.0860 H     1 <1>   0.0800 
 32 H        0.3250    -3.0980    -1.2700 H     1 <1>   0.0800 
 33 H       -1.3070    -2.8740    -1.7600 H     1 <1>   0.0800 
 34 H       -3.3430    -4.3000     2.2570 H     1 <1>   0.0800 
 35 H       -1.7570    -5.0140     2.3200 H     1 <1>   0.0800 
 36 H       -3.2010    -3.3940    -1.3300 H     1 <1>   0.0800 
 37 H       -4.1890    -3.3340     0.0960 H     1 <1>   0.0800 
 38 H       -3.5080    -6.7590     2.2340 H     1 <1>   0.0800 
 39 H       -2.4430    -6.8240     0.8700 H     1 <1>   0.0800 
 40 H       -3.3330    -5.8060    -1.4110 H     1 <1>   0.0800 
 41 H       -4.9200    -5.1310    -1.4440 H     1 <1>   0.0800 
 42 H       -6.8110    -5.2250    -0.2730 H     1 <1>   0.0800 
 43 H       -7.3000    -4.8320     1.3640 H     1 <1>   0.0800 
 44 H       -3.1010    -8.1310    -0.8970 H     1 <1>   0.1500 
 45 H       -8.1890    -7.0540     0.6030 H     1 <1>   0.0800 
 46 H       -7.1940    -7.1650     2.0310 H     1 <1>   0.0800 
 47 H       -7.7150    -9.4220     0.1150 H     1 <1>   0.1500 
 48 H       -2.6070   -12.1680    -1.8340 H     1 <1>   0.0800 
 49 H       -4.3100   -12.2210    -2.2680 H     1 <1>   0.0800 
 50 H       -3.8310   -12.0980    -0.5670 H     1 <1>   0.0800 
 51 H       -7.7780   -12.6260    -1.5340 H     1 <1>   0.0800 
 52 H       -8.2730   -10.9390    -1.6200 H     1 <1>   0.0800 
 53 H       -7.9420   -11.6960    -0.0500 H     1 <1>   0.0800 
@<TRIPOS>BOND
  1   1   2  2   
  2   1   3  2   
  3   1   4  am  
  4   1   5  1   
  5   4   6  1   
  6   4  28  1   
  7   5  29  1   
  8   5  30  1   
  9   5  31  1   
 10   6   7  1   
 11   6  32  1   
 12   6  33  1   
 13   7   8  2   
 14   7   9  am  
 15   9  10  1   
 16   9  11  1   
 17  10  12  1   
 18  10  34  1   
 19  10  35  1   
 20  11  13  1   
 21  11  36  1   
 22  11  37  1   
 23  12  14  1   
 24  12  38  1   
 25  12  39  1   
 26  13  14  1   
 27  13  40  1   
 28  13  41  1   
 29  14  15  1   
 30  14  16  1   
 31  15  17  1   
 32  16  18  ar  
 33  16  19  ar  
 34  17  20  1   
 35  17  42  1   
 36  17  43  1   
 37  18  20  1   
 38  18  21  ar  
 39  19  22  ar  
 40  19  44  1   
 41  20  45  1   
 42  20  46  1   
 43  21  23  ar  
 44  21  47  1   
 45  22  23  ar  
 46  22  24  1   
 47  23  25  1   
 48  24  26  1   
 49  25  27  1   
 50  26  48  1   
 51  26  49  1   
 52  26  50  1   
 53  27  51  1   
 54  27  52  1   
 55  27  53  1   
@<TRIPOS>SUBSTRUCTURE
  1 ****  14 GROUP 4 **** **** 0

# MOE 2024.06 (io_trps.svl 2023.06)
