@<TRIPOS>MOLECULE
NONAME
62 65 1 0 0 
SMALL
USER_CHARGES


@<TRIPOS>ATOM
  1 O        0.4910    -0.0640     0.6000 O.2   1 <1>  -0.5700 
  2 C        1.3310    -0.7700     0.0740 C.2   1 <1>   0.5440 
  3 N        0.9530    -1.9790    -0.4790 N.am  1 <1>  -0.6600 
  4 C        2.7090    -0.3200     0.0340 C.ar  1 <1>   0.0860 
  5 C        1.8830    -2.8630    -1.2350 C.3   1 <1>   0.1400 
  6 C       -0.4340    -2.5020    -0.3400 C.3   1 <1>   0.1400 
  7 C        3.6250    -0.6320     1.0460 C.ar  1 <1>  -0.1440 
  8 C        3.1580     0.4360    -1.0480 C.ar  1 <1>  -0.1500 
  9 C        1.9250    -4.2490    -0.5870 C.3   1 <1>  -0.1600 
 10 C       -0.3970    -3.8820     0.3210 C.3   1 <1>  -0.1600 
 11 C        4.9410    -0.2090     0.9530 C.ar  1 <1>  -0.1500 
 12 C        3.1790    -1.4330     2.2630 C.3   1 <1>  -0.0970 
 13 C        4.4700     0.8580    -1.1380 C.ar  1 <1>  -0.1500 
 14 C        0.5150    -4.8580    -0.4440 C.3   1 <1>  -0.0190 
 15 C        5.3650     0.5320    -0.1360 C.ar  1 <1>  -0.1500 
 16 C        0.5330    -6.2300     0.2410 C.2   1 <1>   0.5690 
 17 O        1.3540    -6.4400     1.1040 O.2   1 <1>  -0.5700 
 18 N       -0.3720    -7.1930    -0.1150 N.am  1 <1>  -0.6600 
 19 C       -1.4560    -7.0940    -1.1260 C.3   1 <1>   0.1400 
 20 C       -0.4770    -8.4780     0.6120 C.3   1 <1>   0.1400 
 21 C       -2.3550    -8.3160    -0.8920 C.3   1 <1>   0.2000 
 22 C       -1.4220    -9.3360    -0.2310 C.3   1 <1>  -0.0800 
 23 O       -3.3740    -7.9840     0.0090 O.3   1 <1>  -0.5600 
 24 C       -2.1430   -10.4320     0.5760 C.3   1 <1>   0.0200 
 25 C       -4.5240    -7.4450    -0.5640 C.3   1 <1>   0.0400 
 26 C       -1.2110   -11.5270     1.0690 C.2   1 <1>  -0.0400 
 27 O       -1.7010   -12.4720     1.8260 O.3   1 <1>  -0.0190 
 28 C        0.0970   -11.7800     0.8970 C.2   1 <1>  -0.1500 
 29 N       -0.7940   -13.3410     2.1710 N.2   1 <1>  -0.4100 
 30 C        0.3000   -12.9480     1.6270 C.2   1 <1>   0.1080 
 31 C        1.6250   -13.6630     1.7670 C.3   1 <1>  -0.0590 
 32 H        1.5340    -2.9450    -2.2500 H     1 <1>   0.0800 
 33 H        2.8780    -2.4540    -1.2600 H     1 <1>   0.0800 
 34 H       -1.0370    -1.8380     0.2560 H     1 <1>   0.0800 
 35 H       -0.8810    -2.5690    -1.3170 H     1 <1>   0.0800 
 36 H        2.4580     0.6920    -1.8240 H     1 <1>   0.1500 
 37 H        2.5400    -4.9020    -1.1800 H     1 <1>   0.0800 
 38 H        2.3870    -4.1640     0.3810 H     1 <1>   0.0800 
 39 H       -0.0420    -3.7720     1.3320 H     1 <1>   0.0800 
 40 H       -1.3960    -4.2760     0.3720 H     1 <1>   0.0800 
 41 H        5.6450    -0.4500     1.7290 H     1 <1>   0.1500 
 42 H        3.9890    -1.5730     2.9560 H     1 <1>   0.0800 
 43 H        2.8180    -2.4000     1.9620 H     1 <1>   0.0800 
 44 H        2.3840    -0.9140     2.7700 H     1 <1>   0.0800 
 45 H        4.7960     1.4400    -1.9830 H     1 <1>   0.1500 
 46 H        0.1240    -4.9800    -1.4360 H     1 <1>   0.0800 
 47 H        6.3890     0.8580    -0.2000 H     1 <1>   0.1500 
 48 H       -2.0050    -6.1760    -1.0220 H     1 <1>   0.0800 
 49 H       -1.0180    -7.1510    -2.1060 H     1 <1>   0.0800 
 50 H        0.4930    -8.9310     0.7280 H     1 <1>   0.0800 
 51 H       -0.9000    -8.2890     1.5840 H     1 <1>   0.0800 
 52 H       -2.7900    -8.6970    -1.8000 H     1 <1>   0.0800 
 53 H       -0.8420    -9.8010    -1.0080 H     1 <1>   0.0800 
 54 H       -2.9000   -10.8860    -0.0390 H     1 <1>   0.0800 
 55 H       -2.6360    -9.9940     1.4260 H     1 <1>   0.0800 
 56 H       -5.2170    -7.2220     0.2290 H     1 <1>   0.0800 
 57 H       -4.9610    -8.1680    -1.2300 H     1 <1>   0.0800 
 58 H       -4.2770    -6.5410    -1.0920 H     1 <1>   0.0800 
 59 H        0.8460   -11.2460     0.3430 H     1 <1>   0.1500 
 60 H        2.3460   -13.0080     2.2200 H     1 <1>   0.0800 
 61 H        1.9780   -13.9680     0.8000 H     1 <1>   0.0800 
 62 H        1.5070   -14.5340     2.3860 H     1 <1>   0.0800 
@<TRIPOS>BOND
  1   1   2  2   
  2   2   3  am  
  3   2   4  1   
  4   3   5  1   
  5   3   6  1   
  6   4   7  ar  
  7   4   8  ar  
  8   5   9  1   
  9   5  32  1   
 10   5  33  1   
 11   6  10  1   
 12   6  34  1   
 13   6  35  1   
 14   7  11  ar  
 15   7  12  1   
 16   8  13  ar  
 17   8  36  1   
 18   9  14  1   
 19   9  37  1   
 20   9  38  1   
 21  10  14  1   
 22  10  39  1   
 23  10  40  1   
 24  11  15  ar  
 25  11  41  1   
 26  12  42  1   
 27  12  43  1   
 28  12  44  1   
 29  13  15  ar  
 30  13  45  1   
 31  14  16  1   
 32  14  46  1   
 33  15  47  1   
 34  16  17  2   
 35  16  18  am  
 36  18  19  1   
 37  18  20  1   
 38  19  21  1   
 39  19  48  1   
 40  19  49  1   
 41  20  22  1   
 42  20  50  1   
 43  20  51  1   
 44  21  22  1   
 45  21  23  1   
 46  21  52  1   
 47  22  24  1   
 48  22  53  1   
 49  23  25  1   
 50  24  26  1   
 51  24  54  1   
 52  24  55  1   
 53  25  56  1   
 54  25  57  1   
 55  25  58  1   
 56  26  27  1   
 57  26  28  2   
 58  27  29  1   
 59  28  30  1   
 60  28  59  1   
 61  29  30  2   
 62  30  31  1   
 63  31  60  1   
 64  31  61  1   
 65  31  62  1   
@<TRIPOS>SUBSTRUCTURE
  1 ****  16 GROUP 4 **** **** 0

# MOE 2024.06 (io_trps.svl 2023.06)
