@<TRIPOS>MOLECULE
NONAME
46 49 1 0 0 
SMALL
USER_CHARGES


@<TRIPOS>ATOM
  1 F       -0.5390     0.9570    -0.0100 F     1 <1>  -0.1900 
  2 C        0.1700     1.9620     0.4390 C.ar  1 <1>   0.1900 
  3 C        0.2020     3.1290    -0.2810 C.ar  1 <1>  -0.1500 
  4 C        0.8640     1.7860     1.6400 C.ar  1 <1>  -0.1500 
  5 C        0.9680     4.1910     0.2180 C.ar  1 <1>   0.0000 
  6 C        1.6160     2.8260     2.1350 C.ar  1 <1>  -0.1500 
  7 C        1.6600     4.0270     1.4150 C.ar  1 <1>  -0.1520 
  8 C        1.2410     5.5000    -0.2280 C.2   1 <1>  -0.1810 
  9 N        2.3180     5.1940     1.6820 N.pl3 1 <1>   0.0330 
 10 C        2.0550     6.1090     0.6920 C.2   1 <1>  -0.2370 
 11 C        0.6930     6.0340    -1.5420 C.3   1 <1>  -0.0590 
 12 C        2.6230     7.4270     0.7910 C.2   1 <1>   0.7150 
 13 O        3.5700     7.6260     1.5280 O.2   1 <1>  -0.5700 
 14 N        2.0580     8.4520     0.0860 N.am  1 <1>  -0.4940 
 15 C        2.3680     9.8320     0.0550 C.2   1 <1>  -0.0880 
 16 N        3.6020    10.4030    -0.0840 N.pl3 1 <1>   0.3140 
 17 C        1.4790    10.8500     0.1410 C.2   1 <1>  -0.1810 
 18 N        3.5060    11.7600    -0.0820 N.2   1 <1>  -0.7070 
 19 C        4.9080     9.7080    -0.3010 C.3   1 <1>   0.1760 
 20 C        2.2420    12.0070     0.0550 C.2   1 <1>   0.1390 
 21 C       -0.0280    10.8050     0.3110 C.3   1 <1>  -0.0590 
 22 C        5.9010     9.9320     0.8520 C.3   1 <1>  -0.1600 
 23 C        5.6330    10.1670    -1.5740 C.3   1 <1>  -0.1600 
 24 C        7.2370    10.3290     0.2120 C.3   1 <1>  -0.1600 
 25 C        7.1130     9.9610    -1.2640 C.3   1 <1>  -0.1600 
 26 H       -0.3420     3.2310    -1.2000 H     1 <1>   0.1500 
 27 H        0.7950     0.8440     2.1530 H     1 <1>   0.1500 
 28 H        2.1630     2.7280     3.0560 H     1 <1>   0.1500 
 29 H        2.9330     5.3770     2.4840 H     1 <1>   0.2700 
 30 H        0.7300     5.2620    -2.2900 H     1 <1>   0.0800 
 31 H        1.2750     6.8610    -1.9020 H     1 <1>   0.0800 
 32 H       -0.3290     6.3420    -1.4170 H     1 <1>   0.0800 
 33 H        1.1540     8.2000    -0.3060 H     1 <1>   0.3700 
 34 H        4.7290     8.6550    -0.3960 H     1 <1>   0.0800 
 35 H        1.8420    13.0060     0.0950 H     1 <1>   0.1500 
 36 H       -0.3620     9.7990     0.4900 H     1 <1>   0.0800 
 37 H       -0.5070    11.1800    -0.5760 H     1 <1>   0.0800 
 38 H       -0.3180    11.4150     1.1480 H     1 <1>   0.0800 
 39 H        6.0110     9.0170     1.4060 H     1 <1>   0.0800 
 40 H        5.5630    10.7070     1.5190 H     1 <1>   0.0800 
 41 H        5.4600    11.2160    -1.7460 H     1 <1>   0.0800 
 42 H        5.3220     9.6050    -2.4350 H     1 <1>   0.0800 
 43 H        8.0720     9.8370     0.6810 H     1 <1>   0.0800 
 44 H        7.3640    11.3950     0.3000 H     1 <1>   0.0800 
 45 H        7.7450    10.5700    -1.8870 H     1 <1>   0.0800 
 46 H        7.3710     8.9240    -1.4010 H     1 <1>   0.0800 
@<TRIPOS>BOND
  1   1   2  1   
  2   2   3  ar  
  3   2   4  ar  
  4   3   5  ar  
  5   3  26  1   
  6   4   6  ar  
  7   4  27  1   
  8   5   7  ar  
  9   5   8  1   
 10   6   7  ar  
 11   6  28  1   
 12   7   9  1   
 13   8  10  2   
 14   8  11  1   
 15   9  10  1   
 16   9  29  1   
 17  10  12  1   
 18  11  30  1   
 19  11  31  1   
 20  11  32  1   
 21  12  13  2   
 22  12  14  am  
 23  14  15  1   
 24  14  33  1   
 25  15  16  1   
 26  15  17  2   
 27  16  18  1   
 28  16  19  1   
 29  17  20  1   
 30  17  21  1   
 31  18  20  2   
 32  19  22  1   
 33  19  23  1   
 34  19  34  1   
 35  20  35  1   
 36  21  36  1   
 37  21  37  1   
 38  21  38  1   
 39  22  24  1   
 40  22  39  1   
 41  22  40  1   
 42  23  25  1   
 43  23  41  1   
 44  23  42  1   
 45  24  25  1   
 46  24  43  1   
 47  24  44  1   
 48  25  45  1   
 49  25  46  1   
@<TRIPOS>SUBSTRUCTURE
  1 ****  12 GROUP 4 **** **** 0

# MOE 2024.06 (io_trps.svl 2023.06)
