@<TRIPOS>MOLECULE
NONAME
48 50 1 0 0 
SMALL
USER_CHARGES


@<TRIPOS>ATOM
  1 O       -1.2360     0.0290     1.5830 O.2   1 <1>  -0.5700 
  2 C       -1.9920     0.4630     0.7500 C.2   1 <1>   0.5690 
  3 N       -2.8460    -0.3550     0.0490 N.am  1 <1>  -0.6600 
  4 C       -1.9720     1.9550     0.5110 C.3   1 <1>  -0.1790 
  5 C       -2.8010    -1.8280     0.2340 C.3   1 <1>   0.1400 
  6 C       -3.8520     0.1070    -0.9390 C.3   1 <1>   0.1400 
  7 C       -4.1690    -2.3070     0.7180 C.3   1 <1>  -0.1600 
  8 C       -5.2380    -0.3500    -0.4810 C.3   1 <1>  -0.1600 
  9 C       -5.2810    -1.8680    -0.2450 C.3   1 <1>   0.4230 
 10 N       -6.6090    -2.2570     0.3070 N.4   1 <1>  -0.9590 
 11 C       -7.8010    -1.8900    -0.5100 C.3   1 <1>   0.3430 
 12 C       -6.7840    -3.7080     0.6260 C.3   1 <1>   0.3430 
 13 C       -8.9350    -2.7020     0.1140 C.3   1 <1>   0.2000 
 14 C       -8.2720    -4.0430     0.4270 C.3   1 <1>  -0.0800 
 15 O       -9.2720    -2.0980     1.3190 O.3   1 <1>  -0.6800 
 16 C       -8.4730    -5.0600    -0.7140 C.3   1 <1>  -0.0170 
 17 C       -7.6020    -6.2890    -0.5080 C.ar  1 <1>  -0.1440 
 18 C       -7.7910    -7.1480     0.5570 C.ar  1 <1>  -0.1500 
 19 C       -6.5740    -6.6100    -1.3740 C.ar  1 <1>  -0.1500 
 20 C       -6.9540    -8.2400     0.7140 C.ar  1 <1>   0.1600 
 21 C       -5.7950    -7.7290    -1.1280 C.ar  1 <1>   0.1600 
 22 N       -5.9550    -8.5410    -0.0980 N.ar  1 <1>  -0.6200 
 23 H       -1.7520     2.1590    -0.5200 H     1 <1>   0.0800 
 24 H       -1.2080     2.4070     1.1180 H     1 <1>   0.0800 
 25 H       -2.9190     2.3830     0.7790 H     1 <1>   0.0800 
 26 H       -2.5430    -2.2940    -0.7020 H     1 <1>   0.0800 
 27 H       -2.0470    -2.1030     0.9540 H     1 <1>   0.0800 
 28 H       -3.8410     1.1790    -1.0370 H     1 <1>   0.0800 
 29 H       -3.6160    -0.3140    -1.9020 H     1 <1>   0.0800 
 30 H       -4.3380    -1.8980     1.6990 H     1 <1>   0.0800 
 31 H       -4.1290    -3.3770     0.7940 H     1 <1>   0.0800 
 32 H       -5.9430    -0.0670    -1.2400 H     1 <1>   0.0800 
 33 H       -5.4820     0.1720     0.4280 H     1 <1>   0.0800 
 34 H       -5.1270    -2.3650    -1.1900 H     1 <1>   0.0800 
 35 H       -6.7470    -1.7560     1.2000 H     1 <1>   0.4500 
 36 H       -8.0140    -0.8340    -0.4680 H     1 <1>   0.0800 
 37 H       -7.6560    -2.1930    -1.5330 H     1 <1>   0.0800 
 38 H       -6.1790    -4.3110    -0.0320 H     1 <1>   0.0800 
 39 H       -6.4860    -3.9050     1.6440 H     1 <1>   0.0800 
 40 H       -9.8120    -2.7630    -0.5100 H     1 <1>   0.0800 
 41 H       -8.6720    -4.4690     1.3310 H     1 <1>   0.0800 
 42 H      -10.1060    -2.4660     1.6840 H     1 <1>   0.4000 
 43 H       -8.2370    -4.6120    -1.6640 H     1 <1>   0.0800 
 44 H       -9.5050    -5.3660    -0.7500 H     1 <1>   0.0800 
 45 H       -8.5810    -6.9890     1.2680 H     1 <1>   0.1500 
 46 H       -6.3670    -6.0140    -2.2440 H     1 <1>   0.1500 
 47 H       -7.1150    -8.9010     1.5490 H     1 <1>   0.1500 
 48 H       -4.9990    -7.9700    -1.8130 H     1 <1>   0.1500 
@<TRIPOS>BOND
  1   1   2  2   
  2   2   3  am  
  3   2   4  1   
  4   3   5  1   
  5   3   6  1   
  6   4  23  1   
  7   4  24  1   
  8   4  25  1   
  9   5   7  1   
 10   5  26  1   
 11   5  27  1   
 12   6   8  1   
 13   6  28  1   
 14   6  29  1   
 15   7   9  1   
 16   7  30  1   
 17   7  31  1   
 18   8   9  1   
 19   8  32  1   
 20   8  33  1   
 21   9  10  1   
 22   9  34  1   
 23  10  11  1   
 24  10  12  1   
 25  10  35  1   
 26  11  13  1   
 27  11  36  1   
 28  11  37  1   
 29  12  14  1   
 30  12  38  1   
 31  12  39  1   
 32  13  14  1   
 33  13  15  1   
 34  13  40  1   
 35  14  16  1   
 36  14  41  1   
 37  15  42  1   
 38  16  17  1   
 39  16  43  1   
 40  16  44  1   
 41  17  18  ar  
 42  17  19  ar  
 43  18  20  ar  
 44  18  45  1   
 45  19  21  ar  
 46  19  46  1   
 47  20  22  ar  
 48  20  47  1   
 49  21  22  ar  
 50  21  48  1   
@<TRIPOS>SUBSTRUCTURE
  1 ****  12 GROUP 4 **** **** 0

# MOE 2024.06 (io_trps.svl 2023.06)
