@<TRIPOS>MOLECULE
NONAME
53 55 1 0 0 
SMALL
USER_CHARGES


@<TRIPOS>ATOM
  1 O        3.0620    -0.6910     1.7410 O.2   1 <1>  -0.5700 
  2 C        2.4440    -1.0830     0.7670 C.2   1 <1>   0.5440 
  3 N        2.0850    -0.1830    -0.2200 N.am  1 <1>  -0.6600 
  4 C        2.1660    -2.5000     0.6410 C.ar  1 <1>   0.0860 
  5 C        1.7610     1.2650    -0.0340 C.3   1 <1>   0.2200 
  6 C        2.1240    -0.5750    -1.6530 C.3   1 <1>   0.1400 
  7 C        0.8780    -2.9900     0.3810 C.ar  1 <1>   0.0820 
  8 C        3.2010    -3.4250     0.7810 C.ar  1 <1>  -0.1500 
  9 C        2.8920     2.0890    -0.6690 C.3   1 <1>  -0.1600 
 10 C        1.4610     1.6670     1.4160 C.3   1 <1>  -0.0990 
 11 C        3.2330     0.2220    -2.3510 C.3   1 <1>  -0.1600 
 12 O       -0.1300    -2.0900     0.2790 O.3   1 <1>  -0.3630 
 13 C        0.6620    -4.3600     0.2440 C.ar  1 <1>  -0.1500 
 14 C        2.9830    -4.7820     0.6480 C.ar  1 <1>  -0.1500 
 15 C        3.0640     1.7370    -2.1560 C.3   1 <1>  -0.1600 
 16 C        0.8700     3.0540     1.4900 C.2   1 <1>   0.5690 
 17 C       -1.4700    -2.4510     0.0380 C.3   1 <1>   0.1200 
 18 C        1.7100    -5.2510     0.3750 C.ar  1 <1>  -0.1500 
 19 O       -0.1260     3.3240     0.8720 O.2   1 <1>  -0.5700 
 20 N        1.4670     3.9890     2.2500 N.am  1 <1>  -0.8000 
 21 C       -2.3080    -1.1760     0.0080 C.3   1 <1>  -0.0170 
 22 C       -3.7580    -1.5200    -0.2910 C.ar  1 <1>  -0.1440 
 23 C       -4.6270    -1.8420     0.7400 C.ar  1 <1>  -0.1500 
 24 C       -4.2210    -1.5220    -1.5970 C.ar  1 <1>  -0.1500 
 25 C       -5.9450    -2.1660     0.4680 C.ar  1 <1>  -0.1500 
 26 C       -5.5390    -1.8450    -1.8710 C.ar  1 <1>  -0.1500 
 27 C       -6.4010    -2.1680    -0.8390 C.ar  1 <1>  -0.1500 
 28 H        0.8610     1.4560    -0.5960 H     1 <1>   0.0800 
 29 H        1.1700    -0.3610    -2.1040 H     1 <1>   0.0800 
 30 H        2.3180    -1.6280    -1.7600 H     1 <1>   0.0800 
 31 H        4.1900    -3.0600     1.0000 H     1 <1>   0.1500 
 32 H        3.8070     1.8950    -0.1370 H     1 <1>   0.0800 
 33 H        2.6740     3.1390    -0.5830 H     1 <1>   0.0800 
 34 H        2.3590     1.6390     2.0020 H     1 <1>   0.0800 
 35 H        0.7480     0.9820     1.8340 H     1 <1>   0.0800 
 36 H        3.2330    -0.0110    -3.4010 H     1 <1>   0.0800 
 37 H        4.1820    -0.0880    -1.9480 H     1 <1>   0.0800 
 38 H       -0.3160    -4.7530     0.0380 H     1 <1>   0.1500 
 39 H        3.8000    -5.4750     0.7580 H     1 <1>   0.1500 
 40 H        3.9200     2.2540    -2.5560 H     1 <1>   0.0800 
 41 H        2.1950     2.0680    -2.6980 H     1 <1>   0.0800 
 42 H       -1.7990    -3.1010     0.8300 H     1 <1>   0.0800 
 43 H       -1.5230    -2.9590    -0.9090 H     1 <1>   0.0800 
 44 H        1.5380    -6.3080     0.2690 H     1 <1>   0.1500 
 45 H        1.0590     4.9220     2.3080 H     1 <1>   0.3700 
 46 H        2.3010     3.8130     2.8100 H     1 <1>   0.3700 
 47 H       -1.9280    -0.5110    -0.7470 H     1 <1>   0.0800 
 48 H       -2.2410    -0.6780     0.9600 H     1 <1>   0.0800 
 49 H       -4.2820    -1.8420     1.7590 H     1 <1>   0.1500 
 50 H       -3.5590    -1.2710    -2.4070 H     1 <1>   0.1500 
 51 H       -6.6150    -2.4140     1.2720 H     1 <1>   0.1500 
 52 H       -5.8930    -1.8440    -2.8870 H     1 <1>   0.1500 
 53 H       -7.4260    -2.4190    -1.0510 H     1 <1>   0.1500 
@<TRIPOS>BOND
  1   1   2  2   
  2   2   3  am  
  3   2   4  1   
  4   3   5  1   
  5   3   6  1   
  6   4   7  ar  
  7   4   8  ar  
  8   5   9  1   
  9   5  10  1   
 10   5  28  1   
 11   6  11  1   
 12   6  29  1   
 13   6  30  1   
 14   7  12  1   
 15   7  13  ar  
 16   8  14  ar  
 17   8  31  1   
 18   9  15  1   
 19   9  32  1   
 20   9  33  1   
 21  10  16  1   
 22  10  34  1   
 23  10  35  1   
 24  11  15  1   
 25  11  36  1   
 26  11  37  1   
 27  12  17  1   
 28  13  18  ar  
 29  13  38  1   
 30  14  18  ar  
 31  14  39  1   
 32  15  40  1   
 33  15  41  1   
 34  16  19  2   
 35  16  20  am  
 36  17  21  1   
 37  17  42  1   
 38  17  43  1   
 39  18  44  1   
 40  20  45  1   
 41  20  46  1   
 42  21  22  1   
 43  21  47  1   
 44  21  48  1   
 45  22  23  ar  
 46  22  24  ar  
 47  23  25  ar  
 48  23  49  1   
 49  24  26  ar  
 50  24  50  1   
 51  25  27  ar  
 52  25  51  1   
 53  26  27  ar  
 54  26  52  1   
 55  27  53  1   
@<TRIPOS>SUBSTRUCTURE
  1 ****  12 GROUP 4 **** **** 0

# MOE 2024.06 (io_trps.svl 2023.06)
