@<TRIPOS>MOLECULE
NONAME
54 56 1 0 0 
SMALL
USER_CHARGES


@<TRIPOS>ATOM
  1 O        2.5560    -0.3220    -1.1490 O.2   1 <1>  -0.5700 
  2 C        2.9090    -0.5990    -0.0060 C.2   1 <1>   0.6160 
  3 N        3.1250    -1.9360     0.3180 N.am  1 <1>  -0.4690 
  4 C        3.1280     0.3970     0.9980 C.2   1 <1>   0.0290 
  5 C        3.5360    -2.2960     1.5800 C.2   1 <1>  -0.0410 
  6 C        2.8870    -2.9840    -0.7090 C.3   1 <1>   0.0600 
  7 C        2.9050     1.7780     0.6790 C.2   1 <1>   0.6160 
  8 C        3.5320     0.0050     2.2500 C.2   1 <1>  -0.1500 
  9 C        3.7410    -1.3560     2.5420 C.2   1 <1>  -0.1500 
 10 O        2.0010     2.3600     1.2550 O.2   1 <1>  -0.5700 
 11 N        3.7170     2.4830    -0.1920 N.am  1 <1>  -0.6600 
 12 C        4.8580     1.8240    -0.9080 C.3   1 <1>   0.1400 
 13 C        3.5340     3.9450    -0.3910 C.3   1 <1>   0.1400 
 14 C        5.9770     2.7480    -1.4190 C.3   1 <1>   0.1100 
 15 C        4.5460     4.7190     0.4580 C.3   1 <1>  -0.1600 
 16 N        6.6040     3.5390    -0.3400 N.3   1 <1>  -0.8100 
 17 C        5.9410     4.8420    -0.1600 C.3   1 <1>   0.1100 
 18 C        8.0700     3.7100    -0.5800 C.3   1 <1>   0.1710 
 19 C        8.9530     4.3110     0.5400 C.2   1 <1>   0.5690 
 20 O        8.4840     4.5040     1.6410 O.2   1 <1>  -0.5700 
 21 N       10.2710     4.6180     0.2760 N.am  1 <1>  -0.6600 
 22 C       11.1520     5.1960     1.3330 C.3   1 <1>   0.1400 
 23 C       10.9770     4.3810    -1.0170 C.3   1 <1>   0.1400 
 24 C       12.3400     4.2600     1.5840 C.3   1 <1>  -0.1600 
 25 C       12.1600     3.4330    -0.7920 C.3   1 <1>  -0.1600 
 26 C       13.1110     3.9630     0.2900 C.3   1 <1>  -0.1600 
 27 H        3.6880    -3.3430     1.7840 H     1 <1>   0.1500 
 28 H        3.5300    -2.8120    -1.5540 H     1 <1>   0.0800 
 29 H        1.8630    -2.9370    -1.0370 H     1 <1>   0.0800 
 30 H        3.0840    -3.9620    -0.3090 H     1 <1>   0.0800 
 31 H        3.6920     0.7370     3.0250 H     1 <1>   0.1500 
 32 H        4.0600    -1.6300     3.5330 H     1 <1>   0.1500 
 33 H        4.4580     1.2910    -1.7530 H     1 <1>   0.0800 
 34 H        5.3140     1.1030    -0.2540 H     1 <1>   0.0800 
 35 H        2.5400     4.2290    -0.0900 H     1 <1>   0.0800 
 36 H        3.6320     4.1950    -1.4320 H     1 <1>   0.0800 
 37 H        5.6050     3.3900    -2.1980 H     1 <1>   0.0800 
 38 H        6.7150     2.1080    -1.8680 H     1 <1>   0.0800 
 39 H        4.6200     4.2770     1.4360 H     1 <1>   0.0800 
 40 H        4.1670     5.7150     0.5910 H     1 <1>   0.0800 
 41 H        6.5260     5.4540     0.5050 H     1 <1>   0.0800 
 42 H        5.8810     5.3570    -1.1040 H     1 <1>   0.0800 
 43 H        8.1930     4.3190    -1.4570 H     1 <1>   0.0800 
 44 H        8.4870     2.7430    -0.7890 H     1 <1>   0.0800 
 45 H       10.6100     5.3390     2.2520 H     1 <1>   0.0800 
 46 H       11.5060     6.1580     1.0060 H     1 <1>   0.0800 
 47 H       11.3360     5.3230    -1.3940 H     1 <1>   0.0800 
 48 H       10.3220     3.9570    -1.7550 H     1 <1>   0.0800 
 49 H       11.9690     3.3430     2.0070 H     1 <1>   0.0800 
 50 H       12.9990     4.7100     2.3040 H     1 <1>   0.0800 
 51 H       12.6990     3.3100    -1.7150 H     1 <1>   0.0800 
 52 H       11.7840     2.4680    -0.5010 H     1 <1>   0.0800 
 53 H       13.8830     3.2390     0.4850 H     1 <1>   0.0800 
 54 H       13.5820     4.8660    -0.0590 H     1 <1>   0.0800 
@<TRIPOS>BOND
  1   1   2  2   
  2   2   3  am  
  3   2   4  1   
  4   3   5  1   
  5   3   6  1   
  6   4   7  1   
  7   4   8  2   
  8   5   9  2   
  9   5  27  1   
 10   6  28  1   
 11   6  29  1   
 12   6  30  1   
 13   7  10  2   
 14   7  11  am  
 15   8   9  1   
 16   8  31  1   
 17   9  32  1   
 18  11  12  1   
 19  11  13  1   
 20  12  14  1   
 21  12  33  1   
 22  12  34  1   
 23  13  15  1   
 24  13  35  1   
 25  13  36  1   
 26  14  16  1   
 27  14  37  1   
 28  14  38  1   
 29  15  17  1   
 30  15  39  1   
 31  15  40  1   
 32  16  17  1   
 33  16  18  1   
 34  17  41  1   
 35  17  42  1   
 36  18  19  1   
 37  18  43  1   
 38  18  44  1   
 39  19  20  2   
 40  19  21  am  
 41  21  22  1   
 42  21  23  1   
 43  22  24  1   
 44  22  45  1   
 45  22  46  1   
 46  23  25  1   
 47  23  47  1   
 48  23  48  1   
 49  24  26  1   
 50  24  49  1   
 51  24  50  1   
 52  25  26  1   
 53  25  51  1   
 54  25  52  1   
 55  26  53  1   
 56  26  54  1   
@<TRIPOS>SUBSTRUCTURE
  1 ****  16 GROUP 4 **** **** 0

# MOE 2024.06 (io_trps.svl 2023.06)
