@<TRIPOS>MOLECULE
NONAME
57 60 1 0 0 
SMALL
USER_CHARGES


@<TRIPOS>ATOM
  1 O       -2.1960     1.1530    -1.5280 O.2   1 <1>  -0.5700 
  2 C       -2.0760     1.1030    -0.3280 C.2   1 <1>   0.5690 
  3 N       -2.1910    -0.0690     0.3510 N.am  1 <1>  -0.7300 
  4 C       -1.7420     2.4070     0.4190 C.3   1 <1>   0.4040 
  5 C       -2.4560    -1.3910    -0.2690 C.3   1 <1>   0.2200 
  6 N       -0.2880     2.8280     0.3330 N.4   1 <1>  -0.9590 
  7 C       -3.8360    -1.8710     0.1610 C.3   1 <1>  -0.0800 
  8 C       -1.5610    -2.4240     0.4000 C.3   1 <1>   0.1200 
  9 C       -0.0150     4.0240     1.1800 C.3   1 <1>   0.3430 
 10 C        0.1160     3.0570    -1.0910 C.3   1 <1>   0.3430 
 11 C       -3.5540    -2.5710     1.5020 C.3   1 <1>   0.1200 
 12 C       -4.4510    -2.8320    -0.8780 C.3   1 <1>  -0.0170 
 13 O       -2.1640    -2.6460     1.6340 O.3   1 <1>  -0.5600 
 14 C        1.4800     4.3400     1.1570 C.3   1 <1>  -0.1600 
 15 C        1.6130     3.3610    -1.1580 C.3   1 <1>  -0.1600 
 16 C       -5.8450    -3.2950    -0.4640 C.ar  1 <1>  -0.1440 
 17 C        1.9900     4.5590    -0.2750 C.3   1 <1>  -0.0800 
 18 C       -6.9860    -2.4640    -0.5750 C.ar  1 <1>   0.0000 
 19 C       -6.0290    -4.5510     0.0370 C.ar  1 <1>  -0.1500 
 20 C        3.5070     4.7770    -0.2810 C.3   1 <1>  -0.2400 
 21 C       -8.2250    -2.9850    -0.1290 C.ar  1 <1>   0.3100 
 22 C       -6.9730    -1.1520    -1.1060 C.ar  1 <1>  -0.1500 
 23 C       -7.3010    -4.9720     0.4390 C.ar  1 <1>   0.1600 
 24 N       -8.3650    -4.2380     0.3740 N.ar  1 <1>  -0.6200 
 25 C       -9.3710    -2.1780    -0.2100 C.ar  1 <1>  -0.1500 
 26 C       -8.1100    -0.3930    -1.1740 C.ar  1 <1>  -0.1500 
 27 C       -9.3250    -0.9090    -0.7180 C.ar  1 <1>  -0.1500 
 28 H       -2.1050    -0.1440     1.3700 H     1 <1>   0.3700 
 29 H       -2.0190     2.2800     1.4500 H     1 <1>   0.0800 
 30 H       -2.3620     3.1850     0.0060 H     1 <1>   0.0800 
 31 H       -2.3240    -1.3550    -1.3380 H     1 <1>   0.0800 
 32 H        0.2950     2.0550     0.6800 H     1 <1>   0.4500 
 33 H       -4.5060    -1.0430     0.3060 H     1 <1>   0.0800 
 34 H       -0.5520    -2.0800     0.5430 H     1 <1>   0.0800 
 35 H       -1.5590    -3.3520    -0.1440 H     1 <1>   0.0800 
 36 H       -0.5660     4.8720     0.8040 H     1 <1>   0.0800 
 37 H       -0.3250     3.8400     2.1960 H     1 <1>   0.0800 
 38 H       -0.0940     2.1820    -1.6870 H     1 <1>   0.0800 
 39 H       -0.4390     3.8840    -1.5030 H     1 <1>   0.0800 
 40 H       -3.9520    -3.5690     1.5410 H     1 <1>   0.0800 
 41 H       -3.9380    -2.0030     2.3320 H     1 <1>   0.0800 
 42 H       -3.8130    -3.6900    -1.0000 H     1 <1>   0.0800 
 43 H       -4.5090    -2.3510    -1.8390 H     1 <1>   0.0800 
 44 H        1.6560     5.2300     1.7370 H     1 <1>   0.0800 
 45 H        2.0220     3.5380     1.6280 H     1 <1>   0.0800 
 46 H        2.1660     2.4870    -0.8600 H     1 <1>   0.0800 
 47 H        1.8760     3.5740    -2.1800 H     1 <1>   0.0800 
 48 H        1.5230     5.4440    -0.6770 H     1 <1>   0.0800 
 49 H       -5.2140    -5.2440     0.1410 H     1 <1>   0.1500 
 50 H        4.0240     3.9190     0.1120 H     1 <1>   0.0800 
 51 H        3.7650     5.6330     0.3180 H     1 <1>   0.0800 
 52 H        3.8560     4.9550    -1.2830 H     1 <1>   0.0800 
 53 H       -6.0530    -0.7370    -1.4700 H     1 <1>   0.1500 
 54 H       -7.4010    -5.9710     0.8300 H     1 <1>   0.1500 
 55 H      -10.2950    -2.5970     0.1430 H     1 <1>   0.1500 
 56 H       -8.0860     0.6040    -1.5800 H     1 <1>   0.1500 
 57 H      -10.2120    -0.3020    -0.7750 H     1 <1>   0.1500 
@<TRIPOS>BOND
  1   1   2  2   
  2   2   3  am  
  3   2   4  1   
  4   3   5  1   
  5   3  28  1   
  6   4   6  1   
  7   4  29  1   
  8   4  30  1   
  9   5   7  1   
 10   5   8  1   
 11   5  31  1   
 12   6   9  1   
 13   6  10  1   
 14   6  32  1   
 15   7  11  1   
 16   7  12  1   
 17   7  33  1   
 18   8  13  1   
 19   8  34  1   
 20   8  35  1   
 21   9  14  1   
 22   9  36  1   
 23   9  37  1   
 24  10  15  1   
 25  10  38  1   
 26  10  39  1   
 27  11  13  1   
 28  11  40  1   
 29  11  41  1   
 30  12  16  1   
 31  12  42  1   
 32  12  43  1   
 33  14  17  1   
 34  14  44  1   
 35  14  45  1   
 36  15  17  1   
 37  15  46  1   
 38  15  47  1   
 39  16  18  ar  
 40  16  19  ar  
 41  17  20  1   
 42  17  48  1   
 43  18  21  ar  
 44  18  22  ar  
 45  19  23  ar  
 46  19  49  1   
 47  20  50  1   
 48  20  51  1   
 49  20  52  1   
 50  21  24  ar  
 51  21  25  ar  
 52  22  26  ar  
 53  22  53  1   
 54  23  24  ar  
 55  23  54  1   
 56  25  27  ar  
 57  25  55  1   
 58  26  27  ar  
 59  26  56  1   
 60  27  57  1   
@<TRIPOS>SUBSTRUCTURE
  1 ****   3 GROUP 4 **** **** 0

# MOE 2024.06 (io_trps.svl 2023.06)
