@<TRIPOS>MOLECULE
NONAME
53 55 1 0 0 
SMALL
USER_CHARGES


@<TRIPOS>ATOM
  1 O        1.8870     1.0120    -1.2470 O.2   1 <1>  -0.5700 
  2 C        2.3140     0.4500    -0.2690 C.2   1 <1>   0.5950 
  3 C        2.4910    -0.9750    -0.1830 C.2   1 <1>  -0.0860 
  4 C        2.6740     1.3010     0.9280 C.3   1 <1>  -0.1790 
  5 C        2.9130    -1.7550     0.8670 C.2   1 <1>  -0.3020 
  6 C        2.2500    -1.8840    -1.2300 C.2   1 <1>  -0.1500 
  7 N        2.9370    -3.0590     0.5160 N.pl3 1 <1>   0.0480 
  8 C        2.5220    -3.1350    -0.7790 C.2   1 <1>  -0.3320 
  9 C        3.3580    -4.1760     1.3790 C.3   1 <1>   0.0160 
 10 C        2.4000    -4.4330    -1.5550 C.3   1 <1>   0.2900 
 11 N        1.2820    -5.2400    -1.0280 N.3   1 <1>  -0.8100 
 12 C       -0.0080    -4.5040    -1.1090 C.3   1 <1>   0.1100 
 13 C        1.1820    -6.5290    -1.7480 C.3   1 <1>   0.1100 
 14 C       -1.1910    -5.3050    -0.5090 C.3   1 <1>   0.4230 
 15 C       -0.0660    -7.3530    -1.3450 C.3   1 <1>   0.3430 
 16 N       -0.7960    -6.7290    -0.1880 N.4   1 <1>  -0.9590 
 17 C       -2.4290    -5.2640    -1.4330 C.3   1 <1>   0.1200 
 18 C       -1.9790    -7.4920     0.3280 C.3   1 <1>   0.4230 
 19 O       -3.4760    -6.0190    -0.8900 O.3   1 <1>  -0.5600 
 20 C       -3.1820    -7.3660    -0.6390 C.3   1 <1>   0.1200 
 21 C       -1.5960    -8.9510     0.6240 C.3   1 <1>  -0.1600 
 22 C       -2.6510    -9.6740     1.4760 C.3   1 <1>  -0.1600 
 23 C       -2.1940   -11.0950     1.8170 C.3   1 <1>  -0.2400 
 24 H        3.7060     1.1510     1.1800 H     1 <1>   0.0800 
 25 H        2.0560     1.0290     1.7620 H     1 <1>   0.0800 
 26 H        2.5170     2.3400     0.7000 H     1 <1>   0.0800 
 27 H        3.2000    -1.4240     1.8490 H     1 <1>   0.1500 
 28 H        1.9090    -1.5830    -2.2070 H     1 <1>   0.1500 
 29 H        3.5590    -3.8120     2.3700 H     1 <1>   0.0800 
 30 H        4.2480    -4.6190     0.9730 H     1 <1>   0.0800 
 31 H        2.5740    -4.9090     1.4170 H     1 <1>   0.0800 
 32 H        3.3220    -4.9830    -1.4730 H     1 <1>   0.0800 
 33 H        2.2350    -4.2090    -2.5960 H     1 <1>   0.0800 
 34 H        0.0610    -3.5760    -0.5670 H     1 <1>   0.0800 
 35 H       -0.2120    -4.2510    -2.1370 H     1 <1>   0.0800 
 36 H        1.1520    -6.3570    -2.8120 H     1 <1>   0.0800 
 37 H        2.0640    -7.1130    -1.5430 H     1 <1>   0.0800 
 38 H       -1.4720    -4.8140     0.4080 H     1 <1>   0.0800 
 39 H        0.2500    -8.3510    -1.0920 H     1 <1>   0.0800 
 40 H       -0.7250    -7.4280    -2.1940 H     1 <1>   0.0800 
 41 H       -0.0870    -6.6310     0.5500 H     1 <1>   0.4500 
 42 H       -2.2010    -5.6460    -2.4120 H     1 <1>   0.0800 
 43 H       -2.7800    -4.2520    -1.5350 H     1 <1>   0.0800 
 44 H       -2.2830    -7.0460     1.2620 H     1 <1>   0.0800 
 45 H       -4.0600    -7.8050    -0.2010 H     1 <1>   0.0800 
 46 H       -2.9860    -7.8590    -1.5750 H     1 <1>   0.0800 
 47 H       -1.4670    -9.4960    -0.2950 H     1 <1>   0.0800 
 48 H       -0.6660    -8.9650     1.1660 H     1 <1>   0.0800 
 49 H       -2.8180    -9.1340     2.3940 H     1 <1>   0.0800 
 50 H       -3.5880    -9.7350     0.9500 H     1 <1>   0.0800 
 51 H       -1.2760   -11.0790     2.3790 H     1 <1>   0.0800 
 52 H       -2.0430   -11.6740     0.9220 H     1 <1>   0.0800 
 53 H       -2.9430   -11.5880     2.4130 H     1 <1>   0.0800 
@<TRIPOS>BOND
  1   1   2  2   
  2   2   3  1   
  3   2   4  1   
  4   3   5  2   
  5   3   6  1   
  6   4  24  1   
  7   4  25  1   
  8   4  26  1   
  9   5   7  1   
 10   5  27  1   
 11   6   8  2   
 12   6  28  1   
 13   7   8  1   
 14   7   9  1   
 15   8  10  1   
 16   9  29  1   
 17   9  30  1   
 18   9  31  1   
 19  10  11  1   
 20  10  32  1   
 21  10  33  1   
 22  11  12  1   
 23  11  13  1   
 24  12  14  1   
 25  12  34  1   
 26  12  35  1   
 27  13  15  1   
 28  13  36  1   
 29  13  37  1   
 30  14  16  1   
 31  14  17  1   
 32  14  38  1   
 33  15  16  1   
 34  15  39  1   
 35  15  40  1   
 36  16  18  1   
 37  16  41  1   
 38  17  19  1   
 39  17  42  1   
 40  17  43  1   
 41  18  20  1   
 42  18  21  1   
 43  18  44  1   
 44  19  20  1   
 45  20  45  1   
 46  20  46  1   
 47  21  22  1   
 48  21  47  1   
 49  21  48  1   
 50  22  23  1   
 51  22  49  1   
 52  22  50  1   
 53  23  51  1   
 54  23  52  1   
 55  23  53  1   
@<TRIPOS>SUBSTRUCTURE
  1 ****  12 GROUP 4 **** **** 0

# MOE 2024.06 (io_trps.svl 2023.06)
