@<TRIPOS>MOLECULE
NONAME
22 22 1 0 0 
SMALL
USER_CHARGES


@<TRIPOS>ATOM
  1 N        0.7410    -0.0770    -0.7610 N.ar  1 <1>  -0.6200 
  2 C        1.3920     0.5830     0.1980 C.ar  1 <1>   0.1660 
  3 C        0.6920    -1.3930    -0.6530 C.ar  1 <1>   0.1600 
  4 C        1.9970    -0.0750     1.2690 C.ar  1 <1>  -0.1500 
  5 C        1.4400     2.1290     0.0560 C.3   1 <1>   0.3440 
  6 C        1.2640    -2.1190     0.3750 C.ar  1 <1>  -0.1500 
  7 C        1.9380    -1.4490     1.3700 C.ar  1 <1>  -0.1500 
  8 C        2.1850     2.8160     1.1650 C.1   1 <1>  -0.2000 
  9 C        0.0130     2.7010     0.0530 C.3   1 <1>  -0.2400 
 10 C        2.1370     2.5140    -1.2590 C.3   1 <1>  -0.2400 
 11 C        2.7730     3.3750     2.0360 C.1   1 <1>  -0.1770 
 12 H        0.1670    -1.9240    -1.4280 H     1 <1>   0.1500 
 13 H        2.5180     0.4650     2.0360 H     1 <1>   0.1500 
 14 H        1.1810    -3.1900     0.3930 H     1 <1>   0.1500 
 15 H        2.3990    -1.9720     2.1890 H     1 <1>   0.1500 
 16 H       -0.4890     2.4340     0.9650 H     1 <1>   0.0800 
 17 H       -0.5490     2.3020    -0.7730 H     1 <1>   0.0800 
 18 H        0.0330     3.7720    -0.0310 H     1 <1>   0.0800 
 19 H        3.1350     2.1160    -1.2740 H     1 <1>   0.0800 
 20 H        2.1890     3.5830    -1.3630 H     1 <1>   0.0800 
 21 H        1.5990     2.1140    -2.0990 H     1 <1>   0.0800 
 22 H        3.3030     3.8850     2.8220 H     1 <1>   0.1770 
@<TRIPOS>BOND
  1   1   2  ar  
  2   1   3  ar  
  3   2   4  ar  
  4   2   5  1   
  5   3   6  ar  
  6   3  12  1   
  7   4   7  ar  
  8   4  13  1   
  9   5   8  1   
 10   5   9  1   
 11   5  10  1   
 12   6   7  ar  
 13   6  14  1   
 14   7  15  1   
 15   8  11  3   
 16   9  16  1   
 17   9  17  1   
 18   9  18  1   
 19  10  19  1   
 20  10  20  1   
 21  10  21  1   
 22  11  22  1   
@<TRIPOS>SUBSTRUCTURE
  1 ****   2 GROUP 4 **** **** 0

# MOE 2024.06 (io_trps.svl 2023.06)
