@<TRIPOS>MOLECULE
NONAME
44 46 1 0 0 
SMALL
USER_CHARGES


@<TRIPOS>ATOM
  1 S        1.0530     0.7190     1.0630 S.3   1 <1>  -0.0800 
  2 C        1.8380     1.3170    -0.3940 C.2   1 <1>  -0.1400 
  3 C        1.2180    -0.9440     0.5300 C.2   1 <1>  -0.1100 
  4 C        2.1740     0.2860    -1.1940 C.2   1 <1>  -0.1500 
  5 C        2.0010     2.8270    -0.5230 C.3   1 <1>   0.3800 
  6 C        1.8240    -0.9990    -0.6690 C.2   1 <1>  -0.1500 
  7 O        2.5480     3.0970    -1.7640 O.3   1 <1>  -0.6800 
  8 C        2.9090     3.4310     0.5740 C.3   1 <1>  -0.0800 
  9 C        3.0330     4.9650     0.4400 C.3   1 <1>  -0.1600 
 10 C        4.3120     2.7830     0.6300 C.3   1 <1>  -0.1600 
 11 C        3.9430     5.5660     1.5140 C.3   1 <1>   0.2090 
 12 C        5.1850     3.4220     1.7120 C.3   1 <1>   0.2090 
 13 N        5.2650     4.8850     1.4570 N.pl3 1 <1>  -0.8380 
 14 C        6.4170     5.5160     1.0550 C.ar  1 <1>   0.7200 
 15 N        6.4150     6.8480     1.0230 N.ar  1 <1>  -0.6200 
 16 N        7.4570     4.7530     0.7230 N.ar  1 <1>  -0.6200 
 17 C        7.5020     7.4510     0.6170 C.ar  1 <1>   0.1670 
 18 C        8.5300     5.3750     0.3090 C.ar  1 <1>   0.1600 
 19 C        8.6290     6.7510     0.1920 C.ar  1 <1>   0.0860 
 20 C        7.4470     8.9690     0.6730 C.3   1 <1>  -0.0970 
 21 C        9.8370     7.3170    -0.3400 C.2   1 <1>   0.4230 
 22 O       10.9280     6.9090    -0.0400 O.2   1 <1>  -0.5700 
 23 C        9.7900     8.4250    -1.3750 C.3   1 <1>  -0.1790 
 24 H        0.8370    -1.7130     1.1790 H     1 <1>   0.1500 
 25 H        2.6560     0.3720    -2.1530 H     1 <1>   0.1500 
 26 H        1.0300     3.2910    -0.4950 H     1 <1>   0.0800 
 27 H        2.0440    -1.8980    -1.2180 H     1 <1>   0.1500 
 28 H        3.4580     2.7490    -1.7780 H     1 <1>   0.4000 
 29 H        2.4300     3.2380     1.5180 H     1 <1>   0.0800 
 30 H        2.0610     5.4180     0.5120 H     1 <1>   0.0800 
 31 H        3.4410     5.2240    -0.5220 H     1 <1>   0.0800 
 32 H        4.8190     2.8950    -0.3110 H     1 <1>   0.0800 
 33 H        4.2280     1.7310     0.8380 H     1 <1>   0.0800 
 34 H        3.5140     5.4180     2.4890 H     1 <1>   0.0800 
 35 H        4.0340     6.6260     1.3520 H     1 <1>   0.0800 
 36 H        6.1590     2.9650     1.7140 H     1 <1>   0.0800 
 37 H        4.7480     3.2580     2.6820 H     1 <1>   0.0800 
 38 H        9.3820     4.7750     0.0370 H     1 <1>   0.1500 
 39 H        6.7370     9.2820     1.4180 H     1 <1>   0.0800 
 40 H        7.1330     9.3620    -0.2760 H     1 <1>   0.0800 
 41 H        8.4030     9.3800     0.9400 H     1 <1>   0.0800 
 42 H        8.8300     8.4610    -1.8550 H     1 <1>   0.0800 
 43 H       10.5380     8.2400    -2.1240 H     1 <1>   0.0800 
 44 H       10.0010     9.3690    -0.9100 H     1 <1>   0.0800 
@<TRIPOS>BOND
  1   1   2  1   
  2   1   3  1   
  3   2   4  2   
  4   2   5  1   
  5   3   6  2   
  6   3  24  1   
  7   4   6  1   
  8   4  25  1   
  9   5   7  1   
 10   5   8  1   
 11   5  26  1   
 12   6  27  1   
 13   7  28  1   
 14   8   9  1   
 15   8  10  1   
 16   8  29  1   
 17   9  11  1   
 18   9  30  1   
 19   9  31  1   
 20  10  12  1   
 21  10  32  1   
 22  10  33  1   
 23  11  13  1   
 24  11  34  1   
 25  11  35  1   
 26  12  13  1   
 27  12  36  1   
 28  12  37  1   
 29  13  14  1   
 30  14  15  ar  
 31  14  16  ar  
 32  15  17  ar  
 33  16  18  ar  
 34  17  19  ar  
 35  17  20  1   
 36  18  19  ar  
 37  18  38  1   
 38  19  21  1   
 39  20  39  1   
 40  20  40  1   
 41  20  41  1   
 42  21  22  2   
 43  21  23  1   
 44  23  42  1   
 45  23  43  1   
 46  23  44  1   
@<TRIPOS>SUBSTRUCTURE
  1 ****  13 GROUP 4 **** **** 0

# MOE 2024.06 (io_trps.svl 2023.06)
