@<TRIPOS>MOLECULE
NONAME
50 52 1 0 0 
SMALL
USER_CHARGES


@<TRIPOS>ATOM
  1 S        0.7070    -0.0450    -0.4210 S.3   1 <1>  -0.3320 
  2 C        0.1750    -1.7480    -0.1630 C.ar  1 <1>   0.1020 
  3 C        2.5670    -0.0700    -0.4940 C.3   1 <1>   0.1310 
  4 C       -1.1860    -1.9730    -0.0860 C.ar  1 <1>  -0.1500 
  5 C        1.0770    -2.7950    -0.0440 C.ar  1 <1>  -0.1500 
  6 C        3.1400     1.3200    -0.7420 C.2   1 <1>   0.5690 
  7 C       -1.6650    -3.2580     0.1110 C.ar  1 <1>   0.0830 
  8 C        0.5990    -4.0800     0.1520 C.ar  1 <1>  -0.1500 
  9 O        4.3440     1.4340    -0.7730 O.2   1 <1>  -0.5700 
 10 N        2.2780     2.3700    -0.9230 N.am  1 <1>  -0.4940 
 11 O       -3.0120    -3.4030     0.1750 O.3   1 <1>  -0.3630 
 12 C       -0.7640    -4.3140     0.2300 C.ar  1 <1>  -0.1500 
 13 C        2.4550     3.7210    -1.3200 C.2   1 <1>  -0.0880 
 14 C       -3.6060    -4.6670     0.3750 C.3   1 <1>   0.0400 
 15 N        3.4930     4.5750    -1.0740 N.pl3 1 <1>   0.3140 
 16 C        1.5560     4.4260    -2.0460 C.2   1 <1>  -0.1500 
 17 N        3.2750     5.7870    -1.6440 N.2   1 <1>  -0.7070 
 18 C        4.7330     4.3410    -0.2890 C.3   1 <1>   0.1760 
 19 C        2.1170     5.6830    -2.2160 C.2   1 <1>   0.1390 
 20 C        5.0350     5.5040     0.6710 C.3   1 <1>  -0.1600 
 21 C        5.9150     4.1270    -1.2460 C.3   1 <1>  -0.1600 
 22 C        6.3440     5.2620     1.4150 C.3   1 <1>   0.3430 
 23 C        7.1990     3.8900    -0.4640 C.3   1 <1>   0.3430 
 24 N        7.4510     5.0550     0.4360 N.4   1 <1>  -0.9590 
 25 C        8.7650     4.9130     1.1330 C.3   1 <1>   0.2630 
 26 H        2.8470    -0.7290    -1.2940 H     1 <1>   0.0800 
 27 H        2.9190    -0.4530     0.4460 H     1 <1>   0.0800 
 28 H       -1.8780    -1.1570    -0.1780 H     1 <1>   0.1500 
 29 H        2.1360    -2.6380    -0.1010 H     1 <1>   0.1500 
 30 H        1.2900    -4.9010     0.2460 H     1 <1>   0.1500 
 31 H        1.2950     2.0740    -0.8990 H     1 <1>   0.3700 
 32 H       -1.1050    -5.3200     0.3830 H     1 <1>   0.1500 
 33 H       -4.6730    -4.5350     0.3910 H     1 <1>   0.0800 
 34 H       -3.2720    -5.0650     1.3160 H     1 <1>   0.0800 
 35 H       -3.3310    -5.3140    -0.4390 H     1 <1>   0.0800 
 36 H        0.6050     4.1070    -2.4310 H     1 <1>   0.1500 
 37 H        4.5830     3.4680     0.3150 H     1 <1>   0.0800 
 38 H        1.6510     6.4880    -2.7620 H     1 <1>   0.1500 
 39 H        4.2340     5.5940     1.3840 H     1 <1>   0.0800 
 40 H        5.1050     6.4340     0.1320 H     1 <1>   0.0800 
 41 H        6.0340     4.9840    -1.8870 H     1 <1>   0.0800 
 42 H        5.7260     3.2740    -1.8720 H     1 <1>   0.0800 
 43 H        6.2460     4.3910     2.0440 H     1 <1>   0.0800 
 44 H        6.5600     6.1110     2.0440 H     1 <1>   0.0800 
 45 H        8.0190     3.7680    -1.1530 H     1 <1>   0.0800 
 46 H        7.1040     2.9860     0.1160 H     1 <1>   0.0800 
 47 H        7.4880     5.8950    -0.1630 H     1 <1>   0.4500 
 48 H        8.7610     4.0400     1.7650 H     1 <1>   0.0800 
 49 H        8.9610     5.7800     1.7430 H     1 <1>   0.0800 
 50 H        9.5620     4.8140     0.4130 H     1 <1>   0.0800 
@<TRIPOS>BOND
  1   1   2  1   
  2   1   3  1   
  3   2   4  ar  
  4   2   5  ar  
  5   3   6  1   
  6   3  26  1   
  7   3  27  1   
  8   4   7  ar  
  9   4  28  1   
 10   5   8  ar  
 11   5  29  1   
 12   6   9  2   
 13   6  10  am  
 14   7  11  1   
 15   7  12  ar  
 16   8  12  ar  
 17   8  30  1   
 18  10  13  1   
 19  10  31  1   
 20  11  14  1   
 21  12  32  1   
 22  13  15  1   
 23  13  16  2   
 24  14  33  1   
 25  14  34  1   
 26  14  35  1   
 27  15  17  1   
 28  15  18  1   
 29  16  19  1   
 30  16  36  1   
 31  17  19  2   
 32  18  20  1   
 33  18  21  1   
 34  18  37  1   
 35  19  38  1   
 36  20  22  1   
 37  20  39  1   
 38  20  40  1   
 39  21  23  1   
 40  21  41  1   
 41  21  42  1   
 42  22  24  1   
 43  22  43  1   
 44  22  44  1   
 45  23  24  1   
 46  23  45  1   
 47  23  46  1   
 48  24  25  1   
 49  24  47  1   
 50  25  48  1   
 51  25  49  1   
 52  25  50  1   
@<TRIPOS>SUBSTRUCTURE
  1 ****   6 GROUP 4 **** **** 0

# MOE 2024.06 (io_trps.svl 2023.06)
