@<TRIPOS>MOLECULE
NONAME
37 38 1 0 0 
SMALL
USER_CHARGES


@<TRIPOS>ATOM
  1 F        0.2220     0.0130     0.7670 F     1 <1>  -0.1900 
  2 C        1.1800    -0.8580     0.6140 C.ar  1 <1>   0.1900 
  3 C        2.4270    -0.4140     0.2200 C.ar  1 <1>  -0.1500 
  4 C        0.9070    -2.1890     0.8500 C.ar  1 <1>  -0.1500 
  5 C        3.4550    -1.3360     0.0510 C.ar  1 <1>  -0.1440 
  6 C        1.9210    -3.1190     0.6810 C.ar  1 <1>  -0.1440 
  7 C        3.1840    -2.6850     0.2900 C.ar  1 <1>  -0.1500 
  8 C        4.8610    -0.8750    -0.3790 C.3   1 <1>   1.1640 
  9 C        1.6370    -4.5910     0.9330 C.3   1 <1>   0.4870 
 10 F        4.8490     0.2540    -1.0750 F     1 <1>  -0.3400 
 11 F        5.4650    -1.7790    -1.1420 F     1 <1>  -0.3400 
 12 F        5.6550    -0.6730     0.6620 F     1 <1>  -0.3400 
 13 N        1.4990    -5.3040    -0.3670 N.4   1 <1>  -0.9590 
 14 C        1.4910    -6.7850    -0.1430 C.3   1 <1>   0.3430 
 15 C        0.2830    -4.8320    -1.1240 C.3   1 <1>   0.3430 
 16 C        0.2620    -7.2250     0.6430 C.3   1 <1>  -0.1860 
 17 C       -0.8640    -5.8480    -1.1490 C.3   1 <1>  -0.1600 
 18 C        0.1640    -8.6840     0.3520 C.2   1 <1>   0.9060 
 19 C       -1.0340    -6.5410     0.2000 C.3   1 <1>   0.2000 
 20 O        0.0440    -9.0210    -0.8270 O.co2 1 <1>  -0.9000 
 21 O        0.2730    -9.4690     1.2880 O.co2 1 <1>  -0.9000 
 22 O       -1.3530    -5.5650     1.1320 O.3   1 <1>  -0.6800 
 23 H        2.5770     0.6400     0.0550 H     1 <1>   0.1500 
 24 H       -0.0840    -2.4770     1.1610 H     1 <1>   0.1500 
 25 H        3.9780    -3.4070     0.1730 H     1 <1>   0.1500 
 26 H        0.7340    -4.6950     1.5110 H     1 <1>   0.0800 
 27 H        2.4470    -5.0180     1.5010 H     1 <1>   0.0800 
 28 H        2.3230    -5.0710    -0.9290 H     1 <1>   0.4500 
 29 H        1.4790    -7.2810    -1.1020 H     1 <1>   0.0800 
 30 H        2.3810    -7.1040     0.3760 H     1 <1>   0.0800 
 31 H       -0.0870    -3.9260    -0.6760 H     1 <1>   0.0800 
 32 H        0.5570    -4.6020    -2.1410 H     1 <1>   0.0800 
 33 H        0.4210    -7.1220     1.6990 H     1 <1>   0.0800 
 34 H       -0.6670    -6.5930    -1.9010 H     1 <1>   0.0800 
 35 H       -1.7810    -5.3600    -1.4260 H     1 <1>   0.0800 
 36 H       -1.8530    -7.2440     0.1630 H     1 <1>   0.0800 
 37 H       -1.7680    -5.9980     1.9080 H     1 <1>   0.4000 
@<TRIPOS>BOND
  1   1   2  1   
  2   2   3  ar  
  3   2   4  ar  
  4   3   5  ar  
  5   3  23  1   
  6   4   6  ar  
  7   4  24  1   
  8   5   7  ar  
  9   5   8  1   
 10   6   7  ar  
 11   6   9  1   
 12   7  25  1   
 13   8  10  1   
 14   8  11  1   
 15   8  12  1   
 16   9  13  1   
 17   9  26  1   
 18   9  27  1   
 19  13  14  1   
 20  13  15  1   
 21  13  28  1   
 22  14  16  1   
 23  14  29  1   
 24  14  30  1   
 25  15  17  1   
 26  15  31  1   
 27  15  32  1   
 28  16  18  1   
 29  16  19  1   
 30  16  33  1   
 31  17  19  1   
 32  17  34  1   
 33  17  35  1   
 34  18  20  ar  
 35  18  21  ar  
 36  19  22  1   
 37  19  36  1   
 38  22  37  1   
@<TRIPOS>SUBSTRUCTURE
  1 ****   9 GROUP 4 **** **** 0

# MOE 2024.06 (io_trps.svl 2023.06)
