@<TRIPOS>MOLECULE
NONAME
48 50 1 0 0 
SMALL
USER_CHARGES


@<TRIPOS>ATOM
  1 O       -1.1610    -0.3230    -1.5770 O.2   1 <1>  -0.5700 
  2 C       -1.5210     0.3000    -0.5970 C.2   1 <1>   0.7160 
  3 N       -2.0030    -0.3990     0.4670 N.am  1 <1>  -0.7300 
  4 C       -1.4730     1.7410    -0.5270 C.2   1 <1>  -0.0860 
  5 C       -2.0920    -1.8730     0.5750 C.3   1 <1>   0.2200 
  6 C       -1.0700     2.6430    -1.5230 C.2   1 <1>   0.1080 
  7 C       -1.8050     2.5650     0.5090 C.2   1 <1>  -0.3020 
  8 C       -3.5240    -2.3550     0.3900 C.3   1 <1>  -0.0800 
  9 C       -1.8520    -2.2680     2.0250 C.3   1 <1>   0.1200 
 10 N       -1.1460     3.8770    -1.1440 N.2   1 <1>  -0.7070 
 11 C       -0.5870     2.2760    -2.9110 C.3   1 <1>  -0.0590 
 12 N       -1.6020     3.8300     0.1160 N.pl3 1 <1>   0.3140 
 13 C       -4.1290    -2.1920     1.7890 C.3   1 <1>   0.1200 
 14 C       -4.3290    -1.6720    -0.7320 C.3   1 <1>  -0.0170 
 15 O       -3.0600    -2.0060     2.6720 O.3   1 <1>  -0.5600 
 16 C       -1.8240     5.0560     0.9070 C.3   1 <1>   0.0960 
 17 C       -5.7030    -2.3060    -0.8760 C.ar  1 <1>  -0.1430 
 18 C       -3.2930     5.4960     0.8340 C.3   1 <1>  -0.1600 
 19 C       -5.8880    -3.4860    -1.5690 C.ar  1 <1>  -0.1500 
 20 C       -6.8350    -1.7420    -0.3220 C.ar  1 <1>  -0.1500 
 21 C       -3.5360     6.7680     1.6530 C.3   1 <1>  -0.2400 
 22 C       -7.1580    -4.0310    -1.6660 C.ar  1 <1>   0.1600 
 23 C       -8.0600    -2.3690    -0.4780 C.ar  1 <1>   0.1600 
 24 N       -8.2480    -3.5020    -1.1350 N.ar  1 <1>  -0.6200 
 25 H       -2.3450     0.1090     1.2820 H     1 <1>   0.3700 
 26 H       -1.4000    -2.3490    -0.1000 H     1 <1>   0.0800 
 27 H       -2.1680     2.3150     1.4870 H     1 <1>   0.1500 
 28 H       -3.4880    -3.4100     0.1790 H     1 <1>   0.0800 
 29 H       -1.0600    -1.7070     2.4880 H     1 <1>   0.0800 
 30 H       -1.6540    -3.3230     2.1070 H     1 <1>   0.0800 
 31 H        0.2930     1.6650    -2.8410 H     1 <1>   0.0800 
 32 H       -0.3520     3.1660    -3.4660 H     1 <1>   0.0800 
 33 H       -1.3540     1.7330    -3.4320 H     1 <1>   0.0800 
 34 H       -4.6830    -3.0660     2.0880 H     1 <1>   0.0800 
 35 H       -4.7590    -1.3220     1.8540 H     1 <1>   0.0800 
 36 H       -3.7950    -1.7650    -1.6620 H     1 <1>   0.0800 
 37 H       -4.4420    -0.6210    -0.5300 H     1 <1>   0.0800 
 38 H       -1.5390     4.8620     1.9240 H     1 <1>   0.0800 
 39 H       -1.1880     5.8280     0.5130 H     1 <1>   0.0800 
 40 H       -3.5530     5.6820    -0.1950 H     1 <1>   0.0800 
 41 H       -3.9240     4.7080     1.2080 H     1 <1>   0.0800 
 42 H       -5.0580    -3.9840    -2.0340 H     1 <1>   0.1500 
 43 H       -6.7780    -0.8210     0.2280 H     1 <1>   0.1500 
 44 H       -2.9300     7.5770     1.2820 H     1 <1>   0.0800 
 45 H       -3.2990     6.6040     2.6900 H     1 <1>   0.0800 
 46 H       -4.5700     7.0590     1.5820 H     1 <1>   0.0800 
 47 H       -7.2830    -4.9510    -2.2110 H     1 <1>   0.1500 
 48 H       -8.9310    -1.9150    -0.0390 H     1 <1>   0.1500 
@<TRIPOS>BOND
  1   1   2  2   
  2   2   3  am  
  3   2   4  1   
  4   3   5  1   
  5   3  25  1   
  6   4   6  1   
  7   4   7  2   
  8   5   8  1   
  9   5   9  1   
 10   5  26  1   
 11   6  10  2   
 12   6  11  1   
 13   7  12  1   
 14   7  27  1   
 15   8  13  1   
 16   8  14  1   
 17   8  28  1   
 18   9  15  1   
 19   9  29  1   
 20   9  30  1   
 21  10  12  1   
 22  11  31  1   
 23  11  32  1   
 24  11  33  1   
 25  12  16  1   
 26  13  15  1   
 27  13  34  1   
 28  13  35  1   
 29  14  17  1   
 30  14  36  1   
 31  14  37  1   
 32  16  18  1   
 33  16  38  1   
 34  16  39  1   
 35  17  19  ar  
 36  17  20  ar  
 37  18  21  1   
 38  18  40  1   
 39  18  41  1   
 40  19  22  ar  
 41  19  42  1   
 42  20  23  ar  
 43  20  43  1   
 44  21  44  1   
 45  21  45  1   
 46  21  46  1   
 47  22  24  ar  
 48  22  47  1   
 49  23  24  ar  
 50  23  48  1   
@<TRIPOS>SUBSTRUCTURE
  1 ****   3 GROUP 4 **** **** 0

# MOE 2024.06 (io_trps.svl 2023.06)
