@<TRIPOS>MOLECULE
NONAME
47 49 1 0 0 
SMALL
USER_CHARGES


@<TRIPOS>ATOM
  1 S        0.7320     0.1880     1.0500 S.o2  1 <1>   1.3330 
  2 O       -0.1100     1.3180     1.3660 O.2   1 <1>  -0.6500 
  3 O        1.4570    -0.4770     2.1100 O.2   1 <1>  -0.6500 
  4 N       -0.2200    -0.9800     0.2670 N.am  1 <1>  -0.8490 
  5 C        1.8630     0.7010    -0.2440 C.3   1 <1>  -0.0550 
  6 C       -1.5680    -1.0680     0.8340 C.3   1 <1>   0.1160 
  7 C        0.3980    -2.3100     0.2410 C.3   1 <1>   0.1160 
  8 C        2.8320     1.8190     0.1910 C.3   1 <1>  -0.0800 
  9 C        3.5850     2.3810    -1.0040 C.3   1 <1>   0.2200 
 10 C        3.9830     1.2750     1.0350 C.3   1 <1>   0.1200 
 11 N        4.0210     3.7600    -0.6950 N.am  1 <1>  -0.7300 
 12 C        4.8000     1.4570    -1.1060 C.3   1 <1>   0.1200 
 13 O        4.9150     0.7930     0.1200 O.3   1 <1>  -0.5600 
 14 C        3.7570     4.8650    -1.4380 C.2   1 <1>   0.5690 
 15 O        3.0960     4.8090    -2.4450 O.2   1 <1>  -0.5700 
 16 C        4.2920     6.2090    -0.9940 C.3   1 <1>   0.1570 
 17 N        5.6880     6.0750    -0.5490 N.pl3 1 <1>   0.3140 
 18 N        5.9890     5.5460     0.6490 N.2   1 <1>  -0.7070 
 19 C        6.7780     6.4240    -1.2440 C.2   1 <1>  -0.3020 
 20 C        7.3050     5.5770     0.6920 C.ar  1 <1>   0.2890 
 21 C        7.8610     6.1200    -0.4790 C.ar  1 <1>   0.0000 
 22 C        8.1650     5.1420     1.7270 C.ar  1 <1>  -0.1500 
 23 C        9.2690     6.2270    -0.6120 C.ar  1 <1>  -0.1500 
 24 C        9.5170     5.2510     1.5840 C.ar  1 <1>  -0.1500 
 25 C       10.0740     5.8000     0.4010 C.ar  1 <1>  -0.1500 
 26 H        2.4250    -0.1450    -0.5880 H     1 <1>   0.0800 
 27 H        1.2750     1.0600    -1.0660 H     1 <1>   0.0800 
 28 H       -2.1490    -1.8050     0.3070 H     1 <1>   0.0800 
 29 H       -2.0690    -0.1180     0.7430 H     1 <1>   0.0800 
 30 H       -1.5190    -1.3330     1.8780 H     1 <1>   0.0800 
 31 H       -0.2020    -2.9850    -0.3450 H     1 <1>   0.0800 
 32 H        0.4900    -2.7020     1.2410 H     1 <1>   0.0800 
 33 H        1.3790    -2.2580    -0.1990 H     1 <1>   0.0800 
 34 H        2.2830     2.5870     0.7090 H     1 <1>   0.0800 
 35 H        3.0020     2.3740    -1.9100 H     1 <1>   0.0800 
 36 H        3.7020     0.4810     1.7050 H     1 <1>   0.0800 
 37 H        4.4530     2.0650     1.5970 H     1 <1>   0.0800 
 38 H        4.6780     3.8600     0.0950 H     1 <1>   0.3700 
 39 H        5.7090     1.9990    -1.3030 H     1 <1>   0.0800 
 40 H        4.6500     0.7100    -1.8640 H     1 <1>   0.0800 
 41 H        3.7020     6.5760    -0.1780 H     1 <1>   0.0800 
 42 H        4.2450     6.9050    -1.8090 H     1 <1>   0.0800 
 43 H        6.7550     6.8580    -2.2260 H     1 <1>   0.1500 
 44 H        7.7090     4.7330     2.6090 H     1 <1>   0.1500 
 45 H        9.6640     6.6460    -1.5200 H     1 <1>   0.1500 
 46 H       10.1870     4.9260     2.3610 H     1 <1>   0.1500 
 47 H       11.1460     5.8680     0.3270 H     1 <1>   0.1500 
@<TRIPOS>BOND
  1   1   2  2   
  2   1   3  2   
  3   1   4  am  
  4   1   5  1   
  5   4   6  1   
  6   4   7  1   
  7   5   8  1   
  8   5  26  1   
  9   5  27  1   
 10   6  28  1   
 11   6  29  1   
 12   6  30  1   
 13   7  31  1   
 14   7  32  1   
 15   7  33  1   
 16   8   9  1   
 17   8  10  1   
 18   8  34  1   
 19   9  11  1   
 20   9  12  1   
 21   9  35  1   
 22  10  13  1   
 23  10  36  1   
 24  10  37  1   
 25  11  14  am  
 26  11  38  1   
 27  12  13  1   
 28  12  39  1   
 29  12  40  1   
 30  14  15  2   
 31  14  16  1   
 32  16  17  1   
 33  16  41  1   
 34  16  42  1   
 35  17  18  1   
 36  17  19  1   
 37  18  20  2   
 38  19  21  2   
 39  19  43  1   
 40  20  21  ar  
 41  20  22  ar  
 42  21  23  ar  
 43  22  24  ar  
 44  22  44  1   
 45  23  25  ar  
 46  23  45  1   
 47  24  25  ar  
 48  24  46  1   
 49  25  47  1   
@<TRIPOS>SUBSTRUCTURE
  1 ****  11 GROUP 4 **** **** 0

# MOE 2024.06 (io_trps.svl 2023.06)
