@<TRIPOS>MOLECULE
NONAME
57 60 1 0 0 
SMALL
USER_CHARGES


@<TRIPOS>ATOM
  1 O       -0.2580    -0.4910     0.1980 O.2   1 <1>  -0.5700 
  2 C       -1.2610     0.1440     0.4650 C.2   1 <1>   0.7160 
  3 N       -2.4000    -0.5410     0.7450 N.am  1 <1>  -0.7300 
  4 C       -1.2720     1.5790     0.4770 C.2   1 <1>  -0.0860 
  5 C       -2.6630    -1.9690     0.5250 C.3   1 <1>   0.2200 
  6 C       -2.4090     2.3910     0.6060 C.2   1 <1>   0.3720 
  7 C       -0.2570     2.4860     0.3950 C.2   1 <1>   0.0870 
  8 C       -3.9550    -2.1570    -0.3030 C.3   1 <1>  -0.0800 
  9 C       -2.7500    -2.6420     1.8930 C.3   1 <1>  -0.2400 
 10 N       -2.0970     3.6390     0.6110 N.2   1 <1>  -0.4100 
 11 N       -3.7340     1.9390     0.7030 N.pl3 1 <1>  -0.8210 
 12 O       -0.7990     3.6740     0.4870 O.3   1 <1>  -0.0190 
 13 C        1.1720     2.3860     0.2450 C.ar  1 <1>   0.0530 
 14 C       -3.9070    -1.5220    -1.6940 C.3   1 <1>  -0.1600 
 15 C       -5.2420    -1.5920     0.3130 C.3   1 <1>  -0.1600 
 16 C       -4.5770     2.2870    -0.4750 C.3   1 <1>   0.2090 
 17 C       -4.4480     2.3630     1.9380 C.3   1 <1>   0.2090 
 18 C        2.0190     3.1640     1.0340 C.ar  1 <1>  -0.1500 
 19 C        1.7670     1.5400    -0.6910 C.ar  1 <1>  -0.1500 
 20 C       -5.3670    -1.4660    -2.1400 C.3   1 <1>  -0.1600 
 21 C       -6.2040    -1.3780    -0.8590 C.3   1 <1>  -0.1600 
 22 C       -5.7890     3.0290     0.0720 C.3   1 <1>  -0.1600 
 23 C       -5.8940     2.5700     1.5180 C.3   1 <1>  -0.1600 
 24 C        3.3930     3.0940     0.9020 C.ar  1 <1>  -0.1500 
 25 C        3.1400     1.4610    -0.8280 C.ar  1 <1>  -0.1500 
 26 C        3.9680     2.2420    -0.0270 C.ar  1 <1>   0.0830 
 27 O        5.3200     2.2270    -0.0950 O.3   1 <1>  -0.3630 
 28 C        6.0030     1.3640    -0.9760 C.3   1 <1>   0.0400 
 29 H       -3.2340     0.0510     0.8510 H     1 <1>   0.3700 
 30 H       -1.8390    -2.4020    -0.0210 H     1 <1>   0.0800 
 31 H       -4.1010    -3.2150    -0.4430 H     1 <1>   0.0800 
 32 H       -3.5290    -2.2030     2.4890 H     1 <1>   0.0800 
 33 H       -1.8110    -2.5360     2.4070 H     1 <1>   0.0800 
 34 H       -2.9530    -3.6900     1.7740 H     1 <1>   0.0800 
 35 H       -3.3000    -2.0920    -2.3750 H     1 <1>   0.0800 
 36 H       -3.5190    -0.5200    -1.6370 H     1 <1>   0.0800 
 37 H       -5.0530    -0.6440     0.7830 H     1 <1>   0.0800 
 38 H       -5.6560    -2.2630     1.0460 H     1 <1>   0.0800 
 39 H       -4.8890     1.3780    -0.9590 H     1 <1>   0.0800 
 40 H       -4.0410     2.8950    -1.1850 H     1 <1>   0.0800 
 41 H       -4.0370     3.2880     2.3080 H     1 <1>   0.0800 
 42 H       -4.3660     1.6080     2.7010 H     1 <1>   0.0800 
 43 H        1.5910     3.8310     1.7610 H     1 <1>   0.1500 
 44 H        1.1410     0.9340    -1.3220 H     1 <1>   0.1500 
 45 H       -5.6140    -2.3750    -2.6630 H     1 <1>   0.0800 
 46 H       -5.5460    -0.6310    -2.7950 H     1 <1>   0.0800 
 47 H       -6.6830    -0.4180    -0.7770 H     1 <1>   0.0800 
 48 H       -6.9620    -2.1420    -0.8660 H     1 <1>   0.0800 
 49 H       -6.6780     2.8180    -0.4950 H     1 <1>   0.0800 
 50 H       -5.5920     4.0870     0.0370 H     1 <1>   0.0800 
 51 H       -6.3930     3.2890     2.1430 H     1 <1>   0.0800 
 52 H       -6.4140     1.6300     1.5710 H     1 <1>   0.0800 
 53 H        4.0330     3.6990     1.5190 H     1 <1>   0.1500 
 54 H        3.5460     0.7900    -1.5600 H     1 <1>   0.1500 
 55 H        7.0580     1.5160    -0.8420 H     1 <1>   0.0800 
 56 H        5.7230     1.6050    -1.9860 H     1 <1>   0.0800 
 57 H        5.7460     0.3470    -0.7370 H     1 <1>   0.0800 
@<TRIPOS>BOND
  1   1   2  2   
  2   2   3  am  
  3   2   4  1   
  4   3   5  1   
  5   3  29  1   
  6   4   6  1   
  7   4   7  2   
  8   5   8  1   
  9   5   9  1   
 10   5  30  1   
 11   6  10  2   
 12   6  11  1   
 13   7  12  1   
 14   7  13  1   
 15   8  14  1   
 16   8  15  1   
 17   8  31  1   
 18   9  32  1   
 19   9  33  1   
 20   9  34  1   
 21  10  12  1   
 22  11  16  1   
 23  11  17  1   
 24  13  18  ar  
 25  13  19  ar  
 26  14  20  1   
 27  14  35  1   
 28  14  36  1   
 29  15  21  1   
 30  15  37  1   
 31  15  38  1   
 32  16  22  1   
 33  16  39  1   
 34  16  40  1   
 35  17  23  1   
 36  17  41  1   
 37  17  42  1   
 38  18  24  ar  
 39  18  43  1   
 40  19  25  ar  
 41  19  44  1   
 42  20  21  1   
 43  20  45  1   
 44  20  46  1   
 45  21  47  1   
 46  21  48  1   
 47  22  23  1   
 48  22  49  1   
 49  22  50  1   
 50  23  51  1   
 51  23  52  1   
 52  24  26  ar  
 53  24  53  1   
 54  25  26  ar  
 55  25  54  1   
 56  26  27  1   
 57  27  28  1   
 58  28  55  1   
 59  28  56  1   
 60  28  57  1   
@<TRIPOS>SUBSTRUCTURE
  1 ****   4 GROUP 4 **** **** 0

# MOE 2024.06 (io_trps.svl 2023.06)
