@<TRIPOS>MOLECULE
NONAME
46 48 1 0 0 
SMALL
USER_CHARGES


@<TRIPOS>ATOM
  1 O        1.1500    -0.9410     2.5910 O.3   1 <1>  -0.6800 
  2 C        1.5870    -0.5380     1.3340 C.3   1 <1>   0.2000 
  3 C        2.5480    -1.5600     0.7400 C.3   1 <1>  -0.0800 
  4 C        2.4060     0.7490     1.4040 C.3   1 <1>   0.2090 
  5 C        3.3560    -0.7320    -0.2600 C.3   1 <1>   0.2090 
  6 C        1.8470    -2.7800     0.1200 C.3   1 <1>  -0.0170 
  7 N        3.4020     0.6470     0.2990 N.pl3 1 <1>  -0.8380 
  8 C        2.8400    -3.7260    -0.5370 C.ar  1 <1>   0.1660 
  9 C        4.6440     1.1920     0.5340 C.ar  1 <1>   0.4100 
 10 N        3.1160    -3.4980    -1.8110 N.ar  1 <1>  -0.6200 
 11 C        3.4060    -4.7650     0.1990 C.ar  1 <1>   0.1600 
 12 N        5.4260     0.5410     1.3720 N.ar  1 <1>  -0.6200 
 13 C        5.0480     2.3720    -0.0760 C.ar  1 <1>  -0.1430 
 14 C        3.9870    -4.3680    -2.2940 C.ar  1 <1>   0.1600 
 15 N        4.2740    -5.6390    -0.2830 N.ar  1 <1>  -0.6200 
 16 C        6.6060     1.0770     1.5910 C.ar  1 <1>   0.4770 
 17 C        6.3060     2.8220     0.2420 C.ar  1 <1>   0.1600 
 18 C        4.1020     3.0880    -1.0440 C.3   1 <1>  -0.0170 
 19 C        4.5460    -5.4040    -1.5550 C.ar  1 <1>   0.1600 
 20 N        7.1030     2.1860     1.0780 N.ar  1 <1>  -0.6200 
 21 C        7.4980     0.3310     2.5530 C.3   1 <1>  -0.0970 
 22 C        4.6550     4.3780    -1.6700 C.3   1 <1>  -0.1600 
 23 C        3.6380     5.0190    -2.6200 C.3   1 <1>  -0.2400 
 24 H        0.5890    -1.7350     2.5250 H     1 <1>   0.4000 
 25 H        0.7310    -0.3840     0.7000 H     1 <1>   0.0800 
 26 H        3.2340    -1.8810     1.5060 H     1 <1>   0.0800 
 27 H        2.9180     0.8120     2.3500 H     1 <1>   0.0800 
 28 H        1.7810     1.6120     1.2640 H     1 <1>   0.0800 
 29 H        2.8630    -0.7010    -1.2170 H     1 <1>   0.0800 
 30 H        4.3460    -1.1390    -0.3920 H     1 <1>   0.0800 
 31 H        1.1340    -2.4570    -0.6180 H     1 <1>   0.0800 
 32 H        1.3070    -3.3090     0.8840 H     1 <1>   0.0800 
 33 H        3.1310    -4.8790     1.2330 H     1 <1>   0.1500 
 34 H        4.2720    -4.2580    -3.3250 H     1 <1>   0.1500 
 35 H        6.6940     3.7280    -0.1880 H     1 <1>   0.1500 
 36 H        3.8470     2.4000    -1.8320 H     1 <1>   0.0800 
 37 H        3.1940     3.3200    -0.5150 H     1 <1>   0.0800 
 38 H        5.2470    -6.0620    -2.0370 H     1 <1>   0.1500 
 39 H        8.5270     0.5900     2.3860 H     1 <1>   0.0800 
 40 H        7.3780    -0.7270     2.4170 H     1 <1>   0.0800 
 41 H        7.2270     0.5910     3.5590 H     1 <1>   0.0800 
 42 H        4.8960     5.0820    -0.8910 H     1 <1>   0.0800 
 43 H        5.5540     4.1550    -2.2200 H     1 <1>   0.0800 
 44 H        2.7350     5.2710    -2.0920 H     1 <1>   0.0800 
 45 H        3.3940     4.3440    -3.4210 H     1 <1>   0.0800 
 46 H        4.0470     5.9190    -3.0450 H     1 <1>   0.0800 
@<TRIPOS>BOND
  1   1   2  1   
  2   1  24  1   
  3   2   3  1   
  4   2   4  1   
  5   2  25  1   
  6   3   5  1   
  7   3   6  1   
  8   3  26  1   
  9   4   7  1   
 10   4  27  1   
 11   4  28  1   
 12   5   7  1   
 13   5  29  1   
 14   5  30  1   
 15   6   8  1   
 16   6  31  1   
 17   6  32  1   
 18   7   9  1   
 19   8  10  ar  
 20   8  11  ar  
 21   9  12  ar  
 22   9  13  ar  
 23  10  14  ar  
 24  11  15  ar  
 25  11  33  1   
 26  12  16  ar  
 27  13  17  ar  
 28  13  18  1   
 29  14  19  ar  
 30  14  34  1   
 31  15  19  ar  
 32  16  20  ar  
 33  16  21  1   
 34  17  20  ar  
 35  17  35  1   
 36  18  22  1   
 37  18  36  1   
 38  18  37  1   
 39  19  38  1   
 40  21  39  1   
 41  21  40  1   
 42  21  41  1   
 43  22  23  1   
 44  22  42  1   
 45  22  43  1   
 46  23  44  1   
 47  23  45  1   
 48  23  46  1   
@<TRIPOS>SUBSTRUCTURE
  1 ****   5 GROUP 4 **** **** 0

# MOE 2024.06 (io_trps.svl 2023.06)
