@<TRIPOS>MOLECULE
NONAME
52 54 1 0 0 
SMALL
USER_CHARGES


@<TRIPOS>ATOM
  1 O        3.9660    -1.8220     1.5670 O.2   1 <1>  -0.5700 
  2 C        3.1430    -1.6450     0.6900 C.2   1 <1>   0.5440 
  3 N        3.0920    -0.3890     0.1370 N.am  1 <1>  -0.6600 
  4 C        2.3250    -2.7440     0.2030 C.ar  1 <1>   0.0860 
  5 C        3.3090     0.8130     1.0320 C.3   1 <1>   0.2200 
  6 C        3.3270    -0.2420    -1.3290 C.3   1 <1>   0.1400 
  7 C        1.0760    -2.5350    -0.3820 C.ar  1 <1>  -0.1500 
  8 C        2.7640    -4.0640     0.3100 C.ar  1 <1>  -0.1500 
  9 C        2.7200     2.1100     0.4530 C.3   1 <1>   0.1200 
 10 C        4.8070     1.0130     1.3720 C.3   1 <1>   0.3430 
 11 C        4.3630     0.8390    -1.6940 C.3   1 <1>  -0.0800 
 12 C        0.3050    -3.5890    -0.8410 C.ar  1 <1>  -0.1500 
 13 C        2.0020    -5.1220    -0.1470 C.ar  1 <1>  -0.1500 
 14 O        3.6510     2.7440    -0.3760 O.3   1 <1>  -0.5600 
 15 N        5.7010     0.2430     0.4440 N.4   1 <1>  -0.9590 
 16 C        3.7520     2.2510    -1.6680 C.3   1 <1>   0.1200 
 17 C        5.7260     0.7650    -0.9630 C.3   1 <1>   0.3430 
 18 C        0.7610    -4.8930    -0.7210 C.ar  1 <1>  -0.1430 
 19 C        7.0670     0.0920     1.0150 C.3   1 <1>   0.2630 
 20 C       -0.0860    -6.0570    -1.2010 C.3   1 <1>   0.4860 
 21 N       -0.6460    -6.7600    -0.0110 N.4   1 <1>  -0.9590 
 22 C       -1.2560    -8.0710    -0.3860 C.3   1 <1>   0.2630 
 23 C       -1.6220    -5.9020     0.7320 C.3   1 <1>   0.2630 
 24 H        2.7870     0.6240     1.9550 H     1 <1>   0.0800 
 25 H        3.6670    -1.1860    -1.7230 H     1 <1>   0.0800 
 26 H        2.3890    -0.0180    -1.8100 H     1 <1>   0.0800 
 27 H        0.7000    -1.5300    -0.4740 H     1 <1>   0.1500 
 28 H        3.7230    -4.2590     0.7620 H     1 <1>   0.1500 
 29 H        2.5170     2.7940     1.2590 H     1 <1>   0.0800 
 30 H        1.8010     1.9360    -0.0800 H     1 <1>   0.0800 
 31 H        4.9600     0.6580     2.3770 H     1 <1>   0.0800 
 32 H        5.0550     2.0610     1.3530 H     1 <1>   0.0800 
 33 H        4.5870     0.6760    -2.7330 H     1 <1>   0.0800 
 34 H       -0.6520    -3.3780    -1.2890 H     1 <1>   0.1500 
 35 H        2.3930    -6.1220    -0.0480 H     1 <1>   0.1500 
 36 H        5.2450    -0.6910     0.4380 H     1 <1>   0.4500 
 37 H        2.7770     2.2730    -2.1270 H     1 <1>   0.0800 
 38 H        4.3870     2.9320    -2.2100 H     1 <1>   0.0800 
 39 H        6.1680     1.7490    -0.9670 H     1 <1>   0.0800 
 40 H        6.3710     0.1250    -1.5420 H     1 <1>   0.0800 
 41 H        7.5480     1.0530     1.0980 H     1 <1>   0.0800 
 42 H        7.6670    -0.5440     0.3850 H     1 <1>   0.0800 
 43 H        7.0110    -0.3550     1.9950 H     1 <1>   0.0800 
 44 H        0.5320    -6.7300    -1.7730 H     1 <1>   0.0800 
 45 H       -0.8820    -5.7030    -1.8360 H     1 <1>   0.0800 
 46 H        0.1530    -6.9290     0.6190 H     1 <1>   0.4500 
 47 H       -2.0910    -7.9210    -1.0520 H     1 <1>   0.0800 
 48 H       -1.6070    -8.5850     0.4940 H     1 <1>   0.0800 
 49 H       -0.5300    -8.6970    -0.8790 H     1 <1>   0.0800 
 50 H       -2.4660    -5.6620     0.1060 H     1 <1>   0.0800 
 51 H       -1.1510    -4.9830     1.0450 H     1 <1>   0.0800 
 52 H       -1.9790    -6.4160     1.6110 H     1 <1>   0.0800 
@<TRIPOS>BOND
  1   1   2  2   
  2   2   3  am  
  3   2   4  1   
  4   3   5  1   
  5   3   6  1   
  6   4   7  ar  
  7   4   8  ar  
  8   5   9  1   
  9   5  10  1   
 10   5  24  1   
 11   6  11  1   
 12   6  25  1   
 13   6  26  1   
 14   7  12  ar  
 15   7  27  1   
 16   8  13  ar  
 17   8  28  1   
 18   9  14  1   
 19   9  29  1   
 20   9  30  1   
 21  10  15  1   
 22  10  31  1   
 23  10  32  1   
 24  11  16  1   
 25  11  17  1   
 26  11  33  1   
 27  12  18  ar  
 28  12  34  1   
 29  13  18  ar  
 30  13  35  1   
 31  14  16  1   
 32  15  17  1   
 33  15  19  1   
 34  15  36  1   
 35  16  37  1   
 36  16  38  1   
 37  17  39  1   
 38  17  40  1   
 39  18  20  1   
 40  19  41  1   
 41  19  42  1   
 42  19  43  1   
 43  20  21  1   
 44  20  44  1   
 45  20  45  1   
 46  21  22  1   
 47  21  23  1   
 48  21  46  1   
 49  22  47  1   
 50  22  48  1   
 51  22  49  1   
 52  23  50  1   
 53  23  51  1   
 54  23  52  1   
@<TRIPOS>SUBSTRUCTURE
  1 ****   2 GROUP 4 **** **** 0

# MOE 2024.06 (io_trps.svl 2023.06)
