@<TRIPOS>MOLECULE
NONAME
54 56 1 0 0 
SMALL
USER_CHARGES


@<TRIPOS>ATOM
  1 O       -0.0330    -0.0080    -0.4570 O.2   1 <1>  -0.5700 
  2 C        1.0590    -0.5030    -0.2520 C.2   1 <1>   0.5440 
  3 N        2.1520     0.3020    -0.0160 N.am  1 <1>  -0.4940 
  4 C        1.2220    -1.9400    -0.2230 C.ar  1 <1>   0.0860 
  5 C        2.2740     1.7110    -0.1020 C.2   1 <1>  -0.0880 
  6 C        0.2180    -2.7660     0.2850 C.ar  1 <1>  -0.1500 
  7 C        2.3820    -2.5610    -0.6940 C.ar  1 <1>  -0.1500 
  8 N        3.3500     2.4310     0.3200 N.pl3 1 <1>   0.3140 
  9 C        1.4000     2.6140    -0.6040 C.2   1 <1>  -0.1500 
 10 C        0.3580    -4.1400     0.3460 C.ar  1 <1>  -0.1430 
 11 C        2.5310    -3.9310    -0.6380 C.ar  1 <1>  -0.1500 
 12 N        3.1850     3.7540     0.0960 N.2   1 <1>  -0.7070 
 13 C        4.5700     1.9230     0.9770 C.3   1 <1>   0.0960 
 14 C        2.0170     3.8490    -0.4540 C.2   1 <1>   0.1080 
 15 C        1.5290    -4.7410    -0.1160 C.ar  1 <1>   0.1000 
 16 C       -0.7680    -4.9910     0.9160 C.3   1 <1>  -0.0970 
 17 C        5.5680     1.3850    -0.0580 C.3   1 <1>  -0.1600 
 18 C        1.4250     5.1730    -0.8730 C.3   1 <1>  -0.0590 
 19 N        1.6950    -6.1150    -0.0700 N.pl3 1 <1>  -0.8380 
 20 C        6.8290     0.8360     0.6200 C.3   1 <1>  -0.1600 
 21 C        1.5540    -6.8660    -1.3500 C.3   1 <1>   0.2090 
 22 C        2.7680    -6.6700     0.8030 C.3   1 <1>   0.2090 
 23 C        7.8230     0.3060    -0.4170 C.3   1 <1>  -0.2400 
 24 C        1.4690    -8.3810    -1.0860 C.3   1 <1>   0.1200 
 25 C        2.6140    -8.1950     0.9510 C.3   1 <1>   0.1200 
 26 O        2.5480    -8.8170    -0.3040 O.3   1 <1>  -0.5600 
 27 H        2.9830    -0.2040     0.2840 H     1 <1>   0.3700 
 28 H       -0.6880    -2.3020     0.6360 H     1 <1>   0.1500 
 29 H        3.1690    -1.9680    -1.1220 H     1 <1>   0.1500 
 30 H        0.4310     2.4290    -1.0300 H     1 <1>   0.1500 
 31 H        3.4280    -4.3930    -1.0070 H     1 <1>   0.1500 
 32 H        4.2890     1.1550     1.6720 H     1 <1>   0.0800 
 33 H        5.0130     2.7340     1.5260 H     1 <1>   0.0800 
 34 H       -1.5880    -4.3820     1.2510 H     1 <1>   0.0800 
 35 H       -0.4020    -5.5660     1.7460 H     1 <1>   0.0800 
 36 H       -1.1260    -5.6670     0.1610 H     1 <1>   0.0800 
 37 H        5.8420     2.1880    -0.7240 H     1 <1>   0.0800 
 38 H        5.1050     0.6070    -0.6390 H     1 <1>   0.0800 
 39 H        0.4490     5.0300    -1.2980 H     1 <1>   0.0800 
 40 H        2.0640     5.6370    -1.6000 H     1 <1>   0.0800 
 41 H        1.3460     5.8160    -0.0160 H     1 <1>   0.0800 
 42 H        6.5660     0.0410     1.2970 H     1 <1>   0.0800 
 43 H        7.3020     1.6180     1.1910 H     1 <1>   0.0800 
 44 H        2.4000    -6.6630    -1.9830 H     1 <1>   0.0800 
 45 H        0.6650    -6.5370    -1.8590 H     1 <1>   0.0800 
 46 H        2.7140    -6.2060     1.7720 H     1 <1>   0.0800 
 47 H        3.7320    -6.4530     0.3770 H     1 <1>   0.0800 
 48 H        7.3840    -0.4940    -0.9880 H     1 <1>   0.0800 
 49 H        8.7030    -0.0700     0.0750 H     1 <1>   0.0800 
 50 H        8.1190     1.0910    -1.0910 H     1 <1>   0.0800 
 51 H        1.4960    -8.9210    -2.0150 H     1 <1>   0.0800 
 52 H        0.5540    -8.6180    -0.5730 H     1 <1>   0.0800 
 53 H        1.7160    -8.4270     1.4980 H     1 <1>   0.0800 
 54 H        3.4570    -8.6050     1.4770 H     1 <1>   0.0800 
@<TRIPOS>BOND
  1   1   2  2   
  2   2   3  am  
  3   2   4  1   
  4   3   5  1   
  5   3  27  1   
  6   4   6  ar  
  7   4   7  ar  
  8   5   8  1   
  9   5   9  2   
 10   6  10  ar  
 11   6  28  1   
 12   7  11  ar  
 13   7  29  1   
 14   8  12  1   
 15   8  13  1   
 16   9  14  1   
 17   9  30  1   
 18  10  15  ar  
 19  10  16  1   
 20  11  15  ar  
 21  11  31  1   
 22  12  14  2   
 23  13  17  1   
 24  13  32  1   
 25  13  33  1   
 26  14  18  1   
 27  15  19  1   
 28  16  34  1   
 29  16  35  1   
 30  16  36  1   
 31  17  20  1   
 32  17  37  1   
 33  17  38  1   
 34  18  39  1   
 35  18  40  1   
 36  18  41  1   
 37  19  21  1   
 38  19  22  1   
 39  20  23  1   
 40  20  42  1   
 41  20  43  1   
 42  21  24  1   
 43  21  44  1   
 44  21  45  1   
 45  22  25  1   
 46  22  46  1   
 47  22  47  1   
 48  23  48  1   
 49  23  49  1   
 50  23  50  1   
 51  24  26  1   
 52  24  51  1   
 53  24  52  1   
 54  25  26  1   
 55  25  53  1   
 56  25  54  1   
@<TRIPOS>SUBSTRUCTURE
  1 ****   7 GROUP 4 **** **** 0

# MOE 2024.06 (io_trps.svl 2023.06)
