@<TRIPOS>MOLECULE
NONAME
48 49 1 0 0 
SMALL
USER_CHARGES


@<TRIPOS>ATOM
  1 O        1.1310    -0.4160    -1.7860 O.2   1 <1>  -0.5700 
  2 C        1.4990    -0.8130    -0.6970 C.2   1 <1>   0.5440 
  3 N        1.9110     0.1110     0.2210 N.am  1 <1>  -0.7300 
  4 C        1.5170    -2.2310    -0.3940 C.ar  1 <1>   0.0860 
  5 C        1.9560     1.5820     0.0340 C.3   1 <1>   0.1400 
  6 C        1.3400    -2.7540     0.8960 C.ar  1 <1>   0.0830 
  7 C        1.7330    -3.1550    -1.4180 C.ar  1 <1>  -0.1500 
  8 C        3.3980     2.0750     0.1190 C.3   1 <1>  -0.0160 
  9 O        1.0930    -1.9560     1.9580 O.3   1 <1>  -0.3630 
 10 C        1.4110    -4.1150     1.1430 C.ar  1 <1>  -0.1500 
 11 C        1.8040    -4.5150    -1.1890 C.ar  1 <1>   0.0830 
 12 C        3.4310     3.5860     0.0530 C.ar  1 <1>   0.4770 
 13 C       -0.2460    -1.5410     2.1290 C.3   1 <1>   0.0400 
 14 C        1.6360    -5.0170     0.1110 C.ar  1 <1>   0.0830 
 15 O        2.0320    -5.2880    -2.2870 O.3   1 <1>  -0.3630 
 16 N        3.7350     4.1180    -1.1200 N.ar  1 <1>  -0.6200 
 17 N        3.1450     4.2220     1.1790 N.ar  1 <1>  -0.6200 
 18 O        1.6780    -6.3600     0.3270 O.3   1 <1>  -0.3630 
 19 C        2.9940    -6.3180    -2.2200 C.3   1 <1>   0.0400 
 20 C        3.7540     5.4300    -1.1640 C.ar  1 <1>   0.1670 
 21 C        3.1710     5.5330     1.1150 C.ar  1 <1>   0.1670 
 22 C        1.4260    -6.9310     1.5920 C.3   1 <1>   0.0400 
 23 C        3.4750     6.1920    -0.0540 C.ar  1 <1>  -0.1500 
 24 C        4.0980     6.0650    -2.4930 C.3   1 <1>  -0.0970 
 25 C        2.8520     6.2890     2.3860 C.3   1 <1>  -0.0970 
 26 H        2.1210    -0.2360     1.1630 H     1 <1>   0.3700 
 27 H        1.3620     2.0530     0.7990 H     1 <1>   0.0800 
 28 H        1.5430     1.8500    -0.9250 H     1 <1>   0.0800 
 29 H        1.8550    -2.7960    -2.4250 H     1 <1>   0.1500 
 30 H        3.9660     1.6650    -0.6960 H     1 <1>   0.0800 
 31 H        3.8400     1.7610     1.0460 H     1 <1>   0.0800 
 32 H        1.2810    -4.4430     2.1560 H     1 <1>   0.1500 
 33 H       -0.3010    -0.9340     3.0150 H     1 <1>   0.0800 
 34 H       -0.8690    -2.4110     2.2390 H     1 <1>   0.0800 
 35 H       -0.5520    -0.9680     1.2720 H     1 <1>   0.0800 
 36 H        3.3440    -6.5140    -3.2170 H     1 <1>   0.0800 
 37 H        2.5310    -7.2010    -1.8190 H     1 <1>   0.0800 
 38 H        3.8110    -6.0000    -1.5970 H     1 <1>   0.0800 
 39 H        1.4850    -8.0000     1.4940 H     1 <1>   0.0800 
 40 H        0.4390    -6.6490     1.9130 H     1 <1>   0.0800 
 41 H        2.1720    -6.5870     2.2870 H     1 <1>   0.0800 
 42 H        3.4940     7.2630    -0.0980 H     1 <1>   0.1500 
 43 H        5.0760     5.7440    -2.8020 H     1 <1>   0.0800 
 44 H        4.0880     7.1370    -2.4250 H     1 <1>   0.0800 
 45 H        3.3830     5.7560    -3.2340 H     1 <1>   0.0800 
 46 H        3.5490     6.0080     3.1550 H     1 <1>   0.0800 
 47 H        1.8590     6.0380     2.7120 H     1 <1>   0.0800 
 48 H        2.9110     7.3500     2.2320 H     1 <1>   0.0800 
@<TRIPOS>BOND
  1   1   2  2   
  2   2   3  am  
  3   2   4  1   
  4   3   5  1   
  5   3  26  1   
  6   4   6  ar  
  7   4   7  ar  
  8   5   8  1   
  9   5  27  1   
 10   5  28  1   
 11   6   9  1   
 12   6  10  ar  
 13   7  11  ar  
 14   7  29  1   
 15   8  12  1   
 16   8  30  1   
 17   8  31  1   
 18   9  13  1   
 19  10  14  ar  
 20  10  32  1   
 21  11  14  ar  
 22  11  15  1   
 23  12  16  ar  
 24  12  17  ar  
 25  13  33  1   
 26  13  34  1   
 27  13  35  1   
 28  14  18  1   
 29  15  19  1   
 30  16  20  ar  
 31  17  21  ar  
 32  18  22  1   
 33  19  36  1   
 34  19  37  1   
 35  19  38  1   
 36  20  23  ar  
 37  20  24  1   
 38  21  23  ar  
 39  21  25  1   
 40  22  39  1   
 41  22  40  1   
 42  22  41  1   
 43  23  42  1   
 44  24  43  1   
 45  24  44  1   
 46  24  45  1   
 47  25  46  1   
 48  25  47  1   
 49  25  48  1   
@<TRIPOS>SUBSTRUCTURE
  1 ****   3 GROUP 4 **** **** 0

# MOE 2024.06 (io_trps.svl 2023.06)
