@<TRIPOS>MOLECULE
NONAME
49 50 1 0 0 
SMALL
USER_CHARGES


@<TRIPOS>ATOM
  1 O        0.5910    -0.6240     0.8680 O.2   1 <1>  -0.5700 
  2 C        1.3760    -0.9100    -0.0040 C.2   1 <1>   0.5690 
  3 N        2.0590     0.0100    -0.7390 N.am  1 <1>  -0.7300 
  4 C        1.5780    -2.4100    -0.2780 C.3   1 <1>   0.4040 
  5 C        2.0830     1.5010    -0.6810 C.3   1 <1>   0.3640 
  6 N        0.3690    -3.2390     0.0920 N.4   1 <1>  -0.9590 
  7 C        3.5340     1.9580    -0.4370 C.ar  1 <1>   0.1670 
  8 C        0.9860     2.1590     0.1830 C.3   1 <1>  -0.1600 
  9 C        0.7190    -4.6680     0.3450 C.3   1 <1>   0.4230 
 10 C       -0.7660    -3.0020    -0.8590 C.3   1 <1>   0.2630 
 11 N        4.1500     2.3370    -1.5530 N.ar  1 <1>  -0.6200 
 12 C        4.1620     1.9440     0.8160 C.ar  1 <1>  -0.1440 
 13 C        1.0380     3.6940     0.1350 C.3   1 <1>  -0.2400 
 14 C        1.1170    -5.4080    -0.9420 C.3   1 <1>  -0.1600 
 15 C       -0.4750    -5.4340     0.9160 C.3   1 <1>  -0.1600 
 16 C        5.4000     2.7480    -1.4350 C.ar  1 <1>   0.1600 
 17 C        5.4700     2.3790     0.9100 C.ar  1 <1>  -0.1500 
 18 C        3.5060     1.4720     2.1080 C.3   1 <1>  -0.0970 
 19 C        0.0940    -6.5310    -1.1600 C.3   1 <1>  -0.1600 
 20 C       -1.0870    -6.2150    -0.2470 C.3   1 <1>  -0.1600 
 21 C        6.0960     2.7910    -0.2440 C.ar  1 <1>  -0.1500 
 22 H        2.7790    -0.2940    -1.4000 H     1 <1>   0.3700 
 23 H        2.4240    -2.7310     0.3060 H     1 <1>   0.0800 
 24 H        1.8150    -2.5510    -1.3180 H     1 <1>   0.0800 
 25 H        1.8490     1.8250    -1.6820 H     1 <1>   0.0800 
 26 H        0.0630    -2.8320     0.9940 H     1 <1>   0.4500 
 27 H        1.0520     1.8470     1.2060 H     1 <1>   0.0800 
 28 H        0.0280     1.8440    -0.1910 H     1 <1>   0.0800 
 29 H        1.5310    -4.7120     1.0550 H     1 <1>   0.0800 
 30 H       -0.5320    -3.3920    -1.8360 H     1 <1>   0.0800 
 31 H       -0.9670    -1.9450    -0.9440 H     1 <1>   0.0800 
 32 H       -1.6600    -3.4850    -0.5010 H     1 <1>   0.0800 
 33 H        1.9620     4.0590     0.5490 H     1 <1>   0.0800 
 34 H        0.2250     4.1070     0.7070 H     1 <1>   0.0800 
 35 H        0.9540     4.0450    -0.8790 H     1 <1>   0.0800 
 36 H        2.0940    -5.8430    -0.8220 H     1 <1>   0.0800 
 37 H        1.1400    -4.7610    -1.7990 H     1 <1>   0.0800 
 38 H       -1.1920    -4.8050     1.4140 H     1 <1>   0.0800 
 39 H       -0.1000    -6.1460     1.6310 H     1 <1>   0.0800 
 40 H        5.8960     3.0670    -2.3350 H     1 <1>   0.1500 
 41 H        5.9950     2.4010     1.8500 H     1 <1>   0.1500 
 42 H        2.8830     0.6160     1.9360 H     1 <1>   0.0800 
 43 H        2.9150     2.2650     2.5290 H     1 <1>   0.0800 
 44 H        4.2500     1.1910     2.8310 H     1 <1>   0.0800 
 45 H        0.5270    -7.4710    -0.8600 H     1 <1>   0.0800 
 46 H       -0.2100    -6.6100    -2.1900 H     1 <1>   0.0800 
 47 H       -1.8050    -5.6110    -0.7740 H     1 <1>   0.0800 
 48 H       -1.5800    -7.1130     0.0890 H     1 <1>   0.0800 
 49 H        7.1120     3.1410    -0.2230 H     1 <1>   0.1500 
@<TRIPOS>BOND
  1   1   2  2   
  2   2   3  am  
  3   2   4  1   
  4   3   5  1   
  5   3  22  1   
  6   4   6  1   
  7   4  23  1   
  8   4  24  1   
  9   5   7  1   
 10   5   8  1   
 11   5  25  1   
 12   6   9  1   
 13   6  10  1   
 14   6  26  1   
 15   7  11  ar  
 16   7  12  ar  
 17   8  13  1   
 18   8  27  1   
 19   8  28  1   
 20   9  14  1   
 21   9  15  1   
 22   9  29  1   
 23  10  30  1   
 24  10  31  1   
 25  10  32  1   
 26  11  16  ar  
 27  12  17  ar  
 28  12  18  1   
 29  13  33  1   
 30  13  34  1   
 31  13  35  1   
 32  14  19  1   
 33  14  36  1   
 34  14  37  1   
 35  15  20  1   
 36  15  38  1   
 37  15  39  1   
 38  16  21  ar  
 39  16  40  1   
 40  17  21  ar  
 41  17  41  1   
 42  18  42  1   
 43  18  43  1   
 44  18  44  1   
 45  19  20  1   
 46  19  45  1   
 47  19  46  1   
 48  20  47  1   
 49  20  48  1   
 50  21  49  1   
@<TRIPOS>SUBSTRUCTURE
  1 ****   2 GROUP 4 **** **** 0

# MOE 2024.06 (io_trps.svl 2023.06)
