@<TRIPOS>MOLECULE
NONAME
44 46 1 0 0 
SMALL
USER_CHARGES


@<TRIPOS>ATOM
  1 O       -1.4960     1.5120    -2.0060 O.co2 1 <1>  -0.9000 
  2 C       -1.4430     1.4550    -0.7710 C.2   1 <1>   0.9060 
  3 O       -1.9300     0.4990    -0.1480 O.co2 1 <1>  -0.9000 
  4 C       -0.8040     2.5940     0.0210 C.3   1 <1>  -0.1060 
  5 C       -1.8430     3.0610     1.0650 C.3   1 <1>   0.2000 
  6 C       -0.5540     3.7750    -0.9340 C.3   1 <1>   0.2090 
  7 C        0.5240     2.1110     0.6770 C.3   1 <1>  -0.0650 
  8 O       -2.0820     2.0590     1.9850 O.3   1 <1>  -0.6800 
  9 C       -1.4320     4.3220     1.8240 C.3   1 <1>  -0.1600 
 10 N       -0.1870     5.0310    -0.1940 N.pl3 1 <1>  -0.8380 
 11 C        1.5800     1.5950    -0.3150 C.3   1 <1>  -0.1950 
 12 C       -1.1590     5.4630     0.8460 C.3   1 <1>   0.2090 
 13 C        1.0150     5.6750    -0.3860 C.ar  1 <1>   0.4100 
 14 C        2.9790     1.3400     0.1470 C.3   1 <1>  -0.2000 
 15 C        2.6930     2.4750    -0.7910 C.3   1 <1>  -0.2000 
 16 N        1.5990     6.2120     0.6830 N.ar  1 <1>  -0.6200 
 17 C        1.5910     5.7540    -1.6540 C.ar  1 <1>  -0.1500 
 18 C        2.7650     6.7950     0.4920 C.ar  1 <1>   0.1600 
 19 C        2.8050     6.3690    -1.8330 C.ar  1 <1>  -0.1500 
 20 C        3.4440     6.9170    -0.7230 C.ar  1 <1>   0.0860 
 21 C        4.7260     7.5670    -0.8520 C.2   1 <1>   0.4230 
 22 O        5.2980     7.6880    -1.9050 O.2   1 <1>  -0.5700 
 23 C        5.4300     8.1390     0.3650 C.3   1 <1>  -0.1790 
 24 H       -2.7770     3.2440     0.5590 H     1 <1>   0.0800 
 25 H       -1.4480     3.9680    -1.5030 H     1 <1>   0.0800 
 26 H        0.2140     3.5000    -1.6350 H     1 <1>   0.0800 
 27 H        0.9550     2.9040     1.2600 H     1 <1>   0.0800 
 28 H        0.2990     1.3040     1.3520 H     1 <1>   0.0800 
 29 H       -2.1500     1.2190     1.4420 H     1 <1>   0.4000 
 30 H       -2.2240     4.6120     2.4890 H     1 <1>   0.0800 
 31 H       -0.5490     4.1430     2.4080 H     1 <1>   0.0800 
 32 H        1.1770     0.8760    -1.0110 H     1 <1>   0.1000 
 33 H       -0.7910     6.3210     1.3810 H     1 <1>   0.0800 
 34 H       -2.0770     5.7460     0.3590 H     1 <1>   0.0800 
 35 H        3.2330     1.5630     1.1690 H     1 <1>   0.1000 
 36 H        3.4870     0.4680    -0.2260 H     1 <1>   0.1000 
 37 H        2.9880     2.4010    -1.8220 H     1 <1>   0.1000 
 38 H        2.7670     3.4770    -0.4080 H     1 <1>   0.1000 
 39 H        1.0710     5.3300    -2.4900 H     1 <1>   0.1500 
 40 H        3.2150     7.2100     1.3750 H     1 <1>   0.1500 
 41 H        3.2590     6.4290    -2.8070 H     1 <1>   0.1500 
 42 H        4.8340     8.9170     0.8050 H     1 <1>   0.0800 
 43 H        6.3760     8.5600     0.0730 H     1 <1>   0.0800 
 44 H        5.6120     7.3650     1.0860 H     1 <1>   0.0800 
@<TRIPOS>BOND
  1   1   2  ar  
  2   2   3  ar  
  3   2   4  1   
  4   4   5  1   
  5   4   6  1   
  6   4   7  1   
  7   5   8  1   
  8   5   9  1   
  9   5  24  1   
 10   6  10  1   
 11   6  25  1   
 12   6  26  1   
 13   7  11  1   
 14   7  27  1   
 15   7  28  1   
 16   8  29  1   
 17   9  12  1   
 18   9  30  1   
 19   9  31  1   
 20  10  12  1   
 21  10  13  1   
 22  11  14  1   
 23  11  15  1   
 24  11  32  1   
 25  12  33  1   
 26  12  34  1   
 27  13  16  ar  
 28  13  17  ar  
 29  14  15  1   
 30  14  35  1   
 31  14  36  1   
 32  15  37  1   
 33  15  38  1   
 34  16  18  ar  
 35  17  19  ar  
 36  17  39  1   
 37  18  20  ar  
 38  18  40  1   
 39  19  20  ar  
 40  19  41  1   
 41  20  21  1   
 42  21  22  2   
 43  21  23  1   
 44  23  42  1   
 45  23  43  1   
 46  23  44  1   
@<TRIPOS>SUBSTRUCTURE
  1 ****  13 GROUP 4 **** **** 0

# MOE 2024.06 (io_trps.svl 2023.06)
