@<TRIPOS>MOLECULE
NONAME
50 53 1 0 0 
SMALL
USER_CHARGES


@<TRIPOS>ATOM
  1 O       -0.1010     1.4820     2.0900 O.2   1 <1>  -0.5700 
  2 C        0.0730     2.5210     1.4820 C.2   1 <1>   0.5440 
  3 N       -1.0200     3.2260     1.0220 N.am  1 <1>  -0.6600 
  4 C        1.4290     2.9770     1.2520 C.ar  1 <1>   0.0860 
  5 C       -2.4170     2.8140     1.3590 C.3   1 <1>   0.1400 
  6 C       -0.9510     4.2880    -0.0190 C.3   1 <1>   0.1400 
  7 C        2.3400     2.2080     0.5600 C.ar  1 <1>  -0.1500 
  8 C        1.8610     4.2260     1.7370 C.ar  1 <1>  -0.1500 
  9 C       -3.1280     2.2480     0.1150 C.3   1 <1>   0.0000 
 10 C       -1.6350     3.7990    -1.3000 C.3   1 <1>  -0.1600 
 11 C        3.6500     2.6350     0.3120 C.ar  1 <1>   0.3100 
 12 C        3.1380     4.6700     1.5160 C.ar  1 <1>  -0.1500 
 13 C       -4.5630     1.8130     0.4700 C.3   1 <1>   0.2000 
 14 C       -3.0670     3.2950    -1.0350 C.3   1 <1>  -0.1600 
 15 C       -2.5200     0.9050    -0.3330 C.3   1 <1>  -0.1600 
 16 N        4.4860     1.8320    -0.3940 N.ar  1 <1>  -0.6200 
 17 C        4.0640     3.8970     0.8000 C.ar  1 <1>   0.3100 
 18 O       -5.4690     2.8580     0.4410 O.3   1 <1>  -0.6800 
 19 C       -4.9560     0.7440    -0.5490 C.3   1 <1>  -0.1600 
 20 C       -3.6360     0.1690    -1.0810 C.3   1 <1>  -0.1600 
 21 C        5.6750     2.3150    -0.5730 C.ar  1 <1>   0.1670 
 22 N        5.3140     4.3760     0.5940 N.ar  1 <1>  -0.6200 
 23 C        6.0890     3.5840    -0.0800 C.ar  1 <1>   0.1670 
 24 C        6.6390     1.4400    -1.3560 C.3   1 <1>  -0.0970 
 25 C        7.5020     4.0860    -0.3280 C.3   1 <1>  -0.0970 
 26 H       -2.4140     2.0810     2.1480 H     1 <1>   0.0800 
 27 H       -2.9560     3.6730     1.7190 H     1 <1>   0.0800 
 28 H       -1.4510     5.1680     0.3490 H     1 <1>   0.0800 
 29 H        0.0680     4.5510    -0.2410 H     1 <1>   0.0800 
 30 H        2.0500     1.2410     0.1900 H     1 <1>   0.1500 
 31 H        1.1610     4.8260     2.2930 H     1 <1>   0.1500 
 32 H       -1.6680     4.6060    -2.0090 H     1 <1>   0.0800 
 33 H       -1.0380     3.0190    -1.7370 H     1 <1>   0.0800 
 34 H        3.4700     5.6230     1.8870 H     1 <1>   0.1500 
 35 H       -4.5830     1.3850     1.4590 H     1 <1>   0.0800 
 36 H       -3.4760     2.8870    -1.9420 H     1 <1>   0.0800 
 37 H       -3.6580     4.1520    -0.7660 H     1 <1>   0.0800 
 38 H       -1.6360     1.0120    -0.9330 H     1 <1>   0.0800 
 39 H       -2.2540     0.3300     0.5390 H     1 <1>   0.0800 
 40 H       -5.5170     3.2190    -0.4630 H     1 <1>   0.4000 
 41 H       -5.5420    -0.0220    -0.0720 H     1 <1>   0.0800 
 42 H       -5.5170     1.1680    -1.3630 H     1 <1>   0.0800 
 43 H       -3.5710    -0.8930    -0.9160 H     1 <1>   0.0800 
 44 H       -3.5560     0.3600    -2.1370 H     1 <1>   0.0800 
 45 H        6.9590     1.9470    -2.2470 H     1 <1>   0.0800 
 46 H        6.1590     0.5210    -1.6450 H     1 <1>   0.0800 
 47 H        7.4930     1.1970    -0.7530 H     1 <1>   0.0800 
 48 H        8.2150     3.4150     0.1130 H     1 <1>   0.0800 
 49 H        7.6360     5.0580     0.1120 H     1 <1>   0.0800 
 50 H        7.6860     4.1660    -1.3830 H     1 <1>   0.0800 
@<TRIPOS>BOND
  1   1   2  2   
  2   2   3  am  
  3   2   4  1   
  4   3   5  1   
  5   3   6  1   
  6   4   7  ar  
  7   4   8  ar  
  8   5   9  1   
  9   5  26  1   
 10   5  27  1   
 11   6  10  1   
 12   6  28  1   
 13   6  29  1   
 14   7  11  ar  
 15   7  30  1   
 16   8  12  ar  
 17   8  31  1   
 18   9  13  1   
 19   9  14  1   
 20   9  15  1   
 21  10  14  1   
 22  10  32  1   
 23  10  33  1   
 24  11  16  ar  
 25  11  17  ar  
 26  12  17  ar  
 27  12  34  1   
 28  13  18  1   
 29  13  19  1   
 30  13  35  1   
 31  14  36  1   
 32  14  37  1   
 33  15  20  1   
 34  15  38  1   
 35  15  39  1   
 36  16  21  ar  
 37  17  22  ar  
 38  18  40  1   
 39  19  20  1   
 40  19  41  1   
 41  19  42  1   
 42  20  43  1   
 43  20  44  1   
 44  21  23  ar  
 45  21  24  1   
 46  22  23  ar  
 47  23  25  1   
 48  24  45  1   
 49  24  46  1   
 50  24  47  1   
 51  25  48  1   
 52  25  49  1   
 53  25  50  1   
@<TRIPOS>SUBSTRUCTURE
  1 ****   4 GROUP 4 **** **** 0

# MOE 2024.06 (io_trps.svl 2023.06)
