@<TRIPOS>MOLECULE
NONAME
42 43 1 0 0 
SMALL
USER_CHARGES


@<TRIPOS>ATOM
  1 S       -0.1480    -0.3000     0.6750 S.3   1 <1>  -0.0800 
  2 C       -1.4570    -0.8870    -0.3000 C.2   1 <1>   0.4420 
  3 C       -0.5130     1.2830     0.0830 C.2   1 <1>   0.1980 
  4 N       -2.0320     0.0610    -0.9500 N.2   1 <1>  -0.3380 
  5 N       -1.7010    -2.2440    -0.2540 N.am  1 <1>  -0.4940 
  6 N       -1.4900     1.2940    -0.7270 N.2   1 <1>  -0.3380 
  7 C        0.3200     2.4520     0.5590 C.3   1 <1>   0.0200 
  8 C       -2.6700    -2.9880    -0.8780 C.2   1 <1>   0.5440 
  9 C       -0.1810     3.7280    -0.1280 C.3   1 <1>   0.3430 
 10 O       -3.5010    -2.4570    -1.5820 O.2   1 <1>  -0.5700 
 11 C       -2.6760    -4.4200    -0.6630 C.ar  1 <1>   0.0860 
 12 N        0.6260     4.9450     0.2260 N.4   1 <1>  -0.9590 
 13 C       -3.7320    -5.0900    -0.0250 C.ar  1 <1>  -0.1430 
 14 C       -1.5800    -5.1680    -1.0960 C.ar  1 <1>  -0.1500 
 15 C        0.4410     5.3600     1.6550 C.3   1 <1>   0.2630 
 16 C        0.2530     6.0730    -0.6840 C.3   1 <1>   0.2630 
 17 C       -3.6560    -6.4650     0.1600 C.ar  1 <1>  -0.1500 
 18 C       -4.9540    -4.2840     0.4420 C.3   1 <1>  -0.0170 
 19 C       -1.5140    -6.5330    -0.9010 C.ar  1 <1>  -0.1500 
 20 C       -2.5550    -7.1830    -0.2690 C.ar  1 <1>  -0.1500 
 21 C       -5.8680    -4.9880     1.4520 C.3   1 <1>  -0.2400 
 22 H       -1.0860    -2.7760     0.3550 H     1 <1>   0.3700 
 23 H        1.3480     2.2700     0.3010 H     1 <1>   0.0800 
 24 H        0.2210     2.5290     1.6250 H     1 <1>   0.0800 
 25 H       -1.2160     3.8860     0.1320 H     1 <1>   0.0800 
 26 H       -0.1400     3.5710    -1.1950 H     1 <1>   0.0800 
 27 H        1.6240     4.7350     0.0680 H     1 <1>   0.4500 
 28 H       -0.7710    -4.6720    -1.6030 H     1 <1>   0.1500 
 29 H       -0.5970     5.5730     1.8520 H     1 <1>   0.0800 
 30 H        1.0190     6.2470     1.8630 H     1 <1>   0.0800 
 31 H        0.7670     4.5790     2.3220 H     1 <1>   0.0800 
 32 H       -0.7880     6.3280    -0.5590 H     1 <1>   0.0800 
 33 H        0.4170     5.7950    -1.7130 H     1 <1>   0.0800 
 34 H        0.8490     6.9440    -0.4660 H     1 <1>   0.0800 
 35 H       -4.4510    -7.0080     0.6380 H     1 <1>   0.1500 
 36 H       -5.5350    -4.0120    -0.4230 H     1 <1>   0.0800 
 37 H       -4.6180    -3.3690     0.8990 H     1 <1>   0.0800 
 38 H       -0.6590    -7.0920    -1.2430 H     1 <1>   0.1500 
 39 H       -2.5130    -8.2480    -0.1160 H     1 <1>   0.1500 
 40 H       -6.3530    -5.8340     0.9990 H     1 <1>   0.0800 
 41 H       -6.6300    -4.3070     1.7870 H     1 <1>   0.0800 
 42 H       -5.3030    -5.3150     2.3080 H     1 <1>   0.0800 
@<TRIPOS>BOND
  1   1   2  1   
  2   1   3  1   
  3   2   4  2   
  4   2   5  1   
  5   3   6  2   
  6   3   7  1   
  7   4   6  1   
  8   5   8  am  
  9   5  22  1   
 10   7   9  1   
 11   7  23  1   
 12   7  24  1   
 13   8  10  2   
 14   8  11  1   
 15   9  12  1   
 16   9  25  1   
 17   9  26  1   
 18  11  13  ar  
 19  11  14  ar  
 20  12  15  1   
 21  12  16  1   
 22  12  27  1   
 23  13  17  ar  
 24  13  18  1   
 25  14  19  ar  
 26  14  28  1   
 27  15  29  1   
 28  15  30  1   
 29  15  31  1   
 30  16  32  1   
 31  16  33  1   
 32  16  34  1   
 33  17  20  ar  
 34  17  35  1   
 35  18  21  1   
 36  18  36  1   
 37  18  37  1   
 38  19  20  ar  
 39  19  38  1   
 40  20  39  1   
 41  21  40  1   
 42  21  41  1   
 43  21  42  1   
@<TRIPOS>SUBSTRUCTURE
  1 ****   2 GROUP 4 **** **** 0

# MOE 2024.06 (io_trps.svl 2023.06)
