@<TRIPOS>MOLECULE
NONAME
41 43 1 0 0 
SMALL
USER_CHARGES


@<TRIPOS>ATOM
  1 S        1.6050     1.0030     2.0690 S.3   1 <1>  -0.0800 
  2 C        1.4410    -0.6040     1.4460 C.2   1 <1>   0.4620 
  3 C        1.7360     1.5360     0.4260 C.2   1 <1>   0.1980 
  4 N        1.4840    -0.6490     0.1650 N.2   1 <1>  -0.3380 
  5 N        1.2900    -1.6360     2.3190 N.pl3 1 <1>  -0.8840 
  6 N        1.6530     0.5800    -0.4110 N.2   1 <1>  -0.3380 
  7 C        1.9240     3.0200     0.1850 C.3   1 <1>   0.0200 
  8 C        2.3240     3.3000    -1.2640 C.3   1 <1>   0.2090 
  9 N        2.4740     4.7650    -1.4760 N.pl3 1 <1>  -0.8690 
 10 C        3.6410     5.4420    -1.2300 C.ar  1 <1>   0.4100 
 11 N        4.5650     4.8300    -0.5010 N.ar  1 <1>  -0.6200 
 12 C        3.8150     6.7250    -1.7410 C.ar  1 <1>  -0.1500 
 13 C        5.6810     5.5040    -0.2830 C.ar  1 <1>   0.1600 
 14 C        4.9780     7.4140    -1.4980 C.ar  1 <1>  -0.1500 
 15 C        5.9570     6.7930    -0.7280 C.ar  1 <1>   0.0860 
 16 C        7.2150     7.4200    -0.4020 C.2   1 <1>   0.5440 
 17 O        8.2460     6.8030    -0.5890 O.2   1 <1>  -0.5700 
 18 N        7.2940     8.6920     0.1260 N.am  1 <1>  -0.6600 
 19 C        6.1810     9.3970     0.8310 C.3   1 <1>   0.1400 
 20 C        8.5960     9.4160     0.2340 C.3   1 <1>   0.1400 
 21 C        6.1380    10.8790     0.4220 C.3   1 <1>   0.1200 
 22 C        8.4230    10.9000    -0.1290 C.3   1 <1>   0.1200 
 23 O        7.3870    11.4800     0.6160 O.3   1 <1>  -0.5600 
 24 H        1.2160    -2.5920     1.9680 H     1 <1>   0.4000 
 25 H        1.2920    -1.5080     3.3310 H     1 <1>   0.4000 
 26 H        2.6940     3.3810     0.8410 H     1 <1>   0.0800 
 27 H        1.0060     3.5300     0.4110 H     1 <1>   0.0800 
 28 H        1.5710     2.9180    -1.9310 H     1 <1>   0.0800 
 29 H        3.2530     2.8010    -1.4870 H     1 <1>   0.0800 
 30 H        1.8570     5.1520    -2.1920 H     1 <1>   0.4000 
 31 H        3.0300     7.1650    -2.3270 H     1 <1>   0.1500 
 32 H        6.4430     5.0060     0.2930 H     1 <1>   0.1500 
 33 H        5.1410     8.4030    -1.8900 H     1 <1>   0.1500 
 34 H        6.3470     9.3360     1.8930 H     1 <1>   0.0800 
 35 H        5.2330     8.9370     0.6220 H     1 <1>   0.0800 
 36 H        9.3260     8.9750    -0.4240 H     1 <1>   0.0800 
 37 H        8.9650     9.3340     1.2410 H     1 <1>   0.0800 
 38 H        5.4230    11.4100     1.0250 H     1 <1>   0.0800 
 39 H        5.8640    10.9810    -0.6130 H     1 <1>   0.0800 
 40 H        8.1970    11.0080    -1.1750 H     1 <1>   0.0800 
 41 H        9.3260    11.4420     0.0870 H     1 <1>   0.0800 
@<TRIPOS>BOND
  1   1   2  1   
  2   1   3  1   
  3   2   4  2   
  4   2   5  1   
  5   3   6  2   
  6   3   7  1   
  7   4   6  1   
  8   5  24  1   
  9   5  25  1   
 10   7   8  1   
 11   7  26  1   
 12   7  27  1   
 13   8   9  1   
 14   8  28  1   
 15   8  29  1   
 16   9  10  1   
 17   9  30  1   
 18  10  11  ar  
 19  10  12  ar  
 20  11  13  ar  
 21  12  14  ar  
 22  12  31  1   
 23  13  15  ar  
 24  13  32  1   
 25  14  15  ar  
 26  14  33  1   
 27  15  16  1   
 28  16  17  2   
 29  16  18  am  
 30  18  19  1   
 31  18  20  1   
 32  19  21  1   
 33  19  34  1   
 34  19  35  1   
 35  20  22  1   
 36  20  36  1   
 37  20  37  1   
 38  21  23  1   
 39  21  38  1   
 40  21  39  1   
 41  22  23  1   
 42  22  40  1   
 43  22  41  1   
@<TRIPOS>SUBSTRUCTURE
  1 ****  11 GROUP 4 **** **** 0

# MOE 2024.06 (io_trps.svl 2023.06)
