@<TRIPOS>MOLECULE
NONAME
35 36 1 0 0 
SMALL
USER_CHARGES


@<TRIPOS>ATOM
  1 S       -0.2760    -0.1230     0.9290 S.3   1 <1>  -0.0800 
  2 C       -1.4830    -0.9260    -0.0200 C.2   1 <1>   0.4420 
  3 C       -0.6080     1.3060     0.0100 C.2   1 <1>   0.1980 
  4 N       -2.0120    -0.1470    -0.8920 N.2   1 <1>  -0.3380 
  5 N       -1.6980    -2.2610     0.2580 N.am  1 <1>  -0.4940 
  6 N       -1.5090     1.1250    -0.8670 N.2   1 <1>  -0.3380 
  7 C        0.1660     2.5700     0.3310 C.3   1 <1>   0.0200 
  8 C       -2.6890    -3.0940    -0.2020 C.2   1 <1>   0.5440 
  9 C        1.6260     2.4730    -0.1350 C.3   1 <1>  -0.1600 
 10 O       -3.6830    -2.6350    -0.7170 O.2   1 <1>  -0.5700 
 11 C       -2.5650    -4.5230    -0.0260 C.ar  1 <1>   0.0860 
 12 C        2.3990     3.7640     0.1660 C.3   1 <1>  -0.1600 
 13 C       -1.3350    -5.1710    -0.1780 C.ar  1 <1>   0.1600 
 14 C       -3.6640    -5.3110     0.2980 C.ar  1 <1>  -0.1500 
 15 C        3.8540     3.6580    -0.3040 C.3   1 <1>  -0.1600 
 16 N       -1.1050    -6.4670    -0.0100 N.ar  1 <1>  -0.6200 
 17 C       -3.4350    -6.6560     0.4640 C.ar  1 <1>   0.1900 
 18 C        4.6250     4.9460    -0.0050 C.3   1 <1>  -0.2400 
 19 C       -2.1690    -7.1940     0.3100 C.ar  1 <1>   0.1600 
 20 F       -4.4330    -7.4380     0.7760 F     1 <1>  -0.1900 
 21 H       -1.0550    -2.6580     0.9370 H     1 <1>   0.3700 
 22 H        0.1260     2.7460     1.3910 H     1 <1>   0.0800 
 23 H       -0.3130     3.3970    -0.1620 H     1 <1>   0.0800 
 24 H        1.6430     2.2840    -1.1950 H     1 <1>   0.0800 
 25 H        2.1070     1.6460     0.3590 H     1 <1>   0.0800 
 26 H        2.3810     3.9570     1.2260 H     1 <1>   0.0800 
 27 H        1.9240     4.5920    -0.3330 H     1 <1>   0.0800 
 28 H       -0.4830    -4.5780    -0.4650 H     1 <1>   0.1500 
 29 H       -4.6470    -4.8880     0.4130 H     1 <1>   0.1500 
 30 H        3.8800     3.4690    -1.3640 H     1 <1>   0.0800 
 31 H        4.3380     2.8340     0.1930 H     1 <1>   0.0800 
 32 H        4.1730     5.7820    -0.5100 H     1 <1>   0.0800 
 33 H        5.6420     4.8530    -0.3420 H     1 <1>   0.0800 
 34 H        4.6330     5.1440     1.0530 H     1 <1>   0.0800 
 35 H       -2.0330    -8.2520     0.4530 H     1 <1>   0.1500 
@<TRIPOS>BOND
  1   1   2  1   
  2   1   3  1   
  3   2   4  2   
  4   2   5  1   
  5   3   6  2   
  6   3   7  1   
  7   4   6  1   
  8   5   8  am  
  9   5  21  1   
 10   7   9  1   
 11   7  22  1   
 12   7  23  1   
 13   8  10  2   
 14   8  11  1   
 15   9  12  1   
 16   9  24  1   
 17   9  25  1   
 18  11  13  ar  
 19  11  14  ar  
 20  12  15  1   
 21  12  26  1   
 22  12  27  1   
 23  13  16  ar  
 24  13  28  1   
 25  14  17  ar  
 26  14  29  1   
 27  15  18  1   
 28  15  30  1   
 29  15  31  1   
 30  16  19  ar  
 31  17  19  ar  
 32  17  20  1   
 33  18  32  1   
 34  18  33  1   
 35  18  34  1   
 36  19  35  1   
@<TRIPOS>SUBSTRUCTURE
  1 ****   2 GROUP 4 **** **** 0

# MOE 2024.06 (io_trps.svl 2023.06)
