@<TRIPOS>MOLECULE
NONAME
50 52 1 0 0 
SMALL
USER_CHARGES


@<TRIPOS>ATOM
  1 N       -1.5890     2.2010    -1.6890 N.2   1 <1>  -0.5650 
  2 C       -1.9750     2.2300    -0.4560 C.2   1 <1>   0.0360 
  3 C       -0.7720     3.2580    -1.7970 C.2   1 <1>   0.0770 
  4 N       -1.4450     3.2430     0.2640 N.pl3 1 <1>   0.0480 
  5 C       -0.6510     3.9000    -0.6130 C.2   1 <1>  -0.3320 
  6 C       -1.7540     3.5500     1.6800 C.3   1 <1>   0.0960 
  7 C        0.1760     5.1170    -0.3020 C.3   1 <1>   0.5230 
  8 C       -2.7630     4.6990     1.7780 C.3   1 <1>  -0.2400 
  9 N        1.4760     4.6100     0.1980 N.4   1 <1>  -0.9590 
 10 C        2.1460     5.5570     1.1520 C.3   1 <1>   0.4380 
 11 C        2.3640     4.2130    -0.9370 C.3   1 <1>   0.2630 
 12 C        2.7340     6.8300     0.5010 C.3   1 <1>  -0.0630 
 13 C        1.6550     7.6870    -0.1530 C.ar  1 <1>  -0.0320 
 14 C        3.8640     7.5530     1.1830 C.3   1 <1>  -0.1900 
 15 C        4.1310     6.8030    -0.0810 C.3   1 <1>  -0.2000 
 16 C        1.5760     7.8160    -1.5320 C.ar  1 <1>  -0.1500 
 17 C        0.7150     8.3260     0.6420 C.ar  1 <1>  -0.1500 
 18 C        4.4980     7.0220     2.4780 C.3   1 <1>  -0.1450 
 19 C        3.9600     9.0860     1.1230 C.3   1 <1>  -0.1450 
 20 C        0.5580     8.5540    -2.1090 C.ar  1 <1>  -0.1500 
 21 C       -0.3040     9.0650     0.0670 C.ar  1 <1>  -0.1500 
 22 C       -0.3850     9.1750    -1.3100 C.ar  1 <1>  -0.1500 
 23 H       -2.6630     1.5200    -0.0280 H     1 <1>   0.1500 
 24 H       -0.3110     3.4930    -2.7430 H     1 <1>   0.1500 
 25 H       -0.8470     3.8040     2.1960 H     1 <1>   0.0800 
 26 H       -2.1670     2.6690     2.1410 H     1 <1>   0.0800 
 27 H       -0.3170     5.7220     0.4410 H     1 <1>   0.0800 
 28 H        0.3180     5.7110    -1.1900 H     1 <1>   0.0800 
 29 H       -2.3700     5.6010     1.3440 H     1 <1>   0.0800 
 30 H       -2.9950     4.8920     2.8110 H     1 <1>   0.0800 
 31 H       -3.6770     4.4350     1.2740 H     1 <1>   0.0800 
 32 H        1.2360     3.7500     0.7050 H     1 <1>   0.4500 
 33 H        2.9470     5.0340     1.6450 H     1 <1>   0.0800 
 34 H        1.4440     5.8570     1.9120 H     1 <1>   0.0800 
 35 H        2.5890     5.0680    -1.5530 H     1 <1>   0.0800 
 36 H        1.8810     3.4650    -1.5450 H     1 <1>   0.0800 
 37 H        3.2890     3.8040    -0.5630 H     1 <1>   0.0800 
 38 H        4.3650     7.3810    -0.9590 H     1 <1>   0.1000 
 39 H        4.7330     5.9130    -0.0170 H     1 <1>   0.1000 
 40 H        2.3050     7.3480    -2.1690 H     1 <1>   0.1500 
 41 H        0.7760     8.2620     1.7150 H     1 <1>   0.1500 
 42 H        4.5870     5.9520     2.4810 H     1 <1>   0.0800 
 43 H        3.9140     7.3260     3.3300 H     1 <1>   0.0800 
 44 H        5.4890     7.4270     2.5920 H     1 <1>   0.0800 
 45 H        3.6170     9.4690     0.1780 H     1 <1>   0.0800 
 46 H        4.9800     9.4020     1.2520 H     1 <1>   0.0800 
 47 H        3.3650     9.5280     1.9020 H     1 <1>   0.0800 
 48 H        0.5000     8.6550    -3.1800 H     1 <1>   0.1500 
 49 H       -1.0300     9.5630     0.6870 H     1 <1>   0.1500 
 50 H       -1.1760     9.7530    -1.7590 H     1 <1>   0.1500 
@<TRIPOS>BOND
  1   1   2  2   
  2   1   3  1   
  3   2   4  1   
  4   2  23  1   
  5   3   5  2   
  6   3  24  1   
  7   4   5  1   
  8   4   6  1   
  9   5   7  1   
 10   6   8  1   
 11   6  25  1   
 12   6  26  1   
 13   7   9  1   
 14   7  27  1   
 15   7  28  1   
 16   8  29  1   
 17   8  30  1   
 18   8  31  1   
 19   9  10  1   
 20   9  11  1   
 21   9  32  1   
 22  10  12  1   
 23  10  33  1   
 24  10  34  1   
 25  11  35  1   
 26  11  36  1   
 27  11  37  1   
 28  12  13  1   
 29  12  14  1   
 30  12  15  1   
 31  13  16  ar  
 32  13  17  ar  
 33  14  15  1   
 34  14  18  1   
 35  14  19  1   
 36  15  38  1   
 37  15  39  1   
 38  16  20  ar  
 39  16  40  1   
 40  17  21  ar  
 41  17  41  1   
 42  18  42  1   
 43  18  43  1   
 44  18  44  1   
 45  19  45  1   
 46  19  46  1   
 47  19  47  1   
 48  20  22  ar  
 49  20  48  1   
 50  21  22  ar  
 51  21  49  1   
 52  22  50  1   
@<TRIPOS>SUBSTRUCTURE
  1 ****   7 GROUP 4 **** **** 0

# MOE 2024.06 (io_trps.svl 2023.06)
