@<TRIPOS>MOLECULE
NONAME
50 52 1 0 0 
SMALL
USER_CHARGES


@<TRIPOS>ATOM
  1 S       -0.0420    -0.0690     2.0790 S.o2  1 <1>   1.4470 
  2 O        0.2740     1.2380     2.6160 O.2   1 <1>  -0.6500 
  3 O       -0.6240    -1.0680     2.9500 O.2   1 <1>  -0.6500 
  4 N       -1.1340     0.1780     0.8070 N.am  1 <1>  -0.8490 
  5 C        1.4070    -0.7750     1.2450 C.ar  1 <1>  -0.0090 
  6 C       -2.4840     0.4650     1.3160 C.3   1 <1>   0.1960 
  7 C       -0.6980     1.2500    -0.0930 C.3   1 <1>   0.1960 
  8 C        2.6700    -0.2140     1.3900 C.ar  1 <1>  -0.1500 
  9 C        1.2870    -1.8950     0.4350 C.ar  1 <1>  -0.1500 
 10 C       -3.5230     0.4890     0.1780 C.3   1 <1>   0.0000 
 11 C       -1.6230     1.3320    -1.3110 C.3   1 <1>  -0.1600 
 12 C        3.7820    -0.7400     0.7500 C.ar  1 <1>  -0.1430 
 13 C        2.3860    -2.4320    -0.2100 C.ar  1 <1>  -0.1500 
 14 C       -4.9280     0.7610     0.7440 C.3   1 <1>   0.2000 
 15 C       -3.0900     1.5270    -0.8920 C.3   1 <1>  -0.1600 
 16 C       -3.7220    -0.9000    -0.4580 C.3   1 <1>  -0.1600 
 17 C        3.6380    -1.8600    -0.0600 C.ar  1 <1>  -0.1430 
 18 C        5.1350    -0.0740     0.9540 C.3   1 <1>  -0.0970 
 19 O       -5.1370     2.1200     0.9860 O.3   1 <1>  -0.5600 
 20 C       -5.9030     0.2160    -0.3030 C.3   1 <1>  -0.1600 
 21 C       -5.1410    -0.8930    -1.0410 C.3   1 <1>  -0.1600 
 22 C        4.8260    -2.4770    -0.7840 C.3   1 <1>  -0.0970 
 23 C       -6.2530     2.4160     1.7640 C.3   1 <1>   0.0400 
 24 H       -2.7700    -0.2890     2.0290 H     1 <1>   0.0800 
 25 H       -2.4860     1.4160     1.8260 H     1 <1>   0.0800 
 26 H       -0.7020     2.1940     0.4300 H     1 <1>   0.0800 
 27 H        0.3060     1.0590    -0.4320 H     1 <1>   0.0800 
 28 H        2.7770     0.6530     2.0200 H     1 <1>   0.1500 
 29 H        0.3180    -2.3490     0.3090 H     1 <1>   0.1500 
 30 H       -1.3180     2.1570    -1.9300 H     1 <1>   0.0800 
 31 H       -1.5130     0.4350    -1.8930 H     1 <1>   0.0800 
 32 H        2.2560    -3.3010    -0.8310 H     1 <1>   0.1500 
 33 H       -5.0480     0.2190     1.6680 H     1 <1>   0.0800 
 34 H       -3.7270     1.4770    -1.7560 H     1 <1>   0.0800 
 35 H       -3.1830     2.5170    -0.4820 H     1 <1>   0.0800 
 36 H       -2.9830    -1.1350    -1.2020 H     1 <1>   0.0800 
 37 H       -3.6680    -1.6530     0.3090 H     1 <1>   0.0800 
 38 H        5.0550     0.7740     1.6100 H     1 <1>   0.0800 
 39 H        5.5250     0.2650     0.0110 H     1 <1>   0.0800 
 40 H        5.8270    -0.7720     1.3900 H     1 <1>   0.0800 
 41 H       -6.7900    -0.1710     0.1650 H     1 <1>   0.0800 
 42 H       -6.1670     0.9940    -0.9980 H     1 <1>   0.0800 
 43 H       -5.6120    -1.8520    -0.9070 H     1 <1>   0.0800 
 44 H       -5.1050    -0.6680    -2.0940 H     1 <1>   0.0800 
 45 H        4.5240    -3.3320    -1.3630 H     1 <1>   0.0800 
 46 H        5.5660    -2.7970    -0.0730 H     1 <1>   0.0800 
 47 H        5.2660    -1.7580    -1.4500 H     1 <1>   0.0800 
 48 H       -6.2910     3.4830     1.8990 H     1 <1>   0.0800 
 49 H       -6.1590     1.9330     2.7210 H     1 <1>   0.0800 
 50 H       -7.1430     2.0870     1.2560 H     1 <1>   0.0800 
@<TRIPOS>BOND
  1   1   2  2   
  2   1   3  2   
  3   1   4  am  
  4   1   5  1   
  5   4   6  1   
  6   4   7  1   
  7   5   8  ar  
  8   5   9  ar  
  9   6  10  1   
 10   6  24  1   
 11   6  25  1   
 12   7  11  1   
 13   7  26  1   
 14   7  27  1   
 15   8  12  ar  
 16   8  28  1   
 17   9  13  ar  
 18   9  29  1   
 19  10  14  1   
 20  10  15  1   
 21  10  16  1   
 22  11  15  1   
 23  11  30  1   
 24  11  31  1   
 25  12  17  ar  
 26  12  18  1   
 27  13  17  ar  
 28  13  32  1   
 29  14  19  1   
 30  14  20  1   
 31  14  33  1   
 32  15  34  1   
 33  15  35  1   
 34  16  21  1   
 35  16  36  1   
 36  16  37  1   
 37  17  22  1   
 38  18  38  1   
 39  18  39  1   
 40  18  40  1   
 41  19  23  1   
 42  20  21  1   
 43  20  41  1   
 44  20  42  1   
 45  21  43  1   
 46  21  44  1   
 47  22  45  1   
 48  22  46  1   
 49  22  47  1   
 50  23  48  1   
 51  23  49  1   
 52  23  50  1   
@<TRIPOS>SUBSTRUCTURE
  1 ****   4 GROUP 4 **** **** 0

# MOE 2024.06 (io_trps.svl 2023.06)
