@<TRIPOS>MOLECULE
NONAME
41 43 1 0 0 
SMALL
USER_CHARGES


@<TRIPOS>ATOM
  1 O       -0.9900     0.5380     0.9950 O.2   1 <1>  -0.5700 
  2 C       -1.2610     1.4640     0.2520 C.2   1 <1>   0.5440 
  3 N       -2.2740     1.2920    -0.6730 N.am  1 <1>  -0.6600 
  4 C       -0.5260     2.7000     0.3710 C.ar  1 <1>   0.0860 
  5 C       -2.7860    -0.0810    -0.9650 C.3   1 <1>   0.1400 
  6 C       -2.9960     2.4310    -1.3150 C.3   1 <1>   0.1400 
  7 C        0.0130     3.3310    -0.7490 C.ar  1 <1>   0.1600 
  8 C       -0.3140     3.3150     1.6010 C.ar  1 <1>  -0.1500 
  9 C       -3.8350    -0.5260     0.0670 C.3   1 <1>   0.1400 
 10 C       -4.5240     2.2930    -1.2720 C.3   1 <1>  -0.1600 
 11 N        0.6750     4.4740    -0.7560 N.ar  1 <1>  -0.6200 
 12 C        0.3790     4.5010     1.6170 C.ar  1 <1>  -0.1500 
 13 N       -5.1310     0.2110    -0.0680 N.am  1 <1>  -0.6600 
 14 C       -5.0670     1.6960     0.0300 C.3   1 <1>   0.1400 
 15 C        0.8470     5.0420     0.4240 C.ar  1 <1>   0.4100 
 16 C       -6.3170    -0.4150    -0.3910 C.2   1 <1>   0.7160 
 17 N        1.5320     6.2060     0.3930 N.pl3 1 <1>  -0.9000 
 18 O       -7.1690     0.2180    -0.9880 O.2   1 <1>  -0.5700 
 19 C       -6.5790    -1.7950    -0.0540 C.2   1 <1>  -0.0860 
 20 C       -7.3310    -2.6940    -0.7440 C.2   1 <1>  -0.0100 
 21 C       -6.1430    -2.5170     1.0790 C.2   1 <1>  -0.1500 
 22 O       -7.3610    -3.8590    -0.1440 O.3   1 <1>  -0.2800 
 23 C       -6.6500    -3.7610     0.9580 C.2   1 <1>  -0.0100 
 24 H       -1.9600    -0.7700    -0.9280 H     1 <1>   0.0800 
 25 H       -3.2010    -0.1250    -1.9560 H     1 <1>   0.0800 
 26 H       -2.6750     2.5220    -2.3390 H     1 <1>   0.0800 
 27 H       -2.7370     3.3450    -0.8080 H     1 <1>   0.0800 
 28 H       -0.1200     2.8490    -1.7020 H     1 <1>   0.1500 
 29 H       -0.6890     2.8630     2.5030 H     1 <1>   0.1500 
 30 H       -3.4430    -0.3900     1.0600 H     1 <1>   0.0800 
 31 H       -3.9960    -1.5780    -0.0790 H     1 <1>   0.0800 
 32 H       -4.8710     1.7130    -2.1100 H     1 <1>   0.0800 
 33 H       -4.9390     3.2770    -1.3910 H     1 <1>   0.0800 
 34 H        0.5640     5.0200     2.5380 H     1 <1>   0.1500 
 35 H       -6.0590     2.0790     0.2040 H     1 <1>   0.0800 
 36 H       -4.4550     1.9830     0.8690 H     1 <1>   0.0800 
 37 H        2.1040     6.4780     1.1910 H     1 <1>   0.4000 
 38 H        1.9410     6.4300    -0.5160 H     1 <1>   0.4000 
 39 H       -7.8700    -2.5610    -1.6660 H     1 <1>   0.1500 
 40 H       -5.5330    -2.1180     1.8690 H     1 <1>   0.1500 
 41 H       -6.5620    -4.6220     1.5980 H     1 <1>   0.1500 
@<TRIPOS>BOND
  1   1   2  2   
  2   2   3  am  
  3   2   4  1   
  4   3   5  1   
  5   3   6  1   
  6   4   7  ar  
  7   4   8  ar  
  8   5   9  1   
  9   5  24  1   
 10   5  25  1   
 11   6  10  1   
 12   6  26  1   
 13   6  27  1   
 14   7  11  ar  
 15   7  28  1   
 16   8  12  ar  
 17   8  29  1   
 18   9  13  1   
 19   9  30  1   
 20   9  31  1   
 21  10  14  1   
 22  10  32  1   
 23  10  33  1   
 24  11  15  ar  
 25  12  15  ar  
 26  12  34  1   
 27  13  14  1   
 28  13  16  am  
 29  14  35  1   
 30  14  36  1   
 31  15  17  1   
 32  16  18  2   
 33  16  19  1   
 34  17  37  1   
 35  17  38  1   
 36  19  20  2   
 37  19  21  1   
 38  20  22  1   
 39  20  39  1   
 40  21  23  2   
 41  21  40  1   
 42  22  23  1   
 43  23  41  1   
@<TRIPOS>SUBSTRUCTURE
  1 ****   3 GROUP 4 **** **** 0

# MOE 2024.06 (io_trps.svl 2023.06)
