@<TRIPOS>MOLECULE
NONAME
50 53 1 0 0 
SMALL
USER_CHARGES


@<TRIPOS>ATOM
  1 O       -2.7430     0.6580    -1.6760 O.2   1 <1>  -0.5700 
  2 C       -2.4280     0.9160    -0.5300 C.2   1 <1>   0.5440 
  3 N       -2.2960    -0.1220     0.3470 N.am  1 <1>  -0.7300 
  4 C       -2.2060     2.2880    -0.1100 C.ar  1 <1>   0.0860 
  5 C       -2.5630    -1.5390     0.0190 C.3   1 <1>   0.2200 
  6 C       -2.2470     2.7000     1.2160 C.ar  1 <1>  -0.1500 
  7 C       -1.9360     3.2980    -1.0210 C.ar  1 <1>  -0.1500 
  8 C       -4.0150    -1.8510     0.3360 C.3   1 <1>  -0.0800 
  9 C       -1.8300    -2.4460     0.9990 C.3   1 <1>   0.1200 
 10 C       -2.0190     4.0220     1.5490 C.ar  1 <1>   0.1670 
 11 C       -1.7210     4.5950    -0.5950 C.ar  1 <1>   0.1660 
 12 C       -3.9640    -2.2100     1.8260 C.3   1 <1>   0.1200 
 13 C       -4.5450    -3.0080    -0.5320 C.3   1 <1>  -0.0170 
 14 O       -2.6300    -2.4970     2.1400 O.3   1 <1>  -0.5600 
 15 N       -1.7550     4.9710     0.6700 N.ar  1 <1>  -0.6200 
 16 C       -2.0630     4.4670     2.9960 C.3   1 <1>  -0.0970 
 17 C       -1.4260     5.6900    -1.5980 C.3   1 <1>  -0.0970 
 18 C       -6.0360    -3.2380    -0.3040 C.ar  1 <1>  -0.1440 
 19 C       -7.0230    -2.3750    -0.8360 C.ar  1 <1>   0.0000 
 20 C       -6.4610    -4.3030     0.4360 C.ar  1 <1>  -0.1500 
 21 C       -8.3780    -2.6690    -0.5450 C.ar  1 <1>   0.3100 
 22 C       -6.7500    -1.2430    -1.6400 C.ar  1 <1>  -0.1500 
 23 C       -7.8280    -4.5070     0.6580 C.ar  1 <1>   0.1600 
 24 N       -8.7620    -3.7350     0.2020 N.ar  1 <1>  -0.6200 
 25 C       -9.3810    -1.8250    -1.0500 C.ar  1 <1>  -0.1500 
 26 C       -7.7510    -0.4420    -2.1170 C.ar  1 <1>  -0.1500 
 27 C       -9.0840    -0.7330    -1.8190 C.ar  1 <1>  -0.1500 
 28 H       -2.0680     0.0450     1.3280 H     1 <1>   0.3700 
 29 H       -2.2950    -1.7410    -1.0050 H     1 <1>   0.0800 
 30 H       -2.4640     1.9910     1.9910 H     1 <1>   0.1500 
 31 H       -1.8950     3.0590    -2.0680 H     1 <1>   0.1500 
 32 H       -4.6350    -0.9860     0.1820 H     1 <1>   0.0800 
 33 H       -0.8520    -2.0790     1.2550 H     1 <1>   0.0800 
 34 H       -1.7540    -3.4450     0.6080 H     1 <1>   0.0800 
 35 H       -4.5700    -3.0650     2.0720 H     1 <1>   0.0800 
 36 H       -4.2680    -1.3730     2.4300 H     1 <1>   0.0800 
 37 H       -4.0010    -3.9090    -0.3090 H     1 <1>   0.0800 
 38 H       -4.3800    -2.7930    -1.5740 H     1 <1>   0.0800 
 39 H       -2.2850     3.6460     3.6520 H     1 <1>   0.0800 
 40 H       -2.8180     5.2220     3.1150 H     1 <1>   0.0800 
 41 H       -1.1120     4.8850     3.2700 H     1 <1>   0.0800 
 42 H       -1.4180     5.3070    -2.6020 H     1 <1>   0.0800 
 43 H       -0.4660     6.1230    -1.3830 H     1 <1>   0.0800 
 44 H       -2.1750     6.4560    -1.5230 H     1 <1>   0.0800 
 45 H       -5.7690    -5.0050     0.8650 H     1 <1>   0.1500 
 46 H       -5.7330    -0.9980    -1.8870 H     1 <1>   0.1500 
 47 H       -8.1190    -5.3590     1.2480 H     1 <1>   0.1500 
 48 H      -10.3980    -2.0700    -0.8090 H     1 <1>   0.1500 
 49 H       -7.5250     0.4180    -2.7250 H     1 <1>   0.1500 
 50 H       -9.8630    -0.0950    -2.1990 H     1 <1>   0.1500 
@<TRIPOS>BOND
  1   1   2  2   
  2   2   3  am  
  3   2   4  1   
  4   3   5  1   
  5   3  28  1   
  6   4   6  ar  
  7   4   7  ar  
  8   5   8  1   
  9   5   9  1   
 10   5  29  1   
 11   6  10  ar  
 12   6  30  1   
 13   7  11  ar  
 14   7  31  1   
 15   8  12  1   
 16   8  13  1   
 17   8  32  1   
 18   9  14  1   
 19   9  33  1   
 20   9  34  1   
 21  10  15  ar  
 22  10  16  1   
 23  11  15  ar  
 24  11  17  1   
 25  12  14  1   
 26  12  35  1   
 27  12  36  1   
 28  13  18  1   
 29  13  37  1   
 30  13  38  1   
 31  16  39  1   
 32  16  40  1   
 33  16  41  1   
 34  17  42  1   
 35  17  43  1   
 36  17  44  1   
 37  18  19  ar  
 38  18  20  ar  
 39  19  21  ar  
 40  19  22  ar  
 41  20  23  ar  
 42  20  45  1   
 43  21  24  ar  
 44  21  25  ar  
 45  22  26  ar  
 46  22  46  1   
 47  23  24  ar  
 48  23  47  1   
 49  25  27  ar  
 50  25  48  1   
 51  26  27  ar  
 52  26  49  1   
 53  27  50  1   
@<TRIPOS>SUBSTRUCTURE
  1 ****   8 GROUP 4 **** **** 0

# MOE 2024.06 (io_trps.svl 2023.06)
