@<TRIPOS>MOLECULE
NONAME
49 51 1 0 0 
SMALL
USER_CHARGES


@<TRIPOS>ATOM
  1 O       -0.1620    -1.2270     2.9110 O.2   1 <1>  -0.5700 
  2 C        0.0460    -2.0270     2.0120 C.2   1 <1>   0.5410 
  3 C        1.3460    -2.5580     1.6750 C.2   1 <1>   0.0910 
  4 C       -1.0320    -2.4950     1.2170 C.2   1 <1>  -0.1360 
  5 O        2.4000    -2.0870     2.3980 O.3   1 <1>  -0.5270 
  6 C        1.4950    -3.4710     0.6670 C.2   1 <1>  -0.0620 
  7 C       -0.8200    -3.3810     0.2210 C.2   1 <1>  -0.0620 
  8 O        0.4040    -3.8350    -0.0360 O.3   1 <1>  -0.1530 
  9 C        2.7730    -4.1720     0.1220 C.3   1 <1>   0.1380 
 10 C       -1.8940    -3.9440    -0.6880 C.3   1 <1>  -0.1020 
 11 C        2.4700    -5.6620    -0.1800 C.3   1 <1>  -0.1600 
 12 C        3.9640    -4.2200     1.1140 C.3   1 <1>  -0.1600 
 13 C        3.1430    -3.4190    -1.1790 C.3   1 <1>  -0.0990 
 14 C        2.1750    -6.4320     1.1120 C.3   1 <1>   0.1200 
 15 C        3.6200    -5.0500     2.3610 C.3   1 <1>   0.1200 
 16 C        4.4660    -3.8170    -1.7990 C.2   1 <1>   0.5690 
 17 O        3.2780    -6.3390     1.9610 O.3   1 <1>  -0.5600 
 18 O        4.5240    -4.7860    -2.5130 O.2   1 <1>  -0.5700 
 19 N        5.5560    -3.0690    -1.5160 N.am  1 <1>  -0.7300 
 20 C        6.9410    -3.4780    -1.7780 C.3   1 <1>   0.3210 
 21 C        7.7010    -3.2300    -0.4930 C.2   1 <1>  -0.1810 
 22 C        8.4690    -2.1840    -0.1120 C.2   1 <1>  -0.3320 
 23 C        7.7110    -4.0950     0.5960 C.2   1 <1>   0.1390 
 24 N        8.8910    -2.4570     1.1420 N.pl3 1 <1>   0.3000 
 25 C        8.8430    -0.9140    -0.8580 C.3   1 <1>  -0.0600 
 26 N        8.4130    -3.6340     1.5840 N.2   1 <1>  -0.7070 
 27 H       -2.0020    -2.1040     1.4590 H     1 <1>   0.1500 
 28 H        3.2280    -2.5560     2.2070 H     1 <1>   0.4500 
 29 H       -1.6760    -3.6950    -1.7110 H     1 <1>   0.0800 
 30 H       -2.8580    -3.5420    -0.4330 H     1 <1>   0.0800 
 31 H       -1.9300    -5.0140    -0.5920 H     1 <1>   0.0800 
 32 H        3.3150    -6.1310    -0.6520 H     1 <1>   0.0800 
 33 H        1.6450    -5.7690    -0.8600 H     1 <1>   0.0800 
 34 H        4.3240    -3.2440     1.3710 H     1 <1>   0.0800 
 35 H        4.7960    -4.7200     0.6510 H     1 <1>   0.0800 
 36 H        3.1700    -2.3640    -0.9790 H     1 <1>   0.0800 
 37 H        2.3750    -3.5780    -1.9140 H     1 <1>   0.0800 
 38 H        2.0160    -7.4750     0.8990 H     1 <1>   0.0800 
 39 H        1.3100    -6.0430     1.6220 H     1 <1>   0.0800 
 40 H        2.7970    -4.6400     2.9210 H     1 <1>   0.0800 
 41 H        4.4770    -5.1300     3.0090 H     1 <1>   0.0800 
 42 H        5.4880    -2.2580    -0.9020 H     1 <1>   0.3700 
 43 H        7.3470    -2.8890    -2.5810 H     1 <1>   0.0800 
 44 H        6.9870    -4.5190    -2.0500 H     1 <1>   0.0800 
 45 H        7.1950    -5.0420     0.6280 H     1 <1>   0.1500 
 46 H        9.5010    -1.8660     1.7200 H     1 <1>   0.2700 
 47 H        8.3780    -0.8910    -1.8270 H     1 <1>   0.0800 
 48 H        9.9090    -0.8640    -0.9910 H     1 <1>   0.0800 
 49 H        8.5200    -0.0490    -0.3060 H     1 <1>   0.0800 
@<TRIPOS>BOND
  1   1   2  2   
  2   2   3  1   
  3   2   4  1   
  4   3   5  1   
  5   3   6  2   
  6   4   7  2   
  7   4  27  1   
  8   5  28  1   
  9   6   8  1   
 10   6   9  1   
 11   7   8  1   
 12   7  10  1   
 13   9  11  1   
 14   9  12  1   
 15   9  13  1   
 16  10  29  1   
 17  10  30  1   
 18  10  31  1   
 19  11  14  1   
 20  11  32  1   
 21  11  33  1   
 22  12  15  1   
 23  12  34  1   
 24  12  35  1   
 25  13  16  1   
 26  13  36  1   
 27  13  37  1   
 28  14  17  1   
 29  14  38  1   
 30  14  39  1   
 31  15  17  1   
 32  15  40  1   
 33  15  41  1   
 34  16  18  2   
 35  16  19  am  
 36  19  20  1   
 37  19  42  1   
 38  20  21  1   
 39  20  43  1   
 40  20  44  1   
 41  21  22  2   
 42  21  23  1   
 43  22  24  1   
 44  22  25  1   
 45  23  26  2   
 46  23  45  1   
 47  24  26  1   
 48  24  46  1   
 49  25  47  1   
 50  25  48  1   
 51  25  49  1   
@<TRIPOS>SUBSTRUCTURE
  1 ****  12 GROUP 4 **** **** 0

# MOE 2024.06 (io_trps.svl 2023.06)
