@<TRIPOS>MOLECULE
NONAME
57 60 1 0 0 
SMALL
USER_CHARGES


@<TRIPOS>ATOM
  1 O        0.6960     0.3860    -0.3270 O.2   1 <1>  -0.5700 
  2 C        1.5490    -0.4500    -0.1370 C.2   1 <1>   0.5690 
  3 N        2.6240    -0.1650     0.6830 N.am  1 <1>  -0.6600 
  4 C        1.3860    -1.7920    -0.8820 C.3   1 <1>   0.2610 
  5 C        3.8200    -1.0420     0.8460 C.3   1 <1>   0.1400 
  6 C        2.7620     1.1770     1.3030 C.3   1 <1>   0.1400 
  7 O        2.5660    -2.2500    -1.4970 O.3   1 <1>  -0.5600 
  8 C        0.9320    -2.9600    -0.0060 C.3   1 <1>  -0.1600 
  9 C        4.8930    -0.7430    -0.2210 C.3   1 <1>   0.3430 
 10 C        3.3490     2.1720     0.2950 C.3   1 <1>  -0.1600 
 11 C        2.4170    -3.6010    -1.7910 C.3   1 <1>   0.1200 
 12 C        1.6020    -4.1750    -0.6370 C.3   1 <1>  -0.1600 
 13 N        5.2880     0.7070    -0.3060 N.4   1 <1>  -0.9590 
 14 C        4.1790     1.5590    -0.8370 C.3   1 <1>   0.3430 
 15 C        6.5010     0.8610    -1.1430 C.3   1 <1>   0.4810 
 16 C        7.0270     2.2670    -0.9560 C.2   1 <1>  -0.2540 
 17 C        7.0390     3.2350    -1.8820 C.2   1 <1>  -0.2880 
 18 C        7.6020     2.5970     0.4260 C.3   1 <1>   0.1160 
 19 C        7.6380     4.6010    -1.5330 C.3   1 <1>  -0.0220 
 20 C        8.9900     3.3330     0.3390 C.3   1 <1>   0.0000 
 21 C        7.0230     3.9830     0.8610 C.3   1 <1>   0.0000 
 22 C        8.1310     4.5910    -0.0600 C.3   1 <1>   0.0000 
 23 C        9.7460     3.4660     1.6830 C.3   1 <1>  -0.2400 
 24 C        9.9890     2.8070    -0.7150 C.3   1 <1>  -0.2400 
 25 H        0.6670    -1.6490    -1.6700 H     1 <1>   0.0800 
 26 H        4.2390    -0.9060     1.8280 H     1 <1>   0.0800 
 27 H        3.5330    -2.0760     0.7760 H     1 <1>   0.0800 
 28 H        1.7960     1.5250     1.6360 H     1 <1>   0.0800 
 29 H        3.3940     1.1120     2.1720 H     1 <1>   0.0800 
 30 H        1.2620    -2.8260     1.0090 H     1 <1>   0.0800 
 31 H       -0.1410    -3.0380    -0.0120 H     1 <1>   0.0800 
 32 H        4.5200    -1.0680    -1.1790 H     1 <1>   0.0800 
 33 H        5.7610    -1.3400     0.0040 H     1 <1>   0.0800 
 34 H        3.9220     2.9170     0.8160 H     1 <1>   0.0800 
 35 H        2.5240     2.6900    -0.1630 H     1 <1>   0.0800 
 36 H        1.8810    -3.6820    -2.7230 H     1 <1>   0.0800 
 37 H        3.3870    -4.0590    -1.8830 H     1 <1>   0.0800 
 38 H        0.8830    -4.8900    -1.0000 H     1 <1>   0.0800 
 39 H        2.2510    -4.6640     0.0690 H     1 <1>   0.0800 
 40 H        5.5250     1.0610     0.6260 H     1 <1>   0.4500 
 41 H        4.5810     2.3630    -1.4330 H     1 <1>   0.0800 
 42 H        3.5380     0.9680    -1.4720 H     1 <1>   0.0800 
 43 H        7.2590     0.1540    -0.8460 H     1 <1>   0.0800 
 44 H        6.2590     0.6920    -2.1800 H     1 <1>   0.0800 
 45 H        6.6710     3.1540    -2.8930 H     1 <1>   0.1500 
 46 H        7.5280     1.8260     1.1720 H     1 <1>   0.0000 
 47 H        6.8930     5.3680    -1.6560 H     1 <1>   0.0800 
 48 H        8.4610     4.8250    -2.1900 H     1 <1>   0.0800 
 49 H        6.0180     4.1700     0.5240 H     1 <1>   0.0000 
 50 H        7.1330     4.2060     1.9070 H     1 <1>   0.0000 
 51 H        8.5230     5.5320     0.2850 H     1 <1>   0.0000 
 52 H       10.5740     4.1430     1.5650 H     1 <1>   0.0800 
 53 H       10.1370     2.5100     1.9810 H     1 <1>   0.0800 
 54 H        9.1420     3.8370     2.4880 H     1 <1>   0.0800 
 55 H       10.8010     3.5040    -0.8230 H     1 <1>   0.0800 
 56 H        9.5570     2.6620    -1.6860 H     1 <1>   0.0800 
 57 H       10.3970     1.8650    -0.3950 H     1 <1>   0.0800 
@<TRIPOS>BOND
  1   1   2  2   
  2   2   3  am  
  3   2   4  1   
  4   3   5  1   
  5   3   6  1   
  6   4   7  1   
  7   4   8  1   
  8   4  25  1   
  9   5   9  1   
 10   5  26  1   
 11   5  27  1   
 12   6  10  1   
 13   6  28  1   
 14   6  29  1   
 15   7  11  1   
 16   8  12  1   
 17   8  30  1   
 18   8  31  1   
 19   9  13  1   
 20   9  32  1   
 21   9  33  1   
 22  10  14  1   
 23  10  34  1   
 24  10  35  1   
 25  11  12  1   
 26  11  36  1   
 27  11  37  1   
 28  12  38  1   
 29  12  39  1   
 30  13  14  1   
 31  13  15  1   
 32  13  40  1   
 33  14  41  1   
 34  14  42  1   
 35  15  16  1   
 36  15  43  1   
 37  15  44  1   
 38  16  17  2   
 39  16  18  1   
 40  17  19  1   
 41  17  45  1   
 42  18  20  1   
 43  18  21  1   
 44  18  46  1   
 45  19  22  1   
 46  19  47  1   
 47  19  48  1   
 48  20  22  1   
 49  20  23  1   
 50  20  24  1   
 51  21  22  1   
 52  21  49  1   
 53  21  50  1   
 54  22  51  1   
 55  23  52  1   
 56  23  53  1   
 57  23  54  1   
 58  24  55  1   
 59  24  56  1   
 60  24  57  1   
@<TRIPOS>SUBSTRUCTURE
  1 ****  13 GROUP 4 **** **** 0

# MOE 2024.06 (io_trps.svl 2023.06)
