@<TRIPOS>MOLECULE
NONAME
54 57 1 0 0 
SMALL
USER_CHARGES


@<TRIPOS>ATOM
  1 O       -2.7890     0.5530    -1.7780 O.2   1 <1>  -0.5700 
  2 C       -2.3580     0.7960    -0.6680 C.2   1 <1>   0.5440 
  3 N       -2.0940    -0.2550     0.1640 N.am  1 <1>  -0.7300 
  4 C       -2.1600     2.1510    -0.2240 C.ar  1 <1>   0.0860 
  5 C       -2.4000    -1.6670    -0.1590 C.3   1 <1>   0.2200 
  6 C       -1.4750     3.1220    -0.9420 C.ar  1 <1>   0.1660 
  7 C       -2.6710     2.5700     0.9900 C.ar  1 <1>   0.1600 
  8 C       -3.8220    -1.9690     0.2830 C.3   1 <1>  -0.0800 
  9 C       -1.5890    -2.6020     0.7280 C.3   1 <1>   0.1200 
 10 N       -1.3210     4.3440    -0.4960 N.ar  1 <1>  -0.6200 
 11 C       -0.8530     2.8280    -2.2970 C.3   1 <1>  -0.0960 
 12 N       -2.5260     3.7820     1.4600 N.ar  1 <1>  -0.6200 
 13 C       -3.6470    -2.4440     1.7320 C.3   1 <1>   0.1200 
 14 C       -4.4790    -3.0350    -0.6140 C.3   1 <1>  -0.0170 
 15 O       -2.2800    -2.6630     1.9350 O.3   1 <1>  -0.5600 
 16 C       -1.8520     4.6370     0.6910 C.ar  1 <1>   0.7200 
 17 C       -5.9580    -3.1950    -0.2790 C.ar  1 <1>  -0.1440 
 18 N       -1.6900     5.9200     1.1590 N.pl3 1 <1>  -0.8380 
 19 C       -6.9240    -2.2340    -0.6640 C.ar  1 <1>   0.0000 
 20 C       -6.3930    -4.2850     0.4160 C.ar  1 <1>  -0.1500 
 21 C       -2.0110     6.3090     2.5610 C.3   1 <1>   0.1290 
 22 C       -1.1890     7.0250     0.2930 C.3   1 <1>   0.1290 
 23 C       -8.2670    -2.4630    -0.2780 C.ar  1 <1>   0.3100 
 24 C       -6.6390    -1.0630    -1.4080 C.ar  1 <1>  -0.1500 
 25 C       -7.7490    -4.4190     0.7390 C.ar  1 <1>   0.1600 
 26 N       -8.6610    -3.5570     0.4210 N.ar  1 <1>  -0.6200 
 27 C       -9.2470    -1.5210    -0.6320 C.ar  1 <1>  -0.1500 
 28 C       -7.6180    -0.1650    -1.7360 C.ar  1 <1>  -0.1500 
 29 C       -8.9390    -0.3930    -1.3440 C.ar  1 <1>  -0.1500 
 30 H       -1.7620    -0.1070     1.1210 H     1 <1>   0.3700 
 31 H       -2.2290    -1.8510    -1.2070 H     1 <1>   0.0800 
 32 H       -3.2250     1.8710     1.5900 H     1 <1>   0.1500 
 33 H       -4.4250    -1.0790     0.2610 H     1 <1>   0.0800 
 34 H       -0.5870    -2.2510     0.8990 H     1 <1>   0.0800 
 35 H       -1.5650    -3.5940     0.3130 H     1 <1>   0.0800 
 36 H       -0.3830     1.8620    -2.3000 H     1 <1>   0.0800 
 37 H       -0.1100     3.5670    -2.5360 H     1 <1>   0.0800 
 38 H       -1.6160     2.8490    -3.0540 H     1 <1>   0.0800 
 39 H       -4.1740    -3.3600     1.9340 H     1 <1>   0.0800 
 40 H       -3.9650    -1.6880     2.4280 H     1 <1>   0.0800 
 41 H       -3.9700    -3.9760    -0.4940 H     1 <1>   0.0800 
 42 H       -4.3840    -2.7570    -1.6490 H     1 <1>   0.0800 
 43 H       -5.7190    -5.0590     0.7340 H     1 <1>   0.1500 
 44 H       -1.3280     7.0680     2.8990 H     1 <1>   0.0800 
 45 H       -1.9260     5.4630     3.2210 H     1 <1>   0.0800 
 46 H       -3.0170     6.6880     2.6080 H     1 <1>   0.0800 
 47 H       -1.6390     7.9570     0.5850 H     1 <1>   0.0800 
 48 H       -1.4360     6.8410    -0.7390 H     1 <1>   0.0800 
 49 H       -0.1200     7.0990     0.3880 H     1 <1>   0.0800 
 50 H       -5.6320    -0.8640    -1.7270 H     1 <1>   0.1500 
 51 H       -8.0500    -5.2940     1.2890 H     1 <1>   0.1500 
 52 H      -10.2560    -1.7190    -0.3220 H     1 <1>   0.1500 
 53 H       -7.3840     0.7220    -2.2990 H     1 <1>   0.1500 
 54 H       -9.7000     0.3200    -1.6080 H     1 <1>   0.1500 
@<TRIPOS>BOND
  1   1   2  2   
  2   2   3  am  
  3   2   4  1   
  4   3   5  1   
  5   3  30  1   
  6   4   6  ar  
  7   4   7  ar  
  8   5   8  1   
  9   5   9  1   
 10   5  31  1   
 11   6  10  ar  
 12   6  11  1   
 13   7  12  ar  
 14   7  32  1   
 15   8  13  1   
 16   8  14  1   
 17   8  33  1   
 18   9  15  1   
 19   9  34  1   
 20   9  35  1   
 21  10  16  ar  
 22  11  36  1   
 23  11  37  1   
 24  11  38  1   
 25  12  16  ar  
 26  13  15  1   
 27  13  39  1   
 28  13  40  1   
 29  14  17  1   
 30  14  41  1   
 31  14  42  1   
 32  16  18  1   
 33  17  19  ar  
 34  17  20  ar  
 35  18  21  1   
 36  18  22  1   
 37  19  23  ar  
 38  19  24  ar  
 39  20  25  ar  
 40  20  43  1   
 41  21  44  1   
 42  21  45  1   
 43  21  46  1   
 44  22  47  1   
 45  22  48  1   
 46  22  49  1   
 47  23  26  ar  
 48  23  27  ar  
 49  24  28  ar  
 50  24  50  1   
 51  25  26  ar  
 52  25  51  1   
 53  27  29  ar  
 54  27  52  1   
 55  28  29  ar  
 56  28  53  1   
 57  29  54  1   
@<TRIPOS>SUBSTRUCTURE
  1 ****   2 GROUP 4 **** **** 0

# MOE 2024.06 (io_trps.svl 2023.06)
