@<TRIPOS>MOLECULE
NONAME
50 53 1 0 0 
SMALL
USER_CHARGES


@<TRIPOS>ATOM
  1 O       -0.0100    -0.2580    -0.6860 O.3   1 <1>  -0.3630 
  2 C        0.8800     0.4810     0.0330 C.ar  1 <1>   0.0830 
  3 C       -0.2100    -1.6380    -0.4620 C.3   1 <1>   0.1200 
  4 C        1.0100     1.8580    -0.2970 C.ar  1 <1>   0.3100 
  5 C        1.6350    -0.0720     1.0470 C.ar  1 <1>  -0.1500 
  6 C       -1.3010    -2.1330    -1.4100 C.3   1 <1>   0.2090 
  7 N        0.2630     2.4060    -1.3010 N.ar  1 <1>  -0.6200 
  8 C        1.9310     2.6380     0.4440 C.ar  1 <1>   0.0000 
  9 C        2.5380     0.7100     1.7670 C.ar  1 <1>  -0.1500 
 10 N       -1.4180    -3.6170    -1.3360 N.pl3 1 <1>  -0.8690 
 11 C        0.4180     3.6670    -1.5620 C.ar  1 <1>   0.1600 
 12 C        2.0660     4.0010     0.1260 C.ar  1 <1>  -0.1500 
 13 C        2.6820     2.0370     1.4710 C.ar  1 <1>  -0.1500 
 14 C       -2.1540    -4.2630    -0.3710 C.ar  1 <1>   0.4100 
 15 C        1.3040     4.5090    -0.8800 C.ar  1 <1>  -0.1500 
 16 N       -2.5300    -3.5730     0.6890 N.ar  1 <1>  -0.6200 
 17 C       -2.4830    -5.5880    -0.5080 C.ar  1 <1>  -0.1500 
 18 C       -3.2380    -4.2430     1.5760 C.ar  1 <1>   0.4700 
 19 C       -3.2190    -6.1880     0.4850 C.ar  1 <1>   0.4100 
 20 N       -3.6110    -5.5060     1.5470 N.ar  1 <1>  -0.6200 
 21 N       -3.5660    -7.5220     0.4090 N.pl3 1 <1>  -0.8380 
 22 C       -4.8310    -7.9760     1.0480 C.3   1 <1>   0.2090 
 23 C       -2.4750    -8.5290     0.4260 C.3   1 <1>   0.2090 
 24 C       -5.3300    -9.2370     0.3420 C.3   1 <1>  -0.1600 
 25 C       -2.9440    -9.7920    -0.2960 C.3   1 <1>  -0.1600 
 26 C       -4.2390   -10.3070     0.3320 C.3   1 <1>   0.2000 
 27 O       -4.6850   -11.3800    -0.4080 O.3   1 <1>  -0.6800 
 28 H       -0.5180    -1.7780     0.5590 H     1 <1>   0.0800 
 29 H        0.7140    -2.1490    -0.6580 H     1 <1>   0.0800 
 30 H        1.5550    -1.1080     1.3160 H     1 <1>   0.1500 
 31 H       -1.0500    -1.8490    -2.4170 H     1 <1>   0.0800 
 32 H       -2.2410    -1.6790    -1.1440 H     1 <1>   0.0800 
 33 H        3.1150     0.2550     2.5540 H     1 <1>   0.1500 
 34 H       -1.3550    -4.0850    -2.2430 H     1 <1>   0.4000 
 35 H       -0.1740     4.0930    -2.3540 H     1 <1>   0.1500 
 36 H        2.7600     4.6120     0.6760 H     1 <1>   0.1500 
 37 H        3.3770     2.6430     2.0250 H     1 <1>   0.1500 
 38 H        1.3660     5.5430    -1.1660 H     1 <1>   0.1500 
 39 H       -2.1800    -6.1480    -1.3670 H     1 <1>   0.1500 
 40 H       -3.5520    -3.6830     2.4400 H     1 <1>   0.1500 
 41 H       -5.5750    -7.2010     0.9750 H     1 <1>   0.0800 
 42 H       -4.6510    -8.1760     2.0910 H     1 <1>   0.0800 
 43 H       -2.2240    -8.7580     1.4480 H     1 <1>   0.0800 
 44 H       -1.5960    -8.1360    -0.0560 H     1 <1>   0.0800 
 45 H       -5.6060    -8.9740    -0.6630 H     1 <1>   0.0800 
 46 H       -6.1980    -9.6080     0.8550 H     1 <1>   0.0800 
 47 H       -2.1810   -10.5460    -0.2200 H     1 <1>   0.0800 
 48 H       -3.0980    -9.5550    -1.3330 H     1 <1>   0.0800 
 49 H       -4.0520   -10.6560     1.3340 H     1 <1>   0.0800 
 50 H       -4.8810   -11.0900    -1.3190 H     1 <1>   0.4000 
@<TRIPOS>BOND
  1   1   2  1   
  2   1   3  1   
  3   2   4  ar  
  4   2   5  ar  
  5   3   6  1   
  6   3  28  1   
  7   3  29  1   
  8   4   7  ar  
  9   4   8  ar  
 10   5   9  ar  
 11   5  30  1   
 12   6  10  1   
 13   6  31  1   
 14   6  32  1   
 15   7  11  ar  
 16   8  12  ar  
 17   8  13  ar  
 18   9  13  ar  
 19   9  33  1   
 20  10  14  1   
 21  10  34  1   
 22  11  15  ar  
 23  11  35  1   
 24  12  15  ar  
 25  12  36  1   
 26  13  37  1   
 27  14  16  ar  
 28  14  17  ar  
 29  15  38  1   
 30  16  18  ar  
 31  17  19  ar  
 32  17  39  1   
 33  18  20  ar  
 34  18  40  1   
 35  19  20  ar  
 36  19  21  1   
 37  21  22  1   
 38  21  23  1   
 39  22  24  1   
 40  22  41  1   
 41  22  42  1   
 42  23  25  1   
 43  23  43  1   
 44  23  44  1   
 45  24  26  1   
 46  24  45  1   
 47  24  46  1   
 48  25  26  1   
 49  25  47  1   
 50  25  48  1   
 51  26  27  1   
 52  26  49  1   
 53  27  50  1   
@<TRIPOS>SUBSTRUCTURE
  1 ****  16 GROUP 4 **** **** 0

# MOE 2024.06 (io_trps.svl 2023.06)
