@<TRIPOS>MOLECULE
NONAME
48 49 1 0 0 
SMALL
USER_CHARGES


@<TRIPOS>ATOM
  1 O       -1.2360    -0.0290     0.2930 O.3   1 <1>  -0.3630 
  2 C       -2.1290     0.7290    -0.3850 C.ar  1 <1>   0.3920 
  3 C       -0.3310     0.5650     1.2090 C.3   1 <1>   0.0400 
  4 N       -2.2110     2.0200    -0.0960 N.ar  1 <1>  -0.6200 
  5 C       -2.9190     0.0880    -1.3340 C.ar  1 <1>  -0.1430 
  6 C       -3.1030     2.7080    -0.7880 C.ar  1 <1>   0.1600 
  7 C       -3.8450     0.8210    -2.0480 C.ar  1 <1>  -0.1500 
  8 C       -2.7420    -1.3960    -1.5660 C.3   1 <1>   0.4870 
  9 C       -3.9300     2.1670    -1.7570 C.ar  1 <1>  -0.1500 
 10 N       -3.8090    -2.1380    -0.8360 N.4   1 <1>  -0.9590 
 11 C       -3.8430    -3.5710    -1.2820 C.3   1 <1>   0.3430 
 12 C       -3.6380    -2.0190     0.6400 C.3   1 <1>   0.3430 
 13 C       -4.7650    -4.4930    -0.4430 C.3   1 <1>   0.0000 
 14 C       -4.8550    -2.5910     1.3650 C.3   1 <1>  -0.1600 
 15 C       -5.6090    -3.6520     0.5530 C.3   1 <1>   0.2000 
 16 C       -5.7670    -5.1700    -1.4100 C.3   1 <1>   0.1200 
 17 C       -3.9190    -5.6280     0.2180 C.3   1 <1>  -0.1600 
 18 O       -6.3000    -4.4660     1.4250 O.3   1 <1>  -0.6800 
 19 O       -5.0950    -5.6870    -2.5110 O.3   1 <1>  -0.6800 
 20 C       -2.8050    -5.2190     1.1980 C.3   1 <1>  -0.1600 
 21 C       -2.0270    -6.4500     1.6690 C.3   1 <1>  -0.2400 
 22 H        0.3030    -0.2030     1.6130 H     1 <1>   0.0800 
 23 H       -0.8900     1.0370     1.9990 H     1 <1>   0.0800 
 24 H        0.2630     1.2960     0.6890 H     1 <1>   0.0800 
 25 H       -3.1800     3.7610    -0.5720 H     1 <1>   0.1500 
 26 H       -4.4770     0.3860    -2.8040 H     1 <1>   0.1500 
 27 H       -1.7680    -1.7130    -1.2280 H     1 <1>   0.0800 
 28 H       -2.8130    -1.5950    -2.6230 H     1 <1>   0.0800 
 29 H       -4.6290     2.7980    -2.2780 H     1 <1>   0.1500 
 30 H       -4.6980    -1.6860    -1.0800 H     1 <1>   0.4500 
 31 H       -4.1570    -3.6050    -2.3130 H     1 <1>   0.0800 
 32 H       -2.8460    -3.9800    -1.2510 H     1 <1>   0.0800 
 33 H       -2.7520    -2.5520     0.9420 H     1 <1>   0.0800 
 34 H       -3.5130    -0.9860     0.9270 H     1 <1>   0.0800 
 35 H       -5.5340    -1.7840     1.5750 H     1 <1>   0.0800 
 36 H       -4.5360    -2.9780     2.3160 H     1 <1>   0.0800 
 37 H       -6.3610    -3.1270    -0.0140 H     1 <1>   0.0800 
 38 H       -6.4970    -4.4680    -1.7760 H     1 <1>   0.0800 
 39 H       -6.2850    -5.9770    -0.9160 H     1 <1>   0.0800 
 40 H       -4.5790    -6.3130     0.7230 H     1 <1>   0.0800 
 41 H       -3.4530    -6.1990    -0.5690 H     1 <1>   0.0800 
 42 H       -5.6900    -4.9950     1.9760 H     1 <1>   0.4000 
 43 H       -5.6810    -6.2810    -3.0280 H     1 <1>   0.4000 
 44 H       -2.1110    -4.5460     0.7270 H     1 <1>   0.0800 
 45 H       -3.2200    -4.7430     2.0660 H     1 <1>   0.0800 
 46 H       -1.5640    -6.9510     0.8350 H     1 <1>   0.0800 
 47 H       -2.6800    -7.1450     2.1670 H     1 <1>   0.0800 
 48 H       -1.2540    -6.1590     2.3590 H     1 <1>   0.0800 
@<TRIPOS>BOND
  1   1   2  1   
  2   1   3  1   
  3   2   4  ar  
  4   2   5  ar  
  5   3  22  1   
  6   3  23  1   
  7   3  24  1   
  8   4   6  ar  
  9   5   7  ar  
 10   5   8  1   
 11   6   9  ar  
 12   6  25  1   
 13   7   9  ar  
 14   7  26  1   
 15   8  10  1   
 16   8  27  1   
 17   8  28  1   
 18   9  29  1   
 19  10  11  1   
 20  10  12  1   
 21  10  30  1   
 22  11  13  1   
 23  11  31  1   
 24  11  32  1   
 25  12  14  1   
 26  12  33  1   
 27  12  34  1   
 28  13  15  1   
 29  13  16  1   
 30  13  17  1   
 31  14  15  1   
 32  14  35  1   
 33  14  36  1   
 34  15  18  1   
 35  15  37  1   
 36  16  19  1   
 37  16  38  1   
 38  16  39  1   
 39  17  20  1   
 40  17  40  1   
 41  17  41  1   
 42  18  42  1   
 43  19  43  1   
 44  20  21  1   
 45  20  44  1   
 46  20  45  1   
 47  21  46  1   
 48  21  47  1   
 49  21  48  1   
@<TRIPOS>SUBSTRUCTURE
  1 ****  10 GROUP 4 **** **** 0

# MOE 2024.06 (io_trps.svl 2023.06)
