@<TRIPOS>MOLECULE
NONAME
39 40 1 0 0 
SMALL
USER_CHARGES


@<TRIPOS>ATOM
  1 F       -2.4810     0.8920     2.7350 F     1 <1>  -0.1900 
  2 C       -1.6510     0.7270     1.7390 C.ar  1 <1>   0.1900 
  3 C       -2.0750     0.9870     0.4440 C.ar  1 <1>  -0.1440 
  4 C       -0.3710     0.2930     2.0290 C.ar  1 <1>  -0.1500 
  5 C       -1.1650     0.7960    -0.5860 C.ar  1 <1>  -0.1500 
  6 C       -3.4840     1.4630     0.1380 C.3   1 <1>   0.2840 
  7 C        0.5230     0.1100     0.9880 C.ar  1 <1>  -0.1500 
  8 C        0.1240     0.3620    -0.3160 C.ar  1 <1>  -0.1500 
  9 N       -4.2400     0.3490    -0.4570 N.am  1 <1>  -0.7300 
 10 C       -4.9120     0.3680    -1.6320 C.2   1 <1>   0.5690 
 11 O       -4.9860     1.3630    -2.3140 O.2   1 <1>  -0.5700 
 12 C       -5.5800    -0.9260    -2.1110 C.3   1 <1>   0.1710 
 13 N       -5.8040    -1.9440    -1.0390 N.3   1 <1>  -0.8100 
 14 C       -6.0260    -3.2820    -1.6260 C.3   1 <1>   0.2900 
 15 C       -6.9220    -1.5450    -0.1630 C.3   1 <1>   0.0300 
 16 C       -6.0960    -4.3620    -0.5620 C.2   1 <1>  -0.0400 
 17 O       -7.2510    -4.7180    -0.0640 O.3   1 <1>  -0.0190 
 18 C       -5.1470    -5.1050     0.0260 C.2   1 <1>  -0.1500 
 19 N       -7.1250    -5.6580     0.8280 N.2   1 <1>  -0.4100 
 20 C       -5.8670    -5.9100     0.9050 C.2   1 <1>   0.1080 
 21 C       -5.2610    -6.9430     1.8290 C.3   1 <1>  -0.0590 
 22 H       -0.0840     0.1040     3.0480 H     1 <1>   0.1500 
 23 H       -1.4630     0.9850    -1.6040 H     1 <1>   0.1500 
 24 H       -3.4460     2.2900    -0.5520 H     1 <1>   0.0800 
 25 H       -3.9850     1.7960     1.0300 H     1 <1>   0.0800 
 26 H        1.5260    -0.2260     1.1900 H     1 <1>   0.1500 
 27 H        0.8190     0.2190    -1.1250 H     1 <1>   0.1500 
 28 H       -4.2410    -0.5370     0.0590 H     1 <1>   0.3700 
 29 H       -4.9350    -1.3380    -2.8650 H     1 <1>   0.0800 
 30 H       -6.5150    -0.6760    -2.5810 H     1 <1>   0.0800 
 31 H       -5.2020    -3.5150    -2.2780 H     1 <1>   0.0800 
 32 H       -6.9300    -3.2900    -2.2110 H     1 <1>   0.0800 
 33 H       -6.7690    -0.5480     0.2130 H     1 <1>   0.0800 
 34 H       -6.9880    -2.2080     0.6830 H     1 <1>   0.0800 
 35 H       -7.8550    -1.5740    -0.7010 H     1 <1>   0.0800 
 36 H       -4.0830    -5.1010    -0.1180 H     1 <1>   0.1500 
 37 H       -4.5060    -6.4870     2.4410 H     1 <1>   0.0800 
 38 H       -4.8210    -7.7340     1.2510 H     1 <1>   0.0800 
 39 H       -6.0220    -7.3580     2.4650 H     1 <1>   0.0800 
@<TRIPOS>BOND
  1   1   2  1   
  2   2   3  ar  
  3   2   4  ar  
  4   3   5  ar  
  5   3   6  1   
  6   4   7  ar  
  7   4  22  1   
  8   5   8  ar  
  9   5  23  1   
 10   6   9  1   
 11   6  24  1   
 12   6  25  1   
 13   7   8  ar  
 14   7  26  1   
 15   8  27  1   
 16   9  10  am  
 17   9  28  1   
 18  10  11  2   
 19  10  12  1   
 20  12  13  1   
 21  12  29  1   
 22  12  30  1   
 23  13  14  1   
 24  13  15  1   
 25  14  16  1   
 26  14  31  1   
 27  14  32  1   
 28  15  33  1   
 29  15  34  1   
 30  15  35  1   
 31  16  17  1   
 32  16  18  2   
 33  17  19  1   
 34  18  20  1   
 35  18  36  1   
 36  19  20  2   
 37  20  21  1   
 38  21  37  1   
 39  21  38  1   
 40  21  39  1   
@<TRIPOS>SUBSTRUCTURE
  1 ****   9 GROUP 4 **** **** 0

# MOE 2024.06 (io_trps.svl 2023.06)
