@<TRIPOS>MOLECULE
NONAME
52 55 1 0 0 
SMALL
USER_CHARGES


@<TRIPOS>ATOM
  1 O        0.0120     0.7970    -0.3220 O.2   1 <1>  -0.5700 
  2 C       -0.1300     1.9950    -0.2240 C.2   1 <1>   0.5690 
  3 N       -1.1580     2.5810     0.4730 N.am  1 <1>  -0.5090 
  4 C        0.9070     2.8770    -0.9160 C.3   1 <1>   0.1810 
  5 C       -1.2200     4.0750     0.6370 C.3   1 <1>   0.3640 
  6 C       -1.9580     1.8010     1.4570 C.3   1 <1>   0.0490 
  7 O        1.0630     4.1180    -0.2780 O.3   1 <1>  -0.5600 
  8 C       -2.5860     4.6140     0.2070 C.ar  1 <1>  -0.1440 
  9 C       -0.1410     4.8480    -0.1670 C.3   1 <1>   0.2610 
 10 C       -2.6760     0.5680     1.0060 C.3   1 <1>  -0.2000 
 11 C       -3.4560     1.7790     1.4000 C.3   1 <1>  -0.2000 
 12 C       -3.1520     4.2520    -1.0090 C.ar  1 <1>  -0.1500 
 13 C       -3.2690     5.4980     1.0300 C.ar  1 <1>  -0.1500 
 14 C        0.1180     6.2490     0.4190 C.2   1 <1>   0.5690 
 15 C       -4.3770     4.7670    -1.3920 C.ar  1 <1>  -0.1500 
 16 C       -4.4960     6.0140     0.6500 C.ar  1 <1>  -0.1500 
 17 O       -0.1810     6.4640     1.5740 O.2   1 <1>  -0.5700 
 18 N        0.6650     7.2430    -0.3590 N.am  1 <1>  -0.6600 
 19 C       -5.0570     5.6490    -0.5700 C.ar  1 <1>   0.0820 
 20 C        0.9280     8.5940     0.2110 C.3   1 <1>   0.3210 
 21 C        1.1220     7.0560    -1.7680 C.3   1 <1>   0.0600 
 22 O       -6.2510     6.1090    -1.0210 O.3   1 <1>  -0.3630 
 23 C        2.4150     8.7870     0.4580 C.2   1 <1>  -0.1810 
 24 C       -7.0340     6.9940    -0.2510 C.3   1 <1>   0.0400 
 25 C        3.3760     7.8580     0.6640 C.2   1 <1>  -0.0100 
 26 C        3.0740    10.0230     0.5240 C.2   1 <1>  -0.1500 
 27 O        4.5510     8.4300     0.8380 O.3   1 <1>  -0.2800 
 28 C        4.3720     9.7320     0.7560 C.2   1 <1>  -0.0100 
 29 H        0.6210     3.0430    -1.9380 H     1 <1>   0.0800 
 30 H        1.8600     2.3810    -0.8980 H     1 <1>   0.0800 
 31 H       -1.0810     4.2730     1.6850 H     1 <1>   0.0800 
 32 H       -1.4870     1.7740     2.4260 H     1 <1>   0.1000 
 33 H       -0.5110     4.9890    -1.1650 H     1 <1>   0.0800 
 34 H       -2.6290     0.2950    -0.0330 H     1 <1>   0.1000 
 35 H       -2.6840    -0.2870     1.6580 H     1 <1>   0.1000 
 36 H       -4.0070     1.7480     2.3220 H     1 <1>   0.1000 
 37 H       -3.9920     2.2880     0.6210 H     1 <1>   0.1000 
 38 H       -2.6480     3.5590    -1.6610 H     1 <1>   0.1500 
 39 H       -2.8450     5.7960     1.9750 H     1 <1>   0.1500 
 40 H       -4.8180     4.4850    -2.3310 H     1 <1>   0.1500 
 41 H       -4.9950     6.6950     1.3120 H     1 <1>   0.1500 
 42 H        0.5790     9.3380    -0.4830 H     1 <1>   0.0800 
 43 H        0.3950     8.7340     1.1360 H     1 <1>   0.0800 
 44 H        1.9210     7.7410    -1.9970 H     1 <1>   0.0800 
 45 H        0.3040     7.2390    -2.4430 H     1 <1>   0.0800 
 46 H        1.4930     6.0580    -1.9190 H     1 <1>   0.0800 
 47 H       -7.9300     7.2110    -0.8030 H     1 <1>   0.0800 
 48 H       -6.4780     7.8990    -0.0860 H     1 <1>   0.0800 
 49 H       -7.2840     6.5180     0.6800 H     1 <1>   0.0800 
 50 H        3.3060     6.7850     0.7020 H     1 <1>   0.1500 
 51 H        2.6160    10.9890     0.4100 H     1 <1>   0.1500 
 52 H        5.2230    10.3800     0.8770 H     1 <1>   0.1500 
@<TRIPOS>BOND
  1   1   2  2   
  2   2   3  am  
  3   2   4  1   
  4   3   5  1   
  5   3   6  1   
  6   4   7  1   
  7   4  29  1   
  8   4  30  1   
  9   5   8  1   
 10   5   9  1   
 11   5  31  1   
 12   6  10  1   
 13   6  11  1   
 14   6  32  1   
 15   7   9  1   
 16   8  12  ar  
 17   8  13  ar  
 18   9  14  1   
 19   9  33  1   
 20  10  11  1   
 21  10  34  1   
 22  10  35  1   
 23  11  36  1   
 24  11  37  1   
 25  12  15  ar  
 26  12  38  1   
 27  13  16  ar  
 28  13  39  1   
 29  14  17  2   
 30  14  18  am  
 31  15  19  ar  
 32  15  40  1   
 33  16  19  ar  
 34  16  41  1   
 35  18  20  1   
 36  18  21  1   
 37  19  22  1   
 38  20  23  1   
 39  20  42  1   
 40  20  43  1   
 41  21  44  1   
 42  21  45  1   
 43  21  46  1   
 44  22  24  1   
 45  23  25  2   
 46  23  26  1   
 47  24  47  1   
 48  24  48  1   
 49  24  49  1   
 50  25  27  1   
 51  25  50  1   
 52  26  28  2   
 53  26  51  1   
 54  27  28  1   
 55  28  52  1   
@<TRIPOS>SUBSTRUCTURE
  1 ****   9 GROUP 4 **** **** 0

# MOE 2024.06 (io_trps.svl 2023.06)
