@<TRIPOS>MOLECULE
NONAME
44 47 1 0 0 
SMALL
USER_CHARGES


@<TRIPOS>ATOM
  1 O        1.2570     0.9050     0.2220 O.3   1 <1>  -0.6800 
  2 C        2.2840     0.3520    -0.5360 C.3   1 <1>   0.2000 
  3 C        2.5120    -1.0780    -0.0500 C.3   1 <1>  -0.0800 
  4 C        3.5870     1.0490    -0.1530 C.3   1 <1>   0.3430 
  5 C        3.3590    -0.8990     1.2250 C.3   1 <1>   0.3430 
  6 C        3.2260    -1.9180    -1.1340 C.3   1 <1>  -0.0170 
  7 N        3.9150     0.4900     1.1970 N.4   1 <1>  -0.9590 
  8 C        3.5670    -3.3220    -0.6590 C.ar  1 <1>   0.1670 
  9 C        5.3490     0.6040     1.6420 C.3   1 <1>   0.4230 
 10 N        4.6660    -3.4430     0.0700 N.ar  1 <1>  -0.6200 
 11 C        2.7460    -4.3960    -1.0000 C.ar  1 <1>   0.1600 
 12 C        5.7850     2.0840     1.6430 C.3   1 <1>  -0.0170 
 13 C        6.3230    -0.0880     0.6610 C.3   1 <1>  -0.0170 
 14 C        4.8930    -4.7010     0.4200 C.ar  1 <1>   0.1600 
 15 N        2.9650    -5.6470    -0.6370 N.ar  1 <1>  -0.6200 
 16 C        6.4250     2.2530     0.2860 C.ar  1 <1>  -0.1440 
 17 C        6.7300     1.0320    -0.2640 C.ar  1 <1>  -0.1440 
 18 C        4.0690    -5.7670     0.0790 C.ar  1 <1>   0.1600 
 19 C        6.6980     3.4230    -0.3960 C.ar  1 <1>  -0.1500 
 20 C        7.3180     0.9420    -1.5120 C.ar  1 <1>  -0.1500 
 21 C        7.2850     3.3440    -1.6490 C.ar  1 <1>  -0.1500 
 22 C        7.5940     2.1100    -2.2040 C.ar  1 <1>  -0.1500 
 23 H        0.3760     0.6350    -0.1140 H     1 <1>   0.4000 
 24 H        2.0450     0.4460    -1.5830 H     1 <1>   0.0800 
 25 H        1.5810    -1.5620     0.1900 H     1 <1>   0.0800 
 26 H        3.4730     2.1200    -0.1330 H     1 <1>   0.0800 
 27 H        4.3550     0.7870    -0.8610 H     1 <1>   0.0800 
 28 H        4.1490    -1.6250     1.2800 H     1 <1>   0.0800 
 29 H        2.7310    -1.0170     2.0940 H     1 <1>   0.0800 
 30 H        4.1360    -1.4390    -1.4510 H     1 <1>   0.0800 
 31 H        2.5920    -1.9880    -2.0000 H     1 <1>   0.0800 
 32 H        3.3240     1.0340     1.8420 H     1 <1>   0.4500 
 33 H        5.4520     0.1830     2.6290 H     1 <1>   0.0800 
 34 H        1.8700    -4.2190    -1.5980 H     1 <1>   0.1500 
 35 H        4.9680     2.7630     1.8040 H     1 <1>   0.0800 
 36 H        6.5350     2.2430     2.3980 H     1 <1>   0.0800 
 37 H        7.1950    -0.4240     1.1930 H     1 <1>   0.0800 
 38 H        5.8930    -0.9190     0.1360 H     1 <1>   0.0800 
 39 H        5.7740    -4.9030     1.0040 H     1 <1>   0.1500 
 40 H        4.3350    -6.7560     0.4110 H     1 <1>   0.1500 
 41 H        6.4650     4.3830     0.0340 H     1 <1>   0.1500 
 42 H        7.5640    -0.0150    -1.9410 H     1 <1>   0.1500 
 43 H        7.5080     4.2460    -2.1940 H     1 <1>   0.1500 
 44 H        8.0560     2.0620    -3.1760 H     1 <1>   0.1500 
@<TRIPOS>BOND
  1   1   2  1   
  2   1  23  1   
  3   2   3  1   
  4   2   4  1   
  5   2  24  1   
  6   3   5  1   
  7   3   6  1   
  8   3  25  1   
  9   4   7  1   
 10   4  26  1   
 11   4  27  1   
 12   5   7  1   
 13   5  28  1   
 14   5  29  1   
 15   6   8  1   
 16   6  30  1   
 17   6  31  1   
 18   7   9  1   
 19   7  32  1   
 20   8  10  ar  
 21   8  11  ar  
 22   9  12  1   
 23   9  13  1   
 24   9  33  1   
 25  10  14  ar  
 26  11  15  ar  
 27  11  34  1   
 28  12  16  1   
 29  12  35  1   
 30  12  36  1   
 31  13  17  1   
 32  13  37  1   
 33  13  38  1   
 34  14  18  ar  
 35  14  39  1   
 36  15  18  ar  
 37  16  17  ar  
 38  16  19  ar  
 39  17  20  ar  
 40  18  40  1   
 41  19  21  ar  
 42  19  41  1   
 43  20  22  ar  
 44  20  42  1   
 45  21  22  ar  
 46  21  43  1   
 47  22  44  1   
@<TRIPOS>SUBSTRUCTURE
  1 ****   7 GROUP 4 **** **** 0

# MOE 2024.06 (io_trps.svl 2023.06)
