@<TRIPOS>MOLECULE
NONAME
59 62 1 0 0 
SMALL
USER_CHARGES


@<TRIPOS>ATOM
  1 O        0.5560     0.7160    -0.7440 O.2   1 <1>  -0.5700 
  2 C        1.6860     1.1230    -0.5140 C.2   1 <1>   0.5440 
  3 N        2.6390     0.2620    -0.0140 N.am  1 <1>  -0.4200 
  4 C        2.0630     2.4910    -0.7380 C.ar  1 <1>   0.0860 
  5 C        3.8990     0.7350     0.2650 C.2   1 <1>   0.4500 
  6 C        2.3290    -1.1720     0.2170 C.3   1 <1>   0.1400 
  7 C        3.3760     2.8580    -0.4200 C.ar  1 <1>   0.1790 
  8 C        1.1960     3.4610    -1.2510 C.ar  1 <1>  -0.1500 
  9 N        4.2780     1.9430     0.0890 N.2   1 <1>  -0.6290 
 10 C        1.6300    -1.3530     1.5650 C.3   1 <1>  -0.0990 
 11 C        3.7870     4.1710    -0.6190 C.ar  1 <1>  -0.1500 
 12 C        1.6180     4.7600    -1.4430 C.ar  1 <1>  -0.1500 
 13 C        1.0770    -2.7590     1.6750 C.2   1 <1>   0.5690 
 14 C        2.9200     5.1180    -1.1260 C.ar  1 <1>  -0.1500 
 15 O        1.8120    -3.5830     2.1650 O.2   1 <1>  -0.5700 
 16 N       -0.1870    -3.0780     1.2310 N.am  1 <1>  -0.6600 
 17 C       -1.0260    -2.1310     0.4340 C.3   1 <1>   0.2200 
 18 C       -0.7430    -4.4360     1.5160 C.3   1 <1>   0.0600 
 19 C       -2.1090    -1.4560     1.2600 C.3   1 <1>  -0.1600 
 20 C       -1.7960    -2.7440    -0.7320 C.3   1 <1>  -0.1600 
 21 C       -3.0390    -0.8420     0.2040 C.3   1 <1>  -0.0800 
 22 C       -2.8310    -1.6640    -1.0810 C.3   1 <1>  -0.0800 
 23 C       -4.5290    -0.9370     0.5530 C.3   1 <1>  -0.1600 
 24 C       -4.2040    -2.2190    -1.4750 C.3   1 <1>  -0.1600 
 25 C       -5.0150    -2.1850    -0.1830 C.3   1 <1>   0.4230 
 26 N       -6.4920    -2.2330    -0.4180 N.4   1 <1>  -0.9590 
 27 C       -7.0620    -1.0670    -1.1730 C.3   1 <1>   0.2630 
 28 C       -7.2240    -2.4130     0.8730 C.3   1 <1>   0.2630 
 29 H        4.5990     0.0200     0.6610 H     1 <1>   0.0600 
 30 H        1.7000    -1.5270    -0.5820 H     1 <1>   0.0800 
 31 H        3.2340    -1.7560     0.1980 H     1 <1>   0.0800 
 32 H        0.1860     3.1810    -1.4970 H     1 <1>   0.1500 
 33 H        0.8410    -0.6380     1.6940 H     1 <1>   0.0800 
 34 H        2.3410    -1.2030     2.3580 H     1 <1>   0.0800 
 35 H        4.7990     4.4370    -0.3700 H     1 <1>   0.1500 
 36 H        0.9410     5.5000    -1.8380 H     1 <1>   0.1500 
 37 H        3.2510     6.1310    -1.2750 H     1 <1>   0.1500 
 38 H       -0.4080    -1.3630     0.0130 H     1 <1>   0.0800 
 39 H       -1.7730    -4.3640     1.8150 H     1 <1>   0.0800 
 40 H       -0.1970    -4.9120     2.3120 H     1 <1>   0.0800 
 41 H       -0.6640    -5.0520     0.6370 H     1 <1>   0.0800 
 42 H       -2.6250    -2.1900     1.8510 H     1 <1>   0.0800 
 43 H       -1.6950    -0.7000     1.9040 H     1 <1>   0.0800 
 44 H       -1.1440    -2.9490    -1.5630 H     1 <1>   0.0800 
 45 H       -2.2950    -3.6450    -0.4300 H     1 <1>   0.0800 
 46 H       -2.7510     0.1840     0.0320 H     1 <1>   0.0800 
 47 H       -2.4340    -1.0310    -1.8600 H     1 <1>   0.0800 
 48 H       -5.0090    -0.0520     0.1790 H     1 <1>   0.0800 
 49 H       -4.6850    -1.0050     1.6150 H     1 <1>   0.0800 
 50 H       -4.1340    -3.2120    -1.8810 H     1 <1>   0.0800 
 51 H       -4.6230    -1.5620    -2.2140 H     1 <1>   0.0800 
 52 H       -4.7210    -3.0420     0.4020 H     1 <1>   0.0800 
 53 H       -6.6580    -3.0750    -0.9900 H     1 <1>   0.4500 
 54 H       -6.9370    -0.1560    -0.6120 H     1 <1>   0.0800 
 55 H       -8.1150    -1.2160    -1.3460 H     1 <1>   0.0800 
 56 H       -6.5750    -0.9550    -2.1270 H     1 <1>   0.0800 
 57 H       -7.0850    -1.5500     1.5050 H     1 <1>   0.0800 
 58 H       -6.8570    -3.2830     1.3940 H     1 <1>   0.0800 
 59 H       -8.2790    -2.5410     0.6920 H     1 <1>   0.0800 
@<TRIPOS>BOND
  1   1   2  2   
  2   2   3  am  
  3   2   4  1   
  4   3   5  1   
  5   3   6  1   
  6   4   7  ar  
  7   4   8  ar  
  8   5   9  2   
  9   5  29  1   
 10   6  10  1   
 11   6  30  1   
 12   6  31  1   
 13   7   9  1   
 14   7  11  ar  
 15   8  12  ar  
 16   8  32  1   
 17  10  13  1   
 18  10  33  1   
 19  10  34  1   
 20  11  14  ar  
 21  11  35  1   
 22  12  14  ar  
 23  12  36  1   
 24  13  15  2   
 25  13  16  am  
 26  14  37  1   
 27  16  17  1   
 28  16  18  1   
 29  17  19  1   
 30  17  20  1   
 31  17  38  1   
 32  18  39  1   
 33  18  40  1   
 34  18  41  1   
 35  19  21  1   
 36  19  42  1   
 37  19  43  1   
 38  20  22  1   
 39  20  44  1   
 40  20  45  1   
 41  21  22  1   
 42  21  23  1   
 43  21  46  1   
 44  22  24  1   
 45  22  47  1   
 46  23  25  1   
 47  23  48  1   
 48  23  49  1   
 49  24  25  1   
 50  24  50  1   
 51  24  51  1   
 52  25  26  1   
 53  25  52  1   
 54  26  27  1   
 55  26  28  1   
 56  26  53  1   
 57  27  54  1   
 58  27  55  1   
 59  27  56  1   
 60  28  57  1   
 61  28  58  1   
 62  28  59  1   
@<TRIPOS>SUBSTRUCTURE
  1 ****   1 GROUP 4 **** **** 0

# MOE 2024.06 (io_trps.svl 2023.06)
