@<TRIPOS>MOLECULE
NONAME
48 49 1 0 0 
SMALL
USER_CHARGES


@<TRIPOS>ATOM
  1 O        0.7580    -0.6230    -1.7950 O.2   1 <1>  -0.5700 
  2 C        0.3900    -1.3690    -0.9160 C.2   1 <1>   0.5440 
  3 N       -0.8120    -1.0820    -0.3600 N.am  1 <1>  -0.8000 
  4 C        1.2030    -2.4760    -0.4800 C.ar  1 <1>   0.0860 
  5 C        0.6820    -3.7720    -0.3220 C.ar  1 <1>   0.4100 
  6 C        2.5490    -2.2900    -0.2130 C.ar  1 <1>  -0.1500 
  7 N        1.3970    -4.8130     0.1040 N.ar  1 <1>  -0.6200 
  8 N       -0.6390    -4.0460    -0.6190 N.pl3 1 <1>  -0.8690 
  9 C        3.3000    -3.3600     0.2220 C.ar  1 <1>  -0.1430 
 10 C        2.6710    -4.5930     0.3770 C.ar  1 <1>   0.1670 
 11 C       -1.1060    -5.3890    -1.0520 C.3   1 <1>   0.2090 
 12 C        4.7810    -3.1350     0.5070 C.3   1 <1>  -0.0970 
 13 C        3.4320    -5.8090     0.8800 C.3   1 <1>  -0.0970 
 14 C       -1.2530    -6.3400     0.1680 C.3   1 <1>   0.4230 
 15 N       -0.8240    -7.7520    -0.1370 N.4   1 <1>  -0.9590 
 16 C       -2.6960    -6.2950     0.6830 C.3   1 <1>  -0.2400 
 17 C       -1.1390    -8.7190     0.9610 C.3   1 <1>   0.3430 
 18 C        0.6470    -7.7740    -0.4210 C.3   1 <1>   0.3430 
 19 C       -0.7570   -10.1390     0.5360 C.3   1 <1>  -0.1600 
 20 C        1.0750    -9.1660    -0.8860 C.3   1 <1>  -0.1600 
 21 C        0.7230   -10.2390     0.1500 C.3   1 <1>  -0.1600 
 22 H       -1.2680    -0.2110    -0.6390 H     1 <1>   0.3700 
 23 H       -1.1120    -1.4800     0.5320 H     1 <1>   0.3700 
 24 H        2.9840    -1.3140    -0.3520 H     1 <1>   0.1500 
 25 H       -1.1450    -3.2620    -1.0580 H     1 <1>   0.4000 
 26 H       -0.3990    -5.7710    -1.7660 H     1 <1>   0.0800 
 27 H       -2.0510    -5.2850    -1.5560 H     1 <1>   0.0800 
 28 H        5.0940    -2.1610     0.1760 H     1 <1>   0.0800 
 29 H        5.3760    -3.8670    -0.0100 H     1 <1>   0.0800 
 30 H        4.9700    -3.2080     1.5630 H     1 <1>   0.0800 
 31 H        2.7990    -6.3980     1.5180 H     1 <1>   0.0800 
 32 H        4.2960    -5.5330     1.4540 H     1 <1>   0.0800 
 33 H        3.7460    -6.4080     0.0460 H     1 <1>   0.0800 
 34 H       -0.6080    -5.9570     0.9430 H     1 <1>   0.0800 
 35 H       -1.3150    -8.0700    -0.9790 H     1 <1>   0.4500 
 36 H       -3.3700    -6.7790    -0.0010 H     1 <1>   0.0800 
 37 H       -3.0020    -5.2680     0.7850 H     1 <1>   0.0800 
 38 H       -2.7800    -6.7380     1.6580 H     1 <1>   0.0800 
 39 H       -2.1920    -8.6990     1.1880 H     1 <1>   0.0800 
 40 H       -0.5950    -8.4490     1.8510 H     1 <1>   0.0800 
 41 H        1.1880    -7.5080     0.4720 H     1 <1>   0.0800 
 42 H        0.9020    -7.0550    -1.1810 H     1 <1>   0.0800 
 43 H       -1.3750   -10.4430    -0.2910 H     1 <1>   0.0800 
 44 H       -0.9570   -10.8140     1.3510 H     1 <1>   0.0800 
 45 H        2.1390    -9.1680    -1.0510 H     1 <1>   0.0800 
 46 H        0.6040    -9.3910    -1.8270 H     1 <1>   0.0800 
 47 H        0.9340   -11.2180    -0.2470 H     1 <1>   0.0800 
 48 H        1.3330   -10.1040     1.0280 H     1 <1>   0.0800 
@<TRIPOS>BOND
  1   1   2  2   
  2   2   3  am  
  3   2   4  1   
  4   3  22  1   
  5   3  23  1   
  6   4   5  ar  
  7   4   6  ar  
  8   5   7  ar  
  9   5   8  1   
 10   6   9  ar  
 11   6  24  1   
 12   7  10  ar  
 13   8  11  1   
 14   8  25  1   
 15   9  10  ar  
 16   9  12  1   
 17  10  13  1   
 18  11  14  1   
 19  11  26  1   
 20  11  27  1   
 21  12  28  1   
 22  12  29  1   
 23  12  30  1   
 24  13  31  1   
 25  13  32  1   
 26  13  33  1   
 27  14  15  1   
 28  14  16  1   
 29  14  34  1   
 30  15  17  1   
 31  15  18  1   
 32  15  35  1   
 33  16  36  1   
 34  16  37  1   
 35  16  38  1   
 36  17  19  1   
 37  17  39  1   
 38  17  40  1   
 39  18  20  1   
 40  18  41  1   
 41  18  42  1   
 42  19  21  1   
 43  19  43  1   
 44  19  44  1   
 45  20  21  1   
 46  20  45  1   
 47  20  46  1   
 48  21  47  1   
 49  21  48  1   
@<TRIPOS>SUBSTRUCTURE
  1 ****   7 GROUP 4 **** **** 0

# MOE 2024.06 (io_trps.svl 2023.06)
