@<TRIPOS>MOLECULE
NONAME
45 46 1 0 0 
SMALL
USER_CHARGES


@<TRIPOS>ATOM
  1 S        3.3800     0.5870    -2.5610 S.3   1 <1>  -0.0800 
  2 C        2.7150    -0.3400    -1.2350 C.2   1 <1>   0.1980 
  3 C        3.5300     1.9490    -1.4910 C.2   1 <1>  -0.1100 
  4 N        2.6240     0.2980    -0.1390 N.2   1 <1>  -0.5650 
  5 C        2.3250    -1.7710    -1.5170 C.3   1 <1>  -0.0600 
  6 C        3.0870     1.6020    -0.2720 C.2   1 <1>   0.0460 
  7 C        3.0280     2.4850     0.9700 C.3   1 <1>   0.2910 
  8 N        3.7930     3.7480     0.8250 N.3   1 <1>  -0.8100 
  9 C        3.3760     4.7290     1.8760 C.3   1 <1>   0.1710 
 10 C        5.2440     3.4860     0.9100 C.3   1 <1>   0.0300 
 11 C        3.8920     6.1540     1.6530 C.2   1 <1>   0.5690 
 12 O        4.0550     6.8710     2.6110 O.2   1 <1>  -0.5700 
 13 N        4.1540     6.5190     0.3710 N.am  1 <1>  -0.7300 
 14 C        4.8880     7.6760    -0.1710 C.3   1 <1>   0.3640 
 15 C        6.3730     7.3330    -0.2340 C.ar  1 <1>  -0.1440 
 16 C        4.6150     8.9740     0.5890 C.3   1 <1>  -0.2400 
 17 C        7.1030     7.0930     0.9220 C.ar  1 <1>  -0.1500 
 18 C        7.0170     7.2470    -1.4600 C.ar  1 <1>  -0.1500 
 19 C        8.4480     6.7740     0.8540 C.ar  1 <1>  -0.1500 
 20 C        8.3620     6.9280    -1.5280 C.ar  1 <1>  -0.1500 
 21 C        9.0850     6.6880    -0.3720 C.ar  1 <1>  -0.1440 
 22 C       10.5610     6.3420    -0.4470 C.3   1 <1>  -0.0970 
 23 H        3.9300     2.8670    -1.8790 H     1 <1>   0.1500 
 24 H        1.5720    -1.7990    -2.2830 H     1 <1>   0.0800 
 25 H        1.9330    -2.2230    -0.6240 H     1 <1>   0.0800 
 26 H        3.1850    -2.3260    -1.8430 H     1 <1>   0.0800 
 27 H        3.4000     1.9300     1.8140 H     1 <1>   0.0800 
 28 H        1.9910     2.7060     1.1530 H     1 <1>   0.0800 
 29 H        3.7090     4.3930     2.8420 H     1 <1>   0.0800 
 30 H        2.3030     4.7900     1.9000 H     1 <1>   0.0800 
 31 H        5.5440     2.7790     0.1560 H     1 <1>   0.0800 
 32 H        5.5020     3.0870     1.8770 H     1 <1>   0.0800 
 33 H        5.8030     4.3930     0.7530 H     1 <1>   0.0800 
 34 H        4.0990     5.7320    -0.2820 H     1 <1>   0.3700 
 35 H        4.5340     7.8250    -1.1760 H     1 <1>   0.0800 
 36 H        5.0360     8.9440     1.5760 H     1 <1>   0.0800 
 37 H        3.5570     9.1460     0.6580 H     1 <1>   0.0800 
 38 H        5.0660     9.7960     0.0640 H     1 <1>   0.0800 
 39 H        6.6230     7.1530     1.8840 H     1 <1>   0.1500 
 40 H        6.4760     7.4280    -2.3720 H     1 <1>   0.1500 
 41 H        8.9950     6.5960     1.7630 H     1 <1>   0.1500 
 42 H        8.8450     6.8690    -2.4880 H     1 <1>   0.1500 
 43 H       10.8430     5.7150     0.3800 H     1 <1>   0.0800 
 44 H       11.1470     7.2430    -0.4150 H     1 <1>   0.0800 
 45 H       10.7790     5.8170    -1.3600 H     1 <1>   0.0800 
@<TRIPOS>BOND
  1   1   2  1   
  2   1   3  1   
  3   2   4  2   
  4   2   5  1   
  5   3   6  2   
  6   3  23  1   
  7   4   6  1   
  8   5  24  1   
  9   5  25  1   
 10   5  26  1   
 11   6   7  1   
 12   7   8  1   
 13   7  27  1   
 14   7  28  1   
 15   8   9  1   
 16   8  10  1   
 17   9  11  1   
 18   9  29  1   
 19   9  30  1   
 20  10  31  1   
 21  10  32  1   
 22  10  33  1   
 23  11  12  2   
 24  11  13  am  
 25  13  14  1   
 26  13  34  1   
 27  14  15  1   
 28  14  16  1   
 29  14  35  1   
 30  15  17  ar  
 31  15  18  ar  
 32  16  36  1   
 33  16  37  1   
 34  16  38  1   
 35  17  19  ar  
 36  17  39  1   
 37  18  20  ar  
 38  18  40  1   
 39  19  21  ar  
 40  19  41  1   
 41  20  21  ar  
 42  20  42  1   
 43  21  22  1   
 44  22  43  1   
 45  22  44  1   
 46  22  45  1   
@<TRIPOS>SUBSTRUCTURE
  1 ****  10 GROUP 4 **** **** 0

# MOE 2024.06 (io_trps.svl 2023.06)
