@<TRIPOS>MOLECULE
NONAME
49 52 1 0 0 
SMALL
USER_CHARGES


@<TRIPOS>ATOM
  1 O       -1.5650     0.7980    -1.8030 O.2   1 <1>  -0.5700 
  2 C       -1.3300     1.5470    -0.8930 C.2   1 <1>   0.4230 
  3 C       -2.3020     2.0470     0.0390 C.ar  1 <1>   0.0860 
  4 C        0.0950     2.0170    -0.7170 C.3   1 <1>  -0.0990 
  5 C       -1.9570     3.1040     0.8890 C.ar  1 <1>   0.0820 
  6 C       -3.5880     1.5170     0.1430 C.ar  1 <1>  -0.1500 
  7 C        0.0900     3.4960    -0.3220 C.3   1 <1>   0.2800 
  8 O       -0.7420     3.6970     0.8120 O.3   1 <1>  -0.3630 
  9 C       -2.8570     3.5860     1.8270 C.ar  1 <1>  -0.1500 
 10 C       -4.4880     2.0040     1.0710 C.ar  1 <1>  -0.1500 
 11 C        1.4650     4.0650     0.0310 C.3   1 <1>   0.3430 
 12 C       -0.3790     4.4550    -1.4180 C.3   1 <1>  -0.1600 
 13 C       -4.1220     3.0370     1.9180 C.ar  1 <1>  -0.1500 
 14 N        1.2730     5.5430    -0.0210 N.4   1 <1>  -0.9590 
 15 C        0.2520     5.8060    -1.0820 C.3   1 <1>   0.3430 
 16 C        2.5230     6.3430    -0.1520 C.3   1 <1>   0.4860 
 17 C        2.1530     7.8090    -0.1680 C.ar  1 <1>  -0.1430 
 18 C        1.7810     8.4480     1.0040 C.ar  1 <1>   0.1600 
 19 C        2.1590     8.5320    -1.3470 C.ar  1 <1>  -0.1500 
 20 N        1.3950     9.7040     1.0880 N.ar  1 <1>  -0.6200 
 21 C        1.7670     9.8470    -1.2670 C.ar  1 <1>  -0.1500 
 22 C        1.3910    10.3980    -0.0440 C.ar  1 <1>   0.4100 
 23 N        0.9950    11.7210     0.0170 N.pl3 1 <1>  -0.8380 
 24 C        0.0170    12.1360     1.0600 C.3   1 <1>   0.1290 
 25 C        1.9920    12.7700    -0.3240 C.3   1 <1>   0.1290 
 26 H        0.6370     1.8700    -1.6340 H     1 <1>   0.0800 
 27 H        0.5630     1.4250     0.0480 H     1 <1>   0.0800 
 28 H       -3.8760     0.7100    -0.5120 H     1 <1>   0.1500 
 29 H       -2.5710     4.3900     2.4820 H     1 <1>   0.1500 
 30 H       -5.4760     1.5800     1.1390 H     1 <1>   0.1500 
 31 H        2.1790     3.7590    -0.7160 H     1 <1>   0.0800 
 32 H        1.7900     3.7280     1.0020 H     1 <1>   0.0800 
 33 H       -1.4510     4.5230    -1.4850 H     1 <1>   0.0800 
 34 H       -0.0070     4.1370    -2.3760 H     1 <1>   0.0800 
 35 H       -4.8250     3.4100     2.6450 H     1 <1>   0.1500 
 36 H        0.8150     5.8110     0.8640 H     1 <1>   0.4500 
 37 H       -0.4950     6.4930    -0.7130 H     1 <1>   0.0800 
 38 H        0.7070     6.2310    -1.9630 H     1 <1>   0.0800 
 39 H        3.0350     6.0880    -1.0650 H     1 <1>   0.0800 
 40 H        3.1820     6.1450     0.6780 H     1 <1>   0.0800 
 41 H        1.7910     7.9040     1.9330 H     1 <1>   0.1500 
 42 H        2.4500     8.1070    -2.2930 H     1 <1>   0.1500 
 43 H        1.7360    10.4720    -2.1390 H     1 <1>   0.1500 
 44 H       -0.7200    11.3640     1.1990 H     1 <1>   0.0800 
 45 H       -0.4820    13.0400     0.7580 H     1 <1>   0.0800 
 46 H        0.5270    12.3010     1.9940 H     1 <1>   0.0800 
 47 H        2.7920    12.3560    -0.9120 H     1 <1>   0.0800 
 48 H        2.4080    13.1840     0.5770 H     1 <1>   0.0800 
 49 H        1.5150    13.5530    -0.8870 H     1 <1>   0.0800 
@<TRIPOS>BOND
  1   1   2  2   
  2   2   3  1   
  3   2   4  1   
  4   3   5  ar  
  5   3   6  ar  
  6   4   7  1   
  7   4  26  1   
  8   4  27  1   
  9   5   8  1   
 10   5   9  ar  
 11   6  10  ar  
 12   6  28  1   
 13   7   8  1   
 14   7  11  1   
 15   7  12  1   
 16   9  13  ar  
 17   9  29  1   
 18  10  13  ar  
 19  10  30  1   
 20  11  14  1   
 21  11  31  1   
 22  11  32  1   
 23  12  15  1   
 24  12  33  1   
 25  12  34  1   
 26  13  35  1   
 27  14  15  1   
 28  14  16  1   
 29  14  36  1   
 30  15  37  1   
 31  15  38  1   
 32  16  17  1   
 33  16  39  1   
 34  16  40  1   
 35  17  18  ar  
 36  17  19  ar  
 37  18  20  ar  
 38  18  41  1   
 39  19  21  ar  
 40  19  42  1   
 41  20  22  ar  
 42  21  22  ar  
 43  21  43  1   
 44  22  23  1   
 45  23  24  1   
 46  23  25  1   
 47  24  44  1   
 48  24  45  1   
 49  24  46  1   
 50  25  47  1   
 51  25  48  1   
 52  25  49  1   
@<TRIPOS>SUBSTRUCTURE
  1 ****  15 GROUP 4 **** **** 0

# MOE 2024.06 (io_trps.svl 2023.06)
