@<TRIPOS>MOLECULE
NONAME
45 47 1 0 0 
SMALL
USER_CHARGES


@<TRIPOS>ATOM
  1 CL      -0.2700     0.0530    -0.6820 Cl    1 <1>  -0.1770 
  2 C       -0.2710    -1.6530    -0.3220 C.ar  1 <1>   0.1770 
  3 C        0.6650    -2.4730    -0.9210 C.ar  1 <1>  -0.1500 
  4 C       -1.2050    -2.1590     0.5590 C.ar  1 <1>  -0.1500 
  5 C        0.6750    -3.8330    -0.6460 C.ar  1 <1>  -0.1440 
  6 C       -1.2030    -3.5140     0.8350 C.ar  1 <1>  -0.1500 
  7 C       -0.2750    -4.3570     0.2320 C.ar  1 <1>  -0.1430 
  8 C        1.7410    -4.6950    -1.3130 C.3   1 <1>  -0.0960 
  9 C       -0.3340    -5.8400     0.5600 C.3   1 <1>   0.4870 
 10 N       -0.9740    -6.5600    -0.5750 N.4   1 <1>  -0.9590 
 11 C       -2.4250    -6.2130    -0.6920 C.3   1 <1>   0.3430 
 12 C       -0.9090    -8.0370    -0.3480 C.3   1 <1>   0.3430 
 13 C       -3.1700    -7.2850     0.1070 C.3   1 <1>   0.2000 
 14 C       -2.3500    -8.5410    -0.1900 C.3   1 <1>  -0.0800 
 15 O       -3.0870    -6.9640     1.4600 O.3   1 <1>  -0.6800 
 16 C       -2.4670    -9.6870     0.8330 C.3   1 <1>   0.0210 
 17 C       -1.6420   -10.8870     0.4080 C.2   1 <1>   0.1080 
 18 N       -0.3590   -10.8320     0.2160 N.2   1 <1>  -0.7070 
 19 C       -2.1540   -12.1600     0.1840 C.2   1 <1>  -0.1500 
 20 N       -0.0130   -12.0920    -0.1280 N.pl3 1 <1>   0.3000 
 21 C       -1.0850   -12.9090    -0.1590 C.2   1 <1>  -0.3320 
 22 C       -1.0210   -14.3840    -0.5140 C.3   1 <1>  -0.0600 
 23 H        1.3780    -2.0330    -1.5960 H     1 <1>   0.1500 
 24 H       -1.9170    -1.4960     1.0180 H     1 <1>   0.1500 
 25 H       -1.9320    -3.9030     1.5280 H     1 <1>   0.1500 
 26 H        2.5150    -4.0770    -1.7340 H     1 <1>   0.0800 
 27 H        1.3130    -5.2760    -2.1090 H     1 <1>   0.0800 
 28 H        2.2060    -5.3510    -0.5990 H     1 <1>   0.0800 
 29 H       -0.9000    -5.9950     1.4650 H     1 <1>   0.0800 
 30 H        0.6650    -6.2100     0.7200 H     1 <1>   0.0800 
 31 H       -0.4770    -6.2830    -1.4290 H     1 <1>   0.4500 
 32 H       -2.6460    -5.2250    -0.3240 H     1 <1>   0.0800 
 33 H       -2.7240    -6.2770    -1.7250 H     1 <1>   0.0800 
 34 H       -0.4290    -8.5430    -1.1710 H     1 <1>   0.0800 
 35 H       -0.3530    -8.2550     0.5500 H     1 <1>   0.0800 
 36 H       -4.2070    -7.3630    -0.1740 H     1 <1>   0.0800 
 37 H       -2.6570    -8.9230    -1.1490 H     1 <1>   0.0800 
 38 H       -3.7150    -7.4990     1.9910 H     1 <1>   0.4000 
 39 H       -3.4950    -9.9850     0.9310 H     1 <1>   0.0800 
 40 H       -2.1160    -9.3720     1.8000 H     1 <1>   0.0800 
 41 H       -3.1820   -12.4650     0.2750 H     1 <1>   0.1500 
 42 H        0.9560   -12.3670    -0.3290 H     1 <1>   0.2700 
 43 H       -2.0040   -14.8200    -0.4650 H     1 <1>   0.0800 
 44 H       -0.3820   -14.9060     0.1770 H     1 <1>   0.0800 
 45 H       -0.6400   -14.5130    -1.5110 H     1 <1>   0.0800 
@<TRIPOS>BOND
  1   1   2  1   
  2   2   3  ar  
  3   2   4  ar  
  4   3   5  ar  
  5   3  23  1   
  6   4   6  ar  
  7   4  24  1   
  8   5   7  ar  
  9   5   8  1   
 10   6   7  ar  
 11   6  25  1   
 12   7   9  1   
 13   8  26  1   
 14   8  27  1   
 15   8  28  1   
 16   9  10  1   
 17   9  29  1   
 18   9  30  1   
 19  10  11  1   
 20  10  12  1   
 21  10  31  1   
 22  11  13  1   
 23  11  32  1   
 24  11  33  1   
 25  12  14  1   
 26  12  34  1   
 27  12  35  1   
 28  13  14  1   
 29  13  15  1   
 30  13  36  1   
 31  14  16  1   
 32  14  37  1   
 33  15  38  1   
 34  16  17  1   
 35  16  39  1   
 36  16  40  1   
 37  17  18  2   
 38  17  19  1   
 39  18  20  1   
 40  19  21  2   
 41  19  41  1   
 42  20  21  1   
 43  20  42  1   
 44  21  22  1   
 45  22  43  1   
 46  22  44  1   
 47  22  45  1   
@<TRIPOS>SUBSTRUCTURE
  1 ****  10 GROUP 4 **** **** 0

# MOE 2024.06 (io_trps.svl 2023.06)
