@<TRIPOS>MOLECULE
NONAME
43 44 1 0 0 
SMALL
USER_CHARGES


@<TRIPOS>ATOM
  1 CL      -0.6270    -0.0210    -0.9340 Cl    1 <1>  -0.1230 
  2 C       -1.2630    -1.5020    -0.2550 C.2   1 <1>   0.4120 
  3 N       -2.3220    -1.5620     0.4660 N.2   1 <1>  -0.4100 
  4 C       -0.6730    -2.7450    -0.4430 C.2   1 <1>  -0.1500 
  5 O       -2.4490    -2.8260     0.7680 O.3   1 <1>  -0.0190 
  6 C       -1.4930    -3.5570     0.2450 C.2   1 <1>  -0.0400 
  7 C       -1.4660    -5.0560     0.4790 C.3   1 <1>   0.0200 
  8 C       -2.7270    -5.7260    -0.0890 C.3   1 <1>  -0.0990 
  9 C       -2.7500    -7.2320     0.1220 C.2   1 <1>   0.5690 
 10 O       -1.7280    -7.7950     0.4330 O.2   1 <1>  -0.5700 
 11 N       -3.9160    -7.9220    -0.0540 N.am  1 <1>  -0.6600 
 12 C       -5.2160    -7.3660    -0.5060 C.3   1 <1>   0.1400 
 13 C       -4.0130    -9.3860     0.1620 C.3   1 <1>   0.1400 
 14 C       -6.0940    -8.5920    -0.7510 C.3   1 <1>   0.2000 
 15 C       -5.5130    -9.6910     0.1330 C.3   1 <1>  -0.0800 
 16 O       -7.4160    -8.3580    -0.4130 O.3   1 <1>  -0.6800 
 17 C       -5.8670   -11.0990    -0.3750 C.3   1 <1>  -0.0550 
 18 S       -5.2950   -12.4060     0.7090 S.o2  1 <1>   1.3330 
 19 O       -3.8530   -12.4780     0.6340 O.2   1 <1>  -0.6500 
 20 O       -5.9390   -12.2230     1.9900 O.2   1 <1>  -0.6500 
 21 N       -5.9270   -13.8040    -0.0170 N.am  1 <1>  -0.8490 
 22 C       -6.1980   -14.8630     0.9610 C.3   1 <1>   0.1160 
 23 C       -5.0880   -14.3290    -1.1000 C.3   1 <1>   0.1160 
 24 H        0.2170    -2.9510    -1.0060 H     1 <1>   0.1500 
 25 H       -0.5910    -5.4710     0.0100 H     1 <1>   0.0800 
 26 H       -1.3990    -5.2480     1.5360 H     1 <1>   0.0800 
 27 H       -2.7870    -5.5310    -1.1430 H     1 <1>   0.0800 
 28 H       -3.5880    -5.2970     0.3870 H     1 <1>   0.0800 
 29 H       -5.6290    -6.7500     0.2740 H     1 <1>   0.0800 
 30 H       -5.0930    -6.7970    -1.4110 H     1 <1>   0.0800 
 31 H       -3.4950    -9.8920    -0.6350 H     1 <1>   0.0800 
 32 H       -3.5670    -9.6650     1.1040 H     1 <1>   0.0800 
 33 H       -6.0540    -8.8640    -1.7930 H     1 <1>   0.0800 
 34 H       -5.8820    -9.5720     1.1390 H     1 <1>   0.0800 
 35 H       -7.5000    -8.1760     0.5440 H     1 <1>   0.4000 
 36 H       -5.4550   -11.2400    -1.3550 H     1 <1>   0.0800 
 37 H       -6.9350   -11.1710    -0.4570 H     1 <1>   0.0800 
 38 H       -6.6120   -15.7270     0.4710 H     1 <1>   0.0800 
 39 H       -6.9120   -14.5170     1.6900 H     1 <1>   0.0800 
 40 H       -5.2910   -15.1430     1.4710 H     1 <1>   0.0800 
 41 H       -5.5800   -15.1580    -1.5800 H     1 <1>   0.0800 
 42 H       -4.1380   -14.6610    -0.7140 H     1 <1>   0.0800 
 43 H       -4.9130   -13.5650    -1.8380 H     1 <1>   0.0800 
@<TRIPOS>BOND
  1   1   2  1   
  2   2   3  2   
  3   2   4  1   
  4   3   5  1   
  5   4   6  2   
  6   4  24  1   
  7   5   6  1   
  8   6   7  1   
  9   7   8  1   
 10   7  25  1   
 11   7  26  1   
 12   8   9  1   
 13   8  27  1   
 14   8  28  1   
 15   9  10  2   
 16   9  11  am  
 17  11  12  1   
 18  11  13  1   
 19  12  14  1   
 20  12  29  1   
 21  12  30  1   
 22  13  15  1   
 23  13  31  1   
 24  13  32  1   
 25  14  15  1   
 26  14  16  1   
 27  14  33  1   
 28  15  17  1   
 29  15  34  1   
 30  16  35  1   
 31  17  18  1   
 32  17  36  1   
 33  17  37  1   
 34  18  19  2   
 35  18  20  2   
 36  18  21  am  
 37  21  22  1   
 38  21  23  1   
 39  22  38  1   
 40  22  39  1   
 41  22  40  1   
 42  23  41  1   
 43  23  42  1   
 44  23  43  1   
@<TRIPOS>SUBSTRUCTURE
  1 ****  11 GROUP 4 **** **** 0

# MOE 2024.06 (io_trps.svl 2023.06)
