@<TRIPOS>MOLECULE
NONAME
48 51 1 0 0 
SMALL
USER_CHARGES


@<TRIPOS>ATOM
  1 CL      -1.4960    -0.7930    -0.7170 Cl    1 <1>  -0.1770 
  2 C       -3.0720    -0.0520    -0.6520 C.ar  1 <1>   0.1770 
  3 C       -3.4930     0.7470    -1.6980 C.ar  1 <1>  -0.1500 
  4 C       -3.8840    -0.2720     0.4440 C.ar  1 <1>  -0.1500 
  5 C       -4.7470     1.3280    -1.6440 C.ar  1 <1>  -0.1500 
  6 C       -5.1360     0.3150     0.4880 C.ar  1 <1>  -0.1500 
  7 C       -5.5970     1.1190    -0.5560 C.ar  1 <1>   0.0530 
  8 C       -6.9070     1.7160    -0.5200 C.2   1 <1>   0.0870 
  9 O       -7.1020     2.9150    -1.0080 O.3   1 <1>  -0.0190 
 10 C       -8.1040     1.2860    -0.0390 C.2   1 <1>  -0.0860 
 11 N       -8.3350     3.3260    -0.8720 N.2   1 <1>  -0.4100 
 12 C       -8.9540     2.3640    -0.2850 C.2   1 <1>   0.3720 
 13 C       -8.5070     0.0560     0.5660 C.2   1 <1>   0.7160 
 14 N      -10.3020     2.3830     0.0570 N.pl3 1 <1>  -0.8520 
 15 O       -9.3070     0.0550     1.4870 O.2   1 <1>  -0.5700 
 16 N       -8.0180    -1.1450     0.1190 N.am  1 <1>  -0.6600 
 17 C      -10.8900     3.7020     0.4110 C.3   1 <1>   0.2090 
 18 C       -8.4600    -2.4520     0.4190 C.3   1 <1>   0.2200 
 19 C       -7.4220    -1.5700    -1.2370 C.3   1 <1>   0.1400 
 20 C      -12.3930     3.5540     0.6440 C.3   1 <1>   0.1200 
 21 C       -9.3830    -2.4380    -0.8600 C.3   1 <1>  -0.1600 
 22 C       -8.8280    -3.8660     0.6960 C.3   1 <1>  -0.1600 
 23 C       -8.2280    -2.9090    -1.5920 C.3   1 <1>  -0.0800 
 24 O      -12.9110     4.7820     1.0520 O.3   1 <1>  -0.5600 
 25 C       -8.1920    -4.2570    -0.7180 C.3   1 <1>  -0.1600 
 26 C      -14.2840     4.7660     1.2720 C.3   1 <1>   0.0400 
 27 H       -2.8420     0.9100    -2.5390 H     1 <1>   0.1500 
 28 H       -3.5350    -0.8930     1.2500 H     1 <1>   0.1500 
 29 H       -5.0770     1.9530    -2.4570 H     1 <1>   0.1500 
 30 H       -5.7640     0.1470     1.3460 H     1 <1>   0.1500 
 31 H      -10.4790     1.6810     0.7920 H     1 <1>   0.4000 
 32 H      -10.4180     4.0740     1.3050 H     1 <1>   0.0800 
 33 H      -10.7230     4.3990    -0.3930 H     1 <1>   0.0800 
 34 H       -7.4290    -2.7280     0.6420 H     1 <1>   0.0800 
 35 H       -7.5960    -0.8040    -1.9760 H     1 <1>   0.0800 
 36 H       -6.3650    -1.7600    -1.1550 H     1 <1>   0.0800 
 37 H      -12.5790     2.8310     1.4190 H     1 <1>   0.0800 
 38 H      -12.8770     3.2590    -0.2700 H     1 <1>   0.0800 
 39 H      -10.2330    -3.1030    -0.9500 H     1 <1>   0.0800 
 40 H       -9.7810    -1.4910    -1.2100 H     1 <1>   0.0800 
 41 H       -8.2790    -4.2950     1.5170 H     1 <1>   0.0800 
 42 H       -9.8790    -4.0670     0.8300 H     1 <1>   0.0800 
 43 H       -8.4010    -3.0590    -2.6440 H     1 <1>   0.0800 
 44 H       -8.7710    -5.0390    -1.1820 H     1 <1>   0.0800 
 45 H       -7.1770    -4.6020    -0.6150 H     1 <1>   0.0800 
 46 H      -14.5850     5.7520     1.5810 H     1 <1>   0.0800 
 47 H      -14.5120     4.0570     2.0500 H     1 <1>   0.0800 
 48 H      -14.7880     4.5030     0.3580 H     1 <1>   0.0800 
@<TRIPOS>BOND
  1   1   2  1   
  2   2   3  ar  
  3   2   4  ar  
  4   3   5  ar  
  5   3  27  1   
  6   4   6  ar  
  7   4  28  1   
  8   5   7  ar  
  9   5  29  1   
 10   6   7  ar  
 11   6  30  1   
 12   7   8  1   
 13   8   9  1   
 14   8  10  2   
 15   9  11  1   
 16  10  12  1   
 17  10  13  1   
 18  11  12  2   
 19  12  14  1   
 20  13  15  2   
 21  13  16  am  
 22  14  17  1   
 23  14  31  1   
 24  16  18  1   
 25  16  19  1   
 26  17  20  1   
 27  17  32  1   
 28  17  33  1   
 29  18  21  1   
 30  18  22  1   
 31  18  34  1   
 32  19  23  1   
 33  19  35  1   
 34  19  36  1   
 35  20  24  1   
 36  20  37  1   
 37  20  38  1   
 38  21  23  1   
 39  21  39  1   
 40  21  40  1   
 41  22  25  1   
 42  22  41  1   
 43  22  42  1   
 44  23  25  1   
 45  23  43  1   
 46  24  26  1   
 47  25  44  1   
 48  25  45  1   
 49  26  46  1   
 50  26  47  1   
 51  26  48  1   
@<TRIPOS>SUBSTRUCTURE
  1 ****  10 GROUP 4 **** **** 0

# MOE 2024.06 (io_trps.svl 2023.06)
