@<TRIPOS>MOLECULE
NONAME
58 60 1 0 0 
SMALL
USER_CHARGES


@<TRIPOS>ATOM
  1 O        0.9490    -0.4520     0.8880 O.3   1 <1>  -0.3630 
  2 C        0.6120    -1.7540     1.0130 C.ar  1 <1>   0.0820 
  3 C        0.9600     0.1050    -0.4080 C.3   1 <1>   0.2000 
  4 C        1.5420    -2.7710     0.8110 C.ar  1 <1>  -0.1440 
  5 C       -0.6890    -2.0580     1.3800 C.ar  1 <1>  -0.1500 
  6 C        1.9040     1.3040    -0.3790 C.3   1 <1>  -0.2400 
  7 C       -0.4610     0.5260    -0.7850 C.3   1 <1>  -0.2400 
  8 C        1.1320    -4.0880     0.9480 C.ar  1 <1>  -0.1500 
  9 C        3.0000    -2.4930     0.4630 C.3   1 <1>   0.1220 
 10 C       -1.0860    -3.3750     1.5130 C.ar  1 <1>  -0.1500 
 11 C       -0.1780    -4.3980     1.2850 C.ar  1 <1>  -0.1430 
 12 C        3.3220    -3.0310    -0.9230 C.2   1 <1>  -0.2880 
 13 C       -0.6160    -5.8440     1.4000 C.3   1 <1>   0.4860 
 14 C        4.2370    -3.9670    -1.1950 C.2   1 <1>  -0.3000 
 15 N       -0.6510    -6.4330     0.0330 N.4   1 <1>  -0.9590 
 16 C       -1.7390    -5.8020    -0.7820 C.3   1 <1>   0.3430 
 17 C       -0.9480    -7.8980     0.0920 C.3   1 <1>   0.3430 
 18 C       -2.9310    -6.7570    -0.6870 C.3   1 <1>   0.2000 
 19 C       -2.2450    -8.1230    -0.6950 C.3   1 <1>  -0.0800 
 20 O       -3.5610    -6.5510     0.5380 O.3   1 <1>  -0.6800 
 21 C       -3.0720    -9.3100    -0.1650 C.3   1 <1>  -0.0170 
 22 C       -2.2100   -10.5610    -0.1080 C.ar  1 <1>  -0.1430 
 23 C       -1.7610   -11.0840     1.0880 C.ar  1 <1>  -0.1500 
 24 C       -1.8270   -11.2340    -1.2510 C.ar  1 <1>  -0.1500 
 25 C       -0.9550   -12.2110     1.0830 C.ar  1 <1>   0.1600 
 26 C       -1.0170   -12.3530    -1.1470 C.ar  1 <1>   0.1600 
 27 N       -0.5640   -12.8480    -0.0080 N.ar  1 <1>  -0.6200 
 28 H        1.3290    -0.6350    -1.0980 H     1 <1>   0.0800 
 29 H       -1.3810    -1.2550     1.5620 H     1 <1>   0.1500 
 30 H        1.5560     2.0370     0.3270 H     1 <1>   0.0800 
 31 H        1.9510     1.7590    -1.3520 H     1 <1>   0.0800 
 32 H        2.8940     0.9880    -0.1050 H     1 <1>   0.0800 
 33 H       -0.8550     1.2090    -0.0530 H     1 <1>   0.0800 
 34 H       -1.1000    -0.3340    -0.8550 H     1 <1>   0.0800 
 35 H       -0.4550     1.0150    -1.7420 H     1 <1>   0.0800 
 36 H        1.8560    -4.8700     0.7900 H     1 <1>   0.1500 
 37 H        3.2170    -1.4420     0.4970 H     1 <1>   0.0800 
 38 H        3.6300    -2.9670     1.1950 H     1 <1>   0.0800 
 39 H       -2.1040    -3.5880     1.7950 H     1 <1>   0.1500 
 40 H        2.7240    -2.5680    -1.6900 H     1 <1>   0.1500 
 41 H       -1.5920    -5.9000     1.8560 H     1 <1>   0.0800 
 42 H        0.0850    -6.3790     2.0200 H     1 <1>   0.0800 
 43 H        4.4490    -4.3270    -2.1880 H     1 <1>   0.1500 
 44 H        4.8560    -4.4470    -0.4570 H     1 <1>   0.1500 
 45 H        0.2590    -6.2420    -0.4040 H     1 <1>   0.4500 
 46 H       -1.9990    -4.8160    -0.4340 H     1 <1>   0.0800 
 47 H       -1.4230    -5.7370    -1.8100 H     1 <1>   0.0800 
 48 H       -0.1440    -8.4820    -0.3280 H     1 <1>   0.0800 
 49 H       -1.0980    -8.2020     1.1160 H     1 <1>   0.0800 
 50 H       -3.6430    -6.6140    -1.4820 H     1 <1>   0.0800 
 51 H       -1.9620    -8.3440    -1.7100 H     1 <1>   0.0800 
 52 H       -4.4700    -6.9210     0.5350 H     1 <1>   0.4000 
 53 H       -3.9160    -9.4870    -0.8100 H     1 <1>   0.0800 
 54 H       -3.4520    -9.1030     0.8200 H     1 <1>   0.0800 
 55 H       -2.0280   -10.6380     2.0290 H     1 <1>   0.1500 
 56 H       -2.1480   -10.9090    -2.2240 H     1 <1>   0.1500 
 57 H       -0.6140   -12.6110     2.0230 H     1 <1>   0.1500 
 58 H       -0.7260   -12.8700    -2.0470 H     1 <1>   0.1500 
@<TRIPOS>BOND
  1   1   2  1   
  2   1   3  1   
  3   2   4  ar  
  4   2   5  ar  
  5   3   6  1   
  6   3   7  1   
  7   3  28  1   
  8   4   8  ar  
  9   4   9  1   
 10   5  10  ar  
 11   5  29  1   
 12   6  30  1   
 13   6  31  1   
 14   6  32  1   
 15   7  33  1   
 16   7  34  1   
 17   7  35  1   
 18   8  11  ar  
 19   8  36  1   
 20   9  12  1   
 21   9  37  1   
 22   9  38  1   
 23  10  11  ar  
 24  10  39  1   
 25  11  13  1   
 26  12  14  2   
 27  12  40  1   
 28  13  15  1   
 29  13  41  1   
 30  13  42  1   
 31  14  43  1   
 32  14  44  1   
 33  15  16  1   
 34  15  17  1   
 35  15  45  1   
 36  16  18  1   
 37  16  46  1   
 38  16  47  1   
 39  17  19  1   
 40  17  48  1   
 41  17  49  1   
 42  18  19  1   
 43  18  20  1   
 44  18  50  1   
 45  19  21  1   
 46  19  51  1   
 47  20  52  1   
 48  21  22  1   
 49  21  53  1   
 50  21  54  1   
 51  22  23  ar  
 52  22  24  ar  
 53  23  25  ar  
 54  23  55  1   
 55  24  26  ar  
 56  24  56  1   
 57  25  27  ar  
 58  25  57  1   
 59  26  27  ar  
 60  26  58  1   
@<TRIPOS>SUBSTRUCTURE
  1 ****  15 GROUP 4 **** **** 0

# MOE 2024.06 (io_trps.svl 2023.06)
