@<TRIPOS>MOLECULE
NONAME
39 42 1 0 0 
SMALL
USER_CHARGES


@<TRIPOS>ATOM
  1 CL       0.1450    -0.1780     0.2860 Cl    1 <1>  -0.1770 
  2 C       -0.9400    -1.5430     0.2260 C.ar  1 <1>   0.1770 
  3 C       -2.3040    -1.3200     0.1840 C.ar  1 <1>  -0.1500 
  4 C       -0.4100    -2.8290     0.2220 C.ar  1 <1>  -0.1500 
  5 C       -3.1130    -2.4400     0.1380 C.ar  1 <1>   0.0400 
  6 C       -1.2550    -3.9280     0.1750 C.ar  1 <1>  -0.1500 
  7 S       -4.8580    -2.5180     0.0780 S.3   1 <1>  -0.0800 
  8 C       -2.6320    -3.7380     0.1310 C.ar  1 <1>   0.2270 
  9 C       -4.7670    -4.2850     0.0510 C.2   1 <1>   0.4620 
 10 N       -3.5740    -4.7510     0.0820 N.2   1 <1>  -0.5650 
 11 N       -5.9320    -5.0060     0.0010 N.pl3 1 <1>  -0.8220 
 12 C       -7.2930    -4.4460    -0.1720 C.3   1 <1>   0.2090 
 13 C       -5.9430    -6.4840    -0.0410 C.3   1 <1>   0.2090 
 14 C       -8.1660    -5.6570    -0.5050 C.3   1 <1>   0.2000 
 15 C       -7.4200    -6.8690     0.0540 C.3   1 <1>  -0.0800 
 16 O       -9.4260    -5.5670     0.0700 O.3   1 <1>  -0.6800 
 17 C       -7.7640    -8.1740    -0.6790 C.3   1 <1>   0.0200 
 18 C       -6.9390    -9.3310    -0.1510 C.2   1 <1>  -0.0400 
 19 O       -7.0570    -9.7030     1.0960 O.3   1 <1>  -0.0190 
 20 C       -6.0280   -10.1240    -0.7340 C.2   1 <1>  -0.1500 
 21 N       -6.2710   -10.7000     1.3800 N.2   1 <1>  -0.4100 
 22 C       -5.6390   -10.9770     0.2960 C.2   1 <1>   0.1080 
 23 C       -4.6120   -12.0790     0.1680 C.3   1 <1>  -0.0590 
 24 H       -2.7130    -0.3270     0.1880 H     1 <1>   0.1500 
 25 H        0.6570    -2.9600     0.2560 H     1 <1>   0.1500 
 26 H       -0.8700    -4.9320     0.1710 H     1 <1>   0.1500 
 27 H       -7.6050    -3.9840     0.7490 H     1 <1>   0.0800 
 28 H       -7.3110    -3.7300    -0.9760 H     1 <1>   0.0800 
 29 H       -5.5140    -6.8090    -0.9740 H     1 <1>   0.0800 
 30 H       -5.3730    -6.8950     0.7760 H     1 <1>   0.0800 
 31 H       -8.2860    -5.7290    -1.5720 H     1 <1>   0.0800 
 32 H       -7.6470    -6.9780     1.1010 H     1 <1>   0.0800 
 33 H       -9.3550    -5.5650     1.0450 H     1 <1>   0.4000 
 34 H       -7.5810    -8.0620    -1.7330 H     1 <1>   0.0800 
 35 H       -8.8080    -8.3980    -0.5450 H     1 <1>   0.0800 
 36 H       -5.6610   -10.1310    -1.7430 H     1 <1>   0.1500 
 37 H       -4.9030   -12.7600    -0.6110 H     1 <1>   0.0800 
 38 H       -4.5380   -12.6200     1.0940 H     1 <1>   0.0800 
 39 H       -3.6530   -11.6580    -0.0670 H     1 <1>   0.0800 
@<TRIPOS>BOND
  1   1   2  1   
  2   2   3  ar  
  3   2   4  ar  
  4   3   5  ar  
  5   3  24  1   
  6   4   6  ar  
  7   4  25  1   
  8   5   7  1   
  9   5   8  ar  
 10   6   8  ar  
 11   6  26  1   
 12   7   9  1   
 13   8  10  1   
 14   9  10  2   
 15   9  11  1   
 16  11  12  1   
 17  11  13  1   
 18  12  14  1   
 19  12  27  1   
 20  12  28  1   
 21  13  15  1   
 22  13  29  1   
 23  13  30  1   
 24  14  15  1   
 25  14  16  1   
 26  14  31  1   
 27  15  17  1   
 28  15  32  1   
 29  16  33  1   
 30  17  18  1   
 31  17  34  1   
 32  17  35  1   
 33  18  19  1   
 34  18  20  2   
 35  19  21  1   
 36  20  22  1   
 37  20  36  1   
 38  21  22  2   
 39  22  23  1   
 40  23  37  1   
 41  23  38  1   
 42  23  39  1   
@<TRIPOS>SUBSTRUCTURE
  1 ****  13 GROUP 4 **** **** 0

# MOE 2024.06 (io_trps.svl 2023.06)
