@<TRIPOS>MOLECULE
NONAME
37 37 1 0 0 
SMALL
USER_CHARGES


@<TRIPOS>ATOM
  1 O        0.1900     2.9100    -1.4230 O.2   1 <1>  -0.5700 
  2 C       -0.6330     2.2920    -0.7900 C.2   1 <1>   0.5690 
  3 N       -0.3940     1.9210     0.4930 N.am  1 <1>  -0.7300 
  4 C       -1.9800     1.9540    -1.4320 C.3   1 <1>  -0.0190 
  5 C        0.8800     2.1790     1.2410 C.3   1 <1>   0.2010 
  6 C       -3.1360     2.7040    -0.7500 C.3   1 <1>  -0.2400 
  7 C       -2.2580     0.4410    -1.4370 C.3   1 <1>  -0.2400 
  8 C        1.0670     3.6380     1.6600 C.2   1 <1>   0.5690 
  9 O        1.2330     3.8850     2.8300 O.2   1 <1>  -0.5700 
 10 N        1.0400     4.5820     0.6760 N.am  1 <1>  -0.4940 
 11 C        1.1840     5.9700     0.7370 C.2   1 <1>   0.2040 
 12 O        1.4380     6.6060     1.8570 O.3   1 <1>  -0.0190 
 13 C        1.1030     6.8880    -0.2460 C.2   1 <1>  -0.1810 
 14 N        1.5310     7.8990     1.6710 N.2   1 <1>  -0.4100 
 15 C        1.3340     8.0940     0.4150 C.2   1 <1>   0.1080 
 16 C        0.8280     6.6860    -1.7270 C.3   1 <1>  -0.0590 
 17 C        1.3580     9.4710    -0.2250 C.3   1 <1>   0.0210 
 18 C        2.7450     9.7970    -0.7900 C.3   1 <1>  -0.2400 
 19 H       -1.1440     1.4820     1.0300 H     1 <1>   0.3700 
 20 H       -1.9340     2.2820    -2.4560 H     1 <1>   0.0800 
 21 H        1.7130     1.8980     0.6220 H     1 <1>   0.0800 
 22 H        0.9030     1.5630     2.1220 H     1 <1>   0.0800 
 23 H       -3.2460     2.3940     0.2740 H     1 <1>   0.0800 
 24 H       -4.0610     2.5160    -1.2670 H     1 <1>   0.0800 
 25 H       -2.9480     3.7640    -0.7670 H     1 <1>   0.0800 
 26 H       -2.3520     0.0620    -0.4350 H     1 <1>   0.0800 
 27 H       -1.4530    -0.0780    -1.9260 H     1 <1>   0.0800 
 28 H       -3.1690     0.2320    -1.9700 H     1 <1>   0.0800 
 29 H        0.8350     4.2020    -0.2570 H     1 <1>   0.3700 
 30 H        0.7000     5.6430    -1.9510 H     1 <1>   0.0800 
 31 H        1.6510     7.0610    -2.3080 H     1 <1>   0.0800 
 32 H       -0.0670     7.2090    -2.0090 H     1 <1>   0.0800 
 33 H        1.0950    10.2020     0.5180 H     1 <1>   0.0800 
 34 H        0.6230     9.5160    -1.0080 H     1 <1>   0.0800 
 35 H        3.4760     9.7650    -0.0010 H     1 <1>   0.0800 
 36 H        2.7470    10.7800    -1.2250 H     1 <1>   0.0800 
 37 H        3.0210     9.0820    -1.5440 H     1 <1>   0.0800 
@<TRIPOS>BOND
  1   1   2  2   
  2   2   3  am  
  3   2   4  1   
  4   3   5  1   
  5   3  19  1   
  6   4   6  1   
  7   4   7  1   
  8   4  20  1   
  9   5   8  1   
 10   5  21  1   
 11   5  22  1   
 12   6  23  1   
 13   6  24  1   
 14   6  25  1   
 15   7  26  1   
 16   7  27  1   
 17   7  28  1   
 18   8   9  2   
 19   8  10  am  
 20  10  11  1   
 21  10  29  1   
 22  11  12  1   
 23  11  13  2   
 24  12  14  1   
 25  13  15  1   
 26  13  16  1   
 27  14  15  2   
 28  15  17  1   
 29  16  30  1   
 30  16  31  1   
 31  16  32  1   
 32  17  18  1   
 33  17  33  1   
 34  17  34  1   
 35  18  35  1   
 36  18  36  1   
 37  18  37  1   
@<TRIPOS>SUBSTRUCTURE
  1 ****  10 GROUP 4 **** **** 0

# MOE 2024.06 (io_trps.svl 2023.06)
