@<TRIPOS>MOLECULE
NONAME
52 54 1 0 0 
SMALL
USER_CHARGES


@<TRIPOS>ATOM
  1 O       -1.4490     0.7910    -1.9450 O.2   1 <1>  -0.5700 
  2 C       -0.9530     1.6540    -1.2580 C.2   1 <1>   0.5690 
  3 N       -1.7000     2.6260    -0.6410 N.am  1 <1>  -0.6600 
  4 C        0.5710     1.6320    -1.1080 C.3   1 <1>   0.1810 
  5 C       -1.0100     3.7300     0.1290 C.3   1 <1>   0.3640 
  6 C       -3.1810     2.4390    -0.5180 C.3   1 <1>   0.2200 
  7 O        1.0340     2.3870    -0.0180 O.3   1 <1>  -0.5600 
  8 C       -1.5010     5.1120    -0.3100 C.ar  1 <1>  -0.1440 
  9 C        0.5330     3.7060    -0.0120 C.3   1 <1>   0.2610 
 10 C       -3.9330     3.3090    -1.5240 C.3   1 <1>  -0.2400 
 11 C       -3.6820     2.6720     0.9090 C.3   1 <1>  -0.2400 
 12 C       -1.9600     6.0170     0.6380 C.ar  1 <1>  -0.1500 
 13 C       -1.4740     5.4950    -1.6450 C.ar  1 <1>  -0.1500 
 14 C        1.2100     4.5680     1.0680 C.2   1 <1>   0.5690 
 15 C       -2.3940     7.2750     0.2590 C.ar  1 <1>  -0.1500 
 16 C       -1.9030     6.7540    -2.0250 C.ar  1 <1>  -0.1500 
 17 O        0.6380     4.7540     2.1220 O.2   1 <1>  -0.5700 
 18 N        2.4210     5.1640     0.8170 N.am  1 <1>  -0.6600 
 19 C       -2.3660     7.6450    -1.0730 C.ar  1 <1>  -0.1500 
 20 C        2.7870     6.4030     1.5540 C.3   1 <1>   0.3200 
 21 C        3.3020     4.8300    -0.3380 C.3   1 <1>   0.0600 
 22 C        2.2910     7.5910     0.7570 C.2   1 <1>  -0.0400 
 23 O        3.0300     8.1050    -0.1900 O.3   1 <1>  -0.0190 
 24 C        1.1390     8.2760     0.8010 C.2   1 <1>  -0.1500 
 25 N        2.4310     9.0950    -0.7860 N.2   1 <1>  -0.4100 
 26 C        1.2890     9.2200    -0.2100 C.2   1 <1>   0.1080 
 27 C        0.2540    10.2510    -0.6000 C.3   1 <1>  -0.0590 
 28 H        1.0250     2.0100    -2.0050 H     1 <1>   0.0800 
 29 H        0.8950     0.6180    -0.9600 H     1 <1>   0.0800 
 30 H       -1.2410     3.5890     1.1690 H     1 <1>   0.0800 
 31 H       -3.4110     1.4140    -0.7580 H     1 <1>   0.0800 
 32 H        0.7830     4.1410    -0.9610 H     1 <1>   0.0800 
 33 H       -3.9050     4.3450    -1.2440 H     1 <1>   0.0800 
 34 H       -4.9630     3.0060    -1.5590 H     1 <1>   0.0800 
 35 H       -3.5110     3.1850    -2.5050 H     1 <1>   0.0800 
 36 H       -3.6090     3.7080     1.1850 H     1 <1>   0.0800 
 37 H       -3.1250     2.0680     1.6010 H     1 <1>   0.0800 
 38 H       -4.7160     2.3870     0.9740 H     1 <1>   0.0800 
 39 H       -1.9770     5.7450     1.6800 H     1 <1>   0.1500 
 40 H       -1.1280     4.8080    -2.3980 H     1 <1>   0.1500 
 41 H       -2.7540     7.9650     1.0020 H     1 <1>   0.1500 
 42 H       -1.8800     7.0390    -3.0630 H     1 <1>   0.1500 
 43 H       -2.7060     8.6210    -1.3700 H     1 <1>   0.1500 
 44 H        2.3270     6.4070     2.5270 H     1 <1>   0.0800 
 45 H        3.8520     6.4590     1.6880 H     1 <1>   0.0800 
 46 H        4.3340     4.9530    -0.0590 H     1 <1>   0.0800 
 47 H        3.0840     5.4850    -1.1650 H     1 <1>   0.0800 
 48 H        3.1570     3.8090    -0.6430 H     1 <1>   0.0800 
 49 H        0.2840     8.1380     1.4370 H     1 <1>   0.1500 
 50 H       -0.4860    10.3480     0.1720 H     1 <1>   0.0800 
 51 H       -0.2240     9.9490    -1.5140 H     1 <1>   0.0800 
 52 H        0.7310    11.2020    -0.7520 H     1 <1>   0.0800 
@<TRIPOS>BOND
  1   1   2  2   
  2   2   3  am  
  3   2   4  1   
  4   3   5  1   
  5   3   6  1   
  6   4   7  1   
  7   4  28  1   
  8   4  29  1   
  9   5   8  1   
 10   5   9  1   
 11   5  30  1   
 12   6  10  1   
 13   6  11  1   
 14   6  31  1   
 15   7   9  1   
 16   8  12  ar  
 17   8  13  ar  
 18   9  14  1   
 19   9  32  1   
 20  10  33  1   
 21  10  34  1   
 22  10  35  1   
 23  11  36  1   
 24  11  37  1   
 25  11  38  1   
 26  12  15  ar  
 27  12  39  1   
 28  13  16  ar  
 29  13  40  1   
 30  14  17  2   
 31  14  18  am  
 32  15  19  ar  
 33  15  41  1   
 34  16  19  ar  
 35  16  42  1   
 36  18  20  1   
 37  18  21  1   
 38  19  43  1   
 39  20  22  1   
 40  20  44  1   
 41  20  45  1   
 42  21  46  1   
 43  21  47  1   
 44  21  48  1   
 45  22  23  1   
 46  22  24  2   
 47  23  25  1   
 48  24  26  1   
 49  24  49  1   
 50  25  26  2   
 51  26  27  1   
 52  27  50  1   
 53  27  51  1   
 54  27  52  1   
@<TRIPOS>SUBSTRUCTURE
  1 ****   8 GROUP 4 **** **** 0

# MOE 2024.06 (io_trps.svl 2023.06)
