@<TRIPOS>MOLECULE
NONAME
48 50 1 0 0 
SMALL
USER_CHARGES


@<TRIPOS>ATOM
  1 S        1.2000     0.7000    -1.8950 S.3   1 <1>  -0.0800 
  2 C        0.3280     0.9020    -0.3910 C.2   1 <1>   0.1980 
  3 C        1.4570     2.4110    -1.9450 C.2   1 <1>  -0.1100 
  4 N        0.2560     2.1090     0.0040 N.2   1 <1>  -0.5650 
  5 C       -0.2460    -0.3370     0.2900 C.3   1 <1>   0.1000 
  6 C        0.9050     3.0090    -0.8650 C.2   1 <1>   0.1410 
  7 C        0.8640    -1.3070     0.7170 C.3   1 <1>  -0.2400 
  8 C       -1.2730    -1.0480    -0.6020 C.3   1 <1>  -0.2400 
  9 C        0.9500     4.4520    -0.6240 C.2   1 <1>   0.7160 
 10 O        1.1390     5.1890    -1.5790 O.2   1 <1>  -0.5700 
 11 N        0.8190     5.0360     0.6250 N.am  1 <1>  -0.6600 
 12 C        1.0950     4.2730     1.8880 C.3   1 <1>   0.1400 
 13 C        0.4460     6.4740     0.7540 C.3   1 <1>   0.1400 
 14 C        1.8590     5.0640     2.9650 C.3   1 <1>   0.1400 
 15 C        1.6870     7.3790     0.7810 C.3   1 <1>  -0.1600 
 16 N        2.9210     5.9240     2.3710 N.am  1 <1>  -0.6600 
 17 C        2.4920     7.3160     2.0830 C.3   1 <1>   0.1400 
 18 C        4.0600     5.3630     1.8190 C.2   1 <1>   0.7150 
 19 O        4.2270     4.1590     1.9500 O.2   1 <1>  -0.5700 
 20 C        5.0140     6.1340     1.0420 C.2   1 <1>   0.1020 
 21 N        5.6610     7.2180     1.4230 N.2   1 <1>  -0.5650 
 22 N        5.3380     5.7820    -0.2370 N.pl3 1 <1>   0.0480 
 23 C        6.4110     7.5530     0.3670 C.2   1 <1>   0.0770 
 24 C        6.2260     6.6930    -0.6560 C.2   1 <1>  -0.3020 
 25 C        4.7920     4.6690    -1.0370 C.3   1 <1>   0.0160 
 26 H        1.9940     2.8220    -2.7800 H     1 <1>   0.1500 
 27 H       -0.7550    -0.0030     1.1780 H     1 <1>   0.0800 
 28 H        1.3800    -1.6990    -0.1410 H     1 <1>   0.0800 
 29 H        0.4480    -2.1270     1.2730 H     1 <1>   0.0800 
 30 H        1.5750    -0.7960     1.3420 H     1 <1>   0.0800 
 31 H       -0.8050    -1.4370    -1.4890 H     1 <1>   0.0800 
 32 H       -2.0430    -0.3560    -0.8950 H     1 <1>   0.0800 
 33 H       -1.7290    -1.8620    -0.0680 H     1 <1>   0.0800 
 34 H        1.6940     3.4090     1.6550 H     1 <1>   0.0800 
 35 H        0.1660     3.9170     2.2970 H     1 <1>   0.0800 
 36 H       -0.1470     6.6200     1.6400 H     1 <1>   0.0800 
 37 H       -0.1630     6.7490    -0.0900 H     1 <1>   0.0800 
 38 H        2.3080     4.3720     3.6560 H     1 <1>   0.0800 
 39 H        1.1670     5.6690     3.5230 H     1 <1>   0.0800 
 40 H        1.3610     8.3940     0.6500 H     1 <1>   0.0800 
 41 H        2.3240     7.1470    -0.0540 H     1 <1>   0.0800 
 42 H        1.8940     7.6790     2.9000 H     1 <1>   0.0800 
 43 H        3.3470     7.9640     2.0110 H     1 <1>   0.0800 
 44 H        7.0600     8.4130     0.3900 H     1 <1>   0.1500 
 45 H        6.6730     6.6880    -1.6330 H     1 <1>   0.1500 
 46 H        4.9740     3.7390    -0.5280 H     1 <1>   0.0800 
 47 H        5.2660     4.6480    -2.0010 H     1 <1>   0.0800 
 48 H        3.7350     4.8100    -1.1620 H     1 <1>   0.0800 
@<TRIPOS>BOND
  1   1   2  1   
  2   1   3  1   
  3   2   4  2   
  4   2   5  1   
  5   3   6  2   
  6   3  26  1   
  7   4   6  1   
  8   5   7  1   
  9   5   8  1   
 10   5  27  1   
 11   6   9  1   
 12   7  28  1   
 13   7  29  1   
 14   7  30  1   
 15   8  31  1   
 16   8  32  1   
 17   8  33  1   
 18   9  10  2   
 19   9  11  am  
 20  11  12  1   
 21  11  13  1   
 22  12  14  1   
 23  12  34  1   
 24  12  35  1   
 25  13  15  1   
 26  13  36  1   
 27  13  37  1   
 28  14  16  1   
 29  14  38  1   
 30  14  39  1   
 31  15  17  1   
 32  15  40  1   
 33  15  41  1   
 34  16  17  1   
 35  16  18  am  
 36  17  42  1   
 37  17  43  1   
 38  18  19  2   
 39  18  20  1   
 40  20  21  2   
 41  20  22  1   
 42  21  23  1   
 43  22  24  1   
 44  22  25  1   
 45  23  24  2   
 46  23  44  1   
 47  24  45  1   
 48  25  46  1   
 49  25  47  1   
 50  25  48  1   
@<TRIPOS>SUBSTRUCTURE
  1 ****   9 GROUP 4 **** **** 0

# MOE 2024.06 (io_trps.svl 2023.06)
