@<TRIPOS>MOLECULE
NONAME
58 60 1 0 0 
SMALL
USER_CHARGES


@<TRIPOS>ATOM
  1 N       -2.6900    -0.7570     1.4870 N.2   1 <1>  -0.7070 
  2 N       -2.1820     0.1460     0.5960 N.pl3 1 <1>   0.5930 
  3 C       -1.8380    -1.7370     1.5060 C.2   1 <1>   0.1390 
  4 C       -2.6840     1.4680     0.4220 C.ar  1 <1>  -0.0230 
  5 C       -1.0340    -0.3360     0.0650 C.2   1 <1>  -0.3020 
  6 C       -0.7850    -1.5370     0.6240 C.2   1 <1>  -0.1500 
  7 C       -3.3400     1.8840    -0.7450 C.ar  1 <1>  -0.1430 
  8 C       -2.4960     2.3760     1.4570 C.ar  1 <1>  -0.1500 
  9 C       -3.7480     3.2110    -0.8690 C.ar  1 <1>  -0.1440 
 10 C       -3.6280     0.8580    -1.8460 C.3   1 <1>   0.2540 
 11 C       -2.9210     3.6840     1.3460 C.ar  1 <1>  -0.1430 
 12 C       -3.5370     4.0950     0.1790 C.ar  1 <1>  -0.1500 
 13 C       -4.4170     3.7540    -2.1270 C.3   1 <1>  -0.0970 
 14 N       -4.5460    -0.1550    -1.3090 N.3   1 <1>  -0.8100 
 15 C       -2.6990     4.6710     2.4780 C.3   1 <1>  -0.0970 
 16 C       -4.6540    -1.3870    -2.0940 C.3   1 <1>   0.2900 
 17 C       -5.8380     0.3660    -0.8170 C.3   1 <1>   0.1100 
 18 C       -5.1570    -2.4460    -1.1390 C.2   1 <1>  -0.3320 
 19 C       -5.7790     0.4590     0.7180 C.3   1 <1>   0.3430 
 20 N       -4.5320    -2.7000     0.0240 N.pl3 1 <1>   0.0330 
 21 C       -6.2290    -3.2650    -1.1800 C.2   1 <1>   0.0770 
 22 N       -7.0970     0.1940     1.3850 N.4   1 <1>  -0.9590 
 23 C       -5.2730    -3.6510     0.6280 C.2   1 <1>   0.0060 
 24 N       -6.3120    -4.0030    -0.0560 N.2   1 <1>  -0.5650 
 25 C       -7.0030     0.5790     2.8230 C.3   1 <1>   0.2630 
 26 C       -7.4760    -1.2520     1.2610 C.3   1 <1>   0.2630 
 27 C       -4.9100    -4.2300     1.9780 C.3   1 <1>  -0.0600 
 28 H       -1.9360    -2.6080     2.1360 H     1 <1>   0.1500 
 29 H       -0.4660     0.2160    -0.6600 H     1 <1>   0.1500 
 30 H        0.0410    -2.2080     0.4550 H     1 <1>   0.1500 
 31 H       -2.0000     2.0500     2.3560 H     1 <1>   0.1500 
 32 H       -2.7030     0.3910    -2.1410 H     1 <1>   0.0800 
 33 H       -4.0590     1.3050    -2.7230 H     1 <1>   0.0800 
 34 H       -3.8490     5.1210     0.0890 H     1 <1>   0.1500 
 35 H       -5.3500     3.2540    -2.3080 H     1 <1>   0.0800 
 36 H       -3.7720     3.6150    -2.9760 H     1 <1>   0.0800 
 37 H       -4.6170     4.8070    -2.0370 H     1 <1>   0.0800 
 38 H       -2.5260     4.1570     3.4060 H     1 <1>   0.0800 
 39 H       -3.5600     5.3050     2.5960 H     1 <1>   0.0800 
 40 H       -1.8450     5.2860     2.2600 H     1 <1>   0.0800 
 41 H       -3.6860    -1.6770    -2.4680 H     1 <1>   0.0800 
 42 H       -5.3280    -1.2540    -2.9240 H     1 <1>   0.0800 
 43 H       -6.6330    -0.2910    -1.1180 H     1 <1>   0.0800 
 44 H       -6.0370     1.3370    -1.2340 H     1 <1>   0.0800 
 45 H       -5.4170     1.4390     0.9850 H     1 <1>   0.0800 
 46 H       -5.0610    -0.2620     1.0710 H     1 <1>   0.0800 
 47 H       -3.7020    -2.2110     0.3880 H     1 <1>   0.2700 
 48 H       -6.9640    -3.3610    -1.9640 H     1 <1>   0.1500 
 49 H       -7.8160     0.7730     0.9290 H     1 <1>   0.4500 
 50 H       -6.2420    -0.0060     3.3150 H     1 <1>   0.0800 
 51 H       -7.9450     0.4090     3.3190 H     1 <1>   0.0800 
 52 H       -6.7460     1.6220     2.9150 H     1 <1>   0.0800 
 53 H       -6.7320    -1.8760     1.7280 H     1 <1>   0.0800 
 54 H       -7.5500    -1.5420     0.2260 H     1 <1>   0.0800 
 55 H       -8.4260    -1.4370     1.7350 H     1 <1>   0.0800 
 56 H       -4.7870    -3.4460     2.7020 H     1 <1>   0.0800 
 57 H       -3.9950    -4.7880     1.9000 H     1 <1>   0.0800 
 58 H       -5.6880    -4.8940     2.3120 H     1 <1>   0.0800 
@<TRIPOS>BOND
  1   1   2  1   
  2   1   3  2   
  3   2   4  1   
  4   2   5  1   
  5   3   6  1   
  6   3  28  1   
  7   4   7  ar  
  8   4   8  ar  
  9   5   6  2   
 10   5  29  1   
 11   6  30  1   
 12   7   9  ar  
 13   7  10  1   
 14   8  11  ar  
 15   8  31  1   
 16   9  12  ar  
 17   9  13  1   
 18  10  14  1   
 19  10  32  1   
 20  10  33  1   
 21  11  12  ar  
 22  11  15  1   
 23  12  34  1   
 24  13  35  1   
 25  13  36  1   
 26  13  37  1   
 27  14  16  1   
 28  14  17  1   
 29  15  38  1   
 30  15  39  1   
 31  15  40  1   
 32  16  18  1   
 33  16  41  1   
 34  16  42  1   
 35  17  19  1   
 36  17  43  1   
 37  17  44  1   
 38  18  20  1   
 39  18  21  2   
 40  19  22  1   
 41  19  45  1   
 42  19  46  1   
 43  20  23  1   
 44  20  47  1   
 45  21  24  1   
 46  21  48  1   
 47  22  25  1   
 48  22  26  1   
 49  22  49  1   
 50  23  24  2   
 51  23  27  1   
 52  25  50  1   
 53  25  51  1   
 54  25  52  1   
 55  26  53  1   
 56  26  54  1   
 57  26  55  1   
 58  27  56  1   
 59  27  57  1   
 60  27  58  1   
@<TRIPOS>SUBSTRUCTURE
  1 ****  14 GROUP 4 **** **** 0

# MOE 2024.06 (io_trps.svl 2023.06)
