@<TRIPOS>MOLECULE
NONAME
55 58 1 0 0 
SMALL
USER_CHARGES


@<TRIPOS>ATOM
  1 S       -0.2780    -0.3680     1.4010 S.3   1 <1>  -0.0800 
  2 C       -0.0170    -1.7490     0.3620 C.2   1 <1>  -0.0450 
  3 C        0.8220     0.5660     0.4220 C.2   1 <1>   0.1980 
  4 C        0.8690    -1.3720    -0.5890 C.2   1 <1>   0.0460 
  5 C       -0.7280    -2.9660     0.6460 C.2   1 <1>   0.7150 
  6 N        1.3240    -0.0720    -0.5560 N.2   1 <1>  -0.5650 
  7 C        1.0620     2.0030     0.8200 C.3   1 <1>  -0.0600 
  8 C        1.4310    -2.2460    -1.6910 C.3   1 <1>  -0.0590 
  9 O       -0.6130    -3.5000     1.7340 O.2   1 <1>  -0.5700 
 10 N       -1.5670    -3.5400    -0.2860 N.am  1 <1>  -0.6600 
 11 C       -2.2530    -4.8380    -0.0040 C.3   1 <1>   0.1400 
 12 C       -2.1420    -2.7780    -1.4300 C.3   1 <1>   0.1400 
 13 C       -3.5940    -4.6370     0.7240 C.3   1 <1>   0.1400 
 14 C       -3.2070    -1.7730    -0.9660 C.3   1 <1>  -0.1600 
 15 N       -4.4950    -3.6860    -0.0060 N.am  1 <1>  -0.6600 
 16 C       -4.1230    -2.2550     0.1680 C.3   1 <1>   0.1400 
 17 C       -5.5560    -4.0340    -0.8050 C.2   1 <1>   0.5690 
 18 O       -6.1950    -3.2030    -1.4050 O.2   1 <1>  -0.5700 
 19 C       -5.9640    -5.4840    -0.9830 C.3   1 <1>  -0.0990 
 20 C       -6.8440    -5.9790     0.1760 C.3   1 <1>   0.0630 
 21 C       -7.0840    -7.4640     0.0350 C.ar  1 <1>  -0.1430 
 22 C       -8.2730    -5.3970     0.1290 C.3   1 <1>  -0.1600 
 23 C       -8.3670    -7.7250    -0.3810 C.ar  1 <1>  -0.1430 
 24 C       -6.1960    -8.4980     0.2710 C.ar  1 <1>  -0.1500 
 25 C       -9.1540    -6.4520    -0.5610 C.3   1 <1>  -0.0170 
 26 C       -8.7960    -9.0240    -0.5790 C.ar  1 <1>  -0.1500 
 27 C       -6.6170    -9.8040     0.0750 C.ar  1 <1>  -0.1500 
 28 C       -7.9120   -10.0660    -0.3500 C.ar  1 <1>  -0.1500 
 29 H        0.1380     2.5490     0.7910 H     1 <1>   0.0800 
 30 H        1.7590     2.4560     0.1380 H     1 <1>   0.0800 
 31 H        1.4690     2.0410     1.8130 H     1 <1>   0.0800 
 32 H        1.0460    -3.2470    -1.6240 H     1 <1>   0.0800 
 33 H        2.5020    -2.2810    -1.6080 H     1 <1>   0.0800 
 34 H        1.1730    -1.8320    -2.6480 H     1 <1>   0.0800 
 35 H       -1.6160    -5.4560     0.6050 H     1 <1>   0.0800 
 36 H       -2.4220    -5.3650    -0.9260 H     1 <1>   0.0800 
 37 H       -2.5980    -3.4700    -2.1180 H     1 <1>   0.0800 
 38 H       -1.3670    -2.2600    -1.9650 H     1 <1>   0.0800 
 39 H       -3.3970    -4.2540     1.7110 H     1 <1>   0.0800 
 40 H       -4.0680    -5.5910     0.8500 H     1 <1>   0.0800 
 41 H       -3.8200    -1.5180    -1.8120 H     1 <1>   0.0800 
 42 H       -2.7240    -0.8660    -0.6520 H     1 <1>   0.0800 
 43 H       -5.0130    -1.6490     0.1930 H     1 <1>   0.0800 
 44 H       -3.6200    -2.1290     1.1120 H     1 <1>   0.0800 
 45 H       -5.0870    -6.0950    -1.0720 H     1 <1>   0.0800 
 46 H       -6.5060    -5.5820    -1.9060 H     1 <1>   0.0800 
 47 H       -6.3840    -5.7640     1.1250 H     1 <1>   0.0800 
 48 H       -8.3260    -4.4460    -0.3710 H     1 <1>   0.0800 
 49 H       -8.6210    -5.2720     1.1390 H     1 <1>   0.0800 
 50 H       -5.1940    -8.2960     0.6020 H     1 <1>   0.1500 
 51 H       -9.2520    -6.2360    -1.6110 H     1 <1>   0.0800 
 52 H      -10.1260    -6.5160    -0.1060 H     1 <1>   0.0800 
 53 H       -9.8010    -9.2220    -0.9060 H     1 <1>   0.1500 
 54 H       -5.9370   -10.6190     0.2530 H     1 <1>   0.1500 
 55 H       -8.2320   -11.0820    -0.5000 H     1 <1>   0.1500 
@<TRIPOS>BOND
  1   1   2  1   
  2   1   3  1   
  3   2   4  2   
  4   2   5  1   
  5   3   6  2   
  6   3   7  1   
  7   4   6  1   
  8   4   8  1   
  9   5   9  2   
 10   5  10  am  
 11   7  29  1   
 12   7  30  1   
 13   7  31  1   
 14   8  32  1   
 15   8  33  1   
 16   8  34  1   
 17  10  11  1   
 18  10  12  1   
 19  11  13  1   
 20  11  35  1   
 21  11  36  1   
 22  12  14  1   
 23  12  37  1   
 24  12  38  1   
 25  13  15  1   
 26  13  39  1   
 27  13  40  1   
 28  14  16  1   
 29  14  41  1   
 30  14  42  1   
 31  15  16  1   
 32  15  17  am  
 33  16  43  1   
 34  16  44  1   
 35  17  18  2   
 36  17  19  1   
 37  19  20  1   
 38  19  45  1   
 39  19  46  1   
 40  20  21  1   
 41  20  22  1   
 42  20  47  1   
 43  21  23  ar  
 44  21  24  ar  
 45  22  25  1   
 46  22  48  1   
 47  22  49  1   
 48  23  25  1   
 49  23  26  ar  
 50  24  27  ar  
 51  24  50  1   
 52  25  51  1   
 53  25  52  1   
 54  26  28  ar  
 55  26  53  1   
 56  27  28  ar  
 57  27  54  1   
 58  28  55  1   
@<TRIPOS>SUBSTRUCTURE
  1 ****  15 GROUP 4 **** **** 0

# MOE 2024.06 (io_trps.svl 2023.06)
