@<TRIPOS>MOLECULE
NONAME
50 52 1 0 0 
SMALL
USER_CHARGES


@<TRIPOS>ATOM
  1 N       -0.5300    -0.1820     0.9920 N.ar  1 <1>  -0.6200 
  2 C        0.2570     0.2910     0.0370 C.ar  1 <1>   0.7710 
  3 C       -0.9810    -1.4180     0.8800 C.ar  1 <1>   0.4100 
  4 N        0.5850    -0.4390    -1.0420 N.ar  1 <1>  -0.1790 
  5 N        0.7470     1.5500     0.1460 N.pl3 1 <1>  -0.8380 
  6 N       -1.7460    -1.9150     1.8930 N.pl3 1 <1>  -0.8380 
  7 C       -0.6720    -2.2010    -0.2500 C.ar  1 <1>  -0.1500 
  8 C        0.1270    -1.6990    -1.2180 C.ar  1 <1>   0.2180 
  9 C        1.6880     2.2630    -0.7590 C.3   1 <1>   0.2090 
 10 C        0.4000     2.4180     1.3060 C.3   1 <1>   0.2090 
 11 C       -1.8860    -3.3730     2.1550 C.3   1 <1>   0.2090 
 12 C       -2.3380    -1.0420     2.9520 C.3   1 <1>   0.1290 
 13 C        0.5190    -2.4770    -2.4680 C.3   1 <1>  -0.0170 
 14 C        2.1360     3.4900     0.0240 C.3   1 <1>  -0.1600 
 15 C        0.9770     3.7860     0.9680 C.3   1 <1>  -0.1600 
 16 C       -3.2040    -3.8730     1.5530 C.3   1 <1>  -0.1600 
 17 C        2.0250    -2.7640    -2.5200 C.3   1 <1>  -0.2400 
 18 C       -3.2190    -5.3980     1.3580 C.3   1 <1>   0.0960 
 19 N       -2.4600    -5.8190     0.1560 N.pl3 1 <1>   0.3140 
 20 N       -1.1150    -5.7660     0.0760 N.2   1 <1>  -0.7070 
 21 C       -2.9900    -6.3360    -0.9710 C.2   1 <1>  -0.3020 
 22 C       -0.8270    -6.2700    -1.0860 C.2   1 <1>   0.1390 
 23 C       -1.9630    -6.6390    -1.7930 C.2   1 <1>  -0.1500 
 24 H        1.1900     0.0140    -1.7110 H     1 <1>   0.4570 
 25 H       -1.0800    -3.1880    -0.3340 H     1 <1>   0.1500 
 26 H        1.1650     2.5750    -1.6480 H     1 <1>   0.0800 
 27 H        2.5370     1.6520    -1.0180 H     1 <1>   0.0800 
 28 H        0.8650     2.0250     2.1960 H     1 <1>   0.0800 
 29 H       -0.6670     2.4690     1.4530 H     1 <1>   0.0800 
 30 H       -1.8710    -3.5580     3.2170 H     1 <1>   0.0800 
 31 H       -1.0410    -3.8940     1.7410 H     1 <1>   0.0800 
 32 H       -2.4790    -0.0390     2.5860 H     1 <1>   0.0800 
 33 H       -1.6820    -1.0120     3.8050 H     1 <1>   0.0800 
 34 H       -3.2960    -1.4240     3.2570 H     1 <1>   0.0800 
 35 H        0.2200    -1.9300    -3.3460 H     1 <1>   0.0800 
 36 H       -0.0100    -3.4150    -2.4810 H     1 <1>   0.0800 
 37 H        2.3590     4.3210    -0.6210 H     1 <1>   0.0800 
 38 H        3.0160     3.2440     0.5940 H     1 <1>   0.0800 
 39 H        1.2900     4.3150     1.8510 H     1 <1>   0.0800 
 40 H        0.2260     4.3670     0.4610 H     1 <1>   0.0800 
 41 H       -3.3910    -3.3970     0.6070 H     1 <1>   0.0800 
 42 H       -3.9990    -3.6020     2.2230 H     1 <1>   0.0800 
 43 H        2.6000    -1.8570    -2.5740 H     1 <1>   0.0800 
 44 H        2.2530    -3.3580    -3.3880 H     1 <1>   0.0800 
 45 H        2.3300    -3.3170    -1.6470 H     1 <1>   0.0800 
 46 H       -4.2330    -5.7320     1.2410 H     1 <1>   0.0800 
 47 H       -2.8000    -5.8930     2.2160 H     1 <1>   0.0800 
 48 H       -4.0460    -6.4670    -1.1220 H     1 <1>   0.1500 
 49 H        0.1800    -6.3870    -1.4500 H     1 <1>   0.1500 
 50 H       -1.9890    -7.0770    -2.7750 H     1 <1>   0.1500 
@<TRIPOS>BOND
  1   1   2  ar  
  2   1   3  ar  
  3   2   4  ar  
  4   2   5  1   
  5   3   6  1   
  6   3   7  ar  
  7   4   8  ar  
  8   4  24  1   
  9   5   9  1   
 10   5  10  1   
 11   6  11  1   
 12   6  12  1   
 13   7   8  ar  
 14   7  25  1   
 15   8  13  1   
 16   9  14  1   
 17   9  26  1   
 18   9  27  1   
 19  10  15  1   
 20  10  28  1   
 21  10  29  1   
 22  11  16  1   
 23  11  30  1   
 24  11  31  1   
 25  12  32  1   
 26  12  33  1   
 27  12  34  1   
 28  13  17  1   
 29  13  35  1   
 30  13  36  1   
 31  14  15  1   
 32  14  37  1   
 33  14  38  1   
 34  15  39  1   
 35  15  40  1   
 36  16  18  1   
 37  16  41  1   
 38  16  42  1   
 39  17  43  1   
 40  17  44  1   
 41  17  45  1   
 42  18  19  1   
 43  18  46  1   
 44  18  47  1   
 45  19  20  1   
 46  19  21  1   
 47  20  22  2   
 48  21  23  2   
 49  21  48  1   
 50  22  23  1   
 51  22  49  1   
 52  23  50  1   
@<TRIPOS>SUBSTRUCTURE
  1 ****   7 GROUP 4 **** **** 0

# MOE 2024.06 (io_trps.svl 2023.06)
