@<TRIPOS>MOLECULE
NONAME
56 58 1 0 0 
SMALL
USER_CHARGES


@<TRIPOS>ATOM
  1 O        0.2040     2.5100    -2.8450 O.2   1 <1>  -0.5700 
  2 C       -0.4110     3.4130    -2.3280 C.2   1 <1>   0.5690 
  3 N       -0.7790     3.4120    -1.0110 N.am  1 <1>  -0.6600 
  4 C       -0.8020     4.6180    -3.1770 C.3   1 <1>   0.1810 
  5 C       -1.6260     4.5420    -0.4920 C.3   1 <1>   0.3640 
  6 C       -0.2710     2.3780    -0.0680 C.3   1 <1>   0.2200 
  7 O       -0.6540     5.8070    -2.4460 O.3   1 <1>  -0.5600 
  8 C       -3.1150     4.1740    -0.4980 C.ar  1 <1>  -0.1440 
  9 C       -1.4390     5.8890    -1.2570 C.3   1 <1>   0.2610 
 10 C       -1.3950     1.7770     0.7770 C.3   1 <1>  -0.2400 
 11 C        0.8240     2.9810     0.8110 C.3   1 <1>  -0.2400 
 12 C       -3.9460     4.7870     0.4320 C.ar  1 <1>  -0.1500 
 13 C       -3.6730     3.2680    -1.3940 C.ar  1 <1>  -0.1500 
 14 C       -0.8490     6.9280    -0.2990 C.2   1 <1>   0.5690 
 15 C       -5.3000     4.5060     0.4660 C.ar  1 <1>  -0.1500 
 16 C       -5.0270     2.9860    -1.3610 C.ar  1 <1>  -0.1500 
 17 O       -1.4370     7.1840     0.7270 O.2   1 <1>  -0.5700 
 18 N        0.3310     7.5240    -0.6140 N.am  1 <1>  -0.7300 
 19 C       -5.8430     3.6050    -0.4320 C.ar  1 <1>  -0.1500 
 20 C        1.0960     8.4630     0.2400 C.3   1 <1>   0.1400 
 21 C        2.4410     7.8400     0.6810 C.3   1 <1>   0.0000 
 22 C        3.3910     8.9130     1.2960 C.3   1 <1>   0.0000 
 23 C        3.4600     7.7150    -0.4940 C.3   1 <1>   0.0000 
 24 C        2.2180     6.5560     1.5250 C.3   1 <1>  -0.1600 
 25 C        3.9770     9.1300    -0.1250 C.3   1 <1>   0.0000 
 26 C        3.4510     5.8950     2.1610 C.3   1 <1>  -0.2400 
 27 H       -1.8220     4.5320    -3.5030 H     1 <1>   0.0800 
 28 H       -0.1590     4.6760    -4.0360 H     1 <1>   0.0800 
 29 H       -1.3570     4.7040     0.5360 H     1 <1>   0.0800 
 30 H        0.1690     1.5750    -0.6370 H     1 <1>   0.0800 
 31 H       -2.4050     6.2570    -1.5520 H     1 <1>   0.0800 
 32 H       -1.8300     2.5080     1.4340 H     1 <1>   0.0800 
 33 H       -1.0030     0.9780     1.3800 H     1 <1>   0.0800 
 34 H       -2.1570     1.3690     0.1390 H     1 <1>   0.0800 
 35 H        0.4330     3.7380     1.4640 H     1 <1>   0.0800 
 36 H        1.5980     3.4010     0.1930 H     1 <1>   0.0800 
 37 H        1.2640     2.2100     1.4180 H     1 <1>   0.0800 
 38 H       -3.5430     5.4940     1.1390 H     1 <1>   0.1500 
 39 H       -3.0640     2.7650    -2.1230 H     1 <1>   0.1500 
 40 H       -5.9310     4.9890     1.1920 H     1 <1>   0.1500 
 41 H       -5.4470     2.2820    -2.0590 H     1 <1>   0.1500 
 42 H        0.7660     7.2470    -1.5010 H     1 <1>   0.3700 
 43 H       -6.8960     3.3860    -0.4060 H     1 <1>   0.1500 
 44 H        1.2580     9.3740    -0.3110 H     1 <1>   0.0800 
 45 H        0.5160     8.7110     1.1130 H     1 <1>   0.0800 
 46 H        2.8870     9.7790     1.6870 H     1 <1>   0.0000 
 47 H        4.1370     8.5290     1.9670 H     1 <1>   0.0000 
 48 H        4.2180     6.9670    -0.3480 H     1 <1>   0.0000 
 49 H        3.0140     7.6670    -1.4710 H     1 <1>   0.0000 
 50 H        1.5210     6.7860     2.3130 H     1 <1>   0.0800 
 51 H        1.7450     5.8240     0.8950 H     1 <1>   0.0800 
 52 H        5.0490     9.2160    -0.1410 H     1 <1>   0.0000 
 53 H        3.4790     9.9140    -0.6690 H     1 <1>   0.0000 
 54 H        3.9020     6.5370     2.8950 H     1 <1>   0.0800 
 55 H        4.1850     5.6340     1.4220 H     1 <1>   0.0800 
 56 H        3.1520     4.9900     2.6610 H     1 <1>   0.0800 
@<TRIPOS>BOND
  1   1   2  2   
  2   2   3  am  
  3   2   4  1   
  4   3   5  1   
  5   3   6  1   
  6   4   7  1   
  7   4  27  1   
  8   4  28  1   
  9   5   8  1   
 10   5   9  1   
 11   5  29  1   
 12   6  10  1   
 13   6  11  1   
 14   6  30  1   
 15   7   9  1   
 16   8  12  ar  
 17   8  13  ar  
 18   9  14  1   
 19   9  31  1   
 20  10  32  1   
 21  10  33  1   
 22  10  34  1   
 23  11  35  1   
 24  11  36  1   
 25  11  37  1   
 26  12  15  ar  
 27  12  38  1   
 28  13  16  ar  
 29  13  39  1   
 30  14  17  2   
 31  14  18  am  
 32  15  19  ar  
 33  15  40  1   
 34  16  19  ar  
 35  16  41  1   
 36  18  20  1   
 37  18  42  1   
 38  19  43  1   
 39  20  21  1   
 40  20  44  1   
 41  20  45  1   
 42  21  22  1   
 43  21  23  1   
 44  21  24  1   
 45  22  25  1   
 46  22  46  1   
 47  22  47  1   
 48  23  25  1   
 49  23  48  1   
 50  23  49  1   
 51  24  26  1   
 52  24  50  1   
 53  24  51  1   
 54  25  52  1   
 55  25  53  1   
 56  26  54  1   
 57  26  55  1   
 58  26  56  1   
@<TRIPOS>SUBSTRUCTURE
  1 ****   5 GROUP 4 **** **** 0

# MOE 2024.06 (io_trps.svl 2023.06)
