@<TRIPOS>MOLECULE
NONAME
46 49 1 0 0 
SMALL
USER_CHARGES


@<TRIPOS>ATOM
  1 O        0.3020     0.2470    -0.3100 O.3   1 <1>  -0.5600 
  2 C        0.2300     1.6200    -0.0420 C.3   1 <1>   0.2950 
  3 C        1.5700    -0.3070    -0.0880 C.3   1 <1>   0.2000 
  4 C       -1.2230     2.0560    -0.2540 C.3   1 <1>  -0.1950 
  5 C        1.2000     2.4040    -0.9520 C.3   1 <1>   0.2090 
  6 C        2.6210     0.3710    -1.0010 C.3   1 <1>   0.2090 
  7 C        1.4400    -1.8160    -0.3300 C.3   1 <1>  -0.1600 
  8 C       -1.7920     3.2330     0.4760 C.3   1 <1>  -0.2000 
  9 C       -2.2580     1.8420     0.8040 C.3   1 <1>  -0.2000 
 10 N        2.5890     1.8600    -0.8570 N.pl3 1 <1>  -0.8380 
 11 C        2.7170    -2.5950     0.0250 C.3   1 <1>  -0.1600 
 12 C        3.4920     2.5040    -0.0370 C.ar  1 <1>   0.4100 
 13 C        2.5040    -4.1050    -0.1400 C.3   1 <1>  -0.1600 
 14 N        3.9760     1.8460     0.9930 N.ar  1 <1>  -0.6200 
 15 C        3.8690     3.8340    -0.2760 C.ar  1 <1>   0.0000 
 16 C        3.7760    -4.8820     0.2090 C.3   1 <1>  -0.2400 
 17 C        4.8220     2.5200     1.7840 C.ar  1 <1>   0.4700 
 18 C        4.7420     4.4060     0.6230 C.ar  1 <1>   0.1050 
 19 C        3.5960     4.8270    -1.2460 C.2   1 <1>  -0.1500 
 20 N        5.2380     3.7580     1.6790 N.ar  1 <1>  -0.5670 
 21 N        4.9950     5.6900     0.2470 N.pl3 1 <1>   0.0330 
 22 C        4.2900     5.9400    -0.9000 C.2   1 <1>  -0.3020 
 23 H        0.5060     1.7740     0.9870 H     1 <1>   0.0800 
 24 H        1.8340    -0.1340     0.9420 H     1 <1>   0.0800 
 25 H       -1.5360     1.9170    -1.2750 H     1 <1>   0.1000 
 26 H        1.1860     3.4390    -0.6620 H     1 <1>   0.0800 
 27 H        0.8630     2.3390    -1.9710 H     1 <1>   0.0800 
 28 H        2.4200     0.1120    -2.0250 H     1 <1>   0.0800 
 29 H        3.6030     0.0060    -0.7590 H     1 <1>   0.0800 
 30 H        0.6320    -2.1820     0.2800 H     1 <1>   0.0800 
 31 H        1.1870    -1.9880    -1.3610 H     1 <1>   0.0800 
 32 H       -1.1900     3.7510     1.2020 H     1 <1>   0.1000 
 33 H       -2.4670     3.8900    -0.0450 H     1 <1>   0.1000 
 34 H       -3.2430     1.5310     0.4990 H     1 <1>   0.1000 
 35 H       -1.9550     1.3910     1.7340 H     1 <1>   0.1000 
 36 H        3.5270    -2.2860    -0.6140 H     1 <1>   0.0800 
 37 H        2.9940    -2.3840     1.0440 H     1 <1>   0.0800 
 38 H        1.7030    -4.4290     0.5030 H     1 <1>   0.0800 
 39 H        2.2230    -4.3220    -1.1570 H     1 <1>   0.0800 
 40 H        4.0620    -4.6960     1.2290 H     1 <1>   0.0800 
 41 H        4.5850    -4.5910    -0.4370 H     1 <1>   0.0800 
 42 H        3.6060    -5.9380     0.0890 H     1 <1>   0.0800 
 43 H        5.2050     1.9590     2.6200 H     1 <1>   0.1500 
 44 H        2.9510     4.6720    -2.0930 H     1 <1>   0.1500 
 45 H        5.6200     6.3220     0.7550 H     1 <1>   0.2700 
 46 H        4.3300     6.8930    -1.4000 H     1 <1>   0.1500 
@<TRIPOS>BOND
  1   1   2  1   
  2   1   3  1   
  3   2   4  1   
  4   2   5  1   
  5   2  23  1   
  6   3   6  1   
  7   3   7  1   
  8   3  24  1   
  9   4   8  1   
 10   4   9  1   
 11   4  25  1   
 12   5  10  1   
 13   5  26  1   
 14   5  27  1   
 15   6  10  1   
 16   6  28  1   
 17   6  29  1   
 18   7  11  1   
 19   7  30  1   
 20   7  31  1   
 21   8   9  1   
 22   8  32  1   
 23   8  33  1   
 24   9  34  1   
 25   9  35  1   
 26  10  12  1   
 27  11  13  1   
 28  11  36  1   
 29  11  37  1   
 30  12  14  ar  
 31  12  15  ar  
 32  13  16  1   
 33  13  38  1   
 34  13  39  1   
 35  14  17  ar  
 36  15  18  ar  
 37  15  19  1   
 38  16  40  1   
 39  16  41  1   
 40  16  42  1   
 41  17  20  ar  
 42  17  43  1   
 43  18  20  ar  
 44  18  21  1   
 45  19  22  2   
 46  19  44  1   
 47  21  22  1   
 48  21  45  1   
 49  22  46  1   
@<TRIPOS>SUBSTRUCTURE
  1 ****  10 GROUP 4 **** **** 0

# MOE 2024.06 (io_trps.svl 2023.06)
