@<TRIPOS>MOLECULE
NONAME
66 70 1 0 0 
SMALL
USER_CHARGES


@<TRIPOS>ATOM
  1 O       -0.7110     1.1850     2.0240 O.2   1 <1>  -0.5700 
  2 C       -1.5550     1.4070     1.1880 C.2   1 <1>   0.5690 
  3 N       -2.5460     0.5060     0.9560 N.am  1 <1>  -0.7300 
  4 C       -1.5070     2.6970     0.3540 C.3   1 <1>   0.0610 
  5 C       -2.6300    -0.8190     1.5950 C.3   1 <1>   0.2840 
  6 C       -0.7000     3.8390     1.0270 C.3   1 <1>   0.2200 
  7 C       -2.8980     3.3890     0.1880 C.3   1 <1>  -0.1600 
  8 C       -0.9240     2.3660    -1.0480 C.3   1 <1>  -0.0220 
  9 C       -2.8680    -1.8520     0.5140 C.ar  1 <1>  -0.1440 
 10 N       -1.2560     4.9950     0.3300 N.am  1 <1>  -0.6600 
 11 C       -1.1970     4.1740     2.4490 C.3   1 <1>  -0.1600 
 12 C       -2.6580     4.8290     0.6700 C.3   1 <1>   0.2200 
 13 C        0.3750     1.5680    -0.9990 C.2   1 <1>  -0.2880 
 14 C       -1.8310    -2.2070    -0.3360 C.ar  1 <1>   0.1600 
 15 C       -4.1010    -2.4520     0.3500 C.ar  1 <1>  -0.1500 
 16 C       -0.5700     5.9410    -0.3720 C.2   1 <1>   0.5690 
 17 C       -2.5650     4.8330     2.1970 C.3   1 <1>  -0.1600 
 18 C        0.7180     0.4860    -1.7090 C.2   1 <1>  -0.2760 
 19 N       -1.9240    -3.0970    -1.3130 N.ar  1 <1>  -0.6200 
 20 C       -4.2140    -3.3810    -0.6620 C.ar  1 <1>  -0.1500 
 21 O        0.6240     5.8510    -0.5280 O.2   1 <1>  -0.5700 
 22 C       -1.3230     7.1250    -0.9670 C.3   1 <1>  -0.0190 
 23 C        2.0670    -0.1850    -1.5130 C.3   1 <1>  -0.1020 
 24 C       -0.1110    -0.2140    -2.7800 C.3   1 <1>  -0.1020 
 25 C       -3.1120    -3.6620    -1.4510 C.ar  1 <1>   0.1600 
 26 C       -0.5890     7.8980    -2.0820 C.3   1 <1>  -0.0170 
 27 C       -1.7010     8.1850     0.0840 C.3   1 <1>  -0.0170 
 28 C       -1.1630     9.2870    -1.9500 C.ar  1 <1>  -0.1430 
 29 C       -1.7840     9.4480    -0.7350 C.ar  1 <1>  -0.1430 
 30 C       -1.1210    10.3220    -2.8650 C.ar  1 <1>  -0.1500 
 31 C       -2.3800    10.6500    -0.3990 C.ar  1 <1>  -0.1500 
 32 C       -1.7170    11.5300    -2.5390 C.ar  1 <1>  -0.1500 
 33 C       -2.3440    11.6930    -1.3110 C.ar  1 <1>  -0.1500 
 34 H       -3.1760     0.6340     0.1640 H     1 <1>   0.3700 
 35 H       -1.7170    -1.0440     2.1210 H     1 <1>   0.0800 
 36 H       -3.4390    -0.8220     2.3050 H     1 <1>   0.0800 
 37 H        0.3700     3.7510     0.9460 H     1 <1>   0.0800 
 38 H       -3.6690     2.9240     0.7750 H     1 <1>   0.0800 
 39 H       -3.2170     3.4070    -0.8380 H     1 <1>   0.0800 
 40 H       -1.6610     1.8170    -1.6000 H     1 <1>   0.0800 
 41 H       -0.7350     3.2730    -1.5930 H     1 <1>   0.0800 
 42 H       -1.2680     3.3200     3.0960 H     1 <1>   0.0800 
 43 H       -0.5190     4.8790     2.8990 H     1 <1>   0.0800 
 44 H       -3.3240     5.5660     0.2540 H     1 <1>   0.0800 
 45 H        1.0630     1.9880    -0.2850 H     1 <1>   0.1500 
 46 H       -0.8730    -1.7280    -0.2040 H     1 <1>   0.1500 
 47 H       -4.9400    -2.2130     0.9810 H     1 <1>   0.1500 
 48 H       -2.5710     5.8430     2.5670 H     1 <1>   0.0800 
 49 H       -3.3720     4.2870     2.6530 H     1 <1>   0.0800 
 50 H       -5.1460    -3.8860    -0.8400 H     1 <1>   0.1500 
 51 H       -2.2340     6.7590    -1.4030 H     1 <1>   0.0800 
 52 H        1.9320    -1.2080    -1.2080 H     1 <1>   0.0800 
 53 H        2.6400     0.3190    -0.7550 H     1 <1>   0.0800 
 54 H        2.6280    -0.1670    -2.4300 H     1 <1>   0.0800 
 55 H       -0.2120    -1.2580    -2.5490 H     1 <1>   0.0800 
 56 H        0.3810    -0.1280    -3.7320 H     1 <1>   0.0800 
 57 H       -1.0950     0.1990    -2.8780 H     1 <1>   0.0800 
 58 H       -3.2130    -4.3910    -2.2370 H     1 <1>   0.1500 
 59 H       -0.7780     7.4710    -3.0510 H     1 <1>   0.0800 
 60 H        0.4710     7.9430    -1.9030 H     1 <1>   0.0800 
 61 H       -0.9210     8.2860     0.8190 H     1 <1>   0.0800 
 62 H       -2.6340     7.9570     0.5660 H     1 <1>   0.0800 
 63 H       -0.6320    10.1910    -3.8140 H     1 <1>   0.1500 
 64 H       -2.8640    10.7730     0.5530 H     1 <1>   0.1500 
 65 H       -1.6920    12.3450    -3.2400 H     1 <1>   0.1500 
 66 H       -2.8030    12.6340    -1.0650 H     1 <1>   0.1500 
@<TRIPOS>BOND
  1   1   2  2   
  2   2   3  am  
  3   2   4  1   
  4   3   5  1   
  5   3  34  1   
  6   4   6  1   
  7   4   7  1   
  8   4   8  1   
  9   5   9  1   
 10   5  35  1   
 11   5  36  1   
 12   6  10  1   
 13   6  11  1   
 14   6  37  1   
 15   7  12  1   
 16   7  38  1   
 17   7  39  1   
 18   8  13  1   
 19   8  40  1   
 20   8  41  1   
 21   9  14  ar  
 22   9  15  ar  
 23  10  12  1   
 24  10  16  am  
 25  11  17  1   
 26  11  42  1   
 27  11  43  1   
 28  12  17  1   
 29  12  44  1   
 30  13  18  2   
 31  13  45  1   
 32  14  19  ar  
 33  14  46  1   
 34  15  20  ar  
 35  15  47  1   
 36  16  21  2   
 37  16  22  1   
 38  17  48  1   
 39  17  49  1   
 40  18  23  1   
 41  18  24  1   
 42  19  25  ar  
 43  20  25  ar  
 44  20  50  1   
 45  22  26  1   
 46  22  27  1   
 47  22  51  1   
 48  23  52  1   
 49  23  53  1   
 50  23  54  1   
 51  24  55  1   
 52  24  56  1   
 53  24  57  1   
 54  25  58  1   
 55  26  28  1   
 56  26  59  1   
 57  26  60  1   
 58  27  29  1   
 59  27  61  1   
 60  27  62  1   
 61  28  29  ar  
 62  28  30  ar  
 63  29  31  ar  
 64  30  32  ar  
 65  30  63  1   
 66  31  33  ar  
 67  31  64  1   
 68  32  33  ar  
 69  32  65  1   
 70  33  66  1   
@<TRIPOS>SUBSTRUCTURE
  1 ****   4 GROUP 4 **** **** 0

# MOE 2024.06 (io_trps.svl 2023.06)
