@<TRIPOS>MOLECULE
NONAME
52 54 1 0 0 
SMALL
USER_CHARGES


@<TRIPOS>ATOM
  1 S        0.0640    -0.1740    -0.5780 S.3   1 <1>  -0.0800 
  2 C       -0.6880     1.3240    -0.0530 C.2   1 <1>  -0.1400 
  3 C       -1.3910    -1.0920    -0.2420 C.2   1 <1>  -0.1400 
  4 C       -1.9590     1.0930     0.3280 C.2   1 <1>  -0.1500 
  5 C        0.1790     2.5740    -0.1090 C.3   1 <1>   0.3800 
  6 C       -2.3600    -0.2770     0.2230 C.2   1 <1>  -0.1500 
  7 C       -1.2780    -2.5750    -0.5200 C.3   1 <1>   0.5230 
  8 O        1.2270     2.4110     0.8000 O.3   1 <1>  -0.5600 
  9 C       -0.5940     3.8530     0.2510 C.3   1 <1>  -0.1600 
 10 N       -2.6000    -3.2260    -0.3480 N.4   1 <1>  -0.9590 
 11 C        2.1930     3.4170     0.7710 C.3   1 <1>   0.1200 
 12 C        0.3410     5.0690     0.2890 C.3   1 <1>  -0.1600 
 13 C       -2.4460    -4.6930    -0.1630 C.3   1 <1>   0.5230 
 14 C       -3.5310    -2.8450    -1.4670 C.3   1 <1>   0.3430 
 15 C        1.5550     4.7530     1.1700 C.3   1 <1>  -0.1600 
 16 C       -3.6210    -5.2060     0.6380 C.2   1 <1>  -0.1400 
 17 C       -5.0160    -3.0280    -1.1300 C.3   1 <1>   0.1200 
 18 S       -3.8900    -4.4430     2.2000 S.3   1 <1>  -0.0800 
 19 C       -4.5480    -6.1590     0.4090 C.2   1 <1>  -0.1810 
 20 O       -5.7390    -2.4250    -2.1480 O.3   1 <1>  -0.5600 
 21 C       -5.2870    -5.4560     2.5040 C.2   1 <1>  -0.1100 
 22 C       -5.4950    -6.2950     1.4750 C.2   1 <1>  -0.1500 
 23 C       -4.6710    -7.0570    -0.8110 C.3   1 <1>  -0.0590 
 24 C       -7.1220    -2.4970    -1.9860 C.3   1 <1>   0.0400 
 25 H       -2.6460     1.8370     0.6940 H     1 <1>   0.1500 
 26 H        0.6030     2.6640    -1.0950 H     1 <1>   0.0800 
 27 H       -3.3580    -0.5530     0.5160 H     1 <1>   0.1500 
 28 H       -0.5630    -2.9940     0.1700 H     1 <1>   0.0800 
 29 H       -0.9140    -2.7280    -1.5230 H     1 <1>   0.0800 
 30 H       -1.0510     3.7210     1.2160 H     1 <1>   0.0800 
 31 H       -1.3750     4.0160    -0.4700 H     1 <1>   0.0800 
 32 H       -2.9840    -2.8640     0.5350 H     1 <1>   0.4500 
 33 H        2.6140     3.4630    -0.2190 H     1 <1>   0.0800 
 34 H        2.9670     3.1460     1.4680 H     1 <1>   0.0800 
 35 H       -0.1820     5.9290     0.6710 H     1 <1>   0.0800 
 36 H        0.6740     5.2950    -0.7100 H     1 <1>   0.0800 
 37 H       -1.5450    -4.9040     0.3890 H     1 <1>   0.0800 
 38 H       -2.3920    -5.1930    -1.1160 H     1 <1>   0.0800 
 39 H       -3.2990    -3.4160    -2.3510 H     1 <1>   0.0800 
 40 H       -3.3890    -1.8020    -1.7010 H     1 <1>   0.0800 
 41 H        2.2830     5.5400     1.0870 H     1 <1>   0.0800 
 42 H        1.2510     4.6940     2.2010 H     1 <1>   0.0800 
 43 H       -5.2640    -2.5410    -0.2030 H     1 <1>   0.0800 
 44 H       -5.2870    -4.0670    -1.0990 H     1 <1>   0.0800 
 45 H       -5.8110    -5.3180     3.4350 H     1 <1>   0.1500 
 46 H       -6.2900    -7.0210     1.4240 H     1 <1>   0.1500 
 47 H       -3.9010    -6.8520    -1.5310 H     1 <1>   0.0800 
 48 H       -5.6280    -6.9090    -1.2800 H     1 <1>   0.0800 
 49 H       -4.5940    -8.0880    -0.5130 H     1 <1>   0.0800 
 50 H       -7.5840    -2.0050    -2.8250 H     1 <1>   0.0800 
 51 H       -7.4040    -1.9960    -1.0760 H     1 <1>   0.0800 
 52 H       -7.4280    -3.5290    -1.9620 H     1 <1>   0.0800 
@<TRIPOS>BOND
  1   1   2  1   
  2   1   3  1   
  3   2   4  2   
  4   2   5  1   
  5   3   6  2   
  6   3   7  1   
  7   4   6  1   
  8   4  25  1   
  9   5   8  1   
 10   5   9  1   
 11   5  26  1   
 12   6  27  1   
 13   7  10  1   
 14   7  28  1   
 15   7  29  1   
 16   8  11  1   
 17   9  12  1   
 18   9  30  1   
 19   9  31  1   
 20  10  13  1   
 21  10  14  1   
 22  10  32  1   
 23  11  15  1   
 24  11  33  1   
 25  11  34  1   
 26  12  15  1   
 27  12  35  1   
 28  12  36  1   
 29  13  16  1   
 30  13  37  1   
 31  13  38  1   
 32  14  17  1   
 33  14  39  1   
 34  14  40  1   
 35  15  41  1   
 36  15  42  1   
 37  16  18  1   
 38  16  19  2   
 39  17  20  1   
 40  17  43  1   
 41  17  44  1   
 42  18  21  1   
 43  19  22  1   
 44  19  23  1   
 45  20  24  1   
 46  21  22  2   
 47  21  45  1   
 48  22  46  1   
 49  23  47  1   
 50  23  48  1   
 51  23  49  1   
 52  24  50  1   
 53  24  51  1   
 54  24  52  1   
@<TRIPOS>SUBSTRUCTURE
  1 ****   3 GROUP 4 **** **** 0

# MOE 2024.06 (io_trps.svl 2023.06)
