@<TRIPOS>MOLECULE
NONAME
38 39 1 0 0 
SMALL
USER_CHARGES


@<TRIPOS>ATOM
  1 S        0.0340    -0.3120     0.7520 S.3   1 <1>  -0.0800 
  2 C       -1.3550    -0.9390    -0.0760 C.2   1 <1>   0.4420 
  3 C       -0.3640     1.2370     0.0940 C.2   1 <1>   0.1980 
  4 N       -1.9670    -0.0280    -0.7440 N.2   1 <1>  -0.3380 
  5 N       -1.6100    -2.2870     0.0640 N.am  1 <1>  -0.4940 
  6 N       -1.3980     1.2090    -0.6410 N.2   1 <1>  -0.3380 
  7 C        0.5080     2.4240     0.4360 C.3   1 <1>   0.0200 
  8 C       -2.7300    -2.9940    -0.3000 C.2   1 <1>   0.5440 
  9 C       -0.0970     3.6820    -0.2000 C.3   1 <1>   0.3430 
 10 O       -3.7590    -2.4130    -0.5630 O.2   1 <1>  -0.5700 
 11 C       -2.6940    -4.4390    -0.3180 C.ar  1 <1>   0.0860 
 12 N        0.6590     4.9350     0.1370 N.4   1 <1>  -0.9590 
 13 C       -1.5770    -5.1380    -0.7670 C.ar  1 <1>   0.1600 
 14 C       -3.7710    -5.2010     0.1100 C.ar  1 <1>  -0.1500 
 15 C       -0.1410     6.1280    -0.2850 C.3   1 <1>   0.2630 
 16 C        2.0150     4.9780    -0.5010 C.3   1 <1>   0.2630 
 17 N       -1.4440    -6.4520    -0.7890 N.ar  1 <1>  -0.6200 
 18 C       -3.6590    -6.5740     0.0840 C.ar  1 <1>  -0.1500 
 19 C       -2.4860    -7.1800    -0.3640 C.ar  1 <1>   0.1670 
 20 C       -2.3750    -8.7340    -0.3790 C.3   1 <1>   1.1630 
 21 F       -2.1590    -9.2260    -1.5950 F     1 <1>  -0.3400 
 22 F       -3.4760    -9.3410     0.0620 F     1 <1>  -0.3400 
 23 F       -1.3870    -9.1860     0.3890 F     1 <1>  -0.3400 
 24 H       -0.8930    -2.8090     0.5600 H     1 <1>   0.3700 
 25 H        1.4960     2.2410     0.0570 H     1 <1>   0.0800 
 26 H        0.5430     2.5290     1.5050 H     1 <1>   0.0800 
 27 H       -1.1140     3.7740     0.1470 H     1 <1>   0.0800 
 28 H       -0.1340     3.5520    -1.2700 H     1 <1>   0.0800 
 29 H        0.7730     4.9840     1.1620 H     1 <1>   0.4500 
 30 H       -0.7390    -4.5720    -1.1380 H     1 <1>   0.1500 
 31 H       -4.6740    -4.7190     0.4500 H     1 <1>   0.1500 
 32 H       -0.2920     6.1200    -1.3530 H     1 <1>   0.0800 
 33 H        0.3720     7.0380    -0.0160 H     1 <1>   0.0800 
 34 H       -1.1050     6.1230     0.1980 H     1 <1>   0.0800 
 35 H        1.9260     4.9150    -1.5740 H     1 <1>   0.0800 
 36 H        2.6230     4.1580    -0.1560 H     1 <1>   0.0800 
 37 H        2.5150     5.9000    -0.2530 H     1 <1>   0.0800 
 38 H       -4.4950    -7.1650     0.4180 H     1 <1>   0.1500 
@<TRIPOS>BOND
  1   1   2  1   
  2   1   3  1   
  3   2   4  2   
  4   2   5  1   
  5   3   6  2   
  6   3   7  1   
  7   4   6  1   
  8   5   8  am  
  9   5  24  1   
 10   7   9  1   
 11   7  25  1   
 12   7  26  1   
 13   8  10  2   
 14   8  11  1   
 15   9  12  1   
 16   9  27  1   
 17   9  28  1   
 18  11  13  ar  
 19  11  14  ar  
 20  12  15  1   
 21  12  16  1   
 22  12  29  1   
 23  13  17  ar  
 24  13  30  1   
 25  14  18  ar  
 26  14  31  1   
 27  15  32  1   
 28  15  33  1   
 29  15  34  1   
 30  16  35  1   
 31  16  36  1   
 32  16  37  1   
 33  17  19  ar  
 34  18  19  ar  
 35  18  38  1   
 36  19  20  1   
 37  20  21  1   
 38  20  22  1   
 39  20  23  1   
@<TRIPOS>SUBSTRUCTURE
  1 ****   5 GROUP 4 **** **** 0

# MOE 2024.06 (io_trps.svl 2023.06)
