@<TRIPOS>MOLECULE
NONAME
51 55 1 0 0 
SMALL
USER_CHARGES


@<TRIPOS>ATOM
  1 O       -1.5280    -0.0780    -0.1330 O.3   1 <1>  -0.2800 
  2 C       -2.1290     0.3440     0.9920 C.ar  1 <1>   0.1400 
  3 C       -0.8550     0.9730    -0.6280 C.ar  1 <1>   0.1400 
  4 C       -2.9400    -0.4130     1.8270 C.ar  1 <1>  -0.1440 
  5 C       -1.8630     1.6780     1.2320 C.ar  1 <1>   0.0000 
  6 C       -1.0220     2.0920     0.1680 C.ar  1 <1>   0.0000 
  7 C       -0.0800     0.9990    -1.7770 C.ar  1 <1>  -0.1500 
  8 C       -3.4880     0.2100     2.9360 C.ar  1 <1>  -0.1500 
  9 C       -3.2050    -1.8690     1.5010 C.3   1 <1>   0.4870 
 10 C       -2.4180     2.2950     2.3480 C.ar  1 <1>  -0.1500 
 11 C       -0.4000     3.2850    -0.1870 C.ar  1 <1>  -0.1500 
 12 C        0.5350     2.1880    -2.1250 C.ar  1 <1>  -0.1500 
 13 C       -3.2270     1.5560     3.1920 C.ar  1 <1>  -0.1500 
 14 N       -3.7210    -1.9740     0.1080 N.4   1 <1>  -0.9590 
 15 C        0.3750     3.3250    -1.3330 C.ar  1 <1>  -0.1500 
 16 C       -4.9890    -1.2040    -0.0630 C.3   1 <1>   0.4230 
 17 C       -3.7460    -3.3970    -0.3540 C.3   1 <1>   0.2630 
 18 C       -6.2060    -1.8220     0.6220 C.3   1 <1>  -0.1600 
 19 C       -5.4070    -1.0520    -1.5200 C.3   1 <1>  -0.1600 
 20 C       -7.4000    -1.1610    -0.0770 C.3   1 <1>  -0.0800 
 21 C       -6.8920    -0.6740    -1.4460 C.3   1 <1>  -0.0800 
 22 C       -7.9270     0.0820     0.6560 C.3   1 <1>  -0.1600 
 23 C       -7.1450     0.8410    -1.4890 C.3   1 <1>  -0.1600 
 24 C       -8.2340     1.0740    -0.4540 C.3   1 <1>   0.2000 
 25 O       -8.1730     2.3630     0.0260 O.3   1 <1>  -0.6800 
 26 H        0.0360     0.1140    -2.3760 H     1 <1>   0.1500 
 27 H       -4.1220    -0.3300     3.6210 H     1 <1>   0.1500 
 28 H       -3.9190    -2.2790     2.1960 H     1 <1>   0.0800 
 29 H       -2.2820    -2.4190     1.5930 H     1 <1>   0.0800 
 30 H       -2.2130     3.3330     2.5430 H     1 <1>   0.1500 
 31 H       -0.5240     4.1600     0.4270 H     1 <1>   0.1500 
 32 H        1.1440     2.2420    -3.0120 H     1 <1>   0.1500 
 33 H       -3.6590     2.0250     4.0610 H     1 <1>   0.1500 
 34 H       -3.0160    -1.4650    -0.4530 H     1 <1>   0.4500 
 35 H        0.8630     4.2400    -1.6200 H     1 <1>   0.1500 
 36 H       -4.8610    -0.2090     0.3330 H     1 <1>   0.0800 
 37 H       -4.4440    -3.9730     0.2310 H     1 <1>   0.0800 
 38 H       -2.7670    -3.8390    -0.2520 H     1 <1>   0.0800 
 39 H       -4.0340    -3.4530    -1.3900 H     1 <1>   0.0800 
 40 H       -6.2580    -2.8790     0.4370 H     1 <1>   0.0800 
 41 H       -6.2120    -1.6410     1.6820 H     1 <1>   0.0800 
 42 H       -4.8240    -0.3040    -2.0290 H     1 <1>   0.0800 
 43 H       -5.3270    -1.9840    -2.0470 H     1 <1>   0.0800 
 44 H       -8.2060    -1.8660    -0.2090 H     1 <1>   0.0800 
 45 H       -7.4470    -1.1510    -2.2390 H     1 <1>   0.0800 
 46 H       -7.1720     0.4890     1.3050 H     1 <1>   0.0800 
 47 H       -8.8110    -0.1430     1.2270 H     1 <1>   0.0800 
 48 H       -7.4670     1.1590    -2.4650 H     1 <1>   0.0800 
 49 H       -6.2570     1.3820    -1.2100 H     1 <1>   0.0800 
 50 H       -9.2130     0.9010    -0.8710 H     1 <1>   0.0800 
 51 H       -7.2840     2.5630     0.3690 H     1 <1>   0.4000 
@<TRIPOS>BOND
  1   1   2  1   
  2   1   3  1   
  3   2   4  ar  
  4   2   5  ar  
  5   3   6  ar  
  6   3   7  ar  
  7   4   8  ar  
  8   4   9  1   
  9   5   6  1   
 10   5  10  ar  
 11   6  11  ar  
 12   7  12  ar  
 13   7  26  1   
 14   8  13  ar  
 15   8  27  1   
 16   9  14  1   
 17   9  28  1   
 18   9  29  1   
 19  10  13  ar  
 20  10  30  1   
 21  11  15  ar  
 22  11  31  1   
 23  12  15  ar  
 24  12  32  1   
 25  13  33  1   
 26  14  16  1   
 27  14  17  1   
 28  14  34  1   
 29  15  35  1   
 30  16  18  1   
 31  16  19  1   
 32  16  36  1   
 33  17  37  1   
 34  17  38  1   
 35  17  39  1   
 36  18  20  1   
 37  18  40  1   
 38  18  41  1   
 39  19  21  1   
 40  19  42  1   
 41  19  43  1   
 42  20  21  1   
 43  20  22  1   
 44  20  44  1   
 45  21  23  1   
 46  21  45  1   
 47  22  24  1   
 48  22  46  1   
 49  22  47  1   
 50  23  24  1   
 51  23  48  1   
 52  23  49  1   
 53  24  25  1   
 54  24  50  1   
 55  25  51  1   
@<TRIPOS>SUBSTRUCTURE
  1 ****   2 GROUP 4 **** **** 0

# MOE 2024.06 (io_trps.svl 2023.06)
