@<TRIPOS>MOLECULE
NONAME
45 46 1 0 0 
SMALL
USER_CHARGES


@<TRIPOS>ATOM
  1 O       -1.7220     1.0130    -2.2290 O.2   1 <1>  -0.5700 
  2 C       -2.0330     0.9380    -1.0660 C.2   1 <1>   0.5690 
  3 N       -2.4560    -0.2280    -0.5220 N.am  1 <1>  -0.7300 
  4 C       -1.9570     2.1740    -0.1700 C.3   1 <1>  -0.0190 
  5 C       -2.6810    -1.4710    -1.2800 C.3   1 <1>   0.2840 
  6 C       -2.4380     3.4530    -0.8870 C.3   1 <1>  -0.1600 
  7 C       -0.5300     2.3680     0.3940 C.3   1 <1>  -0.1600 
  8 C       -3.9610    -2.0990    -0.7700 C.ar  1 <1>  -0.1440 
  9 C       -2.5070     4.6640     0.0680 C.3   1 <1>   0.2000 
 10 C       -0.2510     3.8000     0.8970 C.3   1 <1>  -0.1600 
 11 C       -5.1840    -1.5560    -1.1250 C.ar  1 <1>   0.1600 
 12 C       -3.9410    -3.2020     0.0570 C.ar  1 <1>  -0.1500 
 13 O       -2.1780     5.8240    -0.6570 O.3   1 <1>  -0.5600 
 14 C       -1.5420     4.5300     1.2760 C.3   1 <1>   0.2000 
 15 N       -6.3560    -2.0150    -0.7270 N.ar  1 <1>  -0.6200 
 16 C       -5.1540    -3.7030     0.4860 C.ar  1 <1>  -0.1430 
 17 C       -3.1890     6.3190    -1.4790 C.3   1 <1>   0.0400 
 18 O       -1.2060     5.7880     1.7310 O.3   1 <1>  -0.6800 
 19 C       -6.3260    -3.0770     0.0620 C.ar  1 <1>   0.1670 
 20 C       -5.1660    -4.9180     1.4050 C.3   1 <1>  -0.0970 
 21 C       -7.6890    -3.5840     0.4960 C.3   1 <1>  -0.0970 
 22 H       -2.7390    -0.2760     0.4570 H     1 <1>   0.3700 
 23 H       -2.6240     2.0070     0.6570 H     1 <1>   0.0800 
 24 H       -2.7650    -1.2580    -2.3340 H     1 <1>   0.0800 
 25 H       -1.8470    -2.1360    -1.1330 H     1 <1>   0.0800 
 26 H       -3.4100     3.2800    -1.3140 H     1 <1>   0.0800 
 27 H       -1.7520     3.6660    -1.6890 H     1 <1>   0.0800 
 28 H       -0.3810     1.6690     1.1990 H     1 <1>   0.0800 
 29 H        0.1920     2.1340    -0.3700 H     1 <1>   0.0800 
 30 H       -3.5050     4.7740     0.4570 H     1 <1>   0.0800 
 31 H        0.2320     4.3550     0.1100 H     1 <1>   0.0800 
 32 H        0.4140     3.7650     1.7420 H     1 <1>   0.0800 
 33 H       -5.1980    -0.6930    -1.7690 H     1 <1>   0.1500 
 34 H       -3.0130    -3.6560     0.3580 H     1 <1>   0.1500 
 35 H       -2.0240     4.0070     2.0840 H     1 <1>   0.0800 
 36 H       -2.8260     7.2150    -1.9520 H     1 <1>   0.0800 
 37 H       -4.0530     6.5520    -0.8810 H     1 <1>   0.0800 
 38 H       -3.4320     5.5900    -2.2320 H     1 <1>   0.0800 
 39 H       -1.2110     6.3690     0.9370 H     1 <1>   0.4000 
 40 H       -4.1730    -5.1580     1.7400 H     1 <1>   0.0800 
 41 H       -5.5620    -5.7700     0.8820 H     1 <1>   0.0800 
 42 H       -5.7720    -4.7240     2.2710 H     1 <1>   0.0800 
 43 H       -7.7300    -4.6560     0.4530 H     1 <1>   0.0800 
 44 H       -8.4530    -3.1940    -0.1530 H     1 <1>   0.0800 
 45 H       -7.8920    -3.2570     1.4990 H     1 <1>   0.0800 
@<TRIPOS>BOND
  1   1   2  2   
  2   2   3  am  
  3   2   4  1   
  4   3   5  1   
  5   3  22  1   
  6   4   6  1   
  7   4   7  1   
  8   4  23  1   
  9   5   8  1   
 10   5  24  1   
 11   5  25  1   
 12   6   9  1   
 13   6  26  1   
 14   6  27  1   
 15   7  10  1   
 16   7  28  1   
 17   7  29  1   
 18   8  11  ar  
 19   8  12  ar  
 20   9  13  1   
 21   9  14  1   
 22   9  30  1   
 23  10  14  1   
 24  10  31  1   
 25  10  32  1   
 26  11  15  ar  
 27  11  33  1   
 28  12  16  ar  
 29  12  34  1   
 30  13  17  1   
 31  14  18  1   
 32  14  35  1   
 33  15  19  ar  
 34  16  19  ar  
 35  16  20  1   
 36  17  36  1   
 37  17  37  1   
 38  17  38  1   
 39  18  39  1   
 40  19  21  1   
 41  20  40  1   
 42  20  41  1   
 43  20  42  1   
 44  21  43  1   
 45  21  44  1   
 46  21  45  1   
@<TRIPOS>SUBSTRUCTURE
  1 ****   3 GROUP 4 **** **** 0

# MOE 2024.06 (io_trps.svl 2023.06)
