@<TRIPOS>MOLECULE
NONAME
49 51 1 0 0 
SMALL
USER_CHARGES


@<TRIPOS>ATOM
  1 O       -0.6650     0.3110     1.3380 O.2   1 <1>  -0.5700 
  2 C       -1.4690     0.8780     0.6370 C.2   1 <1>   0.5690 
  3 N       -2.4590     0.1860     0.0000 N.am  1 <1>  -0.6600 
  4 C       -1.3810     2.3870     0.4700 C.3   1 <1>  -0.0990 
  5 C       -3.6090     0.7550    -0.7510 C.3   1 <1>   0.1400 
  6 C       -2.5940    -1.2880     0.1030 C.3   1 <1>   0.1400 
  7 C       -0.0490     2.9850     0.9450 C.3   1 <1>  -0.0160 
  8 C       -4.6850    -0.3250    -0.6550 C.3   1 <1>   0.2000 
  9 C       -3.8840    -1.6320    -0.6520 C.3   1 <1>  -0.0800 
 10 C       -0.0260     4.4850     0.6960 C.ar  1 <1>  -0.1440 
 11 O       -5.3340    -0.1760     0.5610 O.3   1 <1>  -0.6800 
 12 C       -4.6250    -2.8600    -0.0920 C.3   1 <1>  -0.0170 
 13 C        0.4950     4.9930    -0.4840 C.ar  1 <1>  -0.1500 
 14 C       -0.5320     5.3590     1.6460 C.ar  1 <1>  -0.1500 
 15 C       -3.7740    -4.1140    -0.2200 C.ar  1 <1>  -0.1440 
 16 C        0.5130     6.3580    -0.7160 C.ar  1 <1>  -0.1500 
 17 C       -0.5160     6.7230     1.4170 C.ar  1 <1>  -0.1500 
 18 C       -3.7240    -4.8400    -1.3930 C.ar  1 <1>  -0.1500 
 19 C       -3.0080    -4.5910     0.8240 C.ar  1 <1>  -0.1500 
 20 C        0.0040     7.2340     0.2390 C.ar  1 <1>   0.0820 
 21 C       -2.9300    -5.9730    -1.4640 C.ar  1 <1>   0.1600 
 22 C       -2.2470    -5.7350     0.6490 C.ar  1 <1>   0.1600 
 23 O       -0.0180     8.5820     0.0940 O.3   1 <1>  -0.3630 
 24 N       -2.1890    -6.4370    -0.4710 N.ar  1 <1>  -0.6200 
 25 C        0.5130     9.2040    -1.0540 C.3   1 <1>   0.0400 
 26 H       -1.5110     2.6270    -0.5690 H     1 <1>   0.0800 
 27 H       -2.1840     2.8370     1.0230 H     1 <1>   0.0800 
 28 H       -3.9480     1.6890    -0.3370 H     1 <1>   0.0800 
 29 H       -3.3200     0.8950    -1.7780 H     1 <1>   0.0800 
 30 H       -1.7390    -1.7800    -0.3320 H     1 <1>   0.0800 
 31 H       -2.6670    -1.5600     1.1420 H     1 <1>   0.0800 
 32 H        0.7660     2.5150     0.4230 H     1 <1>   0.0800 
 33 H        0.0840     2.7900     1.9960 H     1 <1>   0.0800 
 34 H       -5.4150    -0.2690    -1.4440 H     1 <1>   0.0800 
 35 H       -3.6080    -1.8440    -1.6710 H     1 <1>   0.0800 
 36 H       -4.6610    -0.1030     1.2680 H     1 <1>   0.4000 
 37 H       -5.5460    -2.9980    -0.6320 H     1 <1>   0.0800 
 38 H       -4.8810    -2.7060     0.9420 H     1 <1>   0.0800 
 39 H        0.8920     4.3250    -1.2280 H     1 <1>   0.1500 
 40 H       -0.9390     4.9810     2.5680 H     1 <1>   0.1500 
 41 H        0.9240     6.7180    -1.6380 H     1 <1>   0.1500 
 42 H       -0.9070     7.4030     2.1520 H     1 <1>   0.1500 
 43 H       -4.2930    -4.5370    -2.2520 H     1 <1>   0.1500 
 44 H       -2.9940    -4.0860     1.7730 H     1 <1>   0.1500 
 45 H       -2.9030    -6.5270    -2.3870 H     1 <1>   0.1500 
 46 H       -1.6550    -6.0910     1.4740 H     1 <1>   0.1500 
 47 H        0.3960    10.2670    -0.9420 H     1 <1>   0.0800 
 48 H       -0.0300     8.8650    -1.9180 H     1 <1>   0.0800 
 49 H        1.5570     8.9580    -1.1320 H     1 <1>   0.0800 
@<TRIPOS>BOND
  1   1   2  2   
  2   2   3  am  
  3   2   4  1   
  4   3   5  1   
  5   3   6  1   
  6   4   7  1   
  7   4  26  1   
  8   4  27  1   
  9   5   8  1   
 10   5  28  1   
 11   5  29  1   
 12   6   9  1   
 13   6  30  1   
 14   6  31  1   
 15   7  10  1   
 16   7  32  1   
 17   7  33  1   
 18   8   9  1   
 19   8  11  1   
 20   8  34  1   
 21   9  12  1   
 22   9  35  1   
 23  10  13  ar  
 24  10  14  ar  
 25  11  36  1   
 26  12  15  1   
 27  12  37  1   
 28  12  38  1   
 29  13  16  ar  
 30  13  39  1   
 31  14  17  ar  
 32  14  40  1   
 33  15  18  ar  
 34  15  19  ar  
 35  16  20  ar  
 36  16  41  1   
 37  17  20  ar  
 38  17  42  1   
 39  18  21  ar  
 40  18  43  1   
 41  19  22  ar  
 42  19  44  1   
 43  20  23  1   
 44  21  24  ar  
 45  21  45  1   
 46  22  24  ar  
 47  22  46  1   
 48  23  25  1   
 49  25  47  1   
 50  25  48  1   
 51  25  49  1   
@<TRIPOS>SUBSTRUCTURE
  1 ****   2 GROUP 4 **** **** 0

# MOE 2024.06 (io_trps.svl 2023.06)
