@<TRIPOS>MOLECULE
NONAME
54 56 1 0 0 
SMALL
USER_CHARGES


@<TRIPOS>ATOM
  1 O        0.2380     1.5200     1.7630 O.2   1 <1>  -0.5700 
  2 C        0.2020     1.9980     0.6440 C.2   1 <1>   0.6900 
  3 N       -0.9160     2.6590     0.2060 N.am  1 <1>  -0.6600 
  4 N        1.2590     1.8660    -0.2060 N.am  1 <1>  -0.5470 
  5 C       -2.1830     2.5670     0.9990 C.3   1 <1>   0.1400 
  6 C       -0.9100     3.5870    -0.9630 C.3   1 <1>   0.1400 
  7 C        2.4820     1.2220     0.0190 C.ar  1 <1>   0.1170 
  8 C       -3.4420     2.7760     0.1240 C.3   1 <1>   0.0000 
  9 C       -1.9420     4.7010    -0.7730 C.3   1 <1>  -0.1600 
 10 C        3.4790     1.8060     0.8080 C.ar  1 <1>  -0.1430 
 11 C        2.7220    -0.0140    -0.5880 C.ar  1 <1>  -0.1430 
 12 C       -4.7000     2.6090     1.0020 C.3   1 <1>   0.2000 
 13 C       -3.3720     4.1660    -0.5680 C.3   1 <1>  -0.1600 
 14 C       -3.5940     1.6130    -0.8790 C.3   1 <1>  -0.1600 
 15 C        4.6920     1.1570     0.9700 C.ar  1 <1>  -0.1500 
 16 C        3.2840     3.1530     1.5020 C.3   1 <1>  -0.0170 
 17 C        3.9420    -0.6450    -0.4130 C.ar  1 <1>  -0.1500 
 18 C        1.6540    -0.6950    -1.4360 C.3   1 <1>  -0.0970 
 19 O       -5.8070     3.1480     0.3360 O.3   1 <1>  -0.5600 
 20 C       -4.9050     1.0940     1.1280 C.3   1 <1>  -0.1600 
 21 C       -4.2370     0.4610    -0.0990 C.3   1 <1>  -0.1600 
 22 C        4.9260    -0.0620     0.3630 C.ar  1 <1>  -0.1500 
 23 C        3.5450     4.3110     0.5350 C.3   1 <1>  -0.2400 
 24 C       -6.8610     3.5360     1.1590 C.3   1 <1>   0.0400 
 25 H        1.0120     2.0060    -1.1760 H     1 <1>   0.3700 
 26 H       -2.2240     1.6060     1.4830 H     1 <1>   0.0800 
 27 H       -2.1540     3.3170     1.7700 H     1 <1>   0.0800 
 28 H        0.0660     4.0290    -1.0720 H     1 <1>   0.0800 
 29 H       -1.1390     3.0330    -1.8560 H     1 <1>   0.0800 
 30 H       -1.6500     5.2810     0.0860 H     1 <1>   0.0800 
 31 H       -1.9240     5.3590    -1.6240 H     1 <1>   0.0800 
 32 H       -4.5870     3.0970     1.9560 H     1 <1>   0.0800 
 33 H       -3.8800     4.1210    -1.5150 H     1 <1>   0.0800 
 34 H       -3.9020     4.8890     0.0280 H     1 <1>   0.0800 
 35 H       -4.2740     1.9030    -1.6620 H     1 <1>   0.0800 
 36 H       -2.6650     1.3130    -1.3290 H     1 <1>   0.0800 
 37 H        5.4650     1.5990     1.5720 H     1 <1>   0.1500 
 38 H        2.2900     3.2270     1.9030 H     1 <1>   0.0800 
 39 H        3.9600     3.2300     2.3350 H     1 <1>   0.0800 
 40 H        4.1350    -1.5960    -0.8750 H     1 <1>   0.1500 
 41 H        1.9710    -1.6750    -1.7420 H     1 <1>   0.0800 
 42 H        1.4520    -0.1110    -2.3150 H     1 <1>   0.0800 
 43 H        0.7480    -0.7980    -0.8650 H     1 <1>   0.0800 
 44 H       -4.4100     0.7430     2.0160 H     1 <1>   0.0800 
 45 H       -5.9460     0.8310     1.1900 H     1 <1>   0.0800 
 46 H       -3.4820    -0.2400     0.2150 H     1 <1>   0.0800 
 47 H       -4.9580    -0.0520    -0.7120 H     1 <1>   0.0800 
 48 H        5.8720    -0.5580     0.4960 H     1 <1>   0.1500 
 49 H        2.8510     4.2720    -0.2850 H     1 <1>   0.0800 
 50 H        4.5450     4.2490     0.1450 H     1 <1>   0.0800 
 51 H        3.4270     5.2500     1.0450 H     1 <1>   0.0800 
 52 H       -7.6560     3.9010     0.5330 H     1 <1>   0.0800 
 53 H       -6.5270     4.3220     1.8150 H     1 <1>   0.0800 
 54 H       -7.2060     2.6900     1.7270 H     1 <1>   0.0800 
@<TRIPOS>BOND
  1   1   2  2   
  2   2   3  am  
  3   2   4  am  
  4   3   5  1   
  5   3   6  1   
  6   4   7  1   
  7   4  25  1   
  8   5   8  1   
  9   5  26  1   
 10   5  27  1   
 11   6   9  1   
 12   6  28  1   
 13   6  29  1   
 14   7  10  ar  
 15   7  11  ar  
 16   8  12  1   
 17   8  13  1   
 18   8  14  1   
 19   9  13  1   
 20   9  30  1   
 21   9  31  1   
 22  10  15  ar  
 23  10  16  1   
 24  11  17  ar  
 25  11  18  1   
 26  12  19  1   
 27  12  20  1   
 28  12  32  1   
 29  13  33  1   
 30  13  34  1   
 31  14  21  1   
 32  14  35  1   
 33  14  36  1   
 34  15  22  ar  
 35  15  37  1   
 36  16  23  1   
 37  16  38  1   
 38  16  39  1   
 39  17  22  ar  
 40  17  40  1   
 41  18  41  1   
 42  18  42  1   
 43  18  43  1   
 44  19  24  1   
 45  20  21  1   
 46  20  44  1   
 47  20  45  1   
 48  21  46  1   
 49  21  47  1   
 50  22  48  1   
 51  23  49  1   
 52  23  50  1   
 53  23  51  1   
 54  24  52  1   
 55  24  53  1   
 56  24  54  1   
@<TRIPOS>SUBSTRUCTURE
  1 ****   2 GROUP 4 **** **** 0

# MOE 2024.06 (io_trps.svl 2023.06)
