@<TRIPOS>MOLECULE
NONAME
44 45 1 0 0 
SMALL
USER_CHARGES


@<TRIPOS>ATOM
  1 S       -0.1720    -0.5880     0.4980 S.3   1 <1>  -0.3320 
  2 C       -0.4180     1.1920     0.6250 C.ar  1 <1>   0.1020 
  3 C       -1.7100    -1.3770     1.1830 C.3   1 <1>   0.1310 
  4 C        0.4800     2.0020    -0.0440 C.ar  1 <1>  -0.1500 
  5 C       -1.4600     1.7390     1.3590 C.ar  1 <1>  -0.1500 
  6 C       -1.7260    -2.8790     0.9310 C.2   1 <1>   0.5690 
  7 C        0.3390     3.3790     0.0050 C.ar  1 <1>   0.0830 
  8 C       -1.6020     3.1160     1.4080 C.ar  1 <1>  -0.1500 
  9 O       -1.3920    -3.5910     1.8500 O.2   1 <1>  -0.5700 
 10 N       -2.1430    -3.4000    -0.2720 N.am  1 <1>  -0.6600 
 11 O        1.2540     4.1110    -0.6790 O.3   1 <1>  -0.3630 
 12 C       -0.7100     3.9350     0.7350 C.ar  1 <1>  -0.1500 
 13 C       -2.4180    -4.8580    -0.3540 C.3   1 <1>   0.3200 
 14 C       -2.1610    -2.6340    -1.5610 C.3   1 <1>   0.1400 
 15 C        1.2230     5.5210    -0.6670 C.3   1 <1>   0.0400 
 16 C       -3.7620    -5.1490     0.2830 C.2   1 <1>  -0.3320 
 17 C       -3.5730    -2.2310    -2.0170 C.3   1 <1>   0.1200 
 18 N       -4.9350    -4.7930    -0.2630 N.pl3 1 <1>   0.0330 
 19 C       -4.0620    -5.7730     1.4430 C.2   1 <1>   0.0770 
 20 O       -4.2500    -3.3090    -2.5830 O.3   1 <1>  -0.6800 
 21 C       -5.8800    -5.2310     0.5950 C.2   1 <1>   0.0060 
 22 N       -5.3950    -5.8280     1.6330 N.2   1 <1>  -0.5650 
 23 C       -7.3590    -5.0320     0.3510 C.3   1 <1>  -0.0600 
 24 H       -2.5540    -0.9080     0.7160 H     1 <1>   0.0800 
 25 H       -1.7180    -1.1850     2.2400 H     1 <1>   0.0800 
 26 H        1.2880     1.5680    -0.6030 H     1 <1>   0.1500 
 27 H       -2.1540     1.1220     1.8950 H     1 <1>   0.1500 
 28 H       -2.4070     3.5520     1.9740 H     1 <1>   0.1500 
 29 H       -0.8450     4.9980     0.7920 H     1 <1>   0.1500 
 30 H       -1.6470    -5.4000     0.1680 H     1 <1>   0.0800 
 31 H       -2.4190    -5.1860    -1.3780 H     1 <1>   0.0800 
 32 H       -1.6770    -3.2080    -2.3310 H     1 <1>   0.0800 
 33 H       -1.5860    -1.7350    -1.4480 H     1 <1>   0.0800 
 34 H        2.0460     5.8770    -1.2610 H     1 <1>   0.0800 
 35 H        1.3290     5.8640     0.3460 H     1 <1>   0.0800 
 36 H        0.2940     5.8540    -1.0940 H     1 <1>   0.0800 
 37 H       -3.5160    -1.4560    -2.7620 H     1 <1>   0.0800 
 38 H       -4.1460    -1.8690    -1.1810 H     1 <1>   0.0800 
 39 H       -5.0590    -4.2770    -1.1450 H     1 <1>   0.2700 
 40 H       -3.3750    -6.1860     2.1640 H     1 <1>   0.1500 
 41 H       -3.8740    -3.5310    -3.4610 H     1 <1>   0.4000 
 42 H       -7.6500    -5.5150    -0.5630 H     1 <1>   0.0800 
 43 H       -7.5840    -3.9830     0.2890 H     1 <1>   0.0800 
 44 H       -7.9210    -5.4590     1.1620 H     1 <1>   0.0800 
@<TRIPOS>BOND
  1   1   2  1   
  2   1   3  1   
  3   2   4  ar  
  4   2   5  ar  
  5   3   6  1   
  6   3  24  1   
  7   3  25  1   
  8   4   7  ar  
  9   4  26  1   
 10   5   8  ar  
 11   5  27  1   
 12   6   9  2   
 13   6  10  am  
 14   7  11  1   
 15   7  12  ar  
 16   8  12  ar  
 17   8  28  1   
 18  10  13  1   
 19  10  14  1   
 20  11  15  1   
 21  12  29  1   
 22  13  16  1   
 23  13  30  1   
 24  13  31  1   
 25  14  17  1   
 26  14  32  1   
 27  14  33  1   
 28  15  34  1   
 29  15  35  1   
 30  15  36  1   
 31  16  18  1   
 32  16  19  2   
 33  17  20  1   
 34  17  37  1   
 35  17  38  1   
 36  18  21  1   
 37  18  39  1   
 38  19  22  1   
 39  19  40  1   
 40  20  41  1   
 41  21  22  2   
 42  21  23  1   
 43  23  42  1   
 44  23  43  1   
 45  23  44  1   
@<TRIPOS>SUBSTRUCTURE
  1 ****   3 GROUP 4 **** **** 0

# MOE 2024.06 (io_trps.svl 2023.06)
