@<TRIPOS>MOLECULE
NONAME
58 61 1 0 0 
SMALL
USER_CHARGES


@<TRIPOS>ATOM
  1 O       -2.5680     0.8590    -2.0300 O.2   1 <1>  -0.5700 
  2 C       -2.1070     0.9640    -0.9150 C.2   1 <1>   0.5690 
  3 N       -1.6540    -0.1390    -0.2600 N.am  1 <1>  -0.7300 
  4 C       -2.0110     2.3350    -0.1620 C.3   1 <1>   0.3310 
  5 C       -1.8320    -1.5350    -0.7030 C.3   1 <1>   0.2200 
  6 N       -0.7020     2.3890     0.5890 N.3   1 <1>  -0.8100 
  7 C       -2.1180     3.5560    -1.1180 C.3   1 <1>  -0.1600 
  8 C       -3.1780     2.3840     0.8610 C.3   1 <1>  -0.1600 
  9 C       -3.0780    -2.1150    -0.0510 C.3   1 <1>  -0.0800 
 10 C       -0.7020    -2.4540    -0.2320 C.3   1 <1>   0.1200 
 11 C        0.5080     2.3230    -0.2600 C.3   1 <1>   0.1100 
 12 C       -0.5350     3.3940     1.6740 C.3   1 <1>   0.1100 
 13 C       -3.5190     3.7800    -1.7250 C.3   1 <1>  -0.1600 
 14 C       -4.5560     2.4980     0.1910 C.3   1 <1>  -0.1600 
 15 C       -2.6340    -3.5160     0.3440 C.3   1 <1>   0.1200 
 16 C       -4.3080    -2.0720    -0.9690 C.3   1 <1>  -0.0170 
 17 O       -1.2780    -3.3940     0.6230 O.3   1 <1>  -0.5600 
 18 C        1.7680     2.0150     0.5800 C.3   1 <1>   0.1200 
 19 C        0.9390     3.6870     2.0280 C.3   1 <1>   0.1200 
 20 C       -4.6230     3.7680    -0.6630 C.3   1 <1>  -0.1600 
 21 C       -5.5360    -2.6100    -0.2530 C.ar  1 <1>  -0.1430 
 22 O        1.7240     2.5420     1.8820 O.3   1 <1>  -0.5600 
 23 C       -6.2320    -1.8380     0.6550 C.ar  1 <1>  -0.1500 
 24 C       -6.0170    -3.8860    -0.4660 C.ar  1 <1>  -0.1500 
 25 C       -7.3410    -2.3660     1.2930 C.ar  1 <1>   0.1600 
 26 C       -7.1370    -4.3170     0.2250 C.ar  1 <1>   0.1600 
 27 N       -7.8100    -3.5880     1.1010 N.ar  1 <1>  -0.6200 
 28 H       -1.2120     0.0200     0.6520 H     1 <1>   0.3700 
 29 H       -1.8950    -1.5720    -1.7780 H     1 <1>   0.0800 
 30 H       -1.8560     4.4500    -0.5860 H     1 <1>   0.0800 
 31 H       -1.4210     3.4370    -1.9280 H     1 <1>   0.0800 
 32 H       -3.1540     1.5020     1.4750 H     1 <1>   0.0800 
 33 H       -3.0810     3.2380     1.5030 H     1 <1>   0.0800 
 34 H       -3.2940    -1.5810     0.8580 H     1 <1>   0.0800 
 35 H        0.0650    -1.9240     0.3040 H     1 <1>   0.0800 
 36 H       -0.2740    -2.9840    -1.0640 H     1 <1>   0.0800 
 37 H        0.4080     1.5660    -1.0180 H     1 <1>   0.0800 
 38 H        0.6470     3.2650    -0.7620 H     1 <1>   0.0800 
 39 H       -1.0060     4.3230     1.4090 H     1 <1>   0.0800 
 40 H       -1.0220     3.0230     2.5590 H     1 <1>   0.0800 
 41 H       -3.5350     4.7220    -2.2460 H     1 <1>   0.0800 
 42 H       -3.7280     3.0160    -2.4530 H     1 <1>   0.0800 
 43 H       -4.7450     1.6360    -0.4260 H     1 <1>   0.0800 
 44 H       -5.3220     2.5350     0.9470 H     1 <1>   0.0800 
 45 H       -2.7460    -4.2130    -0.4680 H     1 <1>   0.0800 
 46 H       -3.1470    -3.8790     1.2190 H     1 <1>   0.0800 
 47 H       -4.1240    -2.6400    -1.8640 H     1 <1>   0.0800 
 48 H       -4.4940    -1.0540    -1.2670 H     1 <1>   0.0800 
 49 H        2.6420     2.4050     0.0900 H     1 <1>   0.0800 
 50 H        1.8840     0.9500     0.6780 H     1 <1>   0.0800 
 51 H        1.0200     4.0190     3.0480 H     1 <1>   0.0800 
 52 H        1.3380     4.4540     1.3870 H     1 <1>   0.0800 
 53 H       -5.5840     3.8280    -1.1450 H     1 <1>   0.0800 
 54 H       -4.5190     4.6330    -0.0290 H     1 <1>   0.0800 
 55 H       -5.9190    -0.8330     0.8720 H     1 <1>   0.1500 
 56 H       -5.5330    -4.5470    -1.1600 H     1 <1>   0.1500 
 57 H       -7.8710    -1.7490     1.9990 H     1 <1>   0.1500 
 58 H       -7.4990    -5.3150     0.0470 H     1 <1>   0.1500 
@<TRIPOS>BOND
  1   1   2  2   
  2   2   3  am  
  3   2   4  1   
  4   3   5  1   
  5   3  28  1   
  6   4   6  1   
  7   4   7  1   
  8   4   8  1   
  9   5   9  1   
 10   5  10  1   
 11   5  29  1   
 12   6  11  1   
 13   6  12  1   
 14   7  13  1   
 15   7  30  1   
 16   7  31  1   
 17   8  14  1   
 18   8  32  1   
 19   8  33  1   
 20   9  15  1   
 21   9  16  1   
 22   9  34  1   
 23  10  17  1   
 24  10  35  1   
 25  10  36  1   
 26  11  18  1   
 27  11  37  1   
 28  11  38  1   
 29  12  19  1   
 30  12  39  1   
 31  12  40  1   
 32  13  20  1   
 33  13  41  1   
 34  13  42  1   
 35  14  20  1   
 36  14  43  1   
 37  14  44  1   
 38  15  17  1   
 39  15  45  1   
 40  15  46  1   
 41  16  21  1   
 42  16  47  1   
 43  16  48  1   
 44  18  22  1   
 45  18  49  1   
 46  18  50  1   
 47  19  22  1   
 48  19  51  1   
 49  19  52  1   
 50  20  53  1   
 51  20  54  1   
 52  21  23  ar  
 53  21  24  ar  
 54  23  25  ar  
 55  23  55  1   
 56  24  26  ar  
 57  24  56  1   
 58  25  27  ar  
 59  25  57  1   
 60  26  27  ar  
 61  26  58  1   
@<TRIPOS>SUBSTRUCTURE
  1 ****   3 GROUP 4 **** **** 0

# MOE 2024.06 (io_trps.svl 2023.06)
