@<TRIPOS>MOLECULE
NONAME
21 22 1 0 0 
SMALL
USER_CHARGES


@<TRIPOS>ATOM
  1 F        2.2490    -0.2200     1.6220 F     1 <1>  -0.3400 
  2 C        1.8890    -0.0660     0.3540 C.3   1 <1>   1.0200 
  3 F        1.0840    -1.0760     0.0600 F     1 <1>  -0.3400 
  4 F        1.1330     1.0240     0.3220 F     1 <1>  -0.3400 
  5 C        3.0810     0.0640    -0.5890 C.3   1 <1>  -0.0190 
  6 C        3.9990    -1.1210    -0.4070 C.2   1 <1>   0.4230 
  7 C        3.9720     1.3010    -0.2900 C.3   1 <1>  -0.0170 
  8 O        3.6780    -2.2440    -0.6880 O.2   1 <1>  -0.5700 
  9 C        5.2650    -0.6700     0.0760 C.ar  1 <1>   0.0860 
 10 C        5.2920     0.7080     0.1590 C.ar  1 <1>  -0.1440 
 11 C        6.3910    -1.3990     0.4420 C.ar  1 <1>  -0.1500 
 12 C        6.4140     1.3810     0.6020 C.ar  1 <1>  -0.1500 
 13 C        7.5220    -0.7360     0.8870 C.ar  1 <1>  -0.1500 
 14 C        7.5340     0.6490     0.9680 C.ar  1 <1>  -0.1500 
 15 H        2.7270     0.0900    -1.6020 H     1 <1>   0.0800 
 16 H        3.5650     1.9310     0.4820 H     1 <1>   0.0800 
 17 H        4.1200     1.8840    -1.1820 H     1 <1>   0.0800 
 18 H        6.3690    -2.4740     0.3740 H     1 <1>   0.1500 
 19 H        6.4250     2.4550     0.6650 H     1 <1>   0.1500 
 20 H        8.3960    -1.2970     1.1720 H     1 <1>   0.1500 
 21 H        8.4170     1.1580     1.3160 H     1 <1>   0.1500 
@<TRIPOS>BOND
  1   1   2  1   
  2   2   3  1   
  3   2   4  1   
  4   2   5  1   
  5   5   6  1   
  6   5   7  1   
  7   5  15  1   
  8   6   8  2   
  9   6   9  1   
 10   7  10  1   
 11   7  16  1   
 12   7  17  1   
 13   9  10  ar  
 14   9  11  ar  
 15  10  12  ar  
 16  11  13  ar  
 17  11  18  1   
 18  12  14  ar  
 19  12  19  1   
 20  13  14  ar  
 21  13  20  1   
 22  14  21  1   
@<TRIPOS>SUBSTRUCTURE
  1 ****   9 GROUP 4 **** **** 0

# MOE 2024.06 (io_trps.svl 2023.06)
