@<TRIPOS>MOLECULE
NONAME
46 49 1 0 0 
SMALL
USER_CHARGES


@<TRIPOS>ATOM
  1 O       -0.6510    -0.0330     2.1210 O.2   1 <1>  -0.5700 
  2 C       -1.4140     0.7510     1.5850 C.2   1 <1>   0.5440 
  3 N       -2.4600     0.2510     0.8270 N.am  1 <1>  -0.6600 
  4 C       -1.2320     2.1660     1.8270 C.ar  1 <1>   0.0860 
  5 C       -3.5330     1.1350     0.2810 C.3   1 <1>   0.2200 
  6 C       -2.5800    -1.2240     0.6170 C.3   1 <1>   0.0600 
  7 C       -0.8680     3.0620     0.8180 C.ar  1 <1>   0.0820 
  8 C       -1.4310     2.6790     3.1110 C.ar  1 <1>  -0.1500 
  9 C       -4.9460     0.7280     0.6890 C.3   1 <1>  -0.1600 
 10 C       -3.5780     1.1720    -1.2440 C.3   1 <1>  -0.1600 
 11 O       -0.6170     2.5960    -0.4310 O.3   1 <1>  -0.3620 
 12 C       -0.7580     4.4290     1.0890 C.ar  1 <1>   0.0820 
 13 C       -1.3020     4.0280     3.3830 C.ar  1 <1>  -0.1500 
 14 C       -5.8480     1.4420    -0.3270 C.3   1 <1>  -0.0800 
 15 C       -4.9730     1.7240    -1.5630 C.3   1 <1>  -0.0800 
 16 C        0.0560     3.4500    -1.3330 C.3   1 <1>   0.1200 
 17 O       -0.4500     5.3210     0.1120 O.3   1 <1>  -0.3630 
 18 C       -0.9690     4.9080     2.3680 C.ar  1 <1>  -0.1500 
 19 C       -6.3570     2.8050     0.1640 C.3   1 <1>  -0.1600 
 20 C       -4.9850     3.2460    -1.7660 C.3   1 <1>  -0.1600 
 21 C       -0.5110     4.8700    -1.2270 C.3   1 <1>   0.1200 
 22 C       -6.2350     3.7210    -1.0440 C.3   1 <1>   0.2000 
 23 O       -6.0800     5.0270    -0.6370 O.3   1 <1>  -0.6800 
 24 H       -3.3890     2.1440     0.6220 H     1 <1>   0.0800 
 25 H       -3.1280    -1.4480    -0.2790 H     1 <1>   0.0800 
 26 H       -3.0840    -1.6650     1.4590 H     1 <1>   0.0800 
 27 H       -1.6010    -1.6640     0.5330 H     1 <1>   0.0800 
 28 H       -1.6880     1.9950     3.9010 H     1 <1>   0.1500 
 29 H       -5.0810    -0.3320     0.5770 H     1 <1>   0.0800 
 30 H       -5.1620     1.0070     1.7050 H     1 <1>   0.0800 
 31 H       -2.7920     1.7780    -1.6540 H     1 <1>   0.0800 
 32 H       -3.5000     0.1800    -1.6480 H     1 <1>   0.0800 
 33 H       -1.4590     4.3970     4.3830 H     1 <1>   0.1500 
 34 H       -6.6840     0.8180    -0.5970 H     1 <1>   0.0800 
 35 H       -5.3860     1.2370    -2.4320 H     1 <1>   0.0800 
 36 H        1.1030     3.4430    -1.0840 H     1 <1>   0.0800 
 37 H       -0.0740     3.0550    -2.3250 H     1 <1>   0.0800 
 38 H       -0.8700     5.9610     2.5630 H     1 <1>   0.1500 
 39 H       -5.7330     3.1710     0.9610 H     1 <1>   0.0800 
 40 H       -7.3760     2.7440     0.5040 H     1 <1>   0.0800 
 41 H       -5.0180     3.5030    -2.8100 H     1 <1>   0.0800 
 42 H       -4.1150     3.6890    -1.3130 H     1 <1>   0.0800 
 43 H       -1.5400     4.8860    -1.5400 H     1 <1>   0.0800 
 44 H        0.0540     5.5540    -1.8340 H     1 <1>   0.0800 
 45 H       -7.1030     3.6490    -1.6780 H     1 <1>   0.0800 
 46 H       -5.3090     5.1010    -0.0440 H     1 <1>   0.4000 
@<TRIPOS>BOND
  1   1   2  2   
  2   2   3  am  
  3   2   4  1   
  4   3   5  1   
  5   3   6  1   
  6   4   7  ar  
  7   4   8  ar  
  8   5   9  1   
  9   5  10  1   
 10   5  24  1   
 11   6  25  1   
 12   6  26  1   
 13   6  27  1   
 14   7  11  1   
 15   7  12  ar  
 16   8  13  ar  
 17   8  28  1   
 18   9  14  1   
 19   9  29  1   
 20   9  30  1   
 21  10  15  1   
 22  10  31  1   
 23  10  32  1   
 24  11  16  1   
 25  12  17  1   
 26  12  18  ar  
 27  13  18  ar  
 28  13  33  1   
 29  14  15  1   
 30  14  19  1   
 31  14  34  1   
 32  15  20  1   
 33  15  35  1   
 34  16  21  1   
 35  16  36  1   
 36  16  37  1   
 37  17  21  1   
 38  18  38  1   
 39  19  22  1   
 40  19  39  1   
 41  19  40  1   
 42  20  22  1   
 43  20  41  1   
 44  20  42  1   
 45  21  43  1   
 46  21  44  1   
 47  22  23  1   
 48  22  45  1   
 49  23  46  1   
@<TRIPOS>SUBSTRUCTURE
  1 ****   5 GROUP 4 **** **** 0

# MOE 2024.06 (io_trps.svl 2023.06)
