@<TRIPOS>MOLECULE
NONAME
48 52 1 0 0 
SMALL
USER_CHARGES


@<TRIPOS>ATOM
  1 CL       2.0450    -3.7440    -0.9330 Cl    1 <1>  -0.1400 
  2 C        0.6430    -4.1800     0.0100 C.2   1 <1>   0.1400 
  3 C       -0.6150    -4.0320    -0.5040 C.2   1 <1>   0.2290 
  4 C        0.8480    -4.6870     1.3090 C.2   1 <1>  -0.1500 
  5 N       -1.7130    -4.3860     0.2630 N.pl3 1 <1>  -0.6290 
  6 C       -0.2490    -5.0320     2.0550 C.2   1 <1>  -0.1410 
  7 C       -1.5400    -4.8760     1.5170 C.cat 1 <1>   0.7910 
  8 C       -3.0710    -4.3350     0.0340 C.2   1 <1>   0.2000 
  9 N       -2.7420    -5.1310     2.0400 N.pl3 1 <1>  -0.7000 
 10 C       -3.7300    -4.8030     1.1250 C.2   1 <1>   0.2770 
 11 C       -5.1560    -4.9340     1.3920 C.2   1 <1>   0.7030 
 12 O       -5.5000    -4.9820     2.5580 O.2   1 <1>  -0.5700 
 13 N       -6.1230    -5.0100     0.4080 N.am  1 <1>  -0.6600 
 14 C       -7.5750    -4.8880     0.8040 C.3   1 <1>   0.1400 
 15 C       -5.8620    -5.5160    -0.9780 C.3   1 <1>   0.1400 
 16 C       -8.4730    -4.5030    -0.3870 C.3   1 <1>   0.1440 
 17 C       -7.0420    -6.3440    -1.5000 C.3   1 <1>  -0.1600 
 18 C       -9.9180    -4.3500     0.0550 C.ar  1 <1>   0.1670 
 19 C       -8.3720    -5.5640    -1.5100 C.3   1 <1>  -0.1600 
 20 C       -8.1460    -3.0780    -0.9150 C.3   1 <1>  -0.1600 
 21 N      -10.5800    -5.2150     0.7910 N.ar  1 <1>  -0.6200 
 22 C      -10.4700    -3.1930    -0.4060 C.ar  1 <1>  -0.1430 
 23 C       -9.4890    -2.3920    -1.2240 C.3   1 <1>  -0.0170 
 24 C      -11.8340    -4.8670     1.0480 C.ar  1 <1>   0.4770 
 25 C      -11.7770    -2.9330    -0.0790 C.ar  1 <1>   0.1600 
 26 N      -12.4750    -3.7740     0.6570 N.ar  1 <1>  -0.6200 
 27 C      -12.6240    -5.8340     1.8950 C.3   1 <1>  -0.0970 
 28 H       -0.7760    -3.6420    -1.4960 H     1 <1>   0.1500 
 29 H        1.8570    -4.7890     1.6780 H     1 <1>   0.1500 
 30 H       -0.1500    -5.4220     3.0520 H     1 <1>   0.1500 
 31 H       -3.4880    -3.9590    -0.8850 H     1 <1>   0.1500 
 32 H       -2.9530    -5.4690     2.9860 H     1 <1>   0.4500 
 33 H       -7.6830    -4.1540     1.5840 H     1 <1>   0.0800 
 34 H       -7.9070    -5.8320     1.2030 H     1 <1>   0.0800 
 35 H       -4.9820    -6.1350    -0.9860 H     1 <1>   0.0800 
 36 H       -5.7020    -4.6800    -1.6380 H     1 <1>   0.0800 
 37 H       -7.1470    -7.2130    -0.8730 H     1 <1>   0.0800 
 38 H       -6.8280    -6.6960    -2.4940 H     1 <1>   0.0800 
 39 H       -8.5170    -5.0960    -2.4680 H     1 <1>   0.0800 
 40 H       -9.1690    -6.2800    -1.3960 H     1 <1>   0.0800 
 41 H       -7.5020    -3.0880    -1.7760 H     1 <1>   0.0800 
 42 H       -7.6590    -2.5140    -0.1380 H     1 <1>   0.0800 
 43 H       -9.7330    -2.4820    -2.2680 H     1 <1>   0.0800 
 44 H       -9.4820    -1.3550    -0.9350 H     1 <1>   0.0800 
 45 H      -12.2580    -2.0320    -0.4200 H     1 <1>   0.1500 
 46 H      -12.3420    -6.8430     1.6610 H     1 <1>   0.0800 
 47 H      -13.6760    -5.7150     1.7120 H     1 <1>   0.0800 
 48 H      -12.4230    -5.6410     2.9320 H     1 <1>   0.0800 
@<TRIPOS>BOND
  1   1   2  1   
  2   2   3  2   
  3   2   4  1   
  4   3   5  1   
  5   3  28  1   
  6   4   6  2   
  7   4  29  1   
  8   5   7  ar  
  9   5   8  1   
 10   6   7  1   
 11   6  30  1   
 12   7   9  ar  
 13   8  10  2   
 14   8  31  1   
 15   9  10  1   
 16   9  32  1   
 17  10  11  1   
 18  11  12  2   
 19  11  13  am  
 20  13  14  1   
 21  13  15  1   
 22  14  16  1   
 23  14  33  1   
 24  14  34  1   
 25  15  17  1   
 26  15  35  1   
 27  15  36  1   
 28  16  18  1   
 29  16  19  1   
 30  16  20  1   
 31  17  19  1   
 32  17  37  1   
 33  17  38  1   
 34  18  21  ar  
 35  18  22  ar  
 36  19  39  1   
 37  19  40  1   
 38  20  23  1   
 39  20  41  1   
 40  20  42  1   
 41  21  24  ar  
 42  22  23  1   
 43  22  25  ar  
 44  23  43  1   
 45  23  44  1   
 46  24  26  ar  
 47  24  27  1   
 48  25  26  ar  
 49  25  45  1   
 50  27  46  1   
 51  27  47  1   
 52  27  48  1   
@<TRIPOS>SUBSTRUCTURE
  1 ****  13 GROUP 4 **** **** 0

# MOE 2024.06 (io_trps.svl 2023.06)
