@<TRIPOS>MOLECULE
NONAME
54 57 1 0 0 
SMALL
USER_CHARGES


@<TRIPOS>ATOM
  1 O       -2.5690     1.6060    -1.5500 O.co2 1 <1>  -0.9000 
  2 C       -1.7030     1.4180    -0.6900 C.2   1 <1>   0.9060 
  3 O       -1.6370     0.3690    -0.0490 O.co2 1 <1>  -0.9000 
  4 C       -0.7170     2.5340    -0.3560 C.3   1 <1>  -0.1060 
  5 C       -1.2510     3.0890     0.9820 C.3   1 <1>   0.2000 
  6 C       -0.8090     3.5580    -1.5130 C.3   1 <1>   0.3430 
  7 C        0.6940     1.8740    -0.2680 C.3   1 <1>  -0.0650 
  8 O       -0.2710     3.7650     1.6930 O.3   1 <1>  -0.6800 
  9 C       -2.3980     4.0650     0.7400 C.3   1 <1>  -0.1600 
 10 N       -0.9230     5.0060    -1.1130 N.4   1 <1>  -0.9590 
 11 C        1.9220     2.7980    -0.3330 C.3   1 <1>  -0.1950 
 12 C       -1.9610     5.2890    -0.0630 C.3   1 <1>   0.3430 
 13 C        0.3920     5.5600    -0.6980 C.3   1 <1>   0.5230 
 14 C        2.5880     3.1380    -1.6320 C.3   1 <1>  -0.2000 
 15 C        3.2470     2.1950    -0.6710 C.3   1 <1>  -0.2000 
 16 C        0.4100     7.0760    -0.8180 C.2   1 <1>  -0.0400 
 17 O        1.4990     7.6960    -0.4180 O.3   1 <1>  -0.2800 
 18 C       -0.4900     7.9770    -1.2750 C.2   1 <1>  -0.1500 
 19 C        1.3510     9.0030    -0.5940 C.2   1 <1>   0.0870 
 20 C        0.1200     9.2240    -1.1280 C.2   1 <1>  -0.1500 
 21 C        2.4130     9.9160    -0.2290 C.ar  1 <1>   0.0530 
 22 C        3.5870     9.4660     0.3730 C.ar  1 <1>  -0.1500 
 23 C        2.3040    11.2860    -0.4660 C.ar  1 <1>  -0.1500 
 24 C        4.6020    10.3380     0.7210 C.ar  1 <1>  -0.1500 
 25 C        3.3160    12.1630    -0.1190 C.ar  1 <1>  -0.1500 
 26 C        4.4730    11.6950     0.4790 C.ar  1 <1>  -0.1430 
 27 C        5.5860    12.6540     0.8590 C.3   1 <1>  -0.0970 
 28 H       -1.5930     2.2810     1.6120 H     1 <1>   0.0800 
 29 H       -1.6680     3.3440    -2.1230 H     1 <1>   0.0800 
 30 H        0.0440     3.4240    -2.1560 H     1 <1>   0.0800 
 31 H        0.7460     1.2940     0.6380 H     1 <1>   0.0800 
 32 H        0.7780     1.1630    -1.0740 H     1 <1>   0.0800 
 33 H        0.3370     3.1050     2.0880 H     1 <1>   0.4000 
 34 H       -3.1890     3.5620     0.2090 H     1 <1>   0.0800 
 35 H       -2.8110     4.3780     1.6810 H     1 <1>   0.0800 
 36 H       -1.1840     5.5200    -1.9580 H     1 <1>   0.4500 
 37 H        1.9610     3.5090     0.4730 H     1 <1>   0.1000 
 38 H       -1.5680     6.0180     0.6280 H     1 <1>   0.0800 
 39 H       -2.8340     5.7190    -0.5260 H     1 <1>   0.0800 
 40 H        0.6140     5.2830     0.3170 H     1 <1>   0.0800 
 41 H        1.1680     5.1670    -1.3300 H     1 <1>   0.0800 
 42 H        2.2200     2.7220    -2.5550 H     1 <1>   0.1000 
 43 H        3.0550     4.0990    -1.7720 H     1 <1>   0.1000 
 44 H        4.1200     2.5260    -0.1350 H     1 <1>   0.1000 
 45 H        3.2990     1.1500    -0.9280 H     1 <1>   0.1000 
 46 H       -1.4770     7.8320    -1.6770 H     1 <1>   0.1500 
 47 H       -0.3240    10.1660    -1.3950 H     1 <1>   0.1500 
 48 H        3.7110     8.4180     0.5730 H     1 <1>   0.1500 
 49 H        1.4180    11.6770    -0.9290 H     1 <1>   0.1500 
 50 H        5.4950     9.9550     1.1830 H     1 <1>   0.1500 
 51 H        3.2000    13.2140    -0.3180 H     1 <1>   0.1500 
 52 H        6.1200    12.2880     1.7170 H     1 <1>   0.0800 
 53 H        5.1830    13.6210     1.0980 H     1 <1>   0.0800 
 54 H        6.2730    12.7560     0.0390 H     1 <1>   0.0800 
@<TRIPOS>BOND
  1   1   2  ar  
  2   2   3  ar  
  3   2   4  1   
  4   4   5  1   
  5   4   6  1   
  6   4   7  1   
  7   5   8  1   
  8   5   9  1   
  9   5  28  1   
 10   6  10  1   
 11   6  29  1   
 12   6  30  1   
 13   7  11  1   
 14   7  31  1   
 15   7  32  1   
 16   8  33  1   
 17   9  12  1   
 18   9  34  1   
 19   9  35  1   
 20  10  12  1   
 21  10  13  1   
 22  10  36  1   
 23  11  14  1   
 24  11  15  1   
 25  11  37  1   
 26  12  38  1   
 27  12  39  1   
 28  13  16  1   
 29  13  40  1   
 30  13  41  1   
 31  14  15  1   
 32  14  42  1   
 33  14  43  1   
 34  15  44  1   
 35  15  45  1   
 36  16  17  1   
 37  16  18  2   
 38  17  19  1   
 39  18  20  1   
 40  18  46  1   
 41  19  20  2   
 42  19  21  1   
 43  20  47  1   
 44  21  22  ar  
 45  21  23  ar  
 46  22  24  ar  
 47  22  48  1   
 48  23  25  ar  
 49  23  49  1   
 50  24  26  ar  
 51  24  50  1   
 52  25  26  ar  
 53  25  51  1   
 54  26  27  1   
 55  27  52  1   
 56  27  53  1   
 57  27  54  1   
@<TRIPOS>SUBSTRUCTURE
  1 ****  13 GROUP 4 **** **** 0

# MOE 2024.06 (io_trps.svl 2023.06)
