@<TRIPOS>MOLECULE
NONAME
52 53 1 0 0 
SMALL
USER_CHARGES


@<TRIPOS>ATOM
  1 O        0.4920    -0.4300     1.5570 O.2   1 <1>  -0.5700 
  2 C        1.0620    -0.4670     0.4920 C.2   1 <1>   0.5690 
  3 N        1.7170     0.6120    -0.0070 N.am  1 <1>  -0.7300 
  4 C        1.0170    -1.7920    -0.2910 C.3   1 <1>   0.4040 
  5 C        1.9090     1.8800     0.7270 C.3   1 <1>   0.2840 
  6 N       -0.1250    -2.6970     0.1350 N.4   1 <1>  -0.9590 
  7 C        3.3040     2.3800     0.4060 C.ar  1 <1>  -0.1430 
  8 C        0.0250    -4.1340    -0.2790 C.3   1 <1>   0.4230 
  9 C       -1.4080    -2.0820    -0.3300 C.3   1 <1>   0.3430 
 10 C        4.3940     1.9180     1.1280 C.ar  1 <1>  -0.1500 
 11 C        3.5080     3.2950    -0.6170 C.ar  1 <1>  -0.1500 
 12 C       -1.2010    -4.9430     0.1880 C.3   1 <1>  -0.1600 
 13 C        1.3050    -4.7720     0.2860 C.3   1 <1>  -0.0990 
 14 C       -2.6060    -2.8730     0.1840 C.3   1 <1>  -0.1600 
 15 C        5.6680     2.3670     0.8340 C.ar  1 <1>  -0.1500 
 16 C        4.7840     3.7410    -0.9090 C.ar  1 <1>  -0.1500 
 17 C       -2.5300    -4.3330    -0.2650 C.3   1 <1>  -0.1600 
 18 C        1.5680    -6.0560    -0.4550 C.2   1 <1>   0.5690 
 19 C        5.8790     3.2890    -0.1820 C.ar  1 <1>   0.1170 
 20 O        1.4530    -6.0570    -1.6510 O.2   1 <1>  -0.5700 
 21 N        1.9220    -7.1700     0.2050 N.am  1 <1>  -0.8000 
 22 N        7.1770     3.7290    -0.4610 N.am  1 <1>  -0.5470 
 23 C        7.6820     4.9850    -0.5760 C.2   1 <1>   0.5690 
 24 O        8.8430     5.1410    -0.8490 O.2   1 <1>  -0.5700 
 25 C        6.8160     6.2010    -0.3460 C.3   1 <1>  -0.1790 
 26 H        2.2550     0.5850    -0.8770 H     1 <1>   0.3700 
 27 H        1.9600    -2.2760    -0.1250 H     1 <1>   0.0800 
 28 H        0.9370    -1.5760    -1.3420 H     1 <1>   0.0800 
 29 H        1.8030     1.7230     1.7880 H     1 <1>   0.0800 
 30 H        1.1700     2.5980     0.4130 H     1 <1>   0.0800 
 31 H       -0.1540    -2.6470     1.1660 H     1 <1>   0.4500 
 32 H        0.0680    -4.1750    -1.3570 H     1 <1>   0.0800 
 33 H       -1.4330    -2.0640    -1.4080 H     1 <1>   0.0800 
 34 H       -1.4810    -1.0670     0.0280 H     1 <1>   0.0800 
 35 H        4.2530     1.2070     1.9250 H     1 <1>   0.1500 
 36 H        2.6760     3.6650    -1.1920 H     1 <1>   0.1500 
 37 H       -1.1970    -5.0220     1.2610 H     1 <1>   0.0800 
 38 H       -1.1410    -5.9430    -0.2060 H     1 <1>   0.0800 
 39 H        1.2060    -4.9640     1.3380 H     1 <1>   0.0800 
 40 H        2.1700    -4.1630     0.1240 H     1 <1>   0.0800 
 41 H       -3.5100    -2.4300    -0.1980 H     1 <1>   0.0800 
 42 H       -2.6460    -2.8120     1.2580 H     1 <1>   0.0800 
 43 H        6.5070     2.0070     1.4030 H     1 <1>   0.1500 
 44 H        4.9330     4.4410    -1.7110 H     1 <1>   0.1500 
 45 H       -3.3510    -4.8890     0.1570 H     1 <1>   0.0800 
 46 H       -2.6100    -4.3910    -1.3380 H     1 <1>   0.0800 
 47 H        2.1130    -8.0220    -0.3290 H     1 <1>   0.3700 
 48 H        2.0750    -7.2420     1.2110 H     1 <1>   0.3700 
 49 H        7.8990     3.0130    -0.5340 H     1 <1>   0.3700 
 50 H        6.1240     6.0220     0.4550 H     1 <1>   0.0800 
 51 H        6.2770     6.4360    -1.2440 H     1 <1>   0.0800 
 52 H        7.4360     7.0380    -0.0860 H     1 <1>   0.0800 
@<TRIPOS>BOND
  1   1   2  2   
  2   2   3  am  
  3   2   4  1   
  4   3   5  1   
  5   3  26  1   
  6   4   6  1   
  7   4  27  1   
  8   4  28  1   
  9   5   7  1   
 10   5  29  1   
 11   5  30  1   
 12   6   8  1   
 13   6   9  1   
 14   6  31  1   
 15   7  10  ar  
 16   7  11  ar  
 17   8  12  1   
 18   8  13  1   
 19   8  32  1   
 20   9  14  1   
 21   9  33  1   
 22   9  34  1   
 23  10  15  ar  
 24  10  35  1   
 25  11  16  ar  
 26  11  36  1   
 27  12  17  1   
 28  12  37  1   
 29  12  38  1   
 30  13  18  1   
 31  13  39  1   
 32  13  40  1   
 33  14  17  1   
 34  14  41  1   
 35  14  42  1   
 36  15  19  ar  
 37  15  43  1   
 38  16  19  ar  
 39  16  44  1   
 40  17  45  1   
 41  17  46  1   
 42  18  20  2   
 43  18  21  am  
 44  19  22  1   
 45  21  47  1   
 46  21  48  1   
 47  22  23  am  
 48  22  49  1   
 49  23  24  2   
 50  23  25  1   
 51  25  50  1   
 52  25  51  1   
 53  25  52  1   
@<TRIPOS>SUBSTRUCTURE
  1 ****   3 GROUP 4 **** **** 0

# MOE 2024.06 (io_trps.svl 2023.06)
