@<TRIPOS>MOLECULE
NONAME
42 44 1 0 0 
SMALL
USER_CHARGES


@<TRIPOS>ATOM
  1 O       -0.0340     0.0060     0.3210 O.2   1 <1>  -0.5700 
  2 C        1.0340    -0.3380    -0.1580 C.2   1 <1>   0.7160 
  3 N        2.0380     0.5910    -0.3140 N.am  1 <1>  -0.4940 
  4 C        1.2790    -1.6920    -0.5370 C.2   1 <1>  -0.0860 
  5 C        1.9910     1.9990    -0.1740 C.2   1 <1>  -0.0880 
  6 C        0.6690    -2.8530    -0.1320 C.2   1 <1>  -0.0680 
  7 C        2.2440    -2.1560    -1.4460 C.2   1 <1>   0.1390 
  8 N        2.9560     2.7450     0.4300 N.pl3 1 <1>   0.3140 
  9 C        1.0450     2.8760    -0.5920 C.2   1 <1>  -0.1810 
 10 N        1.2730    -3.8680    -0.7690 N.pl3 1 <1>   0.6010 
 11 N       -0.3230    -3.3500     0.6890 N.pl3 1 <1>  -0.5530 
 12 N        2.2650    -3.4460    -1.5910 N.2   1 <1>  -0.7070 
 13 N        2.6580     4.0620     0.4060 N.2   1 <1>  -0.7070 
 14 C        4.1740     2.2550     1.1040 C.3   1 <1>   0.0960 
 15 C        1.5140     4.1250    -0.2020 C.2   1 <1>   0.1390 
 16 C       -0.2550     2.6190    -1.3310 C.3   1 <1>  -0.0590 
 17 C        0.6670    -5.0420    -0.3630 C.2   1 <1>  -0.1810 
 18 C       -0.3030    -4.7260     0.5210 C.2   1 <1>  -0.0500 
 19 C       -1.2620    -2.5560     1.5120 C.3   1 <1>   0.1290 
 20 C        5.2990     1.9970     0.0910 C.3   1 <1>  -0.1600 
 21 C        6.5540     1.4510     0.7820 C.3   1 <1>  -0.1600 
 22 C        7.6660     1.1810    -0.2350 C.3   1 <1>  -0.2400 
 23 H        2.9600     0.1880    -0.4640 H     1 <1>   0.3700 
 24 H        2.9150    -1.5120    -1.9910 H     1 <1>   0.1500 
 25 H        3.9300     1.3560     1.6390 H     1 <1>   0.0800 
 26 H        4.4840     3.0000     1.8150 H     1 <1>   0.0800 
 27 H        0.9940     5.0510    -0.3800 H     1 <1>   0.1500 
 28 H       -0.1980     1.6970    -1.8800 H     1 <1>   0.0800 
 29 H       -0.4560     3.4170    -2.0210 H     1 <1>   0.0800 
 30 H       -1.0630     2.5500    -0.6260 H     1 <1>   0.0800 
 31 H        0.9960    -5.9840    -0.7530 H     1 <1>   0.1500 
 32 H       -0.9870    -5.3750     1.0450 H     1 <1>   0.1500 
 33 H       -0.7070    -1.9180     2.1760 H     1 <1>   0.0800 
 34 H       -1.8910    -3.2100     2.0880 H     1 <1>   0.0800 
 35 H       -1.8720    -1.9460     0.8700 H     1 <1>   0.0800 
 36 H        5.5390     2.9240    -0.4040 H     1 <1>   0.0800 
 37 H        4.9660     1.2940    -0.6510 H     1 <1>   0.0800 
 38 H        6.3200     0.5350     1.2990 H     1 <1>   0.0800 
 39 H        6.9070     2.1630     1.5090 H     1 <1>   0.0800 
 40 H        7.3500     0.4500    -0.9590 H     1 <1>   0.0800 
 41 H        8.5410     0.8060     0.2670 H     1 <1>   0.0800 
 42 H        7.9330     2.0870    -0.7510 H     1 <1>   0.0800 
@<TRIPOS>BOND
  1   1   2  2   
  2   2   3  am  
  3   2   4  1   
  4   3   5  1   
  5   3  23  1   
  6   4   6  2   
  7   4   7  1   
  8   5   8  1   
  9   5   9  2   
 10   6  10  1   
 11   6  11  1   
 12   7  12  2   
 13   7  24  1   
 14   8  13  1   
 15   8  14  1   
 16   9  15  1   
 17   9  16  1   
 18  10  12  1   
 19  10  17  1   
 20  11  18  1   
 21  11  19  1   
 22  13  15  2   
 23  14  20  1   
 24  14  25  1   
 25  14  26  1   
 26  15  27  1   
 27  16  28  1   
 28  16  29  1   
 29  16  30  1   
 30  17  18  2   
 31  17  31  1   
 32  18  32  1   
 33  19  33  1   
 34  19  34  1   
 35  19  35  1   
 36  20  21  1   
 37  20  36  1   
 38  20  37  1   
 39  21  22  1   
 40  21  38  1   
 41  21  39  1   
 42  22  40  1   
 43  22  41  1   
 44  22  42  1   
@<TRIPOS>SUBSTRUCTURE
  1 ****   3 GROUP 4 **** **** 0

# MOE 2024.06 (io_trps.svl 2023.06)
