@<TRIPOS>MOLECULE
NONAME
43 44 1 0 0 
SMALL
USER_CHARGES


@<TRIPOS>ATOM
  1 CL       2.5460    -0.1120     2.1650 Cl    1 <1>  -0.1770 
  2 C        2.6030     1.0620     0.8750 C.ar  1 <1>   0.1770 
  3 C        2.7200     2.4040     1.1870 C.ar  1 <1>  -0.1500 
  4 C        2.5320     0.6310    -0.4360 C.ar  1 <1>  -0.1500 
  5 C        2.7670     3.3420     0.1660 C.ar  1 <1>  -0.1440 
  6 C        2.5790     1.5670    -1.4550 C.ar  1 <1>  -0.1500 
  7 C        2.6960     2.9150    -1.1530 C.ar  1 <1>  -0.1500 
  8 C        2.8990     4.8230     0.4800 C.3   1 <1>  -0.0160 
  9 C        4.3590     5.2600     0.3670 C.3   1 <1>   0.1400 
 10 N        4.4820     6.7040     0.6750 N.am  1 <1>  -0.7300 
 11 C        4.4070     7.6920    -0.2550 C.2   1 <1>   0.5690 
 12 O        4.1960     7.4480    -1.4180 O.2   1 <1>  -0.5700 
 13 C        4.5960     9.1380     0.2040 C.3   1 <1>  -0.0190 
 14 C        3.8250    10.1510    -0.6690 C.3   1 <1>  -0.1600 
 15 C        6.0970     9.5050     0.2680 C.3   1 <1>  -0.1600 
 16 C        3.9030    11.5870    -0.1060 C.3   1 <1>   0.2000 
 17 C        6.3690    11.0240     0.2480 C.3   1 <1>  -0.1600 
 18 O        3.9120    12.4890    -1.1850 O.3   1 <1>  -0.5600 
 19 C        5.1680    11.8220     0.7620 C.3   1 <1>   0.2000 
 20 C        2.6740    12.7070    -1.7890 C.3   1 <1>   0.0400 
 21 O        5.4980    13.1610     0.7300 O.3   1 <1>  -0.6800 
 22 H        2.7710     2.7000     2.2190 H     1 <1>   0.1500 
 23 H        2.4420    -0.4180    -0.6510 H     1 <1>   0.1500 
 24 H        2.5250     1.2490    -2.4830 H     1 <1>   0.1500 
 25 H        2.7320     3.6350    -1.9540 H     1 <1>   0.1500 
 26 H        2.5360     5.0200     1.4720 H     1 <1>   0.0800 
 27 H        2.3050     5.3890    -0.2170 H     1 <1>   0.0800 
 28 H        4.7120     5.0750    -0.6350 H     1 <1>   0.0800 
 29 H        4.9700     4.6920     1.0470 H     1 <1>   0.0800 
 30 H        4.6640     6.9390     1.6510 H     1 <1>   0.3700 
 31 H        4.1910     9.2060     1.1980 H     1 <1>   0.0800 
 32 H        2.7950     9.8510    -0.7400 H     1 <1>   0.0800 
 33 H        4.2490    10.1300    -1.6590 H     1 <1>   0.0800 
 34 H        6.5190     9.0780     1.1610 H     1 <1>   0.0800 
 35 H        6.6100     9.0630    -0.5700 H     1 <1>   0.0800 
 36 H        3.0430    11.7920     0.5070 H     1 <1>   0.0800 
 37 H        6.5660    11.3270    -0.7670 H     1 <1>   0.0800 
 38 H        7.2390    11.2450     0.8410 H     1 <1>   0.0800 
 39 H        4.9740    11.5560     1.7870 H     1 <1>   0.0800 
 40 H        2.8090    13.4320    -2.5720 H     1 <1>   0.0800 
 41 H        1.9830    13.0900    -1.0580 H     1 <1>   0.0800 
 42 H        2.3110    11.7870    -2.2110 H     1 <1>   0.0800 
 43 H        5.2150    13.4830    -0.1560 H     1 <1>   0.4000 
@<TRIPOS>BOND
  1   1   2  1   
  2   2   3  ar  
  3   2   4  ar  
  4   3   5  ar  
  5   3  22  1   
  6   4   6  ar  
  7   4  23  1   
  8   5   7  ar  
  9   5   8  1   
 10   6   7  ar  
 11   6  24  1   
 12   7  25  1   
 13   8   9  1   
 14   8  26  1   
 15   8  27  1   
 16   9  10  1   
 17   9  28  1   
 18   9  29  1   
 19  10  11  am  
 20  10  30  1   
 21  11  12  2   
 22  11  13  1   
 23  13  14  1   
 24  13  15  1   
 25  13  31  1   
 26  14  16  1   
 27  14  32  1   
 28  14  33  1   
 29  15  17  1   
 30  15  34  1   
 31  15  35  1   
 32  16  18  1   
 33  16  19  1   
 34  16  36  1   
 35  17  19  1   
 36  17  37  1   
 37  17  38  1   
 38  18  20  1   
 39  19  21  1   
 40  19  39  1   
 41  20  40  1   
 42  20  41  1   
 43  20  42  1   
 44  21  43  1   
@<TRIPOS>SUBSTRUCTURE
  1 ****  10 GROUP 4 **** **** 0

# MOE 2024.06 (io_trps.svl 2023.06)
