@<TRIPOS>MOLECULE
NONAME
44 47 1 0 0 
SMALL
USER_CHARGES


@<TRIPOS>ATOM
  1 O       -2.6220     1.4020    -2.8300 O.2   1 <1>  -0.5700 
  2 C       -1.9920     1.4480    -1.7890 C.2   1 <1>   0.7160 
  3 N       -1.7630     0.2980    -1.1040 N.am  1 <1>  -0.7300 
  4 C       -1.4980     2.6820    -1.2650 C.2   1 <1>  -0.0860 
  5 C       -2.2740    -1.0470    -1.4360 C.3   1 <1>   0.2200 
  6 C       -0.8330     2.9240    -0.0910 C.2   1 <1>  -0.0260 
  7 C       -1.5970     3.9370    -1.8600 C.2   1 <1>   0.1390 
  8 C       -3.3760    -1.4110    -0.4560 C.3   1 <1>  -0.0800 
  9 C       -1.2060    -2.1000    -1.1350 C.3   1 <1>   0.1200 
 10 N       -0.4520     2.0640     0.9160 N.2   1 <1>  -0.5760 
 11 N       -0.5830     4.2730    -0.0640 N.pl3 1 <1>   0.6010 
 12 N       -1.0590     4.8930    -1.1610 N.2   1 <1>  -0.7070 
 13 C       -2.5670    -1.9570     0.7210 C.3   1 <1>   0.1200 
 14 C       -4.3310    -2.4650    -1.0460 C.3   1 <1>  -0.0160 
 15 O       -1.4270    -2.5470     0.1730 O.3   1 <1>  -0.5600 
 16 C        0.1740     2.6010     1.9170 C.2   1 <1>   0.3760 
 17 C        0.0820     4.8210     1.0080 C.2   1 <1>  -0.1810 
 18 C       -5.4410    -2.8170    -0.0670 C.ar  1 <1>  -0.1430 
 19 C        0.4710     3.9920     2.0150 C.2   1 <1>  -0.1240 
 20 C       -5.4500    -4.0060     0.6340 C.ar  1 <1>  -0.1500 
 21 C       -6.4980    -1.9620     0.1700 C.ar  1 <1>  -0.1500 
 22 C        1.2120     4.5080     3.2380 C.3   1 <1>  -0.1020 
 23 C       -6.4840    -4.2730     1.5160 C.ar  1 <1>   0.1600 
 24 C       -7.4830    -2.3250     1.0740 C.ar  1 <1>   0.1600 
 25 N       -7.5010    -3.4600     1.7530 N.ar  1 <1>  -0.6200 
 26 H       -1.2490     0.3960    -0.2190 H     1 <1>   0.3700 
 27 H       -2.5930    -1.0790    -2.4640 H     1 <1>   0.0800 
 28 H       -2.0760     4.1020    -2.8130 H     1 <1>   0.1500 
 29 H       -3.9460    -0.5460    -0.1670 H     1 <1>   0.0800 
 30 H       -0.2080    -1.7060    -1.2160 H     1 <1>   0.0800 
 31 H       -1.3170    -2.9470    -1.7870 H     1 <1>   0.0800 
 32 H       -3.0990    -2.6860     1.3060 H     1 <1>   0.0800 
 33 H       -2.2410    -1.1540     1.3600 H     1 <1>   0.0800 
 34 H       -3.7870    -3.3550    -1.3100 H     1 <1>   0.0800 
 35 H       -4.7770    -2.0780    -1.9460 H     1 <1>   0.0800 
 36 H        0.4920     1.9660     2.7260 H     1 <1>   0.0600 
 37 H        0.2490     5.8800     0.9720 H     1 <1>   0.1500 
 38 H       -4.6620    -4.7260     0.5060 H     1 <1>   0.1500 
 39 H       -6.5650    -1.0180    -0.3390 H     1 <1>   0.1500 
 40 H        2.1730     4.0310     3.3170 H     1 <1>   0.0800 
 41 H        0.6460     4.2990     4.1290 H     1 <1>   0.0800 
 42 H        1.3640     5.5710     3.1720 H     1 <1>   0.0800 
 43 H       -6.4740    -5.2050     2.0540 H     1 <1>   0.1500 
 44 H       -8.2990    -1.6440     1.2460 H     1 <1>   0.1500 
@<TRIPOS>BOND
  1   1   2  2   
  2   2   3  am  
  3   2   4  1   
  4   3   5  1   
  5   3  26  1   
  6   4   6  2   
  7   4   7  1   
  8   5   8  1   
  9   5   9  1   
 10   5  27  1   
 11   6  10  1   
 12   6  11  1   
 13   7  12  2   
 14   7  28  1   
 15   8  13  1   
 16   8  14  1   
 17   8  29  1   
 18   9  15  1   
 19   9  30  1   
 20   9  31  1   
 21  10  16  2   
 22  11  12  1   
 23  11  17  1   
 24  13  15  1   
 25  13  32  1   
 26  13  33  1   
 27  14  18  1   
 28  14  34  1   
 29  14  35  1   
 30  16  19  1   
 31  16  36  1   
 32  17  19  2   
 33  17  37  1   
 34  18  20  ar  
 35  18  21  ar  
 36  19  22  1   
 37  20  23  ar  
 38  20  38  1   
 39  21  24  ar  
 40  21  39  1   
 41  22  40  1   
 42  22  41  1   
 43  22  42  1   
 44  23  25  ar  
 45  23  43  1   
 46  24  25  ar  
 47  24  44  1   
@<TRIPOS>SUBSTRUCTURE
  1 ****   3 GROUP 4 **** **** 0

# MOE 2024.06 (io_trps.svl 2023.06)
