@<TRIPOS>MOLECULE
NONAME
50 53 1 0 0 
SMALL
USER_CHARGES


@<TRIPOS>ATOM
  1 O        2.9110    -1.4250    -2.7870 O.2   1 <1>  -0.5700 
  2 C        2.2940    -1.3030    -1.7550 C.2   1 <1>   0.5690 
  3 N        2.9760    -1.0630    -0.5830 N.am  1 <1>  -0.6600 
  4 C        0.7690    -1.3980    -1.8490 C.3   1 <1>   0.0820 
  5 C        2.3680    -0.3850     0.6080 C.3   1 <1>   0.1400 
  6 C        4.3940    -1.5070    -0.4500 C.3   1 <1>   0.1400 
  7 C        0.0550    -1.8650    -0.5820 C.2   1 <1>  -0.1810 
  8 C        3.2560     0.6920     1.2810 C.3   1 <1>   0.4230 
  9 C        5.3790    -0.3200    -0.4290 C.3   1 <1>  -0.0800 
 10 C        0.4260    -3.0280     0.1350 C.ar  1 <1>   0.0000 
 11 C       -0.9930    -1.2960     0.0690 C.2   1 <1>  -0.3320 
 12 N        3.9420     1.6470     0.3250 N.4   1 <1>  -0.9590 
 13 C        4.3010     0.0790     2.2480 C.3   1 <1>   0.1200 
 14 C        6.2170    -0.2610     0.8680 C.3   1 <1>   0.1200 
 15 C        4.7060     1.0140    -0.8050 C.3   1 <1>   0.3430 
 16 C       -0.4210    -3.0970     1.2350 C.ar  1 <1>  -0.1520 
 17 C        1.3990    -4.0180    -0.0430 C.ar  1 <1>  -0.1500 
 18 N       -1.2940    -2.0440     1.1730 N.pl3 1 <1>   0.0330 
 19 C       -1.8080    -0.0570    -0.2650 C.3   1 <1>  -0.0600 
 20 C        3.0430     2.7260    -0.1710 C.3   1 <1>   0.2630 
 21 O        5.6010     0.4700     1.8910 O.3   1 <1>  -0.5600 
 22 C       -0.3040    -4.1250     2.1740 C.ar  1 <1>  -0.1500 
 23 C        1.5170    -5.0300     0.8810 C.ar  1 <1>  -0.1500 
 24 C        0.6670    -5.0820     1.9920 C.ar  1 <1>  -0.1500 
 25 H        0.3980    -0.4410    -2.1550 H     1 <1>   0.0800 
 26 H        0.5330    -2.0950    -2.6320 H     1 <1>   0.0800 
 27 H        1.4580     0.1020     0.3080 H     1 <1>   0.0800 
 28 H        2.0970    -1.1330     1.3340 H     1 <1>   0.0800 
 29 H        4.4930    -2.1140     0.4330 H     1 <1>   0.0800 
 30 H        4.6450    -2.1480    -1.2800 H     1 <1>   0.0800 
 31 H        2.5940     1.2660     1.9080 H     1 <1>   0.0800 
 32 H        6.0800    -0.5360    -1.2160 H     1 <1>   0.0800 
 33 H        4.6860     2.0460     0.9260 H     1 <1>   0.4500 
 34 H        4.2440    -0.9950     2.2960 H     1 <1>   0.0800 
 35 H        4.1190     0.4540     3.2390 H     1 <1>   0.0800 
 36 H        7.1560     0.2280     0.6680 H     1 <1>   0.0800 
 37 H        6.4370    -1.2490     1.2390 H     1 <1>   0.0800 
 38 H        4.0440     0.8350    -1.6380 H     1 <1>   0.0800 
 39 H        5.4650     1.7020    -1.1390 H     1 <1>   0.0800 
 40 H        2.0430    -3.9800    -0.9020 H     1 <1>   0.1500 
 41 H       -2.0660    -1.8850     1.8280 H     1 <1>   0.2700 
 42 H       -1.4690     0.4000    -1.1760 H     1 <1>   0.0800 
 43 H       -1.7350     0.6630     0.5300 H     1 <1>   0.0800 
 44 H       -2.8420    -0.3250    -0.3930 H     1 <1>   0.0800 
 45 H        2.2720     2.3080    -0.7970 H     1 <1>   0.0800 
 46 H        3.6040     3.4420    -0.7490 H     1 <1>   0.0800 
 47 H        2.5800     3.2400     0.6560 H     1 <1>   0.0800 
 48 H       -0.9670    -4.1630     3.0200 H     1 <1>   0.1500 
 49 H        2.2600    -5.7980     0.7550 H     1 <1>   0.1500 
 50 H        0.7780    -5.8860     2.6990 H     1 <1>   0.1500 
@<TRIPOS>BOND
  1   1   2  2   
  2   2   3  am  
  3   2   4  1   
  4   3   5  1   
  5   3   6  1   
  6   4   7  1   
  7   4  25  1   
  8   4  26  1   
  9   5   8  1   
 10   5  27  1   
 11   5  28  1   
 12   6   9  1   
 13   6  29  1   
 14   6  30  1   
 15   7  10  1   
 16   7  11  2   
 17   8  12  1   
 18   8  13  1   
 19   8  31  1   
 20   9  14  1   
 21   9  15  1   
 22   9  32  1   
 23  10  16  ar  
 24  10  17  ar  
 25  11  18  1   
 26  11  19  1   
 27  12  15  1   
 28  12  20  1   
 29  12  33  1   
 30  13  21  1   
 31  13  34  1   
 32  13  35  1   
 33  14  21  1   
 34  14  36  1   
 35  14  37  1   
 36  15  38  1   
 37  15  39  1   
 38  16  18  1   
 39  16  22  ar  
 40  17  23  ar  
 41  17  40  1   
 42  18  41  1   
 43  19  42  1   
 44  19  43  1   
 45  19  44  1   
 46  20  45  1   
 47  20  46  1   
 48  20  47  1   
 49  22  24  ar  
 50  22  48  1   
 51  23  24  ar  
 52  23  49  1   
 53  24  50  1   
@<TRIPOS>SUBSTRUCTURE
  1 ****   5 GROUP 4 **** **** 0

# MOE 2024.06 (io_trps.svl 2023.06)
