@<TRIPOS>MOLECULE
NONAME
48 50 1 0 0 
SMALL
USER_CHARGES


@<TRIPOS>ATOM
  1 O       -2.0880     0.4500     0.4790 O.2   1 <1>  -0.5700 
  2 C       -2.5060     1.3010    -0.2900 C.2   1 <1>   0.7670 
  3 N       -1.7910     2.4730    -0.3630 N.2   1 <1>  -0.6610 
  4 C       -3.6850     1.1100    -1.0740 C.2   1 <1>   0.0290 
  5 C       -2.1790     3.3710    -1.1860 C.2   1 <1>   0.4400 
  6 C       -4.4420    -0.1020    -0.9640 C.2   1 <1>   0.6160 
  7 C       -4.0350     2.1040    -1.9400 C.2   1 <1>  -0.0500 
  8 N       -3.2760     3.2350    -1.9890 N.pl3 1 <1>  -0.5500 
  9 O       -4.7160    -0.6960    -1.9930 O.2   1 <1>  -0.5700 
 10 N       -4.9480    -0.5960     0.2250 N.am  1 <1>  -0.6600 
 11 C       -5.5070    -1.9790     0.2770 C.3   1 <1>   0.1400 
 12 C       -4.9480     0.1720     1.5050 C.3   1 <1>   0.1400 
 13 C       -7.0080    -1.9830    -0.0450 C.3   1 <1>   0.1400 
 14 C       -6.2710     0.0850     2.2790 C.3   1 <1>  -0.1600 
 15 N       -7.8280    -1.4070     1.0700 N.am  1 <1>  -0.6600 
 16 C       -7.5240     0.0160     1.3990 C.3   1 <1>   0.1400 
 17 C       -8.8300    -2.0770     1.7420 C.2   1 <1>   0.5690 
 18 O       -9.4470    -1.5310     2.6300 O.2   1 <1>  -0.5700 
 19 C       -9.1920    -3.5400     1.4060 C.3   1 <1>   0.1240 
 20 C       -9.8010    -3.6800     0.0090 C.ar  1 <1>  -0.1430 
 21 C      -10.1430    -4.1980     2.4230 C.3   1 <1>  -0.2400 
 22 C      -10.7490    -2.7740    -0.4460 C.ar  1 <1>  -0.1500 
 23 C       -9.4100    -4.7210    -0.8220 C.ar  1 <1>  -0.1500 
 24 C      -11.2890    -2.8990    -1.7140 C.ar  1 <1>  -0.1500 
 25 C       -9.9490    -4.8470    -2.0910 C.ar  1 <1>  -0.1500 
 26 C      -10.8880    -3.9350    -2.5380 C.ar  1 <1>  -0.1500 
 27 H       -1.6290     4.2940    -1.2690 H     1 <1>   0.0600 
 28 H       -4.8940     2.0190    -2.5890 H     1 <1>   0.1500 
 29 H       -3.5020     3.9980    -2.6360 H     1 <1>   0.4000 
 30 H       -5.3340    -2.4170     1.2440 H     1 <1>   0.0800 
 31 H       -4.9980    -2.5900    -0.4490 H     1 <1>   0.0800 
 32 H       -4.7590     1.2090     1.2960 H     1 <1>   0.0800 
 33 H       -4.1430    -0.1840     2.1280 H     1 <1>   0.0800 
 34 H       -7.2970    -2.9950    -0.2480 H     1 <1>   0.0800 
 35 H       -7.1820    -1.4200    -0.9460 H     1 <1>   0.0800 
 36 H       -6.3400     0.9610     2.8980 H     1 <1>   0.0800 
 37 H       -6.2540    -0.7580     2.9480 H     1 <1>   0.0800 
 38 H       -7.3910     0.5840     0.4950 H     1 <1>   0.0800 
 39 H       -8.3520     0.4510     1.9320 H     1 <1>   0.0800 
 40 H       -8.2740    -4.0960     1.4420 H     1 <1>   0.0800 
 41 H      -11.0870    -3.6830     2.4350 H     1 <1>   0.0800 
 42 H       -9.7180    -4.1550     3.4100 H     1 <1>   0.0800 
 43 H      -10.3160    -5.2270     2.1620 H     1 <1>   0.0800 
 44 H      -11.0730    -1.9640     0.1870 H     1 <1>   0.1500 
 45 H       -8.6850    -5.4420    -0.4880 H     1 <1>   0.1500 
 46 H      -12.0220    -2.1900    -2.0570 H     1 <1>   0.1500 
 47 H       -9.6390    -5.6550    -2.7300 H     1 <1>   0.1500 
 48 H      -11.3070    -4.0310    -3.5240 H     1 <1>   0.1500 
@<TRIPOS>BOND
  1   1   2  2   
  2   2   3  1   
  3   2   4  1   
  4   3   5  2   
  5   4   6  1   
  6   4   7  2   
  7   5   8  1   
  8   5  27  1   
  9   6   9  2   
 10   6  10  am  
 11   7   8  1   
 12   7  28  1   
 13   8  29  1   
 14  10  11  1   
 15  10  12  1   
 16  11  13  1   
 17  11  30  1   
 18  11  31  1   
 19  12  14  1   
 20  12  32  1   
 21  12  33  1   
 22  13  15  1   
 23  13  34  1   
 24  13  35  1   
 25  14  16  1   
 26  14  36  1   
 27  14  37  1   
 28  15  16  1   
 29  15  17  am  
 30  16  38  1   
 31  16  39  1   
 32  17  18  2   
 33  17  19  1   
 34  19  20  1   
 35  19  21  1   
 36  19  40  1   
 37  20  22  ar  
 38  20  23  ar  
 39  21  41  1   
 40  21  42  1   
 41  21  43  1   
 42  22  24  ar  
 43  22  44  1   
 44  23  25  ar  
 45  23  45  1   
 46  24  26  ar  
 47  24  46  1   
 48  25  26  ar  
 49  25  47  1   
 50  26  48  1   
@<TRIPOS>SUBSTRUCTURE
  1 ****  13 GROUP 4 **** **** 0

# MOE 2024.06 (io_trps.svl 2023.06)
