@<TRIPOS>MOLECULE
NONAME
53 55 1 0 0 
SMALL
USER_CHARGES


@<TRIPOS>ATOM
  1 O        0.1720    -1.9140    -0.5390 O.2   1 <1>  -0.5700 
  2 C        0.9560    -2.6890    -0.0460 C.2   1 <1>   0.5690 
  3 N        0.7150    -3.4780     1.0200 N.am  1 <1>  -0.6600 
  4 C        2.3360    -2.9280    -0.5910 C.3   1 <1>  -0.0990 
  5 C        1.8200    -4.4140     1.2980 C.3   1 <1>   0.1400 
  6 C       -0.6180    -3.6750     1.6730 C.3   1 <1>   0.2010 
  7 C        2.9680    -3.9050     0.4160 C.3   1 <1>  -0.1600 
  8 C       -1.1980    -5.0590     1.3710 C.2   1 <1>   0.5690 
  9 O       -1.0740    -5.9140     2.2210 O.2   1 <1>  -0.5700 
 10 N       -1.7750    -5.3330     0.1580 N.am  1 <1>  -0.6600 
 11 C       -1.6910    -6.7360    -0.3520 C.3   1 <1>   0.3640 
 12 C       -2.3390    -4.2730    -0.7350 C.3   1 <1>   0.1400 
 13 C       -0.2210    -7.0110    -0.6910 C.ar  1 <1>  -0.1440 
 14 C       -2.6140    -7.0680    -1.5610 C.3   1 <1>   0.2000 
 15 C       -2.9250    -4.8050    -2.0520 C.3   1 <1>   0.1200 
 16 C        0.4660    -7.9960     0.0020 C.ar  1 <1>  -0.1500 
 17 C        0.4540    -6.2700    -1.6500 C.ar  1 <1>  -0.1500 
 18 O       -3.5270    -6.0440    -1.8550 O.3   1 <1>  -0.5600 
 19 C       -3.4280    -8.3480    -1.3250 C.3   1 <1>   0.1200 
 20 C        1.8150    -8.2480    -0.2390 C.ar  1 <1>   0.0820 
 21 C        1.7870    -6.5190    -1.9130 C.ar  1 <1>  -0.1500 
 22 O       -2.5850    -9.4320    -1.0890 O.3   1 <1>  -0.6800 
 23 O        2.4960    -9.1840     0.4850 O.3   1 <1>  -0.3630 
 24 C        2.4800    -7.4990    -1.2250 C.ar  1 <1>   0.0820 
 25 C        1.9520    -9.7600     1.6540 C.3   1 <1>   0.0400 
 26 O        3.7880    -7.6290    -1.5850 O.3   1 <1>  -0.3630 
 27 C        4.4580    -8.8660    -1.4910 C.3   1 <1>   0.0400 
 28 H        2.2560    -3.3750    -1.5640 H     1 <1>   0.0800 
 29 H        2.8830    -2.0050    -0.6520 H     1 <1>   0.0800 
 30 H        2.0840    -4.3960     2.3410 H     1 <1>   0.0800 
 31 H        1.5360    -5.4130     1.0110 H     1 <1>   0.0800 
 32 H       -0.5000    -3.5760     2.7360 H     1 <1>   0.0800 
 33 H       -1.3000    -2.9130     1.3450 H     1 <1>   0.0800 
 34 H        3.6790    -3.3850     1.0330 H     1 <1>   0.0800 
 35 H        3.4690    -4.7220    -0.0740 H     1 <1>   0.0800 
 36 H       -1.9740    -7.3880     0.4570 H     1 <1>   0.0800 
 37 H       -3.1190    -3.7600    -0.2020 H     1 <1>   0.0800 
 38 H       -1.5790    -3.5520    -0.9720 H     1 <1>   0.0800 
 39 H       -2.0160    -7.2130    -2.4430 H     1 <1>   0.0800 
 40 H       -2.1620    -4.9030    -2.8040 H     1 <1>   0.0800 
 41 H       -3.6740    -4.1260    -2.4190 H     1 <1>   0.0800 
 42 H       -0.0740    -8.5540     0.7440 H     1 <1>   0.1500 
 43 H       -0.0470    -5.4880    -2.1890 H     1 <1>   0.1500 
 44 H       -4.0340    -8.5730    -2.1840 H     1 <1>   0.0800 
 45 H       -4.0590    -8.2290    -0.4610 H     1 <1>   0.0800 
 46 H        2.3050    -5.9450    -2.6600 H     1 <1>   0.1500 
 47 H       -2.0690    -9.6580    -1.8880 H     1 <1>   0.4000 
 48 H        2.7110   -10.3710     2.1100 H     1 <1>   0.0800 
 49 H        1.1080   -10.3690     1.3840 H     1 <1>   0.0800 
 50 H        1.6610    -8.9740     2.3290 H     1 <1>   0.0800 
 51 H        5.3250    -8.8270    -2.1250 H     1 <1>   0.0800 
 52 H        3.7970    -9.6500    -1.8170 H     1 <1>   0.0800 
 53 H        4.7600    -9.0210    -0.4710 H     1 <1>   0.0800 
@<TRIPOS>BOND
  1   1   2  2   
  2   2   3  am  
  3   2   4  1   
  4   3   5  1   
  5   3   6  1   
  6   4   7  1   
  7   4  28  1   
  8   4  29  1   
  9   5   7  1   
 10   5  30  1   
 11   5  31  1   
 12   6   8  1   
 13   6  32  1   
 14   6  33  1   
 15   7  34  1   
 16   7  35  1   
 17   8   9  2   
 18   8  10  am  
 19  10  11  1   
 20  10  12  1   
 21  11  13  1   
 22  11  14  1   
 23  11  36  1   
 24  12  15  1   
 25  12  37  1   
 26  12  38  1   
 27  13  16  ar  
 28  13  17  ar  
 29  14  18  1   
 30  14  19  1   
 31  14  39  1   
 32  15  18  1   
 33  15  40  1   
 34  15  41  1   
 35  16  20  ar  
 36  16  42  1   
 37  17  21  ar  
 38  17  43  1   
 39  19  22  1   
 40  19  44  1   
 41  19  45  1   
 42  20  23  1   
 43  20  24  ar  
 44  21  24  ar  
 45  21  46  1   
 46  22  47  1   
 47  23  25  1   
 48  24  26  1   
 49  25  48  1   
 50  25  49  1   
 51  25  50  1   
 52  26  27  1   
 53  27  51  1   
 54  27  52  1   
 55  27  53  1   
@<TRIPOS>SUBSTRUCTURE
  1 ****  13 GROUP 4 **** **** 0

# MOE 2024.06 (io_trps.svl 2023.06)
