@<TRIPOS>MOLECULE
NONAME
47 49 1 0 0 
SMALL
USER_CHARGES


@<TRIPOS>ATOM
  1 CL      -1.2660    -1.1600     0.2610 Cl    1 <1>  -0.1770 
  2 C       -2.8270    -0.3990     0.1250 C.ar  1 <1>   0.1770 
  3 C       -3.6760    -0.7650    -0.9020 C.ar  1 <1>  -0.1500 
  4 C       -3.1980     0.5640     1.0450 C.ar  1 <1>  -0.1500 
  5 C       -4.9150    -0.1570    -1.0050 C.ar  1 <1>  -0.1500 
  6 C       -4.4390     1.1640     0.9340 C.ar  1 <1>  -0.1500 
  7 C       -5.3260     0.8120    -0.0860 C.ar  1 <1>   0.0530 
  8 C       -6.6230     1.4300    -0.1820 C.2   1 <1>   0.0870 
  9 O       -6.7940     2.6860     0.1450 O.3   1 <1>  -0.0190 
 10 C       -7.8310     0.9590    -0.5860 C.2   1 <1>  -0.0860 
 11 N       -8.0230     3.0940    -0.0350 N.2   1 <1>  -0.4100 
 12 C       -8.6630     2.0730    -0.4860 C.2   1 <1>   0.3720 
 13 C       -8.2500    -0.3380    -1.0130 C.2   1 <1>   0.7160 
 14 N      -10.0100     2.0650    -0.8310 N.pl3 1 <1>  -0.8520 
 15 O       -8.9060    -0.4440    -2.0350 O.2   1 <1>  -0.5700 
 16 N       -7.9370    -1.4790    -0.3000 N.am  1 <1>  -0.6600 
 17 C      -10.6130     3.3600    -1.2470 C.3   1 <1>   0.2090 
 18 C       -8.0980    -2.8320    -0.9040 C.3   1 <1>   0.1400 
 19 C       -7.6980    -1.4670     1.1730 C.3   1 <1>   0.1400 
 20 C      -12.1230     3.2000    -1.4190 C.3   1 <1>   0.1200 
 21 C       -6.8690    -3.6860    -0.5890 C.3   1 <1>  -0.1600 
 22 C       -6.4790    -2.3260     1.5210 C.3   1 <1>  -0.1600 
 23 O      -12.6540     4.3990    -1.8900 O.3   1 <1>  -0.5600 
 24 C       -6.6200    -3.7240     0.9190 C.3   1 <1>   0.2600 
 25 C      -14.0350     4.3740    -2.0590 C.3   1 <1>   0.0400 
 26 F       -5.4760    -4.3610     1.1170 F     1 <1>  -0.3400 
 27 H       -3.3650    -1.5140    -1.6080 H     1 <1>   0.1500 
 28 H       -2.5190     0.8360     1.8330 H     1 <1>   0.1500 
 29 H       -5.5710    -0.4390    -1.8100 H     1 <1>   0.1500 
 30 H       -4.7300     1.9150     1.6480 H     1 <1>   0.1500 
 31 H      -10.1880     1.3280    -1.5280 H     1 <1>   0.4000 
 32 H      -10.1720     3.6770    -2.1770 H     1 <1>   0.0800 
 33 H      -10.4220     4.1070    -0.4950 H     1 <1>   0.0800 
 34 H       -8.2150    -2.7590    -1.9720 H     1 <1>   0.0800 
 35 H       -8.9850    -3.2930    -0.5020 H     1 <1>   0.0800 
 36 H       -8.5700    -1.8640     1.6650 H     1 <1>   0.0800 
 37 H       -7.5480    -0.4650     1.5360 H     1 <1>   0.0800 
 38 H      -12.5760     2.9670    -0.4720 H     1 <1>   0.0800 
 39 H      -12.3350     2.4280    -2.1380 H     1 <1>   0.0800 
 40 H       -6.0160    -3.2640    -1.0900 H     1 <1>   0.0800 
 41 H       -7.0270    -4.6840    -0.9550 H     1 <1>   0.0800 
 42 H       -6.3920    -2.4010     2.5890 H     1 <1>   0.0800 
 43 H       -5.5940    -1.8530     1.1390 H     1 <1>   0.0800 
 44 H       -7.3800    -4.2940     1.4260 H     1 <1>   0.0800 
 45 H      -14.3450     5.3380    -2.4220 H     1 <1>   0.0800 
 46 H      -14.5050     4.1750    -1.1120 H     1 <1>   0.0800 
 47 H      -14.2910     3.6150    -2.7780 H     1 <1>   0.0800 
@<TRIPOS>BOND
  1   1   2  1   
  2   2   3  ar  
  3   2   4  ar  
  4   3   5  ar  
  5   3  27  1   
  6   4   6  ar  
  7   4  28  1   
  8   5   7  ar  
  9   5  29  1   
 10   6   7  ar  
 11   6  30  1   
 12   7   8  1   
 13   8   9  1   
 14   8  10  2   
 15   9  11  1   
 16  10  12  1   
 17  10  13  1   
 18  11  12  2   
 19  12  14  1   
 20  13  15  2   
 21  13  16  am  
 22  14  17  1   
 23  14  31  1   
 24  16  18  1   
 25  16  19  1   
 26  17  20  1   
 27  17  32  1   
 28  17  33  1   
 29  18  21  1   
 30  18  34  1   
 31  18  35  1   
 32  19  22  1   
 33  19  36  1   
 34  19  37  1   
 35  20  23  1   
 36  20  38  1   
 37  20  39  1   
 38  21  24  1   
 39  21  40  1   
 40  21  41  1   
 41  22  24  1   
 42  22  42  1   
 43  22  43  1   
 44  23  25  1   
 45  24  26  1   
 46  24  44  1   
 47  25  45  1   
 48  25  46  1   
 49  25  47  1   
@<TRIPOS>SUBSTRUCTURE
  1 ****  10 GROUP 4 **** **** 0

# MOE 2024.06 (io_trps.svl 2023.06)
