@<TRIPOS>MOLECULE
NONAME
39 41 1 0 0 
SMALL
USER_CHARGES


@<TRIPOS>ATOM
  1 O       -0.8440     0.5360    -0.8620 O.2   1 <1>  -0.5700 
  2 C       -1.7240     1.1250    -0.2640 C.2   1 <1>   0.7150 
  3 N       -2.9590     0.5290    -0.1230 N.am  1 <1>  -0.6600 
  4 C       -1.4480     2.4230     0.2930 C.2   1 <1>  -0.2370 
  5 C       -4.2080     1.3460    -0.1480 C.3   1 <1>   0.2200 
  6 C       -3.0740    -0.9510    -0.2980 C.3   1 <1>   0.0600 
  7 N       -1.9300     2.8370     1.5020 N.pl3 1 <1>   0.0330 
  8 C       -0.6760     3.4390    -0.2060 C.2   1 <1>  -0.1500 
  9 C       -5.0420     1.1960     1.1210 C.3   1 <1>  -0.1600 
 10 C       -5.1740     0.9940    -1.2780 C.3   1 <1>  -0.1600 
 11 C       -1.4810     4.0900     1.7380 C.2   1 <1>  -0.3020 
 12 C       -0.6940     4.5050     0.7000 C.2   1 <1>   0.0190 
 13 C       -6.4390     1.6840     0.7190 C.3   1 <1>  -0.0800 
 14 C       -6.5240     1.5560    -0.8130 C.3   1 <1>  -0.0800 
 15 C       -0.0090     5.7570     0.5360 C.1   1 <1>   0.5380 
 16 C       -6.6840     3.1650     1.0440 C.3   1 <1>  -0.1600 
 17 C       -6.8210     2.9640    -1.3510 C.3   1 <1>  -0.1600 
 18 N        0.5270     6.7550     0.4070 N.1   1 <1>  -0.5570 
 19 C       -7.4240     3.7060    -0.1690 C.3   1 <1>   0.2000 
 20 O       -7.2060     5.0590    -0.2950 O.3   1 <1>  -0.6800 
 21 H       -3.9570     2.3880    -0.2630 H     1 <1>   0.0800 
 22 H       -3.9080    -1.3400     0.2580 H     1 <1>   0.0800 
 23 H       -2.1760    -1.4330     0.0520 H     1 <1>   0.0800 
 24 H       -3.1990    -1.1840    -1.3410 H     1 <1>   0.0800 
 25 H       -2.5180     2.2620     2.1190 H     1 <1>   0.2700 
 26 H       -0.1360     3.4260    -1.1380 H     1 <1>   0.1500 
 27 H       -5.1090     0.1590     1.3980 H     1 <1>   0.0800 
 28 H       -4.6380     1.7550     1.9450 H     1 <1>   0.0800 
 29 H       -4.8560     1.4070    -2.2190 H     1 <1>   0.0800 
 30 H       -5.2790    -0.0700    -1.3780 H     1 <1>   0.0800 
 31 H       -1.7280     4.6360     2.6330 H     1 <1>   0.1500 
 32 H       -7.2020     1.0810     1.1840 H     1 <1>   0.0800 
 33 H       -7.3260     0.8900    -1.0860 H     1 <1>   0.0800 
 34 H       -5.7480     3.6840     1.1560 H     1 <1>   0.0800 
 35 H       -7.2700     3.2800     1.9380 H     1 <1>   0.0800 
 36 H       -7.5070     2.9300    -2.1800 H     1 <1>   0.0800 
 37 H       -5.9090     3.4460    -1.6580 H     1 <1>   0.0800 
 38 H       -8.4830     3.5240    -0.0930 H     1 <1>   0.0800 
 39 H       -6.2550     5.2380    -0.4080 H     1 <1>   0.4000 
@<TRIPOS>BOND
  1   1   2  2   
  2   2   3  am  
  3   2   4  1   
  4   3   5  1   
  5   3   6  1   
  6   4   7  1   
  7   4   8  2   
  8   5   9  1   
  9   5  10  1   
 10   5  21  1   
 11   6  22  1   
 12   6  23  1   
 13   6  24  1   
 14   7  11  1   
 15   7  25  1   
 16   8  12  1   
 17   8  26  1   
 18   9  13  1   
 19   9  27  1   
 20   9  28  1   
 21  10  14  1   
 22  10  29  1   
 23  10  30  1   
 24  11  12  2   
 25  11  31  1   
 26  12  15  1   
 27  13  14  1   
 28  13  16  1   
 29  13  32  1   
 30  14  17  1   
 31  14  33  1   
 32  15  18  3   
 33  16  19  1   
 34  16  34  1   
 35  16  35  1   
 36  17  19  1   
 37  17  36  1   
 38  17  37  1   
 39  19  20  1   
 40  19  38  1   
 41  20  39  1   
@<TRIPOS>SUBSTRUCTURE
  1 ****   5 GROUP 4 **** **** 0

# MOE 2024.06 (io_trps.svl 2023.06)
