@<TRIPOS>MOLECULE
NONAME
38 40 1 0 0 
SMALL
USER_CHARGES


@<TRIPOS>ATOM
  1 O       -0.3590     0.6170    -0.5640 O.2   1 <1>  -0.5700 
  2 C       -0.2340     1.7710    -0.2420 C.2   1 <1>   0.5690 
  3 N       -1.2950     2.4850     0.1890 N.am  1 <1>  -0.7300 
  4 C        1.1300     2.4560    -0.3600 C.3   1 <1>   0.1810 
  5 C       -1.2200     3.9120     0.5900 C.3   1 <1>   0.3640 
  6 O        1.2170     3.6530     0.3830 O.3   1 <1>  -0.5600 
  7 C       -2.3820     4.6620    -0.0610 C.ar  1 <1>  -0.1440 
  8 C        0.1350     4.5550     0.1910 C.3   1 <1>   0.2610 
  9 C       -3.1090     5.5810     0.6820 C.ar  1 <1>  -0.1500 
 10 C       -2.7240     4.4540    -1.3920 C.ar  1 <1>  -0.1500 
 11 C        0.3830     5.8730     0.9460 C.2   1 <1>   0.5690 
 12 C       -4.1580     6.2780     0.1090 C.ar  1 <1>  -0.1500 
 13 C       -3.7730     5.1500    -1.9670 C.ar  1 <1>  -0.1500 
 14 O       -0.2170     6.0930     1.9760 O.2   1 <1>  -0.5700 
 15 N        1.2720     6.7910     0.4470 N.am  1 <1>  -0.6600 
 16 C       -4.4910     6.0630    -1.2160 C.ar  1 <1>  -0.1500 
 17 C        1.5790     8.0590     1.1430 C.3   1 <1>   0.1400 
 18 C        2.2030     6.5650    -0.6810 C.3   1 <1>   0.1400 
 19 C        2.9310     8.4900     0.5860 C.3   1 <1>  -0.1600 
 20 C        2.9900     7.8650    -0.8050 C.3   1 <1>  -0.1600 
 21 H       -2.2060     2.0310     0.2600 H     1 <1>   0.3700 
 22 H        1.3290     2.6820    -1.3910 H     1 <1>   0.0800 
 23 H        1.8930     1.7920     0.0030 H     1 <1>   0.0800 
 24 H       -1.3270     3.9530     1.6600 H     1 <1>   0.0800 
 25 H        0.0960     4.7860    -0.8570 H     1 <1>   0.0800 
 26 H       -2.8580     5.7660     1.7140 H     1 <1>   0.1500 
 27 H       -2.1780     3.7460    -1.9930 H     1 <1>   0.1500 
 28 H       -4.7130     6.9890     0.6960 H     1 <1>   0.1500 
 29 H       -4.0320     4.9810    -2.9970 H     1 <1>   0.1500 
 30 H       -5.3070     6.6060    -1.6610 H     1 <1>   0.1500 
 31 H        0.8200     8.7830     0.9010 H     1 <1>   0.0800 
 32 H        1.6160     7.9170     2.2100 H     1 <1>   0.0800 
 33 H        2.8630     5.7490    -0.4340 H     1 <1>   0.0800 
 34 H        1.6690     6.3450    -1.5890 H     1 <1>   0.0800 
 35 H        3.0300     9.5610     0.5620 H     1 <1>   0.0800 
 36 H        3.7090     8.0790     1.2050 H     1 <1>   0.0800 
 37 H        3.9990     7.6920    -1.1350 H     1 <1>   0.0800 
 38 H        2.4950     8.5070    -1.5140 H     1 <1>   0.0800 
@<TRIPOS>BOND
  1   1   2  2   
  2   2   3  am  
  3   2   4  1   
  4   3   5  1   
  5   3  21  1   
  6   4   6  1   
  7   4  22  1   
  8   4  23  1   
  9   5   7  1   
 10   5   8  1   
 11   5  24  1   
 12   6   8  1   
 13   7   9  ar  
 14   7  10  ar  
 15   8  11  1   
 16   8  25  1   
 17   9  12  ar  
 18   9  26  1   
 19  10  13  ar  
 20  10  27  1   
 21  11  14  2   
 22  11  15  am  
 23  12  16  ar  
 24  12  28  1   
 25  13  16  ar  
 26  13  29  1   
 27  15  17  1   
 28  15  18  1   
 29  16  30  1   
 30  17  19  1   
 31  17  31  1   
 32  17  32  1   
 33  18  20  1   
 34  18  33  1   
 35  18  34  1   
 36  19  20  1   
 37  19  35  1   
 38  19  36  1   
 39  20  37  1   
 40  20  38  1   
@<TRIPOS>SUBSTRUCTURE
  1 ****   8 GROUP 4 **** **** 0

# MOE 2024.06 (io_trps.svl 2023.06)
