@<TRIPOS>MOLECULE
NONAME
44 45 1 0 0 
SMALL
USER_CHARGES


@<TRIPOS>ATOM
  1 O       -2.9320     1.2960    -1.9450 O.2   1 <1>  -0.5700 
  2 C       -2.5240     1.2500    -0.8110 C.2   1 <1>   0.5690 
  3 N       -2.3950     0.0800    -0.1430 N.am  1 <1>  -0.7300 
  4 C       -2.1440     2.5340    -0.1020 C.3   1 <1>  -0.0990 
  5 C       -2.6830    -1.2550    -0.7120 C.3   1 <1>   0.2200 
  6 C       -0.6170     2.7100    -0.0110 C.3   1 <1>  -0.1600 
  7 C       -3.9380    -1.8130    -0.0630 C.3   1 <1>  -0.0800 
  8 C       -1.6240    -2.2470    -0.2460 C.3   1 <1>   0.1200 
  9 C       -0.1880     3.9400     0.8100 C.3   1 <1>  -0.0800 
 10 C       -3.3880    -2.4340     1.2270 C.3   1 <1>   0.1200 
 11 C       -4.6240    -2.8550    -0.9680 C.3   1 <1>  -0.0160 
 12 O       -2.0240    -2.6710     1.0230 O.3   1 <1>  -0.5600 
 13 C       -0.6390     5.2560     0.1600 C.3   1 <1>  -0.2400 
 14 C        1.3360     3.9480     0.9690 C.3   1 <1>  -0.2400 
 15 C       -5.8930    -3.3990    -0.3300 C.ar  1 <1>  -0.1440 
 16 C       -7.0530    -2.6530    -0.2760 C.ar  1 <1>  -0.1500 
 17 C       -5.9540    -4.6610     0.2260 C.ar  1 <1>  -0.1500 
 18 C       -8.1840    -3.1880     0.3180 C.ar  1 <1>   0.1600 
 19 C       -7.1370    -5.1010     0.7970 C.ar  1 <1>   0.1600 
 20 N       -8.2530    -4.3940     0.8580 N.ar  1 <1>  -0.6200 
 21 H       -2.0390     0.0640     0.8150 H     1 <1>   0.3700 
 22 H       -2.5780     3.3530    -0.6460 H     1 <1>   0.0800 
 23 H       -2.5740     2.5250     0.8830 H     1 <1>   0.0800 
 24 H       -2.7460    -1.1990    -1.7860 H     1 <1>   0.0800 
 25 H       -0.2130     2.7810    -1.0070 H     1 <1>   0.0800 
 26 H       -0.1970     1.8300     0.4440 H     1 <1>   0.0800 
 27 H       -4.6430    -1.0310     0.1550 H     1 <1>   0.0800 
 28 H       -0.6420    -1.8110    -0.1910 H     1 <1>   0.0800 
 29 H       -1.6040    -3.1100    -0.8870 H     1 <1>   0.0800 
 30 H       -0.6260     3.8750     1.7930 H     1 <1>   0.0800 
 31 H       -3.8670    -3.3600     1.4890 H     1 <1>   0.0800 
 32 H       -3.4770    -1.7430     2.0470 H     1 <1>   0.0800 
 33 H       -3.9510    -3.6680    -1.1790 H     1 <1>   0.0800 
 34 H       -4.8820    -2.3960    -1.9070 H     1 <1>   0.0800 
 35 H       -0.2700     5.3260    -0.8480 H     1 <1>   0.0800 
 36 H       -0.2630     6.0950     0.7190 H     1 <1>   0.0800 
 37 H       -1.7110     5.3290     0.1420 H     1 <1>   0.0800 
 38 H        1.8170     4.0160     0.0090 H     1 <1>   0.0800 
 39 H        1.6680     3.0480     1.4560 H     1 <1>   0.0800 
 40 H        1.6460     4.7870     1.5670 H     1 <1>   0.0800 
 41 H       -7.0890    -1.6620    -0.6910 H     1 <1>   0.1500 
 42 H       -5.0950    -5.3070     0.2220 H     1 <1>   0.1500 
 43 H       -9.0800    -2.5910     0.3510 H     1 <1>   0.1500 
 44 H       -7.1660    -6.0880     1.2270 H     1 <1>   0.1500 
@<TRIPOS>BOND
  1   1   2  2   
  2   2   3  am  
  3   2   4  1   
  4   3   5  1   
  5   3  21  1   
  6   4   6  1   
  7   4  22  1   
  8   4  23  1   
  9   5   7  1   
 10   5   8  1   
 11   5  24  1   
 12   6   9  1   
 13   6  25  1   
 14   6  26  1   
 15   7  10  1   
 16   7  11  1   
 17   7  27  1   
 18   8  12  1   
 19   8  28  1   
 20   8  29  1   
 21   9  13  1   
 22   9  14  1   
 23   9  30  1   
 24  10  12  1   
 25  10  31  1   
 26  10  32  1   
 27  11  15  1   
 28  11  33  1   
 29  11  34  1   
 30  13  35  1   
 31  13  36  1   
 32  13  37  1   
 33  14  38  1   
 34  14  39  1   
 35  14  40  1   
 36  15  16  ar  
 37  15  17  ar  
 38  16  18  ar  
 39  16  41  1   
 40  17  19  ar  
 41  17  42  1   
 42  18  20  ar  
 43  18  43  1   
 44  19  20  ar  
 45  19  44  1   
@<TRIPOS>SUBSTRUCTURE
  1 ****   7 GROUP 4 **** **** 0

# MOE 2024.06 (io_trps.svl 2023.06)
