@<TRIPOS>MOLECULE
NONAME
47 49 1 0 0 
SMALL
USER_CHARGES


@<TRIPOS>ATOM
  1 O        1.6550    -0.0280     1.2450 O.2   1 <1>  -0.5700 
  2 C        2.4380    -0.7810     0.7030 C.2   1 <1>   0.5690 
  3 N        3.4140    -0.2810    -0.1290 N.am  1 <1>  -0.6600 
  4 C        2.3440    -2.3010     0.9990 C.3   1 <1>   0.2610 
  5 C        4.4330    -1.1030    -0.8590 C.3   1 <1>   0.1400 
  6 C        3.5110     1.1760    -0.4100 C.3   1 <1>   0.1400 
  7 O        1.9870    -3.0250    -0.1480 O.3   1 <1>  -0.5600 
  8 C        1.2730    -2.7170     2.0100 C.3   1 <1>  -0.1600 
  9 C        5.8300    -0.9960    -0.2270 C.3   1 <1>   0.1400 
 10 C        4.3700     1.8870     0.6430 C.3   1 <1>  -0.1600 
 11 C        0.6010    -3.0470    -0.2760 C.3   1 <1>   0.1200 
 12 C        0.0450    -2.9610     1.1440 C.3   1 <1>  -0.1600 
 13 N        6.2820     0.4240    -0.0610 N.am  1 <1>  -0.6600 
 14 C        5.6360     1.1340     1.0790 C.3   1 <1>   0.1400 
 15 C        7.1900     0.9740    -0.9300 C.2   1 <1>   0.5690 
 16 O        7.6240     0.3510    -1.8700 O.2   1 <1>  -0.5700 
 17 C        7.7060     2.3880    -0.7480 C.3   1 <1>  -0.0990 
 18 C        8.9490     2.4030     0.1450 C.3   1 <1>   0.0210 
 19 C        9.4310     3.8250     0.3590 C.2   1 <1>  -0.1810 
 20 C        8.8730     4.7780     1.2060 C.2   1 <1>   0.1390 
 21 C       10.4800     4.4510    -0.2140 C.2   1 <1>  -0.3020 
 22 N        9.5110     5.9070     1.1670 N.2   1 <1>  -0.7070 
 23 N       10.5090     5.7020     0.2870 N.pl3 1 <1>   0.3000 
 24 H        3.3080    -2.6460     1.3230 H     1 <1>   0.0800 
 25 H        4.4910    -0.7720    -1.8820 H     1 <1>   0.0800 
 26 H        4.1430    -2.1360    -0.8860 H     1 <1>   0.0800 
 27 H        2.5250     1.6110    -0.4260 H     1 <1>   0.0800 
 28 H        3.9440     1.3240    -1.3840 H     1 <1>   0.0800 
 29 H        1.1060    -1.9750     2.7710 H     1 <1>   0.0800 
 30 H        1.5790    -3.6340     2.4810 H     1 <1>   0.0800 
 31 H        6.5280    -1.5330    -0.8460 H     1 <1>   0.0800 
 32 H        5.8240    -1.4830     0.7320 H     1 <1>   0.0800 
 33 H        3.7640     2.0610     1.5140 H     1 <1>   0.0800 
 34 H        4.6420     2.8530     0.2600 H     1 <1>   0.0800 
 35 H        0.3140    -3.9560    -0.7750 H     1 <1>   0.0800 
 36 H        0.3050    -2.1920    -0.8610 H     1 <1>   0.0800 
 37 H       -0.6450    -2.1380     1.2120 H     1 <1>   0.0800 
 38 H       -0.4610    -3.8690     1.4200 H     1 <1>   0.0800 
 39 H        5.3620     0.4100     1.8290 H     1 <1>   0.0800 
 40 H        6.3280     1.8160     1.5400 H     1 <1>   0.0800 
 41 H        6.9430     3.0220    -0.3420 H     1 <1>   0.0800 
 42 H        7.9660     2.7820    -1.7140 H     1 <1>   0.0800 
 43 H        9.7290     1.8270    -0.3230 H     1 <1>   0.0800 
 44 H        8.7300     1.9530     1.0970 H     1 <1>   0.0800 
 45 H        8.0100     4.6130     1.8290 H     1 <1>   0.1500 
 46 H       11.1900     4.0870    -0.9340 H     1 <1>   0.1500 
 47 H       11.1900     6.4350     0.0510 H     1 <1>   0.2700 
@<TRIPOS>BOND
  1   1   2  2   
  2   2   3  am  
  3   2   4  1   
  4   3   5  1   
  5   3   6  1   
  6   4   7  1   
  7   4   8  1   
  8   4  24  1   
  9   5   9  1   
 10   5  25  1   
 11   5  26  1   
 12   6  10  1   
 13   6  27  1   
 14   6  28  1   
 15   7  11  1   
 16   8  12  1   
 17   8  29  1   
 18   8  30  1   
 19   9  13  1   
 20   9  31  1   
 21   9  32  1   
 22  10  14  1   
 23  10  33  1   
 24  10  34  1   
 25  11  12  1   
 26  11  35  1   
 27  11  36  1   
 28  12  37  1   
 29  12  38  1   
 30  13  14  1   
 31  13  15  am  
 32  14  39  1   
 33  14  40  1   
 34  15  16  2   
 35  15  17  1   
 36  17  18  1   
 37  17  41  1   
 38  17  42  1   
 39  18  19  1   
 40  18  43  1   
 41  18  44  1   
 42  19  20  1   
 43  19  21  2   
 44  20  22  2   
 45  20  45  1   
 46  21  23  1   
 47  21  46  1   
 48  22  23  1   
 49  23  47  1   
@<TRIPOS>SUBSTRUCTURE
  1 ****  14 GROUP 4 **** **** 0

# MOE 2024.06 (io_trps.svl 2023.06)
