@<TRIPOS>MOLECULE
NONAME
45 46 1 0 0 
SMALL
USER_CHARGES


@<TRIPOS>ATOM
  1 F       -1.6060    -1.0850     1.4430 F     1 <1>  -0.1900 
  2 C       -2.5210    -1.6640     0.7150 C.ar  1 <1>   0.1900 
  3 C       -3.8200    -1.7060     1.1850 C.ar  1 <1>  -0.1500 
  4 C       -2.1570    -2.2160    -0.4980 C.ar  1 <1>  -0.1500 
  5 C       -4.7860    -2.3230     0.4080 C.ar  1 <1>  -0.1500 
  6 C       -3.1330    -2.8300    -1.2660 C.ar  1 <1>  -0.1500 
  7 C       -4.4470    -2.8850    -0.8170 C.ar  1 <1>  -0.1430 
  8 C       -5.5080    -3.5680    -1.6630 C.3   1 <1>  -0.0160 
  9 C       -5.5010    -5.0780    -1.4000 C.3   1 <1>  -0.1600 
 10 C       -6.5990    -5.8010    -2.1980 C.3   1 <1>  -0.0990 
 11 C       -6.5890    -7.3010    -1.9400 C.2   1 <1>   0.5690 
 12 O       -5.8930    -7.9670    -2.6690 O.2   1 <1>  -0.5700 
 13 N       -7.3210    -7.8660    -0.9250 N.am  1 <1>  -0.6600 
 14 C       -7.2360    -9.3380    -0.6900 C.3   1 <1>   0.3200 
 15 C       -8.1190    -7.0780     0.0680 C.3   1 <1>   0.1400 
 16 C       -8.6210    -9.9350    -0.5370 C.2   1 <1>  -0.3320 
 17 C       -9.5570    -6.8520    -0.4150 C.3   1 <1>   0.1200 
 18 N       -9.2190   -10.1960     0.6420 N.pl3 1 <1>   0.0330 
 19 C       -9.4970   -10.3060    -1.4950 C.2   1 <1>   0.0770 
 20 O      -10.1860    -5.9900     0.4710 O.3   1 <1>  -0.6800 
 21 C      -10.4300   -10.6980     0.3210 C.2   1 <1>   0.0060 
 22 N      -10.6350   -10.7780    -0.9520 N.2   1 <1>  -0.5650 
 23 C      -11.4430   -11.1240     1.3620 C.3   1 <1>  -0.0600 
 24 H       -4.0640    -1.2660     2.1340 H     1 <1>   0.1500 
 25 H       -1.1360    -2.1650    -0.8300 H     1 <1>   0.1500 
 26 H       -5.8020    -2.3640     0.7610 H     1 <1>   0.1500 
 27 H       -2.8670    -3.2670    -2.2130 H     1 <1>   0.1500 
 28 H       -5.3170    -3.3760    -2.7040 H     1 <1>   0.0800 
 29 H       -6.4760    -3.1590    -1.4270 H     1 <1>   0.0800 
 30 H       -5.6370    -5.2540    -0.3480 H     1 <1>   0.0800 
 31 H       -4.5420    -5.4820    -1.6760 H     1 <1>   0.0800 
 32 H       -6.4290    -5.6470    -3.2480 H     1 <1>   0.0800 
 33 H       -7.5620    -5.3880    -1.9710 H     1 <1>   0.0800 
 34 H       -6.6460    -9.5260     0.1890 H     1 <1>   0.0800 
 35 H       -6.7500    -9.8240    -1.5180 H     1 <1>   0.0800 
 36 H       -7.6530    -6.1240     0.2330 H     1 <1>   0.0800 
 37 H       -8.1370    -7.5960     1.0090 H     1 <1>   0.0800 
 38 H      -10.1130    -7.7720    -0.4370 H     1 <1>   0.0800 
 39 H       -9.5690    -6.3980    -1.3910 H     1 <1>   0.0800 
 40 H       -8.8500   -10.0480     1.5850 H     1 <1>   0.2700 
 41 H       -9.3680   -10.2500    -2.5640 H     1 <1>   0.1500 
 42 H      -11.1230    -5.8670     0.2180 H     1 <1>   0.4000 
 43 H      -11.7070   -10.2890     1.9840 H     1 <1>   0.0800 
 44 H      -11.0390   -11.9120     1.9700 H     1 <1>   0.0800 
 45 H      -12.3310   -11.4860     0.8750 H     1 <1>   0.0800 
@<TRIPOS>BOND
  1   1   2  1   
  2   2   3  ar  
  3   2   4  ar  
  4   3   5  ar  
  5   3  24  1   
  6   4   6  ar  
  7   4  25  1   
  8   5   7  ar  
  9   5  26  1   
 10   6   7  ar  
 11   6  27  1   
 12   7   8  1   
 13   8   9  1   
 14   8  28  1   
 15   8  29  1   
 16   9  10  1   
 17   9  30  1   
 18   9  31  1   
 19  10  11  1   
 20  10  32  1   
 21  10  33  1   
 22  11  12  2   
 23  11  13  am  
 24  13  14  1   
 25  13  15  1   
 26  14  16  1   
 27  14  34  1   
 28  14  35  1   
 29  15  17  1   
 30  15  36  1   
 31  15  37  1   
 32  16  18  1   
 33  16  19  2   
 34  17  20  1   
 35  17  38  1   
 36  17  39  1   
 37  18  21  1   
 38  18  40  1   
 39  19  22  1   
 40  19  41  1   
 41  20  42  1   
 42  21  22  2   
 43  21  23  1   
 44  23  43  1   
 45  23  44  1   
 46  23  45  1   
@<TRIPOS>SUBSTRUCTURE
  1 ****  15 GROUP 4 **** **** 0

# MOE 2024.06 (io_trps.svl 2023.06)
