@<TRIPOS>MOLECULE
NONAME
43 45 1 0 0 
SMALL
USER_CHARGES


@<TRIPOS>ATOM
  1 CL      -2.0320    -0.9590     2.9480 Cl    1 <1>  -0.1770 
  2 C       -2.8410    -1.5760     1.5310 C.ar  1 <1>   0.1770 
  3 C       -2.3450    -2.7030     0.9040 C.ar  1 <1>  -0.1500 
  4 C       -3.9660    -0.9290     1.0570 C.ar  1 <1>  -0.1500 
  5 C       -2.9920    -3.1920    -0.2180 C.ar  1 <1>  -0.1500 
  6 C       -4.6090    -1.4230    -0.0660 C.ar  1 <1>  -0.1500 
  7 C       -4.1280    -2.5590    -0.7050 C.ar  1 <1>  -0.1430 
  8 C       -4.8410    -3.1150    -1.9350 C.3   1 <1>   0.0440 
  9 C       -5.1210    -4.6100    -1.8450 C.2   1 <1>   0.5690 
 10 O       -4.5790    -5.3340    -2.6460 O.2   1 <1>  -0.5700 
 11 N       -5.9680    -5.1100    -0.8930 N.am  1 <1>  -0.6600 
 12 C       -6.6390    -4.3410     0.1860 C.3   1 <1>   0.1400 
 13 C       -6.2180    -6.5630    -0.7320 C.3   1 <1>   0.1400 
 14 C       -7.5090    -5.3650     0.9120 C.3   1 <1>   0.2000 
 15 C       -6.8360    -6.7120     0.6590 C.3   1 <1>  -0.0800 
 16 O       -7.5760    -5.1060     2.2710 O.3   1 <1>  -0.6800 
 17 C       -7.7950    -7.9040     0.7830 C.3   1 <1>   0.0210 
 18 C       -7.1050    -9.2000     0.4060 C.2   1 <1>   0.1080 
 19 N       -6.0580    -9.6470     1.0280 N.2   1 <1>  -0.7070 
 20 C       -7.4940   -10.0360    -0.6360 C.2   1 <1>  -0.1500 
 21 N       -5.7480   -10.7930     0.3930 N.pl3 1 <1>   0.3000 
 22 C       -6.6030   -11.0500    -0.6190 C.2   1 <1>  -0.3320 
 23 C       -6.5130   -12.2650    -1.5230 C.3   1 <1>  -0.0600 
 24 H       -1.4660    -3.1870     1.2900 H     1 <1>   0.1500 
 25 H       -4.3290    -0.0520     1.5610 H     1 <1>   0.1500 
 26 H       -2.6070    -4.0720    -0.7100 H     1 <1>   0.1500 
 27 H       -5.4840    -0.9170    -0.4360 H     1 <1>   0.1500 
 28 H       -4.2260    -2.9340    -2.7980 H     1 <1>   0.0800 
 29 H       -5.7730    -2.6070    -2.0930 H     1 <1>   0.0800 
 30 H       -5.8950    -3.9400     0.8510 H     1 <1>   0.0800 
 31 H       -7.2410    -3.5500    -0.2270 H     1 <1>   0.0800 
 32 H       -6.9020    -6.8860    -1.4980 H     1 <1>   0.0800 
 33 H       -5.3020    -7.1260    -0.8160 H     1 <1>   0.0800 
 34 H       -8.5080    -5.3420     0.5110 H     1 <1>   0.0800 
 35 H       -6.0210    -6.8440     1.3500 H     1 <1>   0.0800 
 36 H       -6.7050    -5.2610     2.6870 H     1 <1>   0.4000 
 37 H       -8.6510    -7.7600     0.1490 H     1 <1>   0.0800 
 38 H       -8.1410    -7.9820     1.7990 H     1 <1>   0.0800 
 39 H       -8.3280    -9.8830    -1.2970 H     1 <1>   0.1500 
 40 H       -4.9490   -11.3730     0.6740 H     1 <1>   0.2700 
 41 H       -7.3050   -12.2440    -2.2510 H     1 <1>   0.0800 
 42 H       -6.6040   -13.1670    -0.9440 H     1 <1>   0.0800 
 43 H       -5.5710   -12.2740    -2.0420 H     1 <1>   0.0800 
@<TRIPOS>BOND
  1   1   2  1   
  2   2   3  ar  
  3   2   4  ar  
  4   3   5  ar  
  5   3  24  1   
  6   4   6  ar  
  7   4  25  1   
  8   5   7  ar  
  9   5  26  1   
 10   6   7  ar  
 11   6  27  1   
 12   7   8  1   
 13   8   9  1   
 14   8  28  1   
 15   8  29  1   
 16   9  10  2   
 17   9  11  am  
 18  11  12  1   
 19  11  13  1   
 20  12  14  1   
 21  12  30  1   
 22  12  31  1   
 23  13  15  1   
 24  13  32  1   
 25  13  33  1   
 26  14  15  1   
 27  14  16  1   
 28  14  34  1   
 29  15  17  1   
 30  15  35  1   
 31  16  36  1   
 32  17  18  1   
 33  17  37  1   
 34  17  38  1   
 35  18  19  2   
 36  18  20  1   
 37  19  21  1   
 38  20  22  2   
 39  20  39  1   
 40  21  22  1   
 41  21  40  1   
 42  22  23  1   
 43  23  41  1   
 44  23  42  1   
 45  23  43  1   
@<TRIPOS>SUBSTRUCTURE
  1 ****  11 GROUP 4 **** **** 0

# MOE 2024.06 (io_trps.svl 2023.06)
