@<TRIPOS>MOLECULE
NONAME
47 49 1 0 0 
SMALL
USER_CHARGES


@<TRIPOS>ATOM
  1 S       -0.1440    -0.5220     0.3630 S.o2  1 <1>   1.4470 
  2 O        0.2650    -1.6980     1.0960 O.2   1 <1>  -0.6500 
  3 O       -1.3100     0.2220     0.7810 O.2   1 <1>  -0.6500 
  4 N       -0.5400    -0.9740    -1.2060 N.am  1 <1>  -0.9140 
  5 C        1.2710     0.5860     0.1250 C.ar  1 <1>  -0.0090 
  6 C       -1.0700    -2.3190    -1.4620 C.3   1 <1>   0.2760 
  7 C        1.1390     1.9670     0.2350 C.ar  1 <1>  -0.1500 
  8 C        2.5250     0.0790    -0.1940 C.ar  1 <1>  -0.1500 
  9 C       -2.2000    -2.7880    -0.5340 C.3   1 <1>  -0.0800 
 10 C       -0.0310    -3.4420    -1.3970 C.3   1 <1>   0.1200 
 11 C        2.2160     2.8140     0.0370 C.ar  1 <1>  -0.1500 
 12 C        3.6080     0.9170    -0.3950 C.ar  1 <1>  -0.1500 
 13 C       -1.6600    -4.1160     0.0070 C.3   1 <1>   0.1200 
 14 C       -3.5210    -2.9690    -1.3030 C.3   1 <1>  -0.0170 
 15 O       -0.7340    -4.5490    -0.9350 O.3   1 <1>  -0.5600 
 16 C        3.4640     2.2890    -0.2820 C.ar  1 <1>   0.0830 
 17 C       -4.6450    -3.4300    -0.3880 C.ar  1 <1>  -0.1430 
 18 O        4.5710     3.0400    -0.4940 O.3   1 <1>  -0.3630 
 19 C       -5.1650    -4.7070    -0.4530 C.ar  1 <1>  -0.1500 
 20 C       -5.2050    -2.5930     0.5570 C.ar  1 <1>  -0.1500 
 21 C        4.5410     4.4440    -0.3900 C.3   1 <1>   0.1200 
 22 C       -6.1880    -5.0750     0.4050 C.ar  1 <1>   0.1600 
 23 C       -6.2260    -3.0610     1.3670 C.ar  1 <1>   0.1600 
 24 C        5.9440     4.9700    -0.6780 C.3   1 <1>  -0.2400 
 25 N       -6.7310    -4.2820     1.3140 N.ar  1 <1>  -0.6200 
 26 H       -1.2730    -0.3100    -1.4450 H     1 <1>   0.4200 
 27 H       -1.4340    -2.3200    -2.4760 H     1 <1>   0.0800 
 28 H        0.1780     2.3880     0.4820 H     1 <1>   0.1500 
 29 H        2.6570    -0.9860    -0.2860 H     1 <1>   0.1500 
 30 H       -2.3730    -2.1260     0.2920 H     1 <1>   0.0800 
 31 H        0.7600    -3.2370    -0.6990 H     1 <1>   0.0800 
 32 H        0.3770    -3.6710    -2.3640 H     1 <1>   0.0800 
 33 H        2.0660     3.8730     0.1340 H     1 <1>   0.1500 
 34 H        4.5740     0.5120    -0.6410 H     1 <1>   0.1500 
 35 H       -2.4150    -4.8720     0.1350 H     1 <1>   0.0800 
 36 H       -1.1380    -3.9670     0.9380 H     1 <1>   0.0800 
 37 H       -3.3840    -3.6830    -2.0970 H     1 <1>   0.0800 
 38 H       -3.8070    -2.0330    -1.7500 H     1 <1>   0.0800 
 39 H       -4.7840    -5.4210    -1.1610 H     1 <1>   0.1500 
 40 H       -4.8570    -1.5820     0.6720 H     1 <1>   0.1500 
 41 H        3.8370     4.8250    -1.1100 H     1 <1>   0.0800 
 42 H        4.2340     4.7050     0.6090 H     1 <1>   0.0800 
 43 H       -6.5800    -6.0760     0.3390 H     1 <1>   0.1500 
 44 H       -6.6480    -2.3930     2.0990 H     1 <1>   0.1500 
 45 H        6.2470     4.6900    -1.6710 H     1 <1>   0.0800 
 46 H        6.6420     4.5710     0.0370 H     1 <1>   0.0800 
 47 H        5.9530     6.0420    -0.6050 H     1 <1>   0.0800 
@<TRIPOS>BOND
  1   1   2  2   
  2   1   3  2   
  3   1   4  am  
  4   1   5  1   
  5   4   6  1   
  6   4  26  1   
  7   5   7  ar  
  8   5   8  ar  
  9   6   9  1   
 10   6  10  1   
 11   6  27  1   
 12   7  11  ar  
 13   7  28  1   
 14   8  12  ar  
 15   8  29  1   
 16   9  13  1   
 17   9  14  1   
 18   9  30  1   
 19  10  15  1   
 20  10  31  1   
 21  10  32  1   
 22  11  16  ar  
 23  11  33  1   
 24  12  16  ar  
 25  12  34  1   
 26  13  15  1   
 27  13  35  1   
 28  13  36  1   
 29  14  17  1   
 30  14  37  1   
 31  14  38  1   
 32  16  18  1   
 33  17  19  ar  
 34  17  20  ar  
 35  18  21  1   
 36  19  22  ar  
 37  19  39  1   
 38  20  23  ar  
 39  20  40  1   
 40  21  24  1   
 41  21  41  1   
 42  21  42  1   
 43  22  25  ar  
 44  22  43  1   
 45  23  25  ar  
 46  23  44  1   
 47  24  45  1   
 48  24  46  1   
 49  24  47  1   
@<TRIPOS>SUBSTRUCTURE
  1 ****   1 GROUP 4 **** **** 0

# MOE 2024.06 (io_trps.svl 2023.06)
