@<TRIPOS>MOLECULE
NONAME
57 59 1 0 0 
SMALL
USER_CHARGES


@<TRIPOS>ATOM
  1 S       -0.1300    -0.3820    -0.8760 S.o2  1 <1>   1.4470 
  2 O       -0.8420    -1.5520    -1.3510 O.2   1 <1>  -0.6500 
  3 O       -0.0550     0.7560    -1.7680 O.2   1 <1>  -0.6500 
  4 N       -0.8960     0.1000     0.5670 N.am  1 <1>  -0.8490 
  5 C        1.5020    -0.9420    -0.3080 C.ar  1 <1>  -0.0090 
  6 C       -2.3010    -0.3040     0.7580 C.3   1 <1>   0.1960 
  7 C       -0.6150     1.4590     1.0330 C.3   1 <1>   0.1960 
  8 C        2.5890    -0.0830    -0.1730 C.ar  1 <1>   0.0830 
  9 C        1.6860    -2.2790     0.0330 C.ar  1 <1>  -0.1500 
 10 C       -3.3280     0.6640     0.1260 C.3   1 <1>   0.0000 
 11 C       -1.5650     2.4950     0.4160 C.3   1 <1>  -0.1600 
 12 O        2.4240     1.2260    -0.4830 O.3   1 <1>  -0.3630 
 13 C        3.8120    -0.5710     0.2760 C.ar  1 <1>  -0.1500 
 14 C        2.8980    -2.7910     0.4830 C.ar  1 <1>  -0.1430 
 15 C       -4.7560     0.1870     0.4590 C.3   1 <1>   0.2000 
 16 C       -3.0390     2.1090     0.6170 C.3   1 <1>  -0.1600 
 17 C       -3.3670     0.6120    -1.4130 C.3   1 <1>  -0.1600 
 18 C        3.5160     2.0620    -0.7970 C.3   1 <1>   0.0400 
 19 C        3.9620    -1.9060     0.5970 C.ar  1 <1>  -0.1500 
 20 C        3.0050    -4.2930     0.8290 C.3   1 <1>   0.1430 
 21 O       -5.1770     0.5620     1.7220 O.3   1 <1>  -0.6800 
 22 C       -5.6750     0.7870    -0.6020 C.3   1 <1>  -0.1600 
 23 C       -4.7790     1.0470    -1.8200 C.3   1 <1>  -0.1600 
 24 C        4.4080    -4.7050     1.3050 C.3   1 <1>  -0.2400 
 25 C        2.0160    -4.6320     1.9540 C.3   1 <1>  -0.2400 
 26 C        2.6720    -5.1320    -0.4130 C.3   1 <1>  -0.2400 
 27 H       -2.4570    -1.3040     0.3910 H     1 <1>   0.0800 
 28 H       -2.4890    -0.3360     1.8180 H     1 <1>   0.0800 
 29 H       -0.7320     1.4780     2.1030 H     1 <1>   0.0800 
 30 H        0.4040     1.7250     0.8170 H     1 <1>   0.0800 
 31 H        0.8410    -2.9370    -0.0630 H     1 <1>   0.1500 
 32 H       -1.3830     3.4480     0.8790 H     1 <1>   0.0800 
 33 H       -1.3450     2.6110    -0.6280 H     1 <1>   0.0800 
 34 H        4.6600     0.0770     0.3900 H     1 <1>   0.1500 
 35 H       -4.8040    -0.8880     0.4010 H     1 <1>   0.0800 
 36 H       -3.6690     2.8190     0.1120 H     1 <1>   0.0800 
 37 H       -3.2420     2.1800     1.6710 H     1 <1>   0.0800 
 38 H       -2.6210     1.2250    -1.8840 H     1 <1>   0.0800 
 39 H       -3.2180    -0.4030    -1.7400 H     1 <1>   0.0800 
 40 H        3.1260     2.9860    -1.1850 H     1 <1>   0.0800 
 41 H        4.1210     1.5800    -1.5460 H     1 <1>   0.0800 
 42 H        4.0830     2.2510     0.0960 H     1 <1>   0.0800 
 43 H        4.9280    -2.2300     0.9390 H     1 <1>   0.1500 
 44 H       -5.2190     1.5340     1.7740 H     1 <1>   0.4000 
 45 H       -6.4630     0.0970    -0.8460 H     1 <1>   0.0800 
 46 H       -6.1010     1.7160    -0.2670 H     1 <1>   0.0800 
 47 H       -5.1140     0.4960    -2.6820 H     1 <1>   0.0800 
 48 H       -4.7850     2.0970    -2.0580 H     1 <1>   0.0800 
 49 H        4.4370    -5.7560     1.5330 H     1 <1>   0.0800 
 50 H        4.6800    -4.1650     2.1950 H     1 <1>   0.0800 
 51 H        5.1390    -4.5120     0.5400 H     1 <1>   0.0800 
 52 H        2.1030    -5.6660     2.2380 H     1 <1>   0.0800 
 53 H        1.0020    -4.4560     1.6460 H     1 <1>   0.0800 
 54 H        2.2160    -4.0220     2.8170 H     1 <1>   0.0800 
 55 H        2.7780    -6.1820    -0.2030 H     1 <1>   0.0800 
 56 H        3.3370    -4.8760    -1.2190 H     1 <1>   0.0800 
 57 H        1.6640    -4.9590    -0.7420 H     1 <1>   0.0800 
@<TRIPOS>BOND
  1   1   2  2   
  2   1   3  2   
  3   1   4  am  
  4   1   5  1   
  5   4   6  1   
  6   4   7  1   
  7   5   8  ar  
  8   5   9  ar  
  9   6  10  1   
 10   6  27  1   
 11   6  28  1   
 12   7  11  1   
 13   7  29  1   
 14   7  30  1   
 15   8  12  1   
 16   8  13  ar  
 17   9  14  ar  
 18   9  31  1   
 19  10  15  1   
 20  10  16  1   
 21  10  17  1   
 22  11  16  1   
 23  11  32  1   
 24  11  33  1   
 25  12  18  1   
 26  13  19  ar  
 27  13  34  1   
 28  14  19  ar  
 29  14  20  1   
 30  15  21  1   
 31  15  22  1   
 32  15  35  1   
 33  16  36  1   
 34  16  37  1   
 35  17  23  1   
 36  17  38  1   
 37  17  39  1   
 38  18  40  1   
 39  18  41  1   
 40  18  42  1   
 41  19  43  1   
 42  20  24  1   
 43  20  25  1   
 44  20  26  1   
 45  21  44  1   
 46  22  23  1   
 47  22  45  1   
 48  22  46  1   
 49  23  47  1   
 50  23  48  1   
 51  24  49  1   
 52  24  50  1   
 53  24  51  1   
 54  25  52  1   
 55  25  53  1   
 56  25  54  1   
 57  26  55  1   
 58  26  56  1   
 59  26  57  1   
@<TRIPOS>SUBSTRUCTURE
  1 ****   1 GROUP 4 **** **** 0

# MOE 2024.06 (io_trps.svl 2023.06)
