@<TRIPOS>MOLECULE
NONAME
42 44 1 0 0 
SMALL
USER_CHARGES


@<TRIPOS>ATOM
  1 CL      -0.2520     0.3860    -0.7840 Cl    1 <1>  -0.1770 
  2 C       -1.8980     0.8050    -0.3910 C.ar  1 <1>   0.1770 
  3 C       -2.1600     1.9800     0.2860 C.ar  1 <1>  -0.1500 
  4 C       -2.9240    -0.0430    -0.7620 C.ar  1 <1>  -0.1500 
  5 C       -3.4680     2.3060     0.5940 C.ar  1 <1>  -0.1500 
  6 C       -4.2290     0.2950    -0.4500 C.ar  1 <1>  -0.1500 
  7 C       -4.5340     1.4740     0.2370 C.ar  1 <1>   0.0530 
  8 C       -5.8900     1.8430     0.5640 C.2   1 <1>   0.0870 
  9 O       -6.2140     3.1100     0.6450 O.3   1 <1>  -0.0190 
 10 C       -7.0210     1.1310     0.8280 C.2   1 <1>  -0.0860 
 11 N       -7.4700     3.3010     0.9430 N.2   1 <1>  -0.4100 
 12 C       -7.9760     2.1280     1.0540 C.2   1 <1>   0.3720 
 13 C       -7.2240    -0.2820     0.9190 C.2   1 <1>   0.7160 
 14 N       -9.3070     1.9460     1.4020 N.pl3 1 <1>  -0.8520 
 15 O       -6.3710    -0.9920     1.4180 O.2   1 <1>  -0.5700 
 16 N       -8.3480    -0.8810     0.4190 N.am  1 <1>  -0.5100 
 17 C      -10.2710     2.5160     0.4210 C.3   1 <1>   0.2090 
 18 C       -8.4870    -2.3610     0.1730 C.3   1 <1>   0.2250 
 19 C       -8.8820    -0.6450    -0.9670 C.3   1 <1>   0.2250 
 20 C      -11.5850     1.7370     0.4590 C.3   1 <1>   0.1200 
 21 C       -9.6040    -2.0110    -0.8420 C.3   1 <1>   0.2580 
 22 O      -12.4300     2.2390    -0.5280 O.3   1 <1>  -0.5600 
 23 O      -10.8480    -1.8900    -0.2220 O.3   1 <1>  -0.6580 
 24 C      -13.6180     1.5270    -0.6630 C.3   1 <1>   0.0400 
 25 H       -1.3470     2.6260     0.5660 H     1 <1>   0.1500 
 26 H       -2.6980    -0.9540    -1.2860 H     1 <1>   0.1500 
 27 H       -3.6690     3.2210     1.1240 H     1 <1>   0.1500 
 28 H       -5.0190    -0.3700    -0.7450 H     1 <1>   0.1500 
 29 H       -9.4600     2.4370     2.2880 H     1 <1>   0.4000 
 30 H       -9.8580     2.4620    -0.5720 H     1 <1>   0.0800 
 31 H      -10.4570     3.5500     0.6600 H     1 <1>   0.0800 
 32 H       -8.8290    -2.8950     1.0420 H     1 <1>   0.0000 
 33 H       -7.6000    -2.7700    -0.2810 H     1 <1>   0.0000 
 34 H       -8.0890    -0.6360    -1.6940 H     1 <1>   0.0000 
 35 H       -9.5450     0.1980    -1.0270 H     1 <1>   0.0000 
 36 H      -12.0650     1.8540     1.4150 H     1 <1>   0.0800 
 37 H      -11.4020     0.6980     0.2570 H     1 <1>   0.0800 
 38 H       -9.6570    -2.6100    -1.7330 H     1 <1>   0.0000 
 39 H      -10.7200    -1.4370     0.6360 H     1 <1>   0.4000 
 40 H      -14.2000     1.9920    -1.4400 H     1 <1>   0.0800 
 41 H      -14.1610     1.5590     0.2650 H     1 <1>   0.0800 
 42 H      -13.3950     0.5100    -0.9380 H     1 <1>   0.0800 
@<TRIPOS>BOND
  1   1   2  1   
  2   2   3  ar  
  3   2   4  ar  
  4   3   5  ar  
  5   3  25  1   
  6   4   6  ar  
  7   4  26  1   
  8   5   7  ar  
  9   5  27  1   
 10   6   7  ar  
 11   6  28  1   
 12   7   8  1   
 13   8   9  1   
 14   8  10  2   
 15   9  11  1   
 16  10  12  1   
 17  10  13  1   
 18  11  12  2   
 19  12  14  1   
 20  13  15  2   
 21  13  16  am  
 22  14  17  1   
 23  14  29  1   
 24  16  18  1   
 25  16  19  1   
 26  17  20  1   
 27  17  30  1   
 28  17  31  1   
 29  18  21  1   
 30  18  32  1   
 31  18  33  1   
 32  19  21  1   
 33  19  34  1   
 34  19  35  1   
 35  20  22  1   
 36  20  36  1   
 37  20  37  1   
 38  21  23  1   
 39  21  38  1   
 40  22  24  1   
 41  23  39  1   
 42  24  40  1   
 43  24  41  1   
 44  24  42  1   
@<TRIPOS>SUBSTRUCTURE
  1 ****  10 GROUP 4 **** **** 0

# MOE 2024.06 (io_trps.svl 2023.06)
