@<TRIPOS>MOLECULE
NONAME
42 44 1 0 0 
SMALL
USER_CHARGES


@<TRIPOS>ATOM
  1 O       -1.0100     0.2020     3.0830 O.2   1 <1>  -0.5700 
  2 C       -1.4250     0.8870     2.1780 C.2   1 <1>   0.5690 
  3 N       -2.1930     0.3450     1.1820 N.am  1 <1>  -0.6600 
  4 C       -1.0770     2.3700     2.1870 C.3   1 <1>   0.0440 
  5 C       -2.6650     1.0340    -0.0480 C.3   1 <1>   0.1400 
  6 C       -2.4920    -1.1060     1.1060 C.3   1 <1>   0.1400 
  7 C       -0.3010     2.8200     0.9520 C.ar  1 <1>  -0.1440 
  8 C       -3.6360     0.0440    -0.6870 C.3   1 <1>   0.2000 
  9 C       -3.0620    -1.3230    -0.3020 C.3   1 <1>  -0.0800 
 10 C        0.8440     2.1400     0.5650 C.ar  1 <1>  -0.1500 
 11 C       -0.7330     3.9050     0.2030 C.ar  1 <1>  -0.1500 
 12 O       -4.8770     0.2120    -0.0900 O.3   1 <1>  -0.6800 
 13 C       -4.0570    -2.4960    -0.3990 C.3   1 <1>   0.0200 
 14 C        1.5440     2.5340    -0.5620 C.ar  1 <1>  -0.1500 
 15 C       -0.0330     4.2990    -0.9240 C.ar  1 <1>  -0.1500 
 16 C       -3.4110    -3.8480    -0.1440 C.2   1 <1>  -0.0400 
 17 C        1.1050     3.6130    -1.3080 C.ar  1 <1>  -0.1500 
 18 O       -4.1790    -4.9020    -0.0640 O.3   1 <1>  -0.0190 
 19 C       -2.1420    -4.2550     0.0280 C.2   1 <1>  -0.1500 
 20 N       -3.4950    -5.9880     0.1560 N.2   1 <1>  -0.4100 
 21 C       -2.2640    -5.6280     0.2170 C.2   1 <1>   0.1080 
 22 C       -1.1120    -6.5760     0.4610 C.3   1 <1>  -0.0590 
 23 H       -1.9900     2.9270     2.2800 H     1 <1>   0.0800 
 24 H       -0.4830     2.5780     3.0580 H     1 <1>   0.0800 
 25 H       -3.1390     1.9750     0.1710 H     1 <1>   0.0800 
 26 H       -1.8260     1.1950    -0.7030 H     1 <1>   0.0800 
 27 H       -1.5990    -1.6840     1.2710 H     1 <1>   0.0800 
 28 H       -3.2180    -1.3530     1.8610 H     1 <1>   0.0800 
 29 H       -3.7450     0.1830    -1.7500 H     1 <1>   0.0800 
 30 H       -2.2360    -1.5220    -0.9620 H     1 <1>   0.0800 
 31 H        1.1950     1.3000     1.1400 H     1 <1>   0.1500 
 32 H       -1.6140     4.4520     0.4910 H     1 <1>   0.1500 
 33 H       -4.7580     0.2340     0.8810 H     1 <1>   0.4000 
 34 H       -4.4980    -2.5100    -1.3800 H     1 <1>   0.0800 
 35 H       -4.8530    -2.3630     0.3130 H     1 <1>   0.0800 
 36 H        2.4320     2.0020    -0.8560 H     1 <1>   0.1500 
 37 H       -0.3720     5.1420    -1.5010 H     1 <1>   0.1500 
 38 H        1.6500     3.9200    -2.1840 H     1 <1>   0.1500 
 39 H       -1.2240    -3.6990     0.0270 H     1 <1>   0.1500 
 40 H       -0.5800    -6.2830     1.3470 H     1 <1>   0.0800 
 41 H       -0.4420    -6.5610    -0.3790 H     1 <1>   0.0800 
 42 H       -1.4830    -7.5770     0.5930 H     1 <1>   0.0800 
@<TRIPOS>BOND
  1   1   2  2   
  2   2   3  am  
  3   2   4  1   
  4   3   5  1   
  5   3   6  1   
  6   4   7  1   
  7   4  23  1   
  8   4  24  1   
  9   5   8  1   
 10   5  25  1   
 11   5  26  1   
 12   6   9  1   
 13   6  27  1   
 14   6  28  1   
 15   7  10  ar  
 16   7  11  ar  
 17   8   9  1   
 18   8  12  1   
 19   8  29  1   
 20   9  13  1   
 21   9  30  1   
 22  10  14  ar  
 23  10  31  1   
 24  11  15  ar  
 25  11  32  1   
 26  12  33  1   
 27  13  16  1   
 28  13  34  1   
 29  13  35  1   
 30  14  17  ar  
 31  14  36  1   
 32  15  17  ar  
 33  15  37  1   
 34  16  18  1   
 35  16  19  2   
 36  17  38  1   
 37  18  20  1   
 38  19  21  1   
 39  19  39  1   
 40  20  21  2   
 41  21  22  1   
 42  22  40  1   
 43  22  41  1   
 44  22  42  1   
@<TRIPOS>SUBSTRUCTURE
  1 ****   6 GROUP 4 **** **** 0

# MOE 2024.06 (io_trps.svl 2023.06)
