@<TRIPOS>MOLECULE
NONAME
45 47 1 0 0 
SMALL
USER_CHARGES


@<TRIPOS>ATOM
  1 CL       1.1680     0.6050    -2.0570 Cl    1 <1>  -0.1770 
  2 C        2.3170     1.1810    -0.8690 C.ar  1 <1>   0.1770 
  3 C        3.2770     0.3270    -0.3390 C.ar  1 <1>   0.0820 
  4 C        2.2320     2.5070    -0.4840 C.ar  1 <1>  -0.1500 
  5 O        3.3040    -0.9690    -0.7390 O.3   1 <1>  -0.3630 
  6 C        4.1870     0.8400     0.5960 C.ar  1 <1>   0.0830 
  7 C        3.1230     3.0100     0.4530 C.ar  1 <1>  -0.1440 
  8 C        2.4690    -1.8490    -0.0200 C.3   1 <1>   0.0400 
  9 O        5.1980     0.1420     1.1800 O.3   1 <1>  -0.3630 
 10 C        4.0860     2.1650     0.9890 C.ar  1 <1>  -0.1500 
 11 C        3.0610     4.4670     0.8730 C.3   1 <1>   0.4860 
 12 C        5.8760    -0.8810     0.4800 C.3   1 <1>   0.0400 
 13 N        4.3260     5.1290     0.4600 N.4   1 <1>  -0.9590 
 14 C        4.5390     6.4610     1.1350 C.3   1 <1>   0.3430 
 15 C        4.5500     5.0860    -1.0260 C.3   1 <1>   0.3430 
 16 C        5.9680     7.0570     0.9810 C.3   1 <1>   0.2200 
 17 C        6.0000     5.3640    -1.4480 C.3   1 <1>  -0.0190 
 18 N        6.1640     7.5850    -0.3880 N.am  1 <1>  -0.7300 
 19 C        7.1000     6.0600     1.3410 C.3   1 <1>   0.1200 
 20 C        6.1990     6.8530    -1.5150 C.2   1 <1>   0.5690 
 21 C        7.1100     4.6770    -0.6200 C.3   1 <1>   0.1200 
 22 O        6.9170     4.7900     0.7650 O.3   1 <1>  -0.5600 
 23 O        6.3560     7.3840    -2.5790 O.2   1 <1>  -0.5700 
 24 H        1.4660     3.1210    -0.9250 H     1 <1>   0.1500 
 25 H        2.6030    -2.8390    -0.4160 H     1 <1>   0.0800 
 26 H        1.4450    -1.5410    -0.1410 H     1 <1>   0.0800 
 27 H        2.7490    -1.8250     1.0190 H     1 <1>   0.0800 
 28 H        4.7900     2.5180     1.7240 H     1 <1>   0.1500 
 29 H        2.9460     4.5200     1.9440 H     1 <1>   0.0800 
 30 H        2.2170     4.9540     0.4120 H     1 <1>   0.0800 
 31 H        6.8310    -1.0320     0.9490 H     1 <1>   0.0800 
 32 H        6.0110    -0.5820    -0.5450 H     1 <1>   0.0800 
 33 H        5.3000    -1.7860     0.5380 H     1 <1>   0.0800 
 34 H        5.1020     4.5370     0.8230 H     1 <1>   0.4500 
 35 H        3.8260     7.1770     0.7630 H     1 <1>   0.0800 
 36 H        4.3550     6.3390     2.1890 H     1 <1>   0.0800 
 37 H        4.2970     4.1020    -1.3870 H     1 <1>   0.0800 
 38 H        3.8960     5.7880    -1.5180 H     1 <1>   0.0800 
 39 H        6.0490     7.8950     1.6530 H     1 <1>   0.0800 
 40 H        6.1040     5.0100    -2.4580 H     1 <1>   0.0800 
 41 H        6.3660     8.5860    -0.4970 H     1 <1>   0.3700 
 42 H        7.1150     5.9130     2.4070 H     1 <1>   0.0800 
 43 H        8.0620     6.4450     1.0480 H     1 <1>   0.0800 
 44 H        8.0800     5.0780    -0.8690 H     1 <1>   0.0800 
 45 H        7.1220     3.6240    -0.8450 H     1 <1>   0.0800 
@<TRIPOS>BOND
  1   1   2  1   
  2   2   3  ar  
  3   2   4  ar  
  4   3   5  1   
  5   3   6  ar  
  6   4   7  ar  
  7   4  24  1   
  8   5   8  1   
  9   6   9  1   
 10   6  10  ar  
 11   7  10  ar  
 12   7  11  1   
 13   8  25  1   
 14   8  26  1   
 15   8  27  1   
 16   9  12  1   
 17  10  28  1   
 18  11  13  1   
 19  11  29  1   
 20  11  30  1   
 21  12  31  1   
 22  12  32  1   
 23  12  33  1   
 24  13  14  1   
 25  13  15  1   
 26  13  34  1   
 27  14  16  1   
 28  14  35  1   
 29  14  36  1   
 30  15  17  1   
 31  15  37  1   
 32  15  38  1   
 33  16  18  1   
 34  16  19  1   
 35  16  39  1   
 36  17  20  1   
 37  17  21  1   
 38  17  40  1   
 39  18  20  am  
 40  18  41  1   
 41  19  22  1   
 42  19  42  1   
 43  19  43  1   
 44  20  23  2   
 45  21  22  1   
 46  21  44  1   
 47  21  45  1   
@<TRIPOS>SUBSTRUCTURE
  1 ****   7 GROUP 4 **** **** 0

# MOE 2024.06 (io_trps.svl 2023.06)
