@<TRIPOS>MOLECULE
NONAME
49 52 1 0 0 
SMALL
USER_CHARGES


@<TRIPOS>ATOM
  1 O       -1.1570     0.4760     1.5800 O.2   1 <1>  -0.5700 
  2 C       -1.7290     0.8480     0.5700 C.2   1 <1>   0.6160 
  3 N       -2.5030    -0.0740    -0.0990 N.am  1 <1>  -0.6600 
  4 C       -1.6370     2.2290     0.1850 C.2   1 <1>   0.0290 
  5 C       -3.4880     0.2120    -1.1720 C.3   1 <1>   0.1400 
  6 C       -2.5470    -1.5110     0.2660 C.3   1 <1>   0.1400 
  7 C       -1.2520     2.5730    -1.1490 C.2   1 <1>   0.6160 
  8 C       -1.8880     3.2460     1.0740 C.2   1 <1>  -0.1500 
  9 C       -4.4850    -0.9400    -1.0760 C.3   1 <1>   0.2000 
 10 C       -3.6150    -2.1280    -0.6480 C.3   1 <1>  -0.0800 
 11 O       -0.9840     1.7710    -2.0320 O.2   1 <1>  -0.5700 
 12 N       -1.1770     3.8970    -1.4850 N.am  1 <1>  -0.5390 
 13 C       -1.7960     4.6000     0.6820 C.2   1 <1>  -0.1380 
 14 O       -5.3900    -0.6420    -0.0690 O.3   1 <1>  -0.6800 
 15 C       -4.3760    -3.3060    -0.0120 C.3   1 <1>  -0.0170 
 16 C       -1.4350     4.9070    -0.5980 C.2   1 <1>  -0.0290 
 17 C       -2.0970     5.6750     1.7200 C.3   1 <1>  -0.0220 
 18 C       -3.4350    -4.4620     0.2930 C.ar  1 <1>  -0.1440 
 19 C       -1.3040     6.3330    -1.1120 C.3   1 <1>  -0.0220 
 20 C       -2.3440     7.0470     1.0780 C.3   1 <1>  -0.1600 
 21 C       -3.0720    -5.3770    -0.6740 C.ar  1 <1>  -0.1500 
 22 C       -2.8960    -4.6570     1.5490 C.ar  1 <1>  -0.1500 
 23 C       -1.2710     7.3590     0.0290 C.3   1 <1>  -0.1600 
 24 C       -2.2100    -6.4110    -0.3480 C.ar  1 <1>   0.1600 
 25 C       -2.0420    -5.7240     1.7700 C.ar  1 <1>   0.1600 
 26 N       -1.6850    -6.6070     0.8510 N.ar  1 <1>  -0.6200 
 27 H       -3.9660     1.1690    -1.0460 H     1 <1>   0.0800 
 28 H       -2.9880     0.1790    -2.1250 H     1 <1>   0.0800 
 29 H       -1.5850    -1.9710     0.1140 H     1 <1>   0.0800 
 30 H       -2.8240    -1.6020     1.3020 H     1 <1>   0.0800 
 31 H       -2.1560     3.0180     2.0920 H     1 <1>   0.1500 
 32 H       -5.0280    -1.1110    -1.9900 H     1 <1>   0.0800 
 33 H       -3.1080    -2.4890    -1.5260 H     1 <1>   0.0800 
 34 H       -0.8900     4.0750    -2.4480 H     1 <1>   0.3700 
 35 H       -4.8900    -0.3500     0.7200 H     1 <1>   0.4000 
 36 H       -5.1430    -3.6410    -0.6880 H     1 <1>   0.0800 
 37 H       -4.8630    -2.9930     0.8950 H     1 <1>   0.0800 
 38 H       -2.9620     5.3960     2.2960 H     1 <1>   0.0800 
 39 H       -1.2590     5.7410     2.3920 H     1 <1>   0.0800 
 40 H       -0.4050     6.4300    -1.6950 H     1 <1>   0.0800 
 41 H       -2.1420     6.5410    -1.7540 H     1 <1>   0.0800 
 42 H       -3.3130     7.0490     0.6070 H     1 <1>   0.0800 
 43 H       -2.3440     7.8060     1.8420 H     1 <1>   0.0800 
 44 H       -3.4500    -5.2970    -1.6760 H     1 <1>   0.1500 
 45 H       -3.1300    -3.9900     2.3590 H     1 <1>   0.1500 
 46 H       -0.3020     7.3350     0.4980 H     1 <1>   0.0800 
 47 H       -1.4220     8.3470    -0.3700 H     1 <1>   0.0800 
 48 H       -1.9370    -7.1150    -1.1160 H     1 <1>   0.1500 
 49 H       -1.6300    -5.8590     2.7550 H     1 <1>   0.1500 
@<TRIPOS>BOND
  1   1   2  2   
  2   2   3  am  
  3   2   4  1   
  4   3   5  1   
  5   3   6  1   
  6   4   7  1   
  7   4   8  2   
  8   5   9  1   
  9   5  27  1   
 10   5  28  1   
 11   6  10  1   
 12   6  29  1   
 13   6  30  1   
 14   7  11  2   
 15   7  12  am  
 16   8  13  1   
 17   8  31  1   
 18   9  10  1   
 19   9  14  1   
 20   9  32  1   
 21  10  15  1   
 22  10  33  1   
 23  12  16  1   
 24  12  34  1   
 25  13  16  2   
 26  13  17  1   
 27  14  35  1   
 28  15  18  1   
 29  15  36  1   
 30  15  37  1   
 31  16  19  1   
 32  17  20  1   
 33  17  38  1   
 34  17  39  1   
 35  18  21  ar  
 36  18  22  ar  
 37  19  23  1   
 38  19  40  1   
 39  19  41  1   
 40  20  23  1   
 41  20  42  1   
 42  20  43  1   
 43  21  24  ar  
 44  21  44  1   
 45  22  25  ar  
 46  22  45  1   
 47  23  46  1   
 48  23  47  1   
 49  24  26  ar  
 50  24  48  1   
 51  25  26  ar  
 52  25  49  1   
@<TRIPOS>SUBSTRUCTURE
  1 ****   3 GROUP 4 **** **** 0

# MOE 2024.06 (io_trps.svl 2023.06)
