@<TRIPOS>MOLECULE
NONAME
49 51 1 0 0 
SMALL
USER_CHARGES


@<TRIPOS>ATOM
  1 S        0.5970    -0.6000     1.8560 S.o2  1 <1>   1.4470 
  2 O        0.2250     0.2410     2.9690 O.2   1 <1>  -0.6500 
  3 O        1.6380    -1.5800     2.0720 O.2   1 <1>  -0.6500 
  4 N       -0.7750    -1.5140     1.5540 N.am  1 <1>  -0.9140 
  5 C        0.7810     0.3680     0.3030 C.ar  1 <1>  -0.0090 
  6 C       -0.5600    -2.6520     0.6710 C.3   1 <1>   0.2760 
  7 C       -0.1780     1.3300    -0.0500 C.ar  1 <1>  -0.1430 
  8 C        1.8470     0.1680    -0.5910 C.ar  1 <1>  -0.1430 
  9 C       -1.8670    -3.0440    -0.0010 C.3   1 <1>  -0.0800 
 10 C       -0.2900    -3.9120     1.4910 C.3   1 <1>   0.1200 
 11 C       -0.0830     2.0300    -1.2430 C.ar  1 <1>  -0.1500 
 12 C       -1.3650     1.6800     0.8450 C.3   1 <1>  -0.0970 
 13 C        1.9210     0.8800    -1.7790 C.ar  1 <1>  -0.1500 
 14 C        2.9870    -0.8120    -0.3320 C.3   1 <1>  -0.0970 
 15 C       -2.5390    -3.9400     1.0460 C.3   1 <1>   0.1200 
 16 C       -2.7430    -1.8740    -0.4900 C.3   1 <1>  -0.0170 
 17 O       -1.5420    -4.3210     1.9500 O.3   1 <1>  -0.5600 
 18 C        0.9590     1.8080    -2.1160 C.ar  1 <1>  -0.1430 
 19 C       -3.9560    -2.3860    -1.2470 C.ar  1 <1>  -0.1430 
 20 C        1.0480     2.5840    -3.4180 C.3   1 <1>  -0.0970 
 21 C       -5.1890    -2.5280    -0.6430 C.ar  1 <1>  -0.1500 
 22 C       -3.8850    -2.7360    -2.5800 C.ar  1 <1>  -0.1500 
 23 C       -6.2600    -3.0060    -1.3790 C.ar  1 <1>   0.1600 
 24 C       -5.0180    -3.2040    -3.2250 C.ar  1 <1>   0.1600 
 25 N       -6.2020    -3.3500    -2.6550 N.ar  1 <1>  -0.6200 
 26 H       -1.0310    -1.9050     2.4620 H     1 <1>   0.4200 
 27 H        0.2130    -2.4500    -0.0520 H     1 <1>   0.0800 
 28 H       -1.6300    -3.6630    -0.8490 H     1 <1>   0.0800 
 29 H        0.3680    -3.7500     2.3270 H     1 <1>   0.0800 
 30 H        0.1040    -4.6960     0.8670 H     1 <1>   0.0800 
 31 H       -0.8260     2.7650    -1.4990 H     1 <1>   0.1500 
 32 H       -2.0330     2.3670     0.3580 H     1 <1>   0.0800 
 33 H       -1.0200     2.1470     1.7500 H     1 <1>   0.0800 
 34 H       -1.9330     0.8050     1.0980 H     1 <1>   0.0800 
 35 H        2.7410     0.7170    -2.4560 H     1 <1>   0.1500 
 36 H        3.7310    -0.7650    -1.1060 H     1 <1>   0.0800 
 37 H        2.6180    -1.8210    -0.2950 H     1 <1>   0.0800 
 38 H        3.4750    -0.5780     0.5980 H     1 <1>   0.0800 
 39 H       -2.9690    -4.8210     0.6020 H     1 <1>   0.0800 
 40 H       -3.2910    -3.4070     1.6000 H     1 <1>   0.0800 
 41 H       -2.1630    -1.2350    -1.1340 H     1 <1>   0.0800 
 42 H       -3.0720    -1.2780     0.3430 H     1 <1>   0.0800 
 43 H        0.0680     2.7240    -3.8370 H     1 <1>   0.0800 
 44 H        1.6510     2.0570    -4.1350 H     1 <1>   0.0800 
 45 H        1.4900     3.5470    -3.2360 H     1 <1>   0.0800 
 46 H       -5.3290    -2.2710     0.3910 H     1 <1>   0.1500 
 47 H       -2.9620    -2.6500    -3.1230 H     1 <1>   0.1500 
 48 H       -7.2150    -3.1110    -0.8930 H     1 <1>   0.1500 
 49 H       -4.9450    -3.4740    -4.2650 H     1 <1>   0.1500 
@<TRIPOS>BOND
  1   1   2  2   
  2   1   3  2   
  3   1   4  am  
  4   1   5  1   
  5   4   6  1   
  6   4  26  1   
  7   5   7  ar  
  8   5   8  ar  
  9   6   9  1   
 10   6  10  1   
 11   6  27  1   
 12   7  11  ar  
 13   7  12  1   
 14   8  13  ar  
 15   8  14  1   
 16   9  15  1   
 17   9  16  1   
 18   9  28  1   
 19  10  17  1   
 20  10  29  1   
 21  10  30  1   
 22  11  18  ar  
 23  11  31  1   
 24  12  32  1   
 25  12  33  1   
 26  12  34  1   
 27  13  18  ar  
 28  13  35  1   
 29  14  36  1   
 30  14  37  1   
 31  14  38  1   
 32  15  17  1   
 33  15  39  1   
 34  15  40  1   
 35  16  19  1   
 36  16  41  1   
 37  16  42  1   
 38  18  20  1   
 39  19  21  ar  
 40  19  22  ar  
 41  20  43  1   
 42  20  44  1   
 43  20  45  1   
 44  21  23  ar  
 45  21  46  1   
 46  22  24  ar  
 47  22  47  1   
 48  23  25  ar  
 49  23  48  1   
 50  24  25  ar  
 51  24  49  1   
@<TRIPOS>SUBSTRUCTURE
  1 ****  16 GROUP 4 **** **** 0

# MOE 2024.06 (io_trps.svl 2023.06)
