@<TRIPOS>MOLECULE
NONAME
50 52 1 0 0 
SMALL
USER_CHARGES


@<TRIPOS>ATOM
  1 O        0.3610    -0.3410    -0.6010 O.3   1 <1>  -0.5600 
  2 C        1.5810    -0.9980    -0.8490 C.3   1 <1>   0.2000 
  3 C        0.3360     1.0220    -0.9020 C.3   1 <1>   0.1200 
  4 C        2.7520    -0.3020    -0.1030 C.3   1 <1>   0.5660 
  5 C        1.4480    -2.4610    -0.3970 C.3   1 <1>   0.1200 
  6 C        1.3840     1.7660    -0.0570 C.3   1 <1>   0.3430 
  7 N        2.7570     1.1900    -0.2530 N.4   1 <1>  -0.9590 
  8 C        4.1020    -0.8160    -0.5850 C.ar  1 <1>  -0.1430 
  9 O        1.4990    -2.5410     0.9930 O.3   1 <1>  -0.6800 
 10 C        3.7680     1.8140     0.6450 C.3   1 <1>   0.4870 
 11 C        4.9200    -1.4910     0.3100 C.ar  1 <1>  -0.1500 
 12 C        4.5410    -0.6190    -1.8910 C.ar  1 <1>  -0.1500 
 13 C        3.9380     3.2630     0.2440 C.ar  1 <1>  -0.1430 
 14 C        6.1640    -1.9550    -0.0780 C.ar  1 <1>   0.0830 
 15 C        5.7890    -1.0710    -2.2810 C.ar  1 <1>  -0.1500 
 16 C        4.7350     3.5850    -0.8450 C.ar  1 <1>   0.1600 
 17 C        3.3120     4.2810     0.9390 C.ar  1 <1>  -0.1500 
 18 O        6.8880    -2.6210     0.8530 O.3   1 <1>  -0.3630 
 19 C        6.6150    -1.7210    -1.3810 C.ar  1 <1>   0.0830 
 20 N        4.9250     4.8090    -1.3010 N.ar  1 <1>  -0.6200 
 21 C        3.5140     5.5650     0.4800 C.ar  1 <1>  -0.1500 
 22 C        7.1820    -3.9760     0.5840 C.3   1 <1>   0.0400 
 23 O        7.8370    -2.1030    -1.8230 O.3   1 <1>  -0.3630 
 24 C        4.3160     5.7730    -0.6300 C.ar  1 <1>   0.1600 
 25 C        8.9540    -1.4760    -1.2290 C.3   1 <1>   0.0400 
 26 H        1.7450    -0.9790    -1.9120 H     1 <1>   0.0800 
 27 H        0.5120     1.1540    -1.9560 H     1 <1>   0.0800 
 28 H       -0.6500     1.3880    -0.6710 H     1 <1>   0.0800 
 29 H        2.6490    -0.5430     0.9430 H     1 <1>   0.0800 
 30 H        2.2570    -3.0550    -0.7890 H     1 <1>   0.0800 
 31 H        0.5120    -2.8710    -0.7360 H     1 <1>   0.0800 
 32 H        1.0990     1.6900     0.9790 H     1 <1>   0.0800 
 33 H        1.3820     2.8100    -0.3270 H     1 <1>   0.0800 
 34 H        3.0520     1.3840    -1.2140 H     1 <1>   0.4500 
 35 H        1.1780    -3.4160     1.3010 H     1 <1>   0.4000 
 36 H        3.4510     1.7470     1.6730 H     1 <1>   0.0800 
 37 H        4.7180     1.3100     0.5500 H     1 <1>   0.0800 
 38 H        4.6040    -1.6790     1.3230 H     1 <1>   0.1500 
 39 H        3.9300    -0.1200    -2.6240 H     1 <1>   0.1500 
 40 H        6.1380    -0.9210    -3.2890 H     1 <1>   0.1500 
 41 H        5.2480     2.8020    -1.3790 H     1 <1>   0.1500 
 42 H        2.6950     4.1020     1.8040 H     1 <1>   0.1500 
 43 H        3.0600     6.4060     0.9740 H     1 <1>   0.1500 
 44 H        7.6460    -4.3990     1.4560 H     1 <1>   0.0800 
 45 H        7.8550    -4.0400    -0.2520 H     1 <1>   0.0800 
 46 H        6.2660    -4.4960     0.3660 H     1 <1>   0.0800 
 47 H        4.4650     6.7810    -0.9810 H     1 <1>   0.1500 
 48 H        9.8390    -1.8190    -1.7350 H     1 <1>   0.0800 
 49 H        9.0030    -1.7410    -0.1890 H     1 <1>   0.0800 
 50 H        8.8560    -0.4110    -1.3400 H     1 <1>   0.0800 
@<TRIPOS>BOND
  1   1   2  1   
  2   1   3  1   
  3   2   4  1   
  4   2   5  1   
  5   2  26  1   
  6   3   6  1   
  7   3  27  1   
  8   3  28  1   
  9   4   7  1   
 10   4   8  1   
 11   4  29  1   
 12   5   9  1   
 13   5  30  1   
 14   5  31  1   
 15   6   7  1   
 16   6  32  1   
 17   6  33  1   
 18   7  10  1   
 19   7  34  1   
 20   8  11  ar  
 21   8  12  ar  
 22   9  35  1   
 23  10  13  1   
 24  10  36  1   
 25  10  37  1   
 26  11  14  ar  
 27  11  38  1   
 28  12  15  ar  
 29  12  39  1   
 30  13  16  ar  
 31  13  17  ar  
 32  14  18  1   
 33  14  19  ar  
 34  15  19  ar  
 35  15  40  1   
 36  16  20  ar  
 37  16  41  1   
 38  17  21  ar  
 39  17  42  1   
 40  18  22  1   
 41  19  23  1   
 42  20  24  ar  
 43  21  24  ar  
 44  21  43  1   
 45  22  44  1   
 46  22  45  1   
 47  22  46  1   
 48  23  25  1   
 49  24  47  1   
 50  25  48  1   
 51  25  49  1   
 52  25  50  1   
@<TRIPOS>SUBSTRUCTURE
  1 ****   8 GROUP 4 **** **** 0

# MOE 2024.06 (io_trps.svl 2023.06)
