@<TRIPOS>MOLECULE
NONAME
41 42 1 0 0 
SMALL
USER_CHARGES


@<TRIPOS>ATOM
  1 O       -0.6370     0.1960     1.7230 O.2   1 <1>  -0.5700 
  2 C       -1.2030     0.6380     0.7510 C.2   1 <1>   0.5690 
  3 N       -1.9080    -0.1670    -0.1020 N.am  1 <1>  -0.6600 
  4 C       -1.1250     2.1330     0.4830 C.3   1 <1>  -0.0990 
  5 C       -1.9710    -1.6530     0.1340 C.3   1 <1>   0.3640 
  6 C       -2.7250     0.3650    -1.2400 C.3   1 <1>   0.1400 
  7 C       -0.1570     2.8520     1.4190 C.3   1 <1>   0.1200 
  8 C       -0.9200    -2.4160    -0.6890 C.ar  1 <1>  -0.1440 
  9 C       -3.3970    -2.2420    -0.1200 C.3   1 <1>   0.2000 
 10 C       -3.5550    -0.7270    -1.9290 C.3   1 <1>   0.1200 
 11 O       -0.1420     4.1980     1.0660 O.3   1 <1>  -0.5600 
 12 C       -0.6320    -3.7230    -0.3140 C.ar  1 <1>  -0.1500 
 13 C       -0.2420    -1.8780    -1.7780 C.ar  1 <1>  -0.1500 
 14 O       -4.2230    -1.4660    -0.9590 O.3   1 <1>  -0.5600 
 15 C       -4.1640    -2.4400     1.1930 C.3   1 <1>   0.1200 
 16 C        0.7040     4.9720     1.8520 C.3   1 <1>   0.0400 
 17 C        0.2910    -4.4790    -1.0150 C.ar  1 <1>  -0.1500 
 18 C        0.6810    -2.6320    -2.4820 C.ar  1 <1>  -0.1500 
 19 O       -3.6350    -3.5160     1.9000 O.3   1 <1>  -0.6800 
 20 C        0.9470    -3.9350    -2.1040 C.ar  1 <1>  -0.1500 
 21 H       -0.7960     2.2870    -0.5270 H     1 <1>   0.0800 
 22 H       -2.1040     2.5550     0.6090 H     1 <1>   0.0800 
 23 H       -1.7270    -1.8460     1.1650 H     1 <1>   0.0800 
 24 H       -3.3990     1.1160    -0.8680 H     1 <1>   0.0800 
 25 H       -2.0780     0.8270    -1.9650 H     1 <1>   0.0800 
 26 H        0.8380     2.4510     1.3150 H     1 <1>   0.0800 
 27 H       -0.4810     2.7610     2.4420 H     1 <1>   0.0800 
 28 H       -3.3040    -3.2010    -0.5990 H     1 <1>   0.0800 
 29 H       -2.9370    -1.3880    -2.5120 H     1 <1>   0.0800 
 30 H       -4.2910    -0.2830    -2.5750 H     1 <1>   0.0800 
 31 H       -1.1250    -4.1600     0.5370 H     1 <1>   0.1500 
 32 H       -0.4140    -0.8660    -2.0900 H     1 <1>   0.1500 
 33 H       -5.2020    -2.6460     1.0000 H     1 <1>   0.0800 
 34 H       -4.0780    -1.5600     1.8080 H     1 <1>   0.0800 
 35 H        0.6470     5.9890     1.5050 H     1 <1>   0.0800 
 36 H        1.7130     4.6100     1.7520 H     1 <1>   0.0800 
 37 H        0.3830     4.9210     2.8780 H     1 <1>   0.0800 
 38 H        0.5000    -5.4900    -0.7120 H     1 <1>   0.1500 
 39 H        1.1970    -2.2030    -3.3230 H     1 <1>   0.1500 
 40 H       -3.9630    -4.3630     1.5370 H     1 <1>   0.4000 
 41 H        1.6650    -4.5210    -2.6500 H     1 <1>   0.1500 
@<TRIPOS>BOND
  1   1   2  2   
  2   2   3  am  
  3   2   4  1   
  4   3   5  1   
  5   3   6  1   
  6   4   7  1   
  7   4  21  1   
  8   4  22  1   
  9   5   8  1   
 10   5   9  1   
 11   5  23  1   
 12   6  10  1   
 13   6  24  1   
 14   6  25  1   
 15   7  11  1   
 16   7  26  1   
 17   7  27  1   
 18   8  12  ar  
 19   8  13  ar  
 20   9  14  1   
 21   9  15  1   
 22   9  28  1   
 23  10  14  1   
 24  10  29  1   
 25  10  30  1   
 26  11  16  1   
 27  12  17  ar  
 28  12  31  1   
 29  13  18  ar  
 30  13  32  1   
 31  15  19  1   
 32  15  33  1   
 33  15  34  1   
 34  16  35  1   
 35  16  36  1   
 36  16  37  1   
 37  17  20  ar  
 38  17  38  1   
 39  18  20  ar  
 40  18  39  1   
 41  19  40  1   
 42  20  41  1   
@<TRIPOS>SUBSTRUCTURE
  1 ****   3 GROUP 4 **** **** 0

# MOE 2024.06 (io_trps.svl 2023.06)
