@<TRIPOS>MOLECULE
NONAME
46 47 1 0 0 
SMALL
USER_CHARGES


@<TRIPOS>ATOM
  1 CL       0.8600    -3.2190    -3.0600 Cl    1 <1>  -0.1770 
  2 C       -0.0790    -4.0500    -1.8440 C.ar  1 <1>   0.1770 
  3 C       -0.1450    -5.4320    -1.8680 C.ar  1 <1>  -0.1500 
  4 C       -0.7410    -3.3130    -0.8810 C.ar  1 <1>  -0.1500 
  5 C       -0.8860    -6.1060    -0.9080 C.ar  1 <1>  -0.1440 
  6 C       -1.4800    -3.9780     0.0820 C.ar  1 <1>  -0.1500 
  7 C       -1.5430    -5.3640     0.0750 C.ar  1 <1>   0.0820 
  8 C       -0.9650    -7.6260    -0.9710 C.3   1 <1>  -0.0960 
  9 O       -2.2720    -5.9590     1.0430 O.3   1 <1>  -0.3630 
 10 C       -1.5660    -6.6460     2.0670 C.3   1 <1>   0.2610 
 11 C       -2.0480    -8.1030     2.2340 C.2   1 <1>   0.5690 
 12 C       -1.6590    -5.8170     3.3550 C.3   1 <1>  -0.2400 
 13 O       -1.1690    -8.9220     2.3860 O.2   1 <1>  -0.5700 
 14 N       -3.3730    -8.4900     2.2330 N.am  1 <1>  -0.6600 
 15 C       -3.7340    -9.9180     2.5180 C.3   1 <1>   0.3210 
 16 C       -4.5360    -7.5530     2.0740 C.3   1 <1>   0.1400 
 17 C       -4.3490   -10.6150     1.3100 C.2   1 <1>   0.0460 
 18 C       -4.9470    -7.3550     0.6060 C.3   1 <1>   0.1200 
 19 N       -5.6820   -10.8150     1.2450 N.2   1 <1>  -0.5650 
 20 C       -3.7370   -11.1150     0.2090 C.2   1 <1>  -0.3320 
 21 O       -5.9850    -8.2060     0.2660 O.3   1 <1>  -0.6800 
 22 C       -5.8530   -11.4220     0.1160 C.2   1 <1>   0.0360 
 23 N       -4.7090   -11.6320    -0.5640 N.pl3 1 <1>   0.0330 
 24 C       -2.2710   -11.1500    -0.1850 C.3   1 <1>  -0.0600 
 25 H        0.3820    -5.9650    -2.6380 H     1 <1>   0.1500 
 26 H       -0.6780    -2.2400    -0.8900 H     1 <1>   0.1500 
 27 H       -2.0080    -3.4280     0.8400 H     1 <1>   0.1500 
 28 H       -0.7280    -7.9790    -1.9580 H     1 <1>   0.0800 
 29 H       -1.9560    -7.9610    -0.7280 H     1 <1>   0.0800 
 30 H       -0.2700    -8.0620    -0.2760 H     1 <1>   0.0800 
 31 H       -0.5300    -6.6880     1.7770 H     1 <1>   0.0800 
 32 H       -2.6750    -5.7310     3.6900 H     1 <1>   0.0800 
 33 H       -1.2490    -4.8370     3.1920 H     1 <1>   0.0800 
 34 H       -1.0880    -6.2980     4.1290 H     1 <1>   0.0800 
 35 H       -4.4340    -9.9510     3.3340 H     1 <1>   0.0800 
 36 H       -2.8680   -10.4780     2.8240 H     1 <1>   0.0800 
 37 H       -4.2700    -6.5930     2.4720 H     1 <1>   0.0800 
 38 H       -5.3800    -7.9030     2.6430 H     1 <1>   0.0800 
 39 H       -4.1210    -7.5380    -0.0570 H     1 <1>   0.0800 
 40 H       -5.3010    -6.3500     0.4540 H     1 <1>   0.0800 
 41 H       -5.7850    -9.1340     0.5680 H     1 <1>   0.4000 
 42 H       -6.8110   -11.7370    -0.2630 H     1 <1>   0.1500 
 43 H       -4.6090   -12.0880    -1.4750 H     1 <1>   0.2700 
 44 H       -1.6620   -10.7090     0.5830 H     1 <1>   0.0800 
 45 H       -2.1180   -10.6020    -1.0970 H     1 <1>   0.0800 
 46 H       -1.9490   -12.1660    -0.3280 H     1 <1>   0.0800 
@<TRIPOS>BOND
  1   1   2  1   
  2   2   3  ar  
  3   2   4  ar  
  4   3   5  ar  
  5   3  25  1   
  6   4   6  ar  
  7   4  26  1   
  8   5   7  ar  
  9   5   8  1   
 10   6   7  ar  
 11   6  27  1   
 12   7   9  1   
 13   8  28  1   
 14   8  29  1   
 15   8  30  1   
 16   9  10  1   
 17  10  11  1   
 18  10  12  1   
 19  10  31  1   
 20  11  13  2   
 21  11  14  am  
 22  12  32  1   
 23  12  33  1   
 24  12  34  1   
 25  14  15  1   
 26  14  16  1   
 27  15  17  1   
 28  15  35  1   
 29  15  36  1   
 30  16  18  1   
 31  16  37  1   
 32  16  38  1   
 33  17  19  1   
 34  17  20  2   
 35  18  21  1   
 36  18  39  1   
 37  18  40  1   
 38  19  22  2   
 39  20  23  1   
 40  20  24  1   
 41  21  41  1   
 42  22  23  1   
 43  22  42  1   
 44  23  43  1   
 45  24  44  1   
 46  24  45  1   
 47  24  46  1   
@<TRIPOS>SUBSTRUCTURE
  1 ****   9 GROUP 4 **** **** 0

# MOE 2024.06 (io_trps.svl 2023.06)
