@<TRIPOS>MOLECULE
NONAME
51 52 1 0 0 
SMALL
USER_CHARGES


@<TRIPOS>ATOM
  1 CL      -0.9320    -0.8610     1.2980 Cl    1 <1>  -0.1770 
  2 C       -2.0300     0.3490     0.6720 C.ar  1 <1>   0.1770 
  3 C       -3.1510    -0.0440    -0.0430 C.ar  1 <1>  -0.1440 
  4 C       -1.7560     1.6810     0.9180 C.ar  1 <1>  -0.1500 
  5 C       -4.0170     0.9310    -0.5180 C.ar  1 <1>  -0.1500 
  6 C       -3.4420    -1.5090    -0.3080 C.3   1 <1>   0.4870 
  7 C       -2.6150     2.6520     0.4350 C.ar  1 <1>   0.0820 
  8 C       -3.7610     2.2720    -0.2750 C.ar  1 <1>   0.0820 
  9 N       -3.7810    -2.1970     0.9750 N.4   1 <1>  -0.9590 
 10 O       -2.3080     3.9470     0.6960 O.3   1 <1>  -0.3620 
 11 O       -4.6460     3.1770    -0.7500 O.3   1 <1>  -0.3620 
 12 C       -3.8740    -3.6860     0.7520 C.3   1 <1>   0.3430 
 13 C       -5.0250    -1.5910     1.5720 C.3   1 <1>   0.3430 
 14 C       -2.0150     4.7930    -0.3950 C.3   1 <1>   0.2000 
 15 C       -5.4660     3.8070     0.2060 C.3   1 <1>   0.1200 
 16 C       -5.1610    -4.1300     0.0160 C.3   1 <1>   0.2000 
 17 C       -6.1070    -2.6420     1.8550 C.3   1 <1>  -0.1600 
 18 C       -0.5410     4.6160    -0.7630 C.3   1 <1>  -0.2400 
 19 C       -2.3130     6.2240     0.0460 C.3   1 <1>  -0.2400 
 20 C       -6.3350     4.8300    -0.5190 C.3   1 <1>  -0.2400 
 21 O       -4.9780    -3.9030    -1.3370 O.3   1 <1>  -0.6800 
 22 C       -6.4300    -3.4160     0.5580 C.3   1 <1>  -0.1860 
 23 C       -7.0830    -2.4420    -0.4090 C.2   1 <1>   0.9060 
 24 O       -8.2990    -2.2940    -0.3620 O.co2 1 <1>  -0.9000 
 25 O       -6.3520    -1.7570    -1.1390 O.co2 1 <1>  -0.9000 
 26 H       -0.8830     1.9680     1.4750 H     1 <1>   0.1500 
 27 H       -4.9010     0.6590    -1.0770 H     1 <1>   0.1500 
 28 H       -2.5740    -1.9690    -0.7500 H     1 <1>   0.0800 
 29 H       -4.2480    -1.5950    -1.0130 H     1 <1>   0.0800 
 30 H       -2.9940    -2.0040     1.6040 H     1 <1>   0.4500 
 31 H       -3.0180    -4.0420     0.2040 H     1 <1>   0.0800 
 32 H       -3.8700    -4.1710     1.7130 H     1 <1>   0.0800 
 33 H       -4.7790    -1.0700     2.4820 H     1 <1>   0.0800 
 34 H       -5.4370    -0.8680     0.8840 H     1 <1>   0.0800 
 35 H       -2.6420     4.5310    -1.2300 H     1 <1>   0.0800 
 36 H       -6.0730     3.0540     0.6790 H     1 <1>   0.0800 
 37 H       -4.8430     4.2870     0.9400 H     1 <1>   0.0800 
 38 H       -5.2690    -5.1940     0.1320 H     1 <1>   0.0800 
 39 H       -5.7980    -3.3050     2.6430 H     1 <1>   0.0800 
 40 H       -6.9970    -2.1380     2.1930 H     1 <1>   0.0800 
 41 H        0.0860     4.8400     0.0810 H     1 <1>   0.0800 
 42 H       -0.2840     5.2800    -1.5680 H     1 <1>   0.0800 
 43 H       -0.3590     3.6080    -1.0880 H     1 <1>   0.0800 
 44 H       -1.7090     6.4900     0.8940 H     1 <1>   0.0800 
 45 H       -3.3520     6.3160     0.3050 H     1 <1>   0.0800 
 46 H       -2.1020     6.9070    -0.7560 H     1 <1>   0.0800 
 47 H       -6.9470     4.3370    -1.2530 H     1 <1>   0.0800 
 48 H       -5.7160     5.5650    -1.0010 H     1 <1>   0.0800 
 49 H       -6.9760     5.3270     0.1860 H     1 <1>   0.0800 
 50 H       -5.4930    -3.0690    -1.5710 H     1 <1>   0.4000 
 51 H       -7.1670    -4.1650     0.7840 H     1 <1>   0.0800 
@<TRIPOS>BOND
  1   1   2  1   
  2   2   3  ar  
  3   2   4  ar  
  4   3   5  ar  
  5   3   6  1   
  6   4   7  ar  
  7   4  26  1   
  8   5   8  ar  
  9   5  27  1   
 10   6   9  1   
 11   6  28  1   
 12   6  29  1   
 13   7   8  ar  
 14   7  10  1   
 15   8  11  1   
 16   9  12  1   
 17   9  13  1   
 18   9  30  1   
 19  10  14  1   
 20  11  15  1   
 21  12  16  1   
 22  12  31  1   
 23  12  32  1   
 24  13  17  1   
 25  13  33  1   
 26  13  34  1   
 27  14  18  1   
 28  14  19  1   
 29  14  35  1   
 30  15  20  1   
 31  15  36  1   
 32  15  37  1   
 33  16  21  1   
 34  16  22  1   
 35  16  38  1   
 36  17  22  1   
 37  17  39  1   
 38  17  40  1   
 39  18  41  1   
 40  18  42  1   
 41  18  43  1   
 42  19  44  1   
 43  19  45  1   
 44  19  46  1   
 45  20  47  1   
 46  20  48  1   
 47  20  49  1   
 48  21  50  1   
 49  22  23  1   
 50  22  51  1   
 51  23  24  ar  
 52  23  25  ar  
@<TRIPOS>SUBSTRUCTURE
  1 ****   5 GROUP 4 **** **** 0

# MOE 2024.06 (io_trps.svl 2023.06)
