@<TRIPOS>MOLECULE
NONAME
48 50 1 0 0 
SMALL
USER_CHARGES


@<TRIPOS>ATOM
  1 O        1.7790    -0.5220    -2.5830 O.2   1 <1>  -0.5700 
  2 C        2.1990    -0.7510    -1.4670 C.2   1 <1>   0.5440 
  3 N        2.9010     0.2370    -0.8070 N.am  1 <1>  -0.6600 
  4 C        1.9940    -2.0490    -0.8560 C.ar  1 <1>   0.0860 
  5 C        3.1570     0.1660     0.6790 C.3   1 <1>   0.2200 
  6 C        3.4850     1.3640    -1.6030 C.3   1 <1>   0.1400 
  7 C        0.8190    -2.3810    -0.1730 C.ar  1 <1>  -0.1440 
  8 C        3.0130    -2.9990    -0.9130 C.ar  1 <1>  -0.1500 
  9 C        2.8900     1.5050     1.3860 C.3   1 <1>   0.1200 
 10 C        4.5810    -0.3520     0.9860 C.3   1 <1>   0.3430 
 11 C        4.6810     2.0810    -0.9480 C.3   1 <1>  -0.0800 
 12 C        0.7020    -3.6100     0.4540 C.ar  1 <1>  -0.1500 
 13 C       -0.3460    -1.4000    -0.1210 C.3   1 <1>  -0.0970 
 14 C        2.8890    -4.2230    -0.2860 C.ar  1 <1>  -0.1500 
 15 O        4.0260     2.3150     1.3740 O.3   1 <1>  -0.5600 
 16 N        5.4950    -0.2210    -0.1870 N.4   1 <1>  -0.9590 
 17 C        4.2560     3.0140     0.1960 C.3   1 <1>   0.1200 
 18 C        5.8720     1.1790    -0.5630 C.3   1 <1>   0.3430 
 19 C        1.7340    -4.5330     0.4090 C.ar  1 <1>  -0.1430 
 20 C        6.7450    -1.0750    -0.0700 C.3   1 <1>   0.2370 
 21 C        1.5850    -5.8780     1.0970 C.3   1 <1>  -0.0970 
 22 C        7.5240    -1.2030    -1.3790 C.2   1 <1>   0.9060 
 23 O        8.3220    -0.3070    -1.6680 O.co2 1 <1>  -0.9000 
 24 O        7.2140    -2.1220    -2.1380 O.co2 1 <1>  -0.9000 
 25 H        2.4620    -0.5290     1.1140 H     1 <1>   0.0800 
 26 H        3.8050     0.9750    -2.5560 H     1 <1>   0.0800 
 27 H        2.7030     2.0760    -1.8050 H     1 <1>   0.0800 
 28 H        3.9130    -2.7780    -1.4650 H     1 <1>   0.1500 
 29 H        2.6640     1.3160     2.4210 H     1 <1>   0.0800 
 30 H        2.0550     2.0260     0.9490 H     1 <1>   0.0800 
 31 H        4.5040    -1.3930     1.2510 H     1 <1>   0.0800 
 32 H        4.9870     0.1730     1.8340 H     1 <1>   0.0800 
 33 H        5.0610     2.7440    -1.7040 H     1 <1>   0.0800 
 34 H       -0.2040    -3.8620     0.9790 H     1 <1>   0.1500 
 35 H       -1.1860    -1.8220     0.4000 H     1 <1>   0.0800 
 36 H       -0.6610    -1.1550    -1.1210 H     1 <1>   0.0800 
 37 H       -0.0540    -0.4940     0.3790 H     1 <1>   0.0800 
 38 H        3.6930    -4.9370    -0.3500 H     1 <1>   0.1500 
 39 H        4.9780    -0.5840    -1.0060 H     1 <1>   0.4500 
 40 H        3.3720     3.5760    -0.0590 H     1 <1>   0.0800 
 41 H        5.0470     3.7150     0.4020 H     1 <1>   0.0800 
 42 H        6.4220     1.6350     0.2430 H     1 <1>   0.0800 
 43 H        6.5360     1.1340    -1.4130 H     1 <1>   0.0800 
 44 H        7.4090    -0.6590     0.6650 H     1 <1>   0.0800 
 45 H        6.4790    -2.0720     0.2290 H     1 <1>   0.0800 
 46 H        2.5490    -6.3060     1.3080 H     1 <1>   0.0800 
 47 H        1.0390    -6.5520     0.4620 H     1 <1>   0.0800 
 48 H        1.0530    -5.7670     2.0250 H     1 <1>   0.0800 
@<TRIPOS>BOND
  1   1   2  2   
  2   2   3  am  
  3   2   4  1   
  4   3   5  1   
  5   3   6  1   
  6   4   7  ar  
  7   4   8  ar  
  8   5   9  1   
  9   5  10  1   
 10   5  25  1   
 11   6  11  1   
 12   6  26  1   
 13   6  27  1   
 14   7  12  ar  
 15   7  13  1   
 16   8  14  ar  
 17   8  28  1   
 18   9  15  1   
 19   9  29  1   
 20   9  30  1   
 21  10  16  1   
 22  10  31  1   
 23  10  32  1   
 24  11  17  1   
 25  11  18  1   
 26  11  33  1   
 27  12  19  ar  
 28  12  34  1   
 29  13  35  1   
 30  13  36  1   
 31  13  37  1   
 32  14  19  ar  
 33  14  38  1   
 34  15  17  1   
 35  16  18  1   
 36  16  20  1   
 37  16  39  1   
 38  17  40  1   
 39  17  41  1   
 40  18  42  1   
 41  18  43  1   
 42  19  21  1   
 43  20  22  1   
 44  20  44  1   
 45  20  45  1   
 46  21  46  1   
 47  21  47  1   
 48  21  48  1   
 49  22  23  ar  
 50  22  24  ar  
@<TRIPOS>SUBSTRUCTURE
  1 ****   3 GROUP 4 **** **** 0

# MOE 2024.06 (io_trps.svl 2023.06)
