@<TRIPOS>MOLECULE
NONAME
46 48 1 0 0 
SMALL
USER_CHARGES


@<TRIPOS>ATOM
  1 CL      -0.4160    -0.2940    -0.3750 Cl    1 <1>  -0.1770 
  2 C       -1.9220    -1.0620     0.0570 C.ar  1 <1>   0.1770 
  3 C       -1.9860    -2.4410     0.1200 C.ar  1 <1>  -0.1500 
  4 C       -3.0270    -0.2780     0.3280 C.ar  1 <1>  -0.1500 
  5 C       -3.1810    -3.0560     0.4620 C.ar  1 <1>  -0.1440 
  6 C       -4.2210    -0.8910     0.6690 C.ar  1 <1>  -0.1500 
  7 C       -4.2940    -2.2740     0.7350 C.ar  1 <1>  -0.1500 
  8 C       -3.2680    -4.5720     0.5310 C.3   1 <1>  -0.0160 
  9 C       -3.5710    -5.1550    -0.8530 C.3   1 <1>  -0.0990 
 10 C       -3.7350    -6.6600    -0.7800 C.2   1 <1>   0.5690 
 11 O       -2.7490    -7.3390    -0.9350 O.2   1 <1>  -0.5700 
 12 N       -4.9590    -7.2170    -0.5290 N.am  1 <1>  -0.6600 
 13 C       -6.2460    -6.5020    -0.3340 C.3   1 <1>   0.1400 
 14 C       -5.1430    -8.6790    -0.3690 C.3   1 <1>   0.1400 
 15 C       -7.2930    -7.6060    -0.1870 C.3   1 <1>   0.2000 
 16 C       -6.5200    -8.8380     0.2760 C.3   1 <1>  -0.0800 
 17 O       -8.2610    -7.2680     0.7430 O.3   1 <1>  -0.6800 
 18 C       -7.2150   -10.1620    -0.0740 C.3   1 <1>   0.0210 
 19 C       -6.3550   -11.3460     0.3210 C.2   1 <1>   0.1080 
 20 N       -5.9800   -11.5640     1.5430 N.2   1 <1>  -0.7070 
 21 C       -5.8670   -12.3060    -0.5580 C.2   1 <1>  -0.1500 
 22 N       -5.2350   -12.6830     1.4750 N.pl3 1 <1>   0.3000 
 23 C       -5.1500   -13.1500     0.2120 C.2   1 <1>  -0.3320 
 24 C       -4.3760   -14.3930    -0.1870 C.3   1 <1>  -0.0600 
 25 H       -1.1070    -3.0210    -0.0980 H     1 <1>   0.1500 
 26 H       -2.9510     0.7930     0.2720 H     1 <1>   0.1500 
 27 H       -5.0900    -0.2940     0.8840 H     1 <1>   0.1500 
 28 H       -5.2280    -2.7370     1.0020 H     1 <1>   0.1500 
 29 H       -2.3370    -4.9750     0.8930 H     1 <1>   0.0800 
 30 H       -4.0360    -4.8600     1.2270 H     1 <1>   0.0800 
 31 H       -2.7560    -4.9330    -1.5170 H     1 <1>   0.0800 
 32 H       -4.4530    -4.7020    -1.2630 H     1 <1>   0.0800 
 33 H       -6.1910    -5.9070     0.5610 H     1 <1>   0.0800 
 34 H       -6.4690    -5.8840    -1.1850 H     1 <1>   0.0800 
 35 H       -5.1130    -9.1440    -1.3400 H     1 <1>   0.0800 
 36 H       -4.3690    -9.1020     0.2500 H     1 <1>   0.0800 
 37 H       -7.7750    -7.7750    -1.1350 H     1 <1>   0.0800 
 38 H       -6.3720    -8.7920     1.3420 H     1 <1>   0.0800 
 39 H       -7.8970    -7.3300     1.6480 H     1 <1>   0.4000 
 40 H       -7.4200   -10.2060    -1.1290 H     1 <1>   0.0800 
 41 H       -8.1510   -10.2260     0.4520 H     1 <1>   0.0800 
 42 H       -6.0380   -12.3430    -1.6190 H     1 <1>   0.1500 
 43 H       -4.7980   -13.0990     2.3060 H     1 <1>   0.2700 
 44 H       -4.4610   -14.5570    -1.2460 H     1 <1>   0.0800 
 45 H       -4.7660   -15.2550     0.3260 H     1 <1>   0.0800 
 46 H       -3.3350   -14.2780     0.0590 H     1 <1>   0.0800 
@<TRIPOS>BOND
  1   1   2  1   
  2   2   3  ar  
  3   2   4  ar  
  4   3   5  ar  
  5   3  25  1   
  6   4   6  ar  
  7   4  26  1   
  8   5   7  ar  
  9   5   8  1   
 10   6   7  ar  
 11   6  27  1   
 12   7  28  1   
 13   8   9  1   
 14   8  29  1   
 15   8  30  1   
 16   9  10  1   
 17   9  31  1   
 18   9  32  1   
 19  10  11  2   
 20  10  12  am  
 21  12  13  1   
 22  12  14  1   
 23  13  15  1   
 24  13  33  1   
 25  13  34  1   
 26  14  16  1   
 27  14  35  1   
 28  14  36  1   
 29  15  16  1   
 30  15  17  1   
 31  15  37  1   
 32  16  18  1   
 33  16  38  1   
 34  17  39  1   
 35  18  19  1   
 36  18  40  1   
 37  18  41  1   
 38  19  20  2   
 39  19  21  1   
 40  20  22  1   
 41  21  23  2   
 42  21  42  1   
 43  22  23  1   
 44  22  43  1   
 45  23  24  1   
 46  24  44  1   
 47  24  45  1   
 48  24  46  1   
@<TRIPOS>SUBSTRUCTURE
  1 ****  12 GROUP 4 **** **** 0

# MOE 2024.06 (io_trps.svl 2023.06)
