@<TRIPOS>MOLECULE
NONAME
36 37 1 0 0 
SMALL
USER_CHARGES


@<TRIPOS>ATOM
  1 CL      -0.9880    -1.6480     2.3980 Cl    1 <1>  -0.1770 
  2 C       -2.2310    -1.9400     1.2090 C.ar  1 <1>   0.1770 
  3 C       -3.5180    -1.5050     1.4470 C.ar  1 <1>  -0.1500 
  4 C       -1.9130    -2.6020     0.0430 C.ar  1 <1>  -0.1500 
  5 C       -4.5130    -1.7270     0.5050 C.ar  1 <1>  -0.1440 
  6 C       -2.9070    -2.8260    -0.8920 C.ar  1 <1>  -0.1500 
  7 C       -4.2200    -2.4010    -0.6890 C.ar  1 <1>  -0.0090 
  8 C       -5.9170    -1.2250     0.8300 C.3   1 <1>  -0.0960 
  9 S       -5.4570    -2.7410    -1.9870 S.o2  1 <1>   1.4470 
 10 O       -5.9350    -1.4850    -2.5280 O.2   1 <1>  -0.6500 
 11 O       -4.9420    -3.7270    -2.9150 O.2   1 <1>  -0.6500 
 12 N       -6.7480    -3.4660    -1.1700 N.am  1 <1>  -0.8490 
 13 C       -6.3920    -4.7340    -0.4990 C.3   1 <1>   0.1960 
 14 C       -7.9780    -3.5460    -1.9450 C.3   1 <1>   0.1960 
 15 C       -7.6110    -5.5940    -0.1510 C.3   1 <1>  -0.1860 
 16 C       -9.1710    -3.7950    -1.0070 C.3   1 <1>  -0.1600 
 17 C       -7.2570    -6.5200     0.9840 C.2   1 <1>   0.9060 
 18 C       -8.8590    -4.7610     0.1480 C.3   1 <1>   0.2000 
 19 O       -7.0280    -7.7020     0.7240 O.co2 1 <1>  -0.9000 
 20 O       -7.1900    -6.0590     2.1300 O.co2 1 <1>  -0.9000 
 21 O       -8.6420    -4.0290     1.3000 O.3   1 <1>  -0.6800 
 22 H       -3.7330    -0.9970     2.3700 H     1 <1>   0.1500 
 23 H       -0.9050    -2.9370    -0.1270 H     1 <1>   0.1500 
 24 H       -2.6580    -3.3460    -1.8030 H     1 <1>   0.1500 
 25 H       -5.8960    -0.5130     1.6350 H     1 <1>   0.0800 
 26 H       -6.5440    -2.0470     1.1310 H     1 <1>   0.0800 
 27 H       -6.3630    -0.7440    -0.0210 H     1 <1>   0.0800 
 28 H       -5.7320    -5.3210    -1.1170 H     1 <1>   0.0800 
 29 H       -5.8630    -4.4940     0.4100 H     1 <1>   0.0800 
 30 H       -8.1450    -2.6250    -2.4790 H     1 <1>   0.0800 
 31 H       -7.8910    -4.3420    -2.6660 H     1 <1>   0.0800 
 32 H       -7.8270    -6.2200    -0.9950 H     1 <1>   0.0800 
 33 H       -9.9670    -4.2090    -1.5960 H     1 <1>   0.0800 
 34 H       -9.5200    -2.8580    -0.6110 H     1 <1>   0.0800 
 35 H       -9.6980    -5.4080     0.3420 H     1 <1>   0.0800 
 36 H       -8.1170    -4.6290     1.9080 H     1 <1>   0.4000 
@<TRIPOS>BOND
  1   1   2  1   
  2   2   3  ar  
  3   2   4  ar  
  4   3   5  ar  
  5   3  22  1   
  6   4   6  ar  
  7   4  23  1   
  8   5   7  ar  
  9   5   8  1   
 10   6   7  ar  
 11   6  24  1   
 12   7   9  1   
 13   8  25  1   
 14   8  26  1   
 15   8  27  1   
 16   9  10  2   
 17   9  11  2   
 18   9  12  am  
 19  12  13  1   
 20  12  14  1   
 21  13  15  1   
 22  13  28  1   
 23  13  29  1   
 24  14  16  1   
 25  14  30  1   
 26  14  31  1   
 27  15  17  1   
 28  15  18  1   
 29  15  32  1   
 30  16  18  1   
 31  16  33  1   
 32  16  34  1   
 33  17  19  ar  
 34  17  20  ar  
 35  18  21  1   
 36  18  35  1   
 37  21  36  1   
@<TRIPOS>SUBSTRUCTURE
  1 ****  13 GROUP 4 **** **** 0

# MOE 2024.06 (io_trps.svl 2023.06)
