@<TRIPOS>MOLECULE
NONAME
48 52 1 0 0 
SMALL
USER_CHARGES


@<TRIPOS>ATOM
  1 S        0.1190    -0.4110    -2.4220 S.o2  1 <1>   1.5000 
  2 O        0.7890    -1.4130    -3.2240 O.2   1 <1>  -0.6500 
  3 O       -0.7990     0.5070    -3.0600 O.2   1 <1>  -0.6500 
  4 N       -0.7550    -1.2340    -1.2220 N.am  1 <1>  -0.8490 
  5 C        1.3730     0.4770    -1.4630 C.2   1 <1>  -0.0220 
  6 C       -1.5530    -2.3220    -1.7980 C.3   1 <1>   0.1960 
  7 C       -1.6100    -0.3260    -0.4490 C.3   1 <1>   0.1960 
  8 S        1.1590     2.2030    -1.1880 S.3   1 <1>  -0.0800 
  9 C        2.5010     0.0720    -0.8430 C.2   1 <1>  -0.1500 
 10 C       -2.1870    -3.1490    -0.6790 C.3   1 <1>  -0.1600 
 11 C       -2.2330    -1.0790     0.7250 C.3   1 <1>  -0.1600 
 12 C        2.6340     2.3290    -0.2290 C.2   1 <1>   0.0400 
 13 C        3.2080     1.1030    -0.1580 C.2   1 <1>  -0.1500 
 14 C       -3.0500    -2.2770     0.2330 C.3   1 <1>   0.4600 
 15 C        3.0120     3.6020     0.3120 C.2   1 <1>   0.1400 
 16 O       -4.1180    -1.8080    -0.5670 O.3   1 <1>  -0.5600 
 17 C       -3.6250    -3.0860     1.3890 C.2   1 <1>  -0.1400 
 18 O        2.2820     4.6810     0.1320 O.3   1 <1>  -0.0190 
 19 C        4.0740     3.9860     1.0540 C.2   1 <1>  -0.1500 
 20 C       -5.2900    -1.3680     0.0810 C.3   1 <1>   0.1200 
 21 S       -2.6190    -3.9860     2.5140 S.3   1 <1>  -0.0800 
 22 C       -4.9210    -3.2190     1.7000 C.2   1 <1>  -0.1810 
 23 N        2.7890     5.7360     0.7020 N.2   1 <1>  -0.4100 
 24 C        3.8730     5.3410     1.2670 C.2   1 <1>   0.1080 
 25 C       -5.9640    -2.5110     0.8660 C.3   1 <1>   0.0210 
 26 C       -4.0410    -4.5440     3.3870 C.2   1 <1>  -0.1100 
 27 C       -5.1680    -4.0550     2.8340 C.2   1 <1>  -0.1500 
 28 C        4.7870     6.2570     2.0500 C.3   1 <1>  -0.0590 
 29 H       -0.9240    -2.9700    -2.3850 H     1 <1>   0.0800 
 30 H       -2.3170    -1.9190    -2.4450 H     1 <1>   0.0800 
 31 H       -2.3850     0.0830    -1.0790 H     1 <1>   0.0800 
 32 H       -1.0250     0.4920    -0.0650 H     1 <1>   0.0800 
 33 H        2.8620    -0.9430    -0.8470 H     1 <1>   0.1500 
 34 H       -1.4020    -3.6090    -0.1090 H     1 <1>   0.0800 
 35 H       -2.7920    -3.9330    -1.0960 H     1 <1>   0.0800 
 36 H       -2.8520    -0.4200     1.3040 H     1 <1>   0.0800 
 37 H       -1.4450    -1.4250     1.3670 H     1 <1>   0.0800 
 38 H        4.1220     0.8870     0.3660 H     1 <1>   0.1500 
 39 H        4.8950     3.3930     1.4090 H     1 <1>   0.1500 
 40 H       -5.9590    -0.9920    -0.6730 H     1 <1>   0.0800 
 41 H       -5.0310    -0.5620     0.7440 H     1 <1>   0.0800 
 42 H       -6.4180    -3.2060     0.1830 H     1 <1>   0.0800 
 43 H       -6.7310    -2.1040     1.5000 H     1 <1>   0.0800 
 44 H       -3.8800    -5.1890     4.2320 H     1 <1>   0.1500 
 45 H       -6.1690    -4.2470     3.1780 H     1 <1>   0.1500 
 46 H        5.6310     5.7120     2.4320 H     1 <1>   0.0800 
 47 H        4.2460     6.6880     2.8720 H     1 <1>   0.0800 
 48 H        5.1380     7.0470     1.4120 H     1 <1>   0.0800 
@<TRIPOS>BOND
  1   1   2  2   
  2   1   3  2   
  3   1   4  am  
  4   1   5  1   
  5   4   6  1   
  6   4   7  1   
  7   5   8  1   
  8   5   9  2   
  9   6  10  1   
 10   6  29  1   
 11   6  30  1   
 12   7  11  1   
 13   7  31  1   
 14   7  32  1   
 15   8  12  1   
 16   9  13  1   
 17   9  33  1   
 18  10  14  1   
 19  10  34  1   
 20  10  35  1   
 21  11  14  1   
 22  11  36  1   
 23  11  37  1   
 24  12  13  2   
 25  12  15  1   
 26  13  38  1   
 27  14  16  1   
 28  14  17  1   
 29  15  18  1   
 30  15  19  2   
 31  16  20  1   
 32  17  21  1   
 33  17  22  2   
 34  18  23  1   
 35  19  24  1   
 36  19  39  1   
 37  20  25  1   
 38  20  40  1   
 39  20  41  1   
 40  21  26  1   
 41  22  25  1   
 42  22  27  1   
 43  23  24  2   
 44  24  28  1   
 45  25  42  1   
 46  25  43  1   
 47  26  27  2   
 48  26  44  1   
 49  27  45  1   
 50  28  46  1   
 51  28  47  1   
 52  28  48  1   
@<TRIPOS>SUBSTRUCTURE
  1 ****   7 GROUP 4 **** **** 0

# MOE 2024.06 (io_trps.svl 2023.06)
