@<TRIPOS>MOLECULE
NONAME
43 46 1 0 0 
SMALL
USER_CHARGES


@<TRIPOS>ATOM
  1 O        1.2830    -1.0200    -2.3710 O.2   1 <1>  -0.5700 
  2 C        1.4550    -1.7470    -1.4050 C.2   1 <1>   0.5440 
  3 N        1.3450    -1.1630    -0.1540 N.am  1 <1>  -0.6600 
  4 C        1.7880    -3.1560    -1.6380 C.ar  1 <1>   0.3960 
  5 C        1.1140     0.2870     0.0330 C.3   1 <1>   0.1400 
  6 C        1.5950    -1.8260     1.1480 C.3   1 <1>   0.1400 
  7 N        1.4520    -4.1130    -0.7540 N.ar  1 <1>  -0.6200 
  8 C        2.4600    -3.4740    -2.8250 C.ar  1 <1>   0.1600 
  9 C        1.6040     0.5770     1.4460 C.3   1 <1>  -0.1600 
 10 C        1.4000    -0.7350     2.1970 C.3   1 <1>  -0.1600 
 11 C        1.8180    -5.3220    -1.1160 C.ar  1 <1>   0.4100 
 12 N        2.8450    -4.6870    -3.2000 N.ar  1 <1>  -0.6200 
 13 N        1.4600    -6.2930    -0.2210 N.pl3 1 <1>  -0.8690 
 14 C        2.5080    -5.5940    -2.3070 C.ar  1 <1>   0.1600 
 15 C        0.5790    -7.4070    -0.6380 C.3   1 <1>   0.2890 
 16 C       -0.8880    -6.9440    -0.5560 C.3   1 <1>  -0.0170 
 17 C        0.7130    -8.5430     0.3910 C.3   1 <1>  -0.0170 
 18 C       -1.3170    -7.3840     0.8240 C.ar  1 <1>  -0.1430 
 19 C       -0.4220    -8.2800     1.3530 C.ar  1 <1>  -0.1430 
 20 C       -2.4360    -6.9960     1.5370 C.ar  1 <1>  -0.1500 
 21 C       -0.6190    -8.8170     2.6120 C.ar  1 <1>  -0.1500 
 22 C       -2.6430    -7.5280     2.8000 C.ar  1 <1>  -0.1500 
 23 C       -1.7390    -8.4350     3.3350 C.ar  1 <1>  -0.1500 
 24 H        0.0590     0.4850    -0.0520 H     1 <1>   0.0800 
 25 H        1.6510     0.8660    -0.7000 H     1 <1>   0.0800 
 26 H        2.6050    -2.1990     1.1690 H     1 <1>   0.0800 
 27 H        0.9030    -2.6350     1.3060 H     1 <1>   0.0800 
 28 H        2.6950    -2.6690    -3.5010 H     1 <1>   0.1500 
 29 H        1.0700     1.3960     1.8940 H     1 <1>   0.0800 
 30 H        2.6520     0.8190     1.4080 H     1 <1>   0.0800 
 31 H        2.0830    -0.8480     3.0200 H     1 <1>   0.0800 
 32 H        0.3920    -0.7890     2.5690 H     1 <1>   0.0800 
 33 H        1.0960    -5.8750     0.6420 H     1 <1>   0.4000 
 34 H        2.7840    -6.6130    -2.5020 H     1 <1>   0.1500 
 35 H        0.8370    -7.7390    -1.6290 H     1 <1>   0.0800 
 36 H       -1.4790    -7.4650    -1.2860 H     1 <1>   0.0800 
 37 H       -0.9930    -5.8830    -0.6970 H     1 <1>   0.0800 
 38 H        1.6710    -8.5380     0.8780 H     1 <1>   0.0800 
 39 H        0.5530    -9.4930    -0.0850 H     1 <1>   0.0800 
 40 H       -3.1340    -6.2920     1.1190 H     1 <1>   0.1500 
 41 H        0.0840    -9.5190     3.0240 H     1 <1>   0.1500 
 42 H       -3.5090    -7.2370     3.3680 H     1 <1>   0.1500 
 43 H       -1.9070    -8.8440     4.3160 H     1 <1>   0.1500 
@<TRIPOS>BOND
  1   1   2  2   
  2   2   3  am  
  3   2   4  1   
  4   3   5  1   
  5   3   6  1   
  6   4   7  ar  
  7   4   8  ar  
  8   5   9  1   
  9   5  24  1   
 10   5  25  1   
 11   6  10  1   
 12   6  26  1   
 13   6  27  1   
 14   7  11  ar  
 15   8  12  ar  
 16   8  28  1   
 17   9  10  1   
 18   9  29  1   
 19   9  30  1   
 20  10  31  1   
 21  10  32  1   
 22  11  13  1   
 23  11  14  ar  
 24  12  14  ar  
 25  13  15  1   
 26  13  33  1   
 27  14  34  1   
 28  15  16  1   
 29  15  17  1   
 30  15  35  1   
 31  16  18  1   
 32  16  36  1   
 33  16  37  1   
 34  17  19  1   
 35  17  38  1   
 36  17  39  1   
 37  18  19  ar  
 38  18  20  ar  
 39  19  21  ar  
 40  20  22  ar  
 41  20  40  1   
 42  21  23  ar  
 43  21  41  1   
 44  22  23  ar  
 45  22  42  1   
 46  23  43  1   
@<TRIPOS>SUBSTRUCTURE
  1 ****   7 GROUP 4 **** **** 0

# MOE 2024.06 (io_trps.svl 2023.06)
