@<TRIPOS>MOLECULE
NONAME
52 55 1 0 0 
SMALL
USER_CHARGES


@<TRIPOS>ATOM
  1 O        3.2880    -3.4270     3.1810 O.2   1 <1>  -0.5700 
  2 C        2.1970    -3.6440     2.7010 C.2   1 <1>   0.5440 
  3 N        1.2320    -4.0160     3.5770 N.am  1 <1>  -0.8000 
  4 C        1.9460    -3.4710     1.2890 C.ar  1 <1>   0.0860 
  5 C        1.1340    -4.3490     0.5480 C.ar  1 <1>   0.4100 
  6 C        2.5180    -2.4040     0.6120 C.ar  1 <1>  -0.1500 
  7 N        0.8570    -4.1820    -0.7410 N.ar  1 <1>  -0.6200 
  8 N        0.5630    -5.4620     1.1260 N.pl3 1 <1>  -0.8690 
  9 C        2.2450    -2.2350    -0.7280 C.ar  1 <1>  -0.1430 
 10 C        1.4010    -3.1480    -1.3510 C.ar  1 <1>   0.1670 
 11 C        0.0880    -6.6500     0.3680 C.3   1 <1>   0.2890 
 12 C        2.8720    -1.0620    -1.4710 C.3   1 <1>  -0.0970 
 13 C        1.0500    -3.0090    -2.8210 C.3   1 <1>  -0.0970 
 14 C       -1.4290    -6.7590     0.4110 C.3   1 <1>  -0.0800 
 15 C        0.4820    -7.9180     1.1160 C.3   1 <1>   0.1200 
 16 C       -1.6870    -7.4960     1.7300 C.3   1 <1>   0.1200 
 17 C       -2.2000    -5.4330     0.2730 C.3   1 <1>  -0.0170 
 18 O       -0.4750    -8.0760     2.1200 O.3   1 <1>  -0.5600 
 19 C       -3.6980    -5.6850     0.1300 C.ar  1 <1>  -0.1430 
 20 C       -4.2770    -6.1020    -1.0920 C.ar  1 <1>   0.0000 
 21 C       -4.5300    -5.5180     1.1970 C.ar  1 <1>  -0.1500 
 22 C       -5.6740    -6.3340    -1.1120 C.ar  1 <1>   0.3100 
 23 C       -3.5550    -6.3010    -2.2930 C.ar  1 <1>  -0.1500 
 24 C       -5.9020    -5.7680     1.0680 C.ar  1 <1>   0.1600 
 25 N       -6.4700    -6.1630    -0.0270 N.ar  1 <1>  -0.6200 
 26 C       -6.2740    -6.7610    -2.3080 C.ar  1 <1>  -0.1500 
 27 C       -4.1710    -6.7160    -3.4420 C.ar  1 <1>  -0.1500 
 28 C       -5.5470    -6.9520    -3.4520 C.ar  1 <1>  -0.1500 
 29 H        1.4570    -4.0420     4.5730 H     1 <1>   0.3700 
 30 H        0.2470    -4.0820     3.3180 H     1 <1>   0.3700 
 31 H        3.1630    -1.7250     1.1430 H     1 <1>   0.1500 
 32 H        0.8550    -5.7010     2.0810 H     1 <1>   0.4000 
 33 H        0.4730    -6.6500    -0.6370 H     1 <1>   0.0800 
 34 H        3.5760    -0.5420    -0.8450 H     1 <1>   0.0800 
 35 H        2.1110    -0.3660    -1.7730 H     1 <1>   0.0800 
 36 H        3.3960    -1.4110    -2.3430 H     1 <1>   0.0800 
 37 H        0.7300    -2.0070    -3.0370 H     1 <1>   0.0800 
 38 H        0.2510    -3.6800    -3.0820 H     1 <1>   0.0800 
 39 H        1.9070    -3.2480    -3.4230 H     1 <1>   0.0800 
 40 H       -1.7280    -7.4170    -0.3850 H     1 <1>   0.0800 
 41 H        1.4630    -7.8560     1.5520 H     1 <1>   0.0800 
 42 H        0.4210    -8.7740     0.4670 H     1 <1>   0.0800 
 43 H       -2.4270    -8.2690     1.6170 H     1 <1>   0.0800 
 44 H       -1.9850    -6.8170     2.5100 H     1 <1>   0.0800 
 45 H       -1.8400    -4.8810    -0.5770 H     1 <1>   0.0800 
 46 H       -2.0180    -4.8160     1.1350 H     1 <1>   0.0800 
 47 H       -4.1620    -5.1970     2.1540 H     1 <1>   0.1500 
 48 H       -2.4960    -6.1200    -2.3090 H     1 <1>   0.1500 
 49 H       -6.5240    -5.6240     1.9350 H     1 <1>   0.1500 
 50 H       -7.3340    -6.9340    -2.2920 H     1 <1>   0.1500 
 51 H       -3.6090    -6.8640    -4.3480 H     1 <1>   0.1500 
 52 H       -6.0210    -7.2790    -4.3610 H     1 <1>   0.1500 
@<TRIPOS>BOND
  1   1   2  2   
  2   2   3  am  
  3   2   4  1   
  4   3  29  1   
  5   3  30  1   
  6   4   5  ar  
  7   4   6  ar  
  8   5   7  ar  
  9   5   8  1   
 10   6   9  ar  
 11   6  31  1   
 12   7  10  ar  
 13   8  11  1   
 14   8  32  1   
 15   9  10  ar  
 16   9  12  1   
 17  10  13  1   
 18  11  14  1   
 19  11  15  1   
 20  11  33  1   
 21  12  34  1   
 22  12  35  1   
 23  12  36  1   
 24  13  37  1   
 25  13  38  1   
 26  13  39  1   
 27  14  16  1   
 28  14  17  1   
 29  14  40  1   
 30  15  18  1   
 31  15  41  1   
 32  15  42  1   
 33  16  18  1   
 34  16  43  1   
 35  16  44  1   
 36  17  19  1   
 37  17  45  1   
 38  17  46  1   
 39  19  20  ar  
 40  19  21  ar  
 41  20  22  ar  
 42  20  23  ar  
 43  21  24  ar  
 44  21  47  1   
 45  22  25  ar  
 46  22  26  ar  
 47  23  27  ar  
 48  23  48  1   
 49  24  25  ar  
 50  24  49  1   
 51  26  28  ar  
 52  26  50  1   
 53  27  28  ar  
 54  27  51  1   
 55  28  52  1   
@<TRIPOS>SUBSTRUCTURE
  1 ****  17 GROUP 4 **** **** 0

# MOE 2024.06 (io_trps.svl 2023.06)
