@<TRIPOS>MOLECULE
NONAME
49 52 1 0 0 
SMALL
USER_CHARGES


@<TRIPOS>ATOM
  1 F       -0.2370    -1.0280     2.7570 F     1 <1>  -0.1900 
  2 C       -0.1020    -1.7490     1.6780 C.ar  1 <1>   0.1900 
  3 C        0.7360    -1.2940     0.6800 C.ar  1 <1>  -0.1500 
  4 C       -0.8040    -2.9350     1.5780 C.ar  1 <1>  -0.1500 
  5 C        0.8490    -2.0900    -0.4420 C.ar  1 <1>   0.1900 
  6 C       -0.6880    -3.7250     0.4320 C.ar  1 <1>   0.0860 
  7 F        1.6300    -1.6980    -1.4110 F     1 <1>  -0.1900 
  8 C        0.1660    -3.2840    -0.5800 C.ar  1 <1>  -0.1500 
  9 C       -1.4200    -4.9680     0.2910 C.2   1 <1>   0.5440 
 10 O       -0.7960    -5.9980     0.1290 O.2   1 <1>  -0.5700 
 11 N       -2.7970    -5.0130     0.3180 N.am  1 <1>  -0.6600 
 12 C       -3.6780    -3.8050     0.2500 C.3   1 <1>   0.1400 
 13 C       -3.5160    -6.3260     0.2770 C.3   1 <1>   0.1400 
 14 C       -4.5220    -3.8020    -1.0450 C.3   1 <1>   0.1430 
 15 C       -4.9700    -6.1810    -0.2040 C.3   1 <1>  -0.1600 
 16 C       -5.6300    -2.7830    -0.8480 C.ar  1 <1>   0.1670 
 17 C       -5.0600    -5.2160    -1.3960 C.3   1 <1>  -0.1600 
 18 C       -3.7290    -3.1920    -2.2310 C.3   1 <1>  -0.1600 
 19 N       -6.6950    -2.9550    -0.1050 N.ar  1 <1>  -0.6200 
 20 C       -5.3770    -1.6290    -1.5260 C.ar  1 <1>  -0.1430 
 21 C       -4.0740    -1.6940    -2.2820 C.3   1 <1>  -0.0170 
 22 C       -7.5360    -1.9190    -0.0650 C.ar  1 <1>   0.7200 
 23 C       -6.2970    -0.6160    -1.4250 C.ar  1 <1>   0.1600 
 24 N       -7.3800    -0.7510    -0.6970 N.ar  1 <1>  -0.6200 
 25 N       -8.6740    -2.0690     0.7050 N.pl3 1 <1>  -0.8380 
 26 C       -9.1380    -3.4010     1.1790 C.3   1 <1>   0.1290 
 27 C       -9.5410    -0.9140     1.0660 C.3   1 <1>   0.1290 
 28 H        1.2740    -0.3690     0.7720 H     1 <1>   0.1500 
 29 H       -1.4400    -3.2510     2.3860 H     1 <1>   0.1500 
 30 H        0.2940    -3.8780    -1.4680 H     1 <1>   0.1500 
 31 H       -3.1120    -2.8940     0.3060 H     1 <1>   0.0800 
 32 H       -4.3380    -3.8230     1.1010 H     1 <1>   0.0800 
 33 H       -3.4950    -6.7730     1.2560 H     1 <1>   0.0800 
 34 H       -2.9940    -6.9850    -0.3970 H     1 <1>   0.0800 
 35 H       -5.5840    -5.8210     0.6030 H     1 <1>   0.0800 
 36 H       -5.3460    -7.1490    -0.4860 H     1 <1>   0.0800 
 37 H       -4.4770    -5.6400    -2.1950 H     1 <1>   0.0800 
 38 H       -6.0780    -5.1490    -1.7390 H     1 <1>   0.0800 
 39 H       -4.0670    -3.6320    -3.1530 H     1 <1>   0.0800 
 40 H       -2.6700    -3.3610    -2.1460 H     1 <1>   0.0800 
 41 H       -4.1820    -1.3460    -3.2950 H     1 <1>   0.0800 
 42 H       -3.3280    -1.1110    -1.7700 H     1 <1>   0.0800 
 43 H       -6.1430     0.3140    -1.9440 H     1 <1>   0.1500 
 44 H       -8.8100    -4.1770     0.5090 H     1 <1>   0.0800 
 45 H      -10.2130    -3.4250     1.2220 H     1 <1>   0.0800 
 46 H       -8.7380    -3.5930     2.1590 H     1 <1>   0.0800 
 47 H       -8.9590    -0.0100     1.1310 H     1 <1>   0.0800 
 48 H      -10.0080    -1.0840     2.0190 H     1 <1>   0.0800 
 49 H      -10.3000    -0.7860     0.3140 H     1 <1>   0.0800 
@<TRIPOS>BOND
  1   1   2  1   
  2   2   3  ar  
  3   2   4  ar  
  4   3   5  ar  
  5   3  28  1   
  6   4   6  ar  
  7   4  29  1   
  8   5   7  1   
  9   5   8  ar  
 10   6   8  ar  
 11   6   9  1   
 12   8  30  1   
 13   9  10  2   
 14   9  11  am  
 15  11  12  1   
 16  11  13  1   
 17  12  14  1   
 18  12  31  1   
 19  12  32  1   
 20  13  15  1   
 21  13  33  1   
 22  13  34  1   
 23  14  16  1   
 24  14  17  1   
 25  14  18  1   
 26  15  17  1   
 27  15  35  1   
 28  15  36  1   
 29  16  19  ar  
 30  16  20  ar  
 31  17  37  1   
 32  17  38  1   
 33  18  21  1   
 34  18  39  1   
 35  18  40  1   
 36  19  22  ar  
 37  20  21  1   
 38  20  23  ar  
 39  21  41  1   
 40  21  42  1   
 41  22  24  ar  
 42  22  25  1   
 43  23  24  ar  
 44  23  43  1   
 45  25  26  1   
 46  25  27  1   
 47  26  44  1   
 48  26  45  1   
 49  26  46  1   
 50  27  47  1   
 51  27  48  1   
 52  27  49  1   
@<TRIPOS>SUBSTRUCTURE
  1 ****  12 GROUP 4 **** **** 0

# MOE 2024.06 (io_trps.svl 2023.06)
