@<TRIPOS>MOLECULE
NONAME
52 53 1 0 0 
SMALL
USER_CHARGES


@<TRIPOS>ATOM
  1 S       -0.0300     0.0470    -0.9680 S.o2  1 <1>   1.3330 
  2 O       -0.8540    -1.1170    -0.7330 O.2   1 <1>  -0.6500 
  3 O        0.4400     0.3420    -2.3030 O.2   1 <1>  -0.6500 
  4 N        1.3390    -0.0950     0.0320 N.am  1 <1>  -0.8490 
  5 C       -0.8700     1.5070    -0.3500 C.3   1 <1>  -0.0550 
  6 C        2.3890    -0.8920    -0.6130 C.3   1 <1>   0.1160 
  7 C        1.0290    -0.6830     1.3430 C.3   1 <1>   0.1160 
  8 C       -0.1820     2.8380    -0.7280 C.3   1 <1>  -0.0800 
  9 C       -0.9070     4.0880    -0.2300 C.3   1 <1>   0.2000 
 10 C        1.2490     2.9980    -0.2020 C.3   1 <1>   0.2090 
 11 O       -1.2420     3.9130     1.1050 O.3   1 <1>  -0.6800 
 12 C        0.1650     5.1740    -0.3150 C.3   1 <1>   0.2090 
 13 N        1.4430     4.4640    -0.0080 N.pl3 1 <1>  -0.8380 
 14 C        2.6090     5.1000     0.2750 C.ar  1 <1>   0.4100 
 15 N        2.5880     6.4180     0.3240 N.ar  1 <1>  -0.6200 
 16 C        3.7950     4.3780     0.5070 C.ar  1 <1>  -0.1500 
 17 C        3.7180     7.0620     0.5830 C.ar  1 <1>   0.7710 
 18 C        4.9390     5.0500     0.7780 C.ar  1 <1>   0.2180 
 19 N        4.8660     6.4010     0.8090 N.ar  1 <1>  -0.1790 
 20 N        3.7230     8.4250     0.6280 N.pl3 1 <1>  -0.8380 
 21 C        6.2760     4.3700     1.0450 C.3   1 <1>  -0.0170 
 22 C        2.4430     9.2050     0.5420 C.3   1 <1>   0.1290 
 23 C        4.9210     9.3210     0.6920 C.3   1 <1>   0.1290 
 24 C        7.3160     4.6990    -0.0340 C.3   1 <1>  -0.2400 
 25 H       -1.8610     1.5240    -0.7590 H     1 <1>   0.0800 
 26 H       -0.9710     1.4350     0.7150 H     1 <1>   0.0800 
 27 H        3.2470    -0.9760     0.0320 H     1 <1>   0.0800 
 28 H        2.7010    -0.4220    -1.5300 H     1 <1>   0.0800 
 29 H        2.0210    -1.8800    -0.8410 H     1 <1>   0.0800 
 30 H        1.9100    -0.6940     1.9620 H     1 <1>   0.0800 
 31 H        0.6720    -1.6940     1.2290 H     1 <1>   0.0800 
 32 H        0.2720    -0.1060     1.8440 H     1 <1>   0.0800 
 33 H       -0.1330     2.8980    -1.8020 H     1 <1>   0.0800 
 34 H       -1.7990     4.3230    -0.7850 H     1 <1>   0.0800 
 35 H        1.9610     2.5980    -0.9050 H     1 <1>   0.0800 
 36 H        1.3600     2.5020     0.7480 H     1 <1>   0.0800 
 37 H       -0.4280     4.0160     1.6400 H     1 <1>   0.4000 
 38 H       -0.0280     5.9780     0.3750 H     1 <1>   0.0800 
 39 H        0.2140     5.5660    -1.3160 H     1 <1>   0.0800 
 40 H        3.7710     3.3060     0.4650 H     1 <1>   0.1500 
 41 H        5.6670     6.9790     1.0190 H     1 <1>   0.4570 
 42 H        6.6480     4.6670     2.0110 H     1 <1>   0.0800 
 43 H        6.1340     3.3030     1.0720 H     1 <1>   0.0800 
 44 H        2.4960    10.0800     1.1670 H     1 <1>   0.0800 
 45 H        1.6010     8.6190     0.8710 H     1 <1>   0.0800 
 46 H        2.2710     9.5130    -0.4760 H     1 <1>   0.0800 
 47 H        4.7880    10.1530     0.0200 H     1 <1>   0.0800 
 48 H        5.8210     8.8110     0.4020 H     1 <1>   0.0800 
 49 H        5.0350     9.7080     1.6920 H     1 <1>   0.0800 
 50 H        7.5500     5.7480    -0.0520 H     1 <1>   0.0800 
 51 H        6.9570     4.4050    -1.0060 H     1 <1>   0.0800 
 52 H        8.2260     4.1570     0.1620 H     1 <1>   0.0800 
@<TRIPOS>BOND
  1   1   2  2   
  2   1   3  2   
  3   1   4  am  
  4   1   5  1   
  5   4   6  1   
  6   4   7  1   
  7   5   8  1   
  8   5  25  1   
  9   5  26  1   
 10   6  27  1   
 11   6  28  1   
 12   6  29  1   
 13   7  30  1   
 14   7  31  1   
 15   7  32  1   
 16   8   9  1   
 17   8  10  1   
 18   8  33  1   
 19   9  11  1   
 20   9  12  1   
 21   9  34  1   
 22  10  13  1   
 23  10  35  1   
 24  10  36  1   
 25  11  37  1   
 26  12  13  1   
 27  12  38  1   
 28  12  39  1   
 29  13  14  1   
 30  14  15  ar  
 31  14  16  ar  
 32  15  17  ar  
 33  16  18  ar  
 34  16  40  1   
 35  17  19  ar  
 36  17  20  1   
 37  18  19  ar  
 38  18  21  1   
 39  19  41  1   
 40  20  22  1   
 41  20  23  1   
 42  21  24  1   
 43  21  42  1   
 44  21  43  1   
 45  22  44  1   
 46  22  45  1   
 47  22  46  1   
 48  23  47  1   
 49  23  48  1   
 50  23  49  1   
 51  24  50  1   
 52  24  51  1   
 53  24  52  1   
@<TRIPOS>SUBSTRUCTURE
  1 ****  13 GROUP 4 **** **** 0

# MOE 2024.06 (io_trps.svl 2023.06)
