@<TRIPOS>MOLECULE
NONAME
53 56 1 0 0 
SMALL
USER_CHARGES


@<TRIPOS>ATOM
  1 O       -0.6430     0.6020     2.0140 O.2   1 <1>  -0.5700 
  2 C        0.4310     0.0600     2.1050 C.2   1 <1>   0.5690 
  3 N        1.6130     0.6730     1.8100 N.am  1 <1>  -0.4940 
  4 C        0.4740    -1.4310     2.4510 C.3   1 <1>   0.4040 
  5 C        1.8440     1.7380     0.9270 C.2   1 <1>  -0.0880 
  6 N        0.9440    -2.2900     1.2940 N.4   1 <1>  -0.9590 
  7 N        1.3310     2.9900     0.9900 N.pl3 1 <1>   0.3140 
  8 C        2.6740     1.6880    -0.1530 C.2   1 <1>  -0.0540 
  9 C        0.0920    -2.1070     0.0790 C.3   1 <1>   0.4230 
 10 C        0.8890    -3.7610     1.5800 C.3   1 <1>   0.3430 
 11 N        1.8390     3.7690     0.0160 N.2   1 <1>  -0.7070 
 12 C        0.3740     3.5320     1.9640 C.3   1 <1>   0.0160 
 13 C        3.3810     0.5380    -0.6840 C.ar  1 <1>   0.0540 
 14 C        2.6360     2.9990    -0.6500 C.2   1 <1>   0.1080 
 15 C       -0.9540    -3.1920     0.2440 C.3   1 <1>  -0.1600 
 16 C        0.9120    -2.6480    -1.0960 C.3   1 <1>  -0.1600 
 17 C        0.0610    -4.3090     0.4130 C.3   1 <1>  -0.0800 
 18 C        4.1270    -0.3580     0.1020 C.ar  1 <1>   0.0820 
 19 C        3.2970     0.2630    -2.0480 C.ar  1 <1>  -0.1500 
 20 C        3.4240     3.5300    -1.8280 C.3   1 <1>  -0.0590 
 21 C        0.8990    -4.1730    -0.8710 C.3   1 <1>  -0.1600 
 22 O        4.2520    -0.2040     1.4400 O.3   1 <1>  -0.3630 
 23 C        4.7540    -1.4570    -0.4610 C.ar  1 <1>  -0.1500 
 24 C        3.9290    -0.8300    -2.6130 C.ar  1 <1>  -0.1500 
 25 C        5.1540     0.8030     1.8570 C.3   1 <1>   0.0400 
 26 C        4.6610    -1.6940    -1.8200 C.ar  1 <1>  -0.1500 
 27 H        2.4740     0.1390     1.9760 H     1 <1>   0.3700 
 28 H       -0.5200    -1.7270     2.7400 H     1 <1>   0.0800 
 29 H        1.1240    -1.5690     3.2980 H     1 <1>   0.0800 
 30 H        1.9000    -2.0240     1.0180 H     1 <1>   0.4500 
 31 H       -0.2820    -1.1030    -0.0620 H     1 <1>   0.0800 
 32 H        1.8740    -4.2000     1.6020 H     1 <1>   0.0800 
 33 H        0.3830    -3.9500     2.5130 H     1 <1>   0.0800 
 34 H        0.5560     3.0950     2.9270 H     1 <1>   0.0800 
 35 H       -0.6220     3.2970     1.6400 H     1 <1>   0.0800 
 36 H        0.4940     4.5980     2.0200 H     1 <1>   0.0800 
 37 H       -1.5830    -3.0390     1.1040 H     1 <1>   0.0800 
 38 H       -1.5640    -3.3100    -0.6360 H     1 <1>   0.0800 
 39 H        0.4220    -2.4080    -2.0240 H     1 <1>   0.0800 
 40 H        1.9060    -2.2400    -1.1170 H     1 <1>   0.0800 
 41 H       -0.3430    -5.2930     0.5800 H     1 <1>   0.0800 
 42 H        2.7220     0.9160    -2.6800 H     1 <1>   0.1500 
 43 H        4.3380     2.9790    -1.9520 H     1 <1>   0.0800 
 44 H        3.6660     4.5640    -1.6610 H     1 <1>   0.0800 
 45 H        2.8350     3.4550    -2.7220 H     1 <1>   0.0800 
 46 H        1.8910    -4.5750    -0.7540 H     1 <1>   0.0800 
 47 H        0.4120    -4.6690    -1.6950 H     1 <1>   0.0800 
 48 H        5.3260    -2.1220     0.1620 H     1 <1>   0.1500 
 49 H        3.8530    -1.0090    -3.6730 H     1 <1>   0.1500 
 50 H        5.2200     0.7810     2.9300 H     1 <1>   0.0800 
 51 H        4.7930     1.7640     1.5320 H     1 <1>   0.0800 
 52 H        6.1210     0.6070     1.4270 H     1 <1>   0.0800 
 53 H        5.1590    -2.5430    -2.2600 H     1 <1>   0.1500 
@<TRIPOS>BOND
  1   1   2  2   
  2   2   3  am  
  3   2   4  1   
  4   3   5  1   
  5   3  27  1   
  6   4   6  1   
  7   4  28  1   
  8   4  29  1   
  9   5   7  1   
 10   5   8  2   
 11   6   9  1   
 12   6  10  1   
 13   6  30  1   
 14   7  11  1   
 15   7  12  1   
 16   8  13  1   
 17   8  14  1   
 18   9  15  1   
 19   9  16  1   
 20   9  31  1   
 21  10  17  1   
 22  10  32  1   
 23  10  33  1   
 24  11  14  2   
 25  12  34  1   
 26  12  35  1   
 27  12  36  1   
 28  13  18  ar  
 29  13  19  ar  
 30  14  20  1   
 31  15  17  1   
 32  15  37  1   
 33  15  38  1   
 34  16  21  1   
 35  16  39  1   
 36  16  40  1   
 37  17  21  1   
 38  17  41  1   
 39  18  22  1   
 40  18  23  ar  
 41  19  24  ar  
 42  19  42  1   
 43  20  43  1   
 44  20  44  1   
 45  20  45  1   
 46  21  46  1   
 47  21  47  1   
 48  22  25  1   
 49  23  26  ar  
 50  23  48  1   
 51  24  26  ar  
 52  24  49  1   
 53  25  50  1   
 54  25  51  1   
 55  25  52  1   
 56  26  53  1   
@<TRIPOS>SUBSTRUCTURE
  1 ****   3 GROUP 4 **** **** 0

# MOE 2024.06 (io_trps.svl 2023.06)
