@<TRIPOS>MOLECULE
NONAME
59 61 1 0 0 
SMALL
USER_CHARGES


@<TRIPOS>ATOM
  1 O       -1.5530    -0.8710     0.2360 O.2   1 <1>  -0.5700 
  2 C       -1.2220     0.1730    -0.2760 C.2   1 <1>   0.5690 
  3 N       -2.1410     1.1530    -0.5700 N.am  1 <1>  -0.6600 
  4 C        0.2610     0.3460    -0.5910 C.3   1 <1>   0.0440 
  5 C       -1.7790     2.4560    -1.2030 C.3   1 <1>   0.1400 
  6 C       -3.5740     0.9750    -0.1930 C.3   1 <1>   0.1400 
  7 C        0.9170     1.5370     0.1050 C.ar  1 <1>  -0.1440 
  8 C       -3.0100     3.1020    -1.8370 C.3   1 <1>  -0.1600 
  9 C       -4.1810     2.3020     0.2700 C.3   1 <1>  -0.1600 
 10 C        1.8640     2.3160    -0.5300 C.ar  1 <1>  -0.1500 
 11 C        0.6020     1.8990     1.4000 C.ar  1 <1>  -0.1500 
 12 C       -4.0820     3.4490    -0.7740 C.3   1 <1>   0.2800 
 13 C        2.4270     3.3910     0.1380 C.ar  1 <1>   0.1600 
 14 C        1.2220     2.9950     1.9760 C.ar  1 <1>   0.1600 
 15 O       -3.5920     4.5540    -0.0450 O.3   1 <1>  -0.5600 
 16 C       -5.4930     3.7690    -1.3940 C.3   1 <1>   0.2000 
 17 N        2.1260     3.7510     1.3750 N.ar  1 <1>  -0.6200 
 18 C       -3.8320     5.8370    -0.5330 C.3   1 <1>   0.1200 
 19 O       -5.3890     4.1530    -2.7420 O.3   1 <1>  -0.6800 
 20 C       -6.2370     4.8850    -0.5980 C.3   1 <1>   0.3000 
 21 C       -5.3390     6.1410    -0.5520 C.3   1 <1>  -0.1600 
 22 N       -6.4470     4.4850     0.8140 N.am  1 <1>  -0.7300 
 23 C       -7.5930     5.2750    -1.2130 C.3   1 <1>  -0.2400 
 24 C       -7.2800     3.6340     1.4610 C.2   1 <1>   0.5690 
 25 O       -7.1560     3.5180     2.6530 O.2   1 <1>  -0.5700 
 26 C       -8.3350     2.8050     0.7390 C.3   1 <1>  -0.0990 
 27 C       -8.7410     1.5240     1.4890 C.3   1 <1>  -0.1600 
 28 C       -9.7570     0.7040     0.6870 C.3   1 <1>  -0.2400 
 29 H        0.7780    -0.5460    -0.2880 H     1 <1>   0.0800 
 30 H        0.3690     0.4310    -1.6550 H     1 <1>   0.0800 
 31 H       -1.3720     3.1140    -0.4520 H     1 <1>   0.0800 
 32 H       -1.0320     2.3000    -1.9610 H     1 <1>   0.0800 
 33 H       -4.1150     0.5960    -1.0430 H     1 <1>   0.0800 
 34 H       -3.6610     0.2540     0.6030 H     1 <1>   0.0800 
 35 H       -3.4150     2.4140    -2.5590 H     1 <1>   0.0800 
 36 H       -2.7110     3.9810    -2.3740 H     1 <1>   0.0800 
 37 H       -3.6770     2.5870     1.1770 H     1 <1>   0.0800 
 38 H       -5.2030     2.1110     0.5310 H     1 <1>   0.0800 
 39 H        2.1730     2.0990    -1.5360 H     1 <1>   0.1500 
 40 H       -0.1230     1.3420     1.9680 H     1 <1>   0.1500 
 41 H        3.1650     3.9860    -0.3720 H     1 <1>   0.1500 
 42 H        0.9590     3.2620     2.9860 H     1 <1>   0.1500 
 43 H       -6.0870     2.8750    -1.4040 H     1 <1>   0.0800 
 44 H       -3.3190     6.5320     0.1090 H     1 <1>   0.0800 
 45 H       -3.4080     5.9120    -1.5180 H     1 <1>   0.0800 
 46 H       -4.8240     4.9430    -2.8220 H     1 <1>   0.4000 
 47 H       -5.5970     6.7490     0.2970 H     1 <1>   0.0800 
 48 H       -5.5180     6.7520    -1.4180 H     1 <1>   0.0800 
 49 H       -5.7010     4.8400     1.4180 H     1 <1>   0.3700 
 50 H       -7.4500     5.7720    -2.1550 H     1 <1>   0.0800 
 51 H       -8.1250     5.9440    -0.5600 H     1 <1>   0.0800 
 52 H       -8.1970     4.4130    -1.4130 H     1 <1>   0.0800 
 53 H       -9.2030     3.4220     0.5970 H     1 <1>   0.0800 
 54 H       -7.9570     2.5180    -0.2220 H     1 <1>   0.0800 
 55 H       -7.8650     0.9260     1.6760 H     1 <1>   0.0800 
 56 H       -9.1680     1.7870     2.4420 H     1 <1>   0.0800 
 57 H       -9.3410     0.4050    -0.2590 H     1 <1>   0.0800 
 58 H      -10.6490     1.2790     0.5100 H     1 <1>   0.0800 
 59 H      -10.0260    -0.1820     1.2360 H     1 <1>   0.0800 
@<TRIPOS>BOND
  1   1   2  2   
  2   2   3  am  
  3   2   4  1   
  4   3   5  1   
  5   3   6  1   
  6   4   7  1   
  7   4  29  1   
  8   4  30  1   
  9   5   8  1   
 10   5  31  1   
 11   5  32  1   
 12   6   9  1   
 13   6  33  1   
 14   6  34  1   
 15   7  10  ar  
 16   7  11  ar  
 17   8  12  1   
 18   8  35  1   
 19   8  36  1   
 20   9  12  1   
 21   9  37  1   
 22   9  38  1   
 23  10  13  ar  
 24  10  39  1   
 25  11  14  ar  
 26  11  40  1   
 27  12  15  1   
 28  12  16  1   
 29  13  17  ar  
 30  13  41  1   
 31  14  17  ar  
 32  14  42  1   
 33  15  18  1   
 34  16  19  1   
 35  16  20  1   
 36  16  43  1   
 37  18  21  1   
 38  18  44  1   
 39  18  45  1   
 40  19  46  1   
 41  20  21  1   
 42  20  22  1   
 43  20  23  1   
 44  21  47  1   
 45  21  48  1   
 46  22  24  am  
 47  22  49  1   
 48  23  50  1   
 49  23  51  1   
 50  23  52  1   
 51  24  25  2   
 52  24  26  1   
 53  26  27  1   
 54  26  53  1   
 55  26  54  1   
 56  27  28  1   
 57  27  55  1   
 58  27  56  1   
 59  28  57  1   
 60  28  58  1   
 61  28  59  1   
@<TRIPOS>SUBSTRUCTURE
  1 ****   9 GROUP 4 **** **** 0

# MOE 2024.06 (io_trps.svl 2023.06)
