@<TRIPOS>MOLECULE
NONAME
45 48 1 0 0 
SMALL
USER_CHARGES


@<TRIPOS>ATOM
  1 S        0.1490    -0.1060     1.6700 S.3   1 <1>  -0.0800 
  2 C        0.7390     1.4730     1.2380 C.2   1 <1>   0.1240 
  3 C        1.1950    -0.8880     0.4650 C.2   1 <1>  -0.0450 
  4 N        0.3380     2.6330     1.8040 N.pl3 1 <1>  -0.5340 
  5 C        1.6650     1.4210     0.2510 C.2   1 <1>  -0.0860 
  6 C        1.9210     0.0730    -0.1770 C.2   1 <1>  -0.1810 
  7 C        1.1530    -2.3270     0.3630 C.2   1 <1>   0.7150 
  8 C        0.8930     3.7970     1.3560 C.2   1 <1>   0.4400 
  9 C        2.1980     2.6880    -0.1660 C.2   1 <1>   0.8670 
 10 C        2.9430    -0.2070    -1.2720 C.3   1 <1>  -0.0590 
 11 O        2.1910    -2.9580     0.2600 O.2   1 <1>  -0.5700 
 12 N       -0.0340    -3.0280     0.3520 N.am  1 <1>  -0.6600 
 13 N        1.7740     3.8590     0.4250 N.2   1 <1>  -0.6610 
 14 O        3.0320     2.7760    -1.0520 O.2   1 <1>  -0.5700 
 15 C       -1.3430    -2.4500    -0.0470 C.3   1 <1>   0.1400 
 16 C       -0.0760    -4.5110     0.2610 C.3   1 <1>   0.1400 
 17 C       -2.0960    -3.6080    -0.6950 C.3   1 <1>   0.2000 
 18 C       -1.5350    -4.8630    -0.0340 C.3   1 <1>  -0.0800 
 19 O       -3.4610    -3.5140    -0.4810 O.3   1 <1>  -0.6800 
 20 C       -1.7030    -6.1270    -0.8900 C.3   1 <1>   0.0210 
 21 C       -1.0500    -7.3230    -0.2260 C.2   1 <1>   0.1080 
 22 N       -1.4210    -7.7740     0.9320 N.2   1 <1>  -0.7070 
 23 C        0.0050    -8.0540    -0.7610 C.2   1 <1>  -0.1500 
 24 N       -0.6050    -8.8180     1.1680 N.pl3 1 <1>   0.3000 
 25 C        0.2700    -9.0070     0.1570 C.2   1 <1>  -0.3320 
 26 C        1.3190   -10.1020     0.1320 C.3   1 <1>  -0.0600 
 27 H       -0.3570     2.6400     2.5530 H     1 <1>   0.4000 
 28 H        0.5550     4.7040     1.8270 H     1 <1>   0.0600 
 29 H        2.6760     0.3190    -2.1710 H     1 <1>   0.0800 
 30 H        3.0000    -1.2560    -1.5000 H     1 <1>   0.0800 
 31 H        3.9170     0.1240    -0.9580 H     1 <1>   0.0800 
 32 H       -1.8600    -2.1120     0.8340 H     1 <1>   0.0800 
 33 H       -1.2140    -1.6390    -0.7420 H     1 <1>   0.0800 
 34 H        0.5680    -4.8350    -0.5400 H     1 <1>   0.0800 
 35 H        0.2560    -4.9600     1.1820 H     1 <1>   0.0800 
 36 H       -1.9170    -3.6060    -1.7570 H     1 <1>   0.0800 
 37 H       -2.0180    -5.0170     0.9160 H     1 <1>   0.0800 
 38 H       -3.6770    -3.7460     0.4440 H     1 <1>   0.4000 
 39 H       -1.2690    -5.9770    -1.8620 H     1 <1>   0.0800 
 40 H       -2.7500    -6.3360    -1.0200 H     1 <1>   0.0800 
 41 H        0.4890    -7.8770    -1.7050 H     1 <1>   0.1500 
 42 H       -0.6700    -9.3800     2.0260 H     1 <1>   0.2700 
 43 H        1.8910   -10.0450    -0.7780 H     1 <1>   0.0800 
 44 H        0.8500   -11.0690     0.1800 H     1 <1>   0.0800 
 45 H        1.9910    -9.9940     0.9650 H     1 <1>   0.0800 
@<TRIPOS>BOND
  1   1   2  1   
  2   1   3  1   
  3   2   4  1   
  4   2   5  2   
  5   3   6  2   
  6   3   7  1   
  7   4   8  1   
  8   4  27  1   
  9   5   6  1   
 10   5   9  1   
 11   6  10  1   
 12   7  11  2   
 13   7  12  am  
 14   8  13  2   
 15   8  28  1   
 16   9  13  1   
 17   9  14  2   
 18  10  29  1   
 19  10  30  1   
 20  10  31  1   
 21  12  15  1   
 22  12  16  1   
 23  15  17  1   
 24  15  32  1   
 25  15  33  1   
 26  16  18  1   
 27  16  34  1   
 28  16  35  1   
 29  17  18  1   
 30  17  19  1   
 31  17  36  1   
 32  18  20  1   
 33  18  37  1   
 34  19  38  1   
 35  20  21  1   
 36  20  39  1   
 37  20  40  1   
 38  21  22  2   
 39  21  23  1   
 40  22  24  1   
 41  23  25  2   
 42  23  41  1   
 43  24  25  1   
 44  24  42  1   
 45  25  26  1   
 46  26  43  1   
 47  26  44  1   
 48  26  45  1   
@<TRIPOS>SUBSTRUCTURE
  1 ****  12 GROUP 4 **** **** 0

# MOE 2024.06 (io_trps.svl 2023.06)
