@<TRIPOS>MOLECULE
NONAME
45 47 1 0 0 
SMALL
USER_CHARGES


@<TRIPOS>ATOM
  1 S       -0.0130     2.4370     2.2250 S.3   1 <1>  -0.0800 
  2 C        0.9780     3.4400     1.1770 C.2   1 <1>  -0.1400 
  3 C       -0.7380     3.8500     2.9720 C.2   1 <1>  -0.1100 
  4 C        0.7370     4.7450     1.4140 C.2   1 <1>  -0.1500 
  5 C        1.9000     2.7080     0.2190 C.3   1 <1>   0.3200 
  6 C       -0.2380     4.9780     2.4360 C.2   1 <1>  -0.1500 
  7 N        2.7750     3.6750    -0.4610 N.am  1 <1>  -0.7300 
  8 C        3.1990     3.6090    -1.7440 C.2   1 <1>   0.5690 
  9 O        2.9260     2.6790    -2.4650 O.2   1 <1>  -0.5700 
 10 C        4.0490     4.7680    -2.2780 C.3   1 <1>   0.1710 
 11 N        4.6870     5.5960    -1.2090 N.3   1 <1>  -0.8100 
 12 C        5.1020     6.9060    -1.7430 C.3   1 <1>   0.1100 
 13 C        5.8360     4.8910    -0.6140 C.3   1 <1>   0.1100 
 14 C        5.6210     7.8030    -0.6080 C.3   1 <1>  -0.0190 
 15 C        6.3930     5.7030     0.5590 C.3   1 <1>  -0.1600 
 16 C        6.0300     9.1850    -1.1300 C.2   1 <1>   0.4230 
 17 C        6.7920     7.1190     0.1210 C.3   1 <1>  -0.1600 
 18 O        6.4800     9.2450    -2.2520 O.2   1 <1>  -0.5700 
 19 C        5.8750    10.3560    -0.2780 C.ar  1 <1>   0.3960 
 20 N        5.4460    10.2120     0.9890 N.ar  1 <1>  -0.6200 
 21 C        6.1780    11.6210    -0.7910 C.ar  1 <1>  -0.1500 
 22 C        5.3230    11.3050     1.7170 C.ar  1 <1>   0.1600 
 23 C        6.0460    12.7560    -0.0220 C.ar  1 <1>  -0.1500 
 24 C        5.6040    12.5830     1.2690 C.ar  1 <1>  -0.1500 
 25 H       -1.4700     3.6820     3.7410 H     1 <1>   0.1500 
 26 H        1.2050     5.5720     0.9080 H     1 <1>   0.1500 
 27 H        1.3190     2.1640    -0.5070 H     1 <1>   0.0800 
 28 H        2.5090     2.0100     0.7660 H     1 <1>   0.0800 
 29 H       -0.5150     5.9790     2.7160 H     1 <1>   0.1500 
 30 H        3.1050     4.4750     0.0870 H     1 <1>   0.3700 
 31 H        3.3920     5.3870    -2.8620 H     1 <1>   0.0800 
 32 H        4.8020     4.3740    -2.9380 H     1 <1>   0.0800 
 33 H        4.2590     7.3900    -2.2090 H     1 <1>   0.0800 
 34 H        5.8690     6.7720    -2.4880 H     1 <1>   0.0800 
 35 H        6.6040     4.7500    -1.3560 H     1 <1>   0.0800 
 36 H        5.5300     3.9230    -0.2570 H     1 <1>   0.0800 
 37 H        4.8060     7.9220     0.0830 H     1 <1>   0.0800 
 38 H        7.2490     5.1970     0.9690 H     1 <1>   0.0800 
 39 H        5.6440     5.7580     1.3300 H     1 <1>   0.0800 
 40 H        7.0790     7.6980     0.9820 H     1 <1>   0.0800 
 41 H        7.6380     7.0610    -0.5420 H     1 <1>   0.0800 
 42 H        6.5220    11.7060    -1.8060 H     1 <1>   0.1500 
 43 H        4.9780    11.1810     2.7310 H     1 <1>   0.1500 
 44 H        6.2780    13.7320    -0.4140 H     1 <1>   0.1500 
 45 H        5.4780    13.4270     1.9240 H     1 <1>   0.1500 
@<TRIPOS>BOND
  1   1   2  1   
  2   1   3  1   
  3   2   4  2   
  4   2   5  1   
  5   3   6  2   
  6   3  25  1   
  7   4   6  1   
  8   4  26  1   
  9   5   7  1   
 10   5  27  1   
 11   5  28  1   
 12   6  29  1   
 13   7   8  am  
 14   7  30  1   
 15   8   9  2   
 16   8  10  1   
 17  10  11  1   
 18  10  31  1   
 19  10  32  1   
 20  11  12  1   
 21  11  13  1   
 22  12  14  1   
 23  12  33  1   
 24  12  34  1   
 25  13  15  1   
 26  13  35  1   
 27  13  36  1   
 28  14  16  1   
 29  14  17  1   
 30  14  37  1   
 31  15  17  1   
 32  15  38  1   
 33  15  39  1   
 34  16  18  2   
 35  16  19  1   
 36  17  40  1   
 37  17  41  1   
 38  19  20  ar  
 39  19  21  ar  
 40  20  22  ar  
 41  21  23  ar  
 42  21  42  1   
 43  22  24  ar  
 44  22  43  1   
 45  23  24  ar  
 46  23  44  1   
 47  24  45  1   
@<TRIPOS>SUBSTRUCTURE
  1 ****  11 GROUP 4 **** **** 0

# MOE 2024.06 (io_trps.svl 2023.06)
