@<TRIPOS>MOLECULE
NONAME
46 49 1 0 0 
SMALL
USER_CHARGES


@<TRIPOS>ATOM
  1 O        1.9470    -0.1900    -2.9510 O.2   1 <1>  -0.5700 
  2 C        1.9450    -0.8750    -1.9460 C.2   1 <1>   0.5440 
  3 N        2.6640    -0.4530    -0.8470 N.am  1 <1>  -0.6600 
  4 C        1.1960    -2.1160    -1.9480 C.ar  1 <1>   0.0860 
  5 C        3.1490     0.9500    -0.7250 C.3   1 <1>   0.1400 
  6 C        3.1650    -1.3620     0.2220 C.3   1 <1>   0.1400 
  7 C        0.3480    -2.4890    -0.9220 C.ar  1 <1>  -0.1500 
  8 C        1.2690    -3.0150    -3.0020 C.ar  1 <1>  -0.1500 
  9 C        2.7450     1.5160     0.6410 C.3   1 <1>  -0.1600 
 10 C        2.7500    -0.8220     1.5940 C.3   1 <1>  -0.1600 
 11 C       -0.3400    -3.6930    -0.9590 C.ar  1 <1>   0.4100 
 12 C        0.5460    -4.1890    -2.9640 C.ar  1 <1>   0.1600 
 13 C        3.2260     0.6240     1.7950 C.3   1 <1>  -0.1600 
 14 N       -0.2470    -4.5520    -1.9710 N.ar  1 <1>  -0.6200 
 15 N       -1.1630    -4.0160     0.1020 N.3   1 <1>  -0.5900 
 16 C       -1.0830    -5.3970     0.7020 C.3   1 <1>   0.2450 
 17 C       -2.6250    -4.2460    -0.1810 C.3   1 <1>   0.2450 
 18 C       -2.4170    -5.7660     0.0130 C.3   1 <1>   0.1080 
 19 C       -3.4440    -6.4560     0.9100 C.ar  1 <1>  -0.1080 
 20 C       -3.0840    -7.4320     1.8190 C.ar  1 <1>  -0.1500 
 21 C       -4.7910    -6.1570     0.8470 C.ar  1 <1>  -0.1500 
 22 C       -4.0550    -8.0300     2.6060 C.ar  1 <1>   0.1600 
 23 C       -5.6810    -6.8150     1.6790 C.ar  1 <1>   0.1600 
 24 N       -5.3450    -7.7430     2.5590 N.ar  1 <1>  -0.6200 
 25 H        2.7290     1.5640    -1.5040 H     1 <1>   0.0800 
 26 H        4.2200     0.9620    -0.8300 H     1 <1>   0.0800 
 27 H        4.2400    -1.4030     0.1620 H     1 <1>   0.0800 
 28 H        2.7930    -2.3620     0.0900 H     1 <1>   0.0800 
 29 H        0.2100    -1.8430    -0.0770 H     1 <1>   0.1500 
 30 H        1.8910    -2.7850    -3.8480 H     1 <1>   0.1500 
 31 H        1.6720     1.6030     0.6730 H     1 <1>   0.0800 
 32 H        3.1560     2.5030     0.7510 H     1 <1>   0.0800 
 33 H        3.1670    -1.4490     2.3630 H     1 <1>   0.0800 
 34 H        1.6790    -0.8670     1.6810 H     1 <1>   0.0800 
 35 H        0.6220    -4.8690    -3.7960 H     1 <1>   0.1500 
 36 H        2.8530     1.0050     2.7300 H     1 <1>   0.0800 
 37 H        4.3020     0.6430     1.8330 H     1 <1>   0.0800 
 38 H       -1.1440    -5.3470     1.7750 H     1 <1>   0.0000 
 39 H       -0.2380    -5.9600     0.3450 H     1 <1>   0.0000 
 40 H       -2.9030    -3.9720    -1.1830 H     1 <1>   0.0000 
 41 H       -3.2340    -3.7880     0.5780 H     1 <1>   0.0000 
 42 H       -2.2680    -6.2820    -0.9200 H     1 <1>   0.0000 
 43 H       -2.0600    -7.7400     1.9260 H     1 <1>   0.1500 
 44 H       -5.1640    -5.4220     0.1580 H     1 <1>   0.1500 
 45 H       -3.7530    -8.7870     3.3100 H     1 <1>   0.1500 
 46 H       -6.7270    -6.5650     1.6160 H     1 <1>   0.1500 
@<TRIPOS>BOND
  1   1   2  2   
  2   2   3  am  
  3   2   4  1   
  4   3   5  1   
  5   3   6  1   
  6   4   7  ar  
  7   4   8  ar  
  8   5   9  1   
  9   5  25  1   
 10   5  26  1   
 11   6  10  1   
 12   6  27  1   
 13   6  28  1   
 14   7  11  ar  
 15   7  29  1   
 16   8  12  ar  
 17   8  30  1   
 18   9  13  1   
 19   9  31  1   
 20   9  32  1   
 21  10  13  1   
 22  10  33  1   
 23  10  34  1   
 24  11  14  ar  
 25  11  15  1   
 26  12  14  ar  
 27  12  35  1   
 28  13  36  1   
 29  13  37  1   
 30  15  16  1   
 31  15  17  1   
 32  16  18  1   
 33  16  38  1   
 34  16  39  1   
 35  17  18  1   
 36  17  40  1   
 37  17  41  1   
 38  18  19  1   
 39  18  42  1   
 40  19  20  ar  
 41  19  21  ar  
 42  20  22  ar  
 43  20  43  1   
 44  21  23  ar  
 45  21  44  1   
 46  22  24  ar  
 47  22  45  1   
 48  23  24  ar  
 49  23  46  1   
@<TRIPOS>SUBSTRUCTURE
  1 ****  11 GROUP 4 **** **** 0

# MOE 2024.06 (io_trps.svl 2023.06)
