@<TRIPOS>MOLECULE
NONAME
46 49 1 0 0 
SMALL
USER_CHARGES


@<TRIPOS>ATOM
  1 S        0.3920     0.4230    -0.2850 S.3   1 <1>  -0.0800 
  2 C        1.6340    -0.6660     0.3380 C.ar  1 <1>   0.0400 
  3 C       -0.4190    -0.8910    -1.1350 C.2   1 <1>  -0.1400 
  4 C        1.4130    -1.9570    -0.1180 C.ar  1 <1>   0.0000 
  5 C        2.6910    -0.3130     1.1550 C.ar  1 <1>  -0.1500 
  6 C        0.2240    -2.0570    -0.9320 C.2   1 <1>  -0.1810 
  7 C       -1.6620    -0.4870    -1.9070 C.3   1 <1>  -0.0600 
  8 C        2.3360    -2.9370     0.2540 C.ar  1 <1>  -0.1500 
  9 C        3.5800    -1.3040     1.5270 C.ar  1 <1>  -0.1500 
 10 C       -0.2140    -3.4030    -1.4570 C.3   1 <1>   0.5240 
 11 C        3.4030    -2.6070     1.0730 C.ar  1 <1>  -0.1500 
 12 N       -0.6840    -4.1950    -0.2890 N.4   1 <1>  -0.9590 
 13 C       -0.8270    -5.6500    -0.6130 C.3   1 <1>   0.3430 
 14 C       -1.9320    -3.6130     0.2880 C.3   1 <1>   0.3430 
 15 C       -1.2150    -6.4720     0.6310 C.3   1 <1>   0.0580 
 16 C       -2.3170    -4.3800     1.5550 C.3   1 <1>  -0.1600 
 17 C       -1.4340    -7.9490     0.3040 C.2   1 <1>  -0.0380 
 18 C       -2.4730    -5.8860     1.2950 C.3   1 <1>  -0.1600 
 19 N       -1.4070    -8.8440     1.3450 N.pl3 1 <1>  -0.5500 
 20 C       -1.6600    -8.4750    -0.9250 C.2   1 <1>  -0.1360 
 21 C       -1.5940   -10.1850     1.1390 C.2   1 <1>   0.4400 
 22 C       -1.8440    -9.8740    -1.0880 C.2   1 <1>   0.7670 
 23 N       -1.8040   -10.7100    -0.0090 N.2   1 <1>  -0.6610 
 24 O       -2.0370   -10.3380    -2.1980 O.2   1 <1>  -0.5700 
 25 H        2.8120     0.7040     1.4840 H     1 <1>   0.1500 
 26 H       -1.4040     0.2500    -2.6470 H     1 <1>   0.0800 
 27 H       -2.3860    -0.0550    -1.2380 H     1 <1>   0.0800 
 28 H       -2.1070    -1.3290    -2.4040 H     1 <1>   0.0800 
 29 H        2.2440    -3.9480    -0.0940 H     1 <1>   0.1500 
 30 H        4.4160    -1.0650     2.1630 H     1 <1>   0.1500 
 31 H        0.6210    -3.8870    -1.9360 H     1 <1>   0.0800 
 32 H       -1.0070    -3.2850    -2.1770 H     1 <1>   0.0800 
 33 H        4.1160    -3.3600     1.3630 H     1 <1>   0.1500 
 34 H        0.0450    -4.0720     0.4270 H     1 <1>   0.4500 
 35 H        0.0990    -6.0330    -1.0110 H     1 <1>   0.0800 
 36 H       -1.5920    -5.7730    -1.3630 H     1 <1>   0.0800 
 37 H       -2.7350    -3.6760    -0.4290 H     1 <1>   0.0800 
 38 H       -1.7790    -2.5730     0.5340 H     1 <1>   0.0800 
 39 H       -0.3930    -6.4110     1.3240 H     1 <1>   0.0800 
 40 H       -3.2470    -3.9870     1.9300 H     1 <1>   0.0800 
 41 H       -1.5720    -4.2090     2.3140 H     1 <1>   0.0800 
 42 H       -2.6670    -6.3910     2.2270 H     1 <1>   0.0800 
 43 H       -3.3250    -6.0520     0.6560 H     1 <1>   0.0800 
 44 H       -1.2560    -8.5400     2.3120 H     1 <1>   0.4000 
 45 H       -1.7200    -7.9100    -1.8320 H     1 <1>   0.1500 
 46 H       -1.5590   -10.8170     2.0100 H     1 <1>   0.0600 
@<TRIPOS>BOND
  1   1   2  1   
  2   1   3  1   
  3   2   4  ar  
  4   2   5  ar  
  5   3   6  2   
  6   3   7  1   
  7   4   6  1   
  8   4   8  ar  
  9   5   9  ar  
 10   5  25  1   
 11   6  10  1   
 12   7  26  1   
 13   7  27  1   
 14   7  28  1   
 15   8  11  ar  
 16   8  29  1   
 17   9  11  ar  
 18   9  30  1   
 19  10  12  1   
 20  10  31  1   
 21  10  32  1   
 22  11  33  1   
 23  12  13  1   
 24  12  14  1   
 25  12  34  1   
 26  13  15  1   
 27  13  35  1   
 28  13  36  1   
 29  14  16  1   
 30  14  37  1   
 31  14  38  1   
 32  15  17  1   
 33  15  18  1   
 34  15  39  1   
 35  16  18  1   
 36  16  40  1   
 37  16  41  1   
 38  17  19  1   
 39  17  20  2   
 40  18  42  1   
 41  18  43  1   
 42  19  21  1   
 43  19  44  1   
 44  20  22  1   
 45  20  45  1   
 46  21  23  2   
 47  21  46  1   
 48  22  23  1   
 49  22  24  2   
@<TRIPOS>SUBSTRUCTURE
  1 ****  12 GROUP 4 **** **** 0

# MOE 2024.06 (io_trps.svl 2023.06)
