@<TRIPOS>MOLECULE
NONAME
38 40 1 0 0 
SMALL
USER_CHARGES


@<TRIPOS>ATOM
  1 O       -0.2230     0.2270     1.3000 O.3   1 <1>  -0.5600 
  2 C        0.4420     0.5810     0.1300 C.3   1 <1>   0.1200 
  3 C       -1.5260     0.7330     1.3110 C.3   1 <1>   0.1200 
  4 C       -0.2310     1.8660    -0.3430 C.3   1 <1>   0.2890 
  5 C       -1.6780     1.6070     0.0560 C.3   1 <1>  -0.0800 
  6 N        0.2870     3.0030     0.4600 N.pl3 1 <1>  -0.8690 
  7 C       -2.4630     0.8820    -1.0560 C.3   1 <1>  -0.0170 
  8 C        0.7270     4.2340     0.1920 C.ar  1 <1>   0.7710 
  9 C       -3.9050     0.6310    -0.6420 C.ar  1 <1>  -0.1440 
 10 N        1.1290     4.9400     1.2310 N.ar  1 <1>  -0.6200 
 11 N        0.7500     4.7070    -1.0690 N.ar  1 <1>  -0.1790 
 12 C       -4.8370     1.6480    -0.5840 C.ar  1 <1>  -0.1500 
 13 C       -4.3580    -0.6290    -0.3030 C.ar  1 <1>  -0.1500 
 14 C        1.5710     6.1530     1.0000 C.ar  1 <1>   0.4100 
 15 C        1.2040     5.9590    -1.3360 C.ar  1 <1>   0.2110 
 16 C       -6.1360     1.3660    -0.1940 C.ar  1 <1>   0.1600 
 17 C       -5.6800    -0.8040     0.0730 C.ar  1 <1>   0.1600 
 18 N        1.9710     6.8430     2.0670 N.pl3 1 <1>  -0.9000 
 19 C        1.6260     6.7080    -0.2890 C.ar  1 <1>  -0.1500 
 20 N       -6.5780     0.1650     0.1380 N.ar  1 <1>  -0.6200 
 21 H        1.4910     0.7060     0.3380 H     1 <1>   0.0800 
 22 H        0.3040    -0.2170    -0.5790 H     1 <1>   0.0800 
 23 H       -2.2150    -0.0930     1.3400 H     1 <1>   0.0800 
 24 H       -1.6400     1.3180     2.2070 H     1 <1>   0.0800 
 25 H       -0.0990     2.0280    -1.3980 H     1 <1>   0.0800 
 26 H       -2.1900     2.5220     0.2980 H     1 <1>   0.0800 
 27 H        0.3450     2.7510     1.4570 H     1 <1>   0.4000 
 28 H       -1.9940    -0.0570    -1.2950 H     1 <1>   0.0800 
 29 H       -2.4680     1.4800    -1.9500 H     1 <1>   0.0800 
 30 H        0.4160     4.0820    -1.7930 H     1 <1>   0.4570 
 31 H       -4.5730     2.6580    -0.8360 H     1 <1>   0.1500 
 32 H       -3.7010    -1.4790    -0.3250 H     1 <1>   0.1500 
 33 H        1.2150     6.3150    -2.3540 H     1 <1>   0.1500 
 34 H       -6.8500     2.1710    -0.1520 H     1 <1>   0.1500 
 35 H       -6.0160    -1.7930     0.3350 H     1 <1>   0.1500 
 36 H        1.9260     6.4160     2.9980 H     1 <1>   0.4000 
 37 H        2.3430     7.7960     2.0580 H     1 <1>   0.4000 
 38 H        2.0000     7.7090    -0.4080 H     1 <1>   0.1500 
@<TRIPOS>BOND
  1   1   2  1   
  2   1   3  1   
  3   2   4  1   
  4   2  21  1   
  5   2  22  1   
  6   3   5  1   
  7   3  23  1   
  8   3  24  1   
  9   4   5  1   
 10   4   6  1   
 11   4  25  1   
 12   5   7  1   
 13   5  26  1   
 14   6   8  1   
 15   6  27  1   
 16   7   9  1   
 17   7  28  1   
 18   7  29  1   
 19   8  10  ar  
 20   8  11  ar  
 21   9  12  ar  
 22   9  13  ar  
 23  10  14  ar  
 24  11  15  ar  
 25  11  30  1   
 26  12  16  ar  
 27  12  31  1   
 28  13  17  ar  
 29  13  32  1   
 30  14  18  1   
 31  14  19  ar  
 32  15  19  ar  
 33  15  33  1   
 34  16  20  ar  
 35  16  34  1   
 36  17  20  ar  
 37  17  35  1   
 38  18  36  1   
 39  18  37  1   
 40  19  38  1   
@<TRIPOS>SUBSTRUCTURE
  1 ****   5 GROUP 4 **** **** 0

# MOE 2024.06 (io_trps.svl 2023.06)
