@<TRIPOS>MOLECULE
NONAME
43 45 1 0 0 
SMALL
USER_CHARGES


@<TRIPOS>ATOM
  1 CL       0.5640     1.2250    -2.1250 Cl    1 <1>  -0.1770 
  2 C        0.8560     2.8280    -1.4990 C.ar  1 <1>   0.1770 
  3 C        0.7070     3.9190    -2.3340 C.ar  1 <1>  -0.1500 
  4 C        1.2310     2.9810    -0.1760 C.ar  1 <1>  -0.1500 
  5 C        0.9410     5.1890    -1.8320 C.ar  1 <1>  -0.1500 
  6 C        1.4640     4.2510     0.3230 C.ar  1 <1>  -0.1500 
  7 C        1.3200     5.3620    -0.5080 C.ar  1 <1>   0.0830 
  8 O        1.5320     6.6380    -0.1010 O.3   1 <1>  -0.3630 
  9 C        2.0230     6.9220     1.2040 C.3   1 <1>   0.1810 
 10 C        2.2730     8.4120     1.3850 C.2   1 <1>   0.5690 
 11 O        2.7850     8.7840     2.4130 O.2   1 <1>  -0.5700 
 12 N        1.9120     9.2620     0.3780 N.am  1 <1>  -0.4940 
 13 C        2.0050    10.6700     0.3110 C.2   1 <1>  -0.0880 
 14 N        3.1290    11.4510     0.3480 N.pl3 1 <1>   0.3140 
 15 C        0.9560    11.5110     0.1660 C.2   1 <1>  -0.1500 
 16 N        2.7940    12.7650     0.2250 N.2   1 <1>  -0.7070 
 17 C        4.5840    11.0980     0.3930 C.3   1 <1>   0.2710 
 18 C        1.5060    12.7830     0.1250 C.2   1 <1>   0.1080 
 19 C        4.9250     9.7390    -0.2510 C.3   1 <1>  -0.1950 
 20 C        5.1370    11.1930     1.8210 C.3   1 <1>  -0.2400 
 21 C        0.7260    14.0690    -0.0210 C.3   1 <1>  -0.0590 
 22 C        6.1480     9.5920    -1.1030 C.3   1 <1>  -0.2000 
 23 C        4.7830     9.5080    -1.7230 C.3   1 <1>  -0.2000 
 24 H        0.4140     3.7740    -3.3580 H     1 <1>   0.1500 
 25 H        1.3380     2.1120     0.4490 H     1 <1>   0.1500 
 26 H        0.8310     6.0490    -2.4680 H     1 <1>   0.1500 
 27 H        1.7520     4.3500     1.3530 H     1 <1>   0.1500 
 28 H        2.9470     6.3920     1.3440 H     1 <1>   0.0800 
 29 H        1.2950     6.5930     1.9220 H     1 <1>   0.0800 
 30 H        1.4330     8.8040    -0.4010 H     1 <1>   0.3700 
 31 H       -0.0880    11.2680     0.1000 H     1 <1>   0.1500 
 32 H        5.0770    11.8550    -0.1900 H     1 <1>   0.0800 
 33 H        4.7350     8.9160     0.4140 H     1 <1>   0.1000 
 34 H        4.6710    10.4680     2.4600 H     1 <1>   0.0800 
 35 H        4.9570    12.1770     2.2160 H     1 <1>   0.0800 
 36 H        6.1960    11.0150     1.8150 H     1 <1>   0.0800 
 37 H       -0.3260    13.8660    -0.0930 H     1 <1>   0.0800 
 38 H        1.0500    14.5850    -0.9050 H     1 <1>   0.0800 
 39 H        0.9080    14.6940     0.8340 H     1 <1>   0.0800 
 40 H        6.7320     8.6910    -1.0200 H     1 <1>   0.1000 
 41 H        6.7540    10.4550    -1.3190 H     1 <1>   0.1000 
 42 H        4.4440    10.3190    -2.3450 H     1 <1>   0.1000 
 43 H        4.4200     8.5520    -2.0600 H     1 <1>   0.1000 
@<TRIPOS>BOND
  1   1   2  1   
  2   2   3  ar  
  3   2   4  ar  
  4   3   5  ar  
  5   3  24  1   
  6   4   6  ar  
  7   4  25  1   
  8   5   7  ar  
  9   5  26  1   
 10   6   7  ar  
 11   6  27  1   
 12   7   8  1   
 13   8   9  1   
 14   9  10  1   
 15   9  28  1   
 16   9  29  1   
 17  10  11  2   
 18  10  12  am  
 19  12  13  1   
 20  12  30  1   
 21  13  14  1   
 22  13  15  2   
 23  14  16  1   
 24  14  17  1   
 25  15  18  1   
 26  15  31  1   
 27  16  18  2   
 28  17  19  1   
 29  17  20  1   
 30  17  32  1   
 31  18  21  1   
 32  19  22  1   
 33  19  23  1   
 34  19  33  1   
 35  20  34  1   
 36  20  35  1   
 37  20  36  1   
 38  21  37  1   
 39  21  38  1   
 40  21  39  1   
 41  22  23  1   
 42  22  40  1   
 43  22  41  1   
 44  23  42  1   
 45  23  43  1   
@<TRIPOS>SUBSTRUCTURE
  1 ****  12 GROUP 4 **** **** 0

# MOE 2024.06 (io_trps.svl 2023.06)
