@<TRIPOS>MOLECULE
NONAME
55 57 1 0 0 
SMALL
USER_CHARGES


@<TRIPOS>ATOM
  1 O       -4.8270     3.0150     1.4900 O.2   1 <1>  -0.5700 
  2 C       -4.0050     2.8830     0.6040 C.2   1 <1>   0.5440 
  3 N       -4.2630     1.9630    -0.3890 N.am  1 <1>  -0.6600 
  4 C       -2.7630     3.6170     0.6410 C.ar  1 <1>   0.0860 
  5 C       -3.2660     1.5870    -1.4310 C.3   1 <1>   0.3200 
  6 C       -5.5120     1.1400    -0.3560 C.3   1 <1>   0.1400 
  7 C       -1.6380     3.0990     1.3250 C.ar  1 <1>   0.0000 
  8 C       -2.5960     4.7910    -0.0430 C.ar  1 <1>  -0.1500 
  9 C       -2.8210     0.1750    -1.1230 C.2   1 <1>  -0.3320 
 10 C       -5.4830     0.1940     0.8600 C.3   1 <1>   0.3430 
 11 C       -0.3900     3.7320     1.1420 C.ar  1 <1>   0.3100 
 12 C       -1.7070     1.9750     2.1710 C.ar  1 <1>  -0.1500 
 13 C       -1.3380     5.3890    -0.1180 C.ar  1 <1>   0.1660 
 14 N       -1.9350    -0.1490    -0.1590 N.pl3 1 <1>   0.0330 
 15 C       -3.2150    -0.9870    -1.6870 C.2   1 <1>   0.0770 
 16 N       -6.4320    -0.9660     0.7480 N.4   1 <1>  -0.9590 
 17 N       -0.2770     4.8800     0.4210 N.ar  1 <1>  -0.6200 
 18 C        0.7670     3.1540     1.7230 C.ar  1 <1>  -0.1430 
 19 C       -0.5830     1.4460     2.7370 C.ar  1 <1>  -0.1500 
 20 C       -1.1660     6.6880    -0.8760 C.3   1 <1>  -0.0970 
 21 C       -1.8890    -1.4970    -0.1710 C.2   1 <1>   0.0360 
 22 N       -2.6610    -2.0380    -1.0580 N.2   1 <1>  -0.5650 
 23 C       -6.6720    -1.5540     2.1000 C.3   1 <1>   0.2630 
 24 C       -5.8890    -2.0170    -0.1740 C.3   1 <1>   0.2630 
 25 C        0.6710     2.0210     2.5050 C.ar  1 <1>  -0.1430 
 26 C        2.1100     3.8410     1.4560 C.3   1 <1>  -0.0970 
 27 C        1.8760     1.3590     3.1630 C.3   1 <1>  -0.0970 
 28 H       -2.4200     2.2520    -1.4450 H     1 <1>   0.0800 
 29 H       -3.7340     1.6260    -2.4010 H     1 <1>   0.0800 
 30 H       -5.5950     0.5800    -1.2690 H     1 <1>   0.0800 
 31 H       -6.3610     1.7980    -0.2770 H     1 <1>   0.0800 
 32 H       -3.4310     5.2500    -0.5400 H     1 <1>   0.1500 
 33 H       -5.7220     0.7760     1.7360 H     1 <1>   0.0800 
 34 H       -4.4820    -0.1860     0.9750 H     1 <1>   0.0800 
 35 H       -2.6630     1.5310     2.3850 H     1 <1>   0.1500 
 36 H       -1.3950     0.4830     0.4470 H     1 <1>   0.2700 
 37 H       -3.8880    -1.1280    -2.5170 H     1 <1>   0.1500 
 38 H       -7.3330    -0.6210     0.3840 H     1 <1>   0.4500 
 39 H       -0.6570     0.5850     3.3800 H     1 <1>   0.1500 
 40 H       -2.1060     7.0570    -1.2410 H     1 <1>   0.0800 
 41 H       -0.5030     6.5350    -1.7080 H     1 <1>   0.0800 
 42 H       -0.7340     7.4270    -0.2250 H     1 <1>   0.0800 
 43 H       -1.2570    -2.0530     0.5030 H     1 <1>   0.1500 
 44 H       -5.7490    -1.9250     2.5170 H     1 <1>   0.0800 
 45 H       -7.3730    -2.3710     2.0340 H     1 <1>   0.0800 
 46 H       -7.0760    -0.8090     2.7670 H     1 <1>   0.0800 
 47 H       -4.9230    -2.3560     0.1680 H     1 <1>   0.0800 
 48 H       -5.7740    -1.6230    -1.1700 H     1 <1>   0.0800 
 49 H       -6.5550    -2.8630    -0.2160 H     1 <1>   0.0800 
 50 H        2.2800     3.9040     0.3950 H     1 <1>   0.0800 
 51 H        2.9460     3.3320     1.8930 H     1 <1>   0.0800 
 52 H        2.0860     4.8410     1.8520 H     1 <1>   0.0800 
 53 H        2.3590     2.0530     3.8270 H     1 <1>   0.0800 
 54 H        2.5780     1.0420     2.4140 H     1 <1>   0.0800 
 55 H        1.5880     0.4960     3.7370 H     1 <1>   0.0800 
@<TRIPOS>BOND
  1   1   2  2   
  2   2   3  am  
  3   2   4  1   
  4   3   5  1   
  5   3   6  1   
  6   4   7  ar  
  7   4   8  ar  
  8   5   9  1   
  9   5  28  1   
 10   5  29  1   
 11   6  10  1   
 12   6  30  1   
 13   6  31  1   
 14   7  11  ar  
 15   7  12  ar  
 16   8  13  ar  
 17   8  32  1   
 18   9  14  1   
 19   9  15  2   
 20  10  16  1   
 21  10  33  1   
 22  10  34  1   
 23  11  17  ar  
 24  11  18  ar  
 25  12  19  ar  
 26  12  35  1   
 27  13  17  ar  
 28  13  20  1   
 29  14  21  1   
 30  14  36  1   
 31  15  22  1   
 32  15  37  1   
 33  16  23  1   
 34  16  24  1   
 35  16  38  1   
 36  18  25  ar  
 37  18  26  1   
 38  19  25  ar  
 39  19  39  1   
 40  20  40  1   
 41  20  41  1   
 42  20  42  1   
 43  21  22  2   
 44  21  43  1   
 45  23  44  1   
 46  23  45  1   
 47  23  46  1   
 48  24  47  1   
 49  24  48  1   
 50  24  49  1   
 51  25  27  1   
 52  26  50  1   
 53  26  51  1   
 54  26  52  1   
 55  27  53  1   
 56  27  54  1   
 57  27  55  1   
@<TRIPOS>SUBSTRUCTURE
  1 ****   7 GROUP 4 **** **** 0

# MOE 2024.06 (io_trps.svl 2023.06)
