@<TRIPOS>MOLECULE
NONAME
54 57 1 0 0 
SMALL
USER_CHARGES


@<TRIPOS>ATOM
  1 O        1.9640     4.5620     3.2450 O.3   1 <1>  -0.6800 
  2 C        0.9210     5.0290     2.4740 C.3   1 <1>   0.2000 
  3 C        1.1050     4.5110     1.0470 C.3   1 <1>  -0.1600 
  4 C        0.9400     6.5560     2.5290 C.3   1 <1>  -0.1600 
  5 C        0.0560     5.1280     0.1230 C.3   1 <1>   0.2090 
  6 C       -0.0920     7.1520     1.5710 C.3   1 <1>   0.2090 
  7 N        0.1470     6.6150     0.1970 N.pl3 1 <1>  -0.8380 
  8 C        0.3890     7.4240    -0.8660 C.ar  1 <1>   0.4100 
  9 N       -0.1630     8.6240    -0.8650 N.ar  1 <1>  -0.6200 
 10 C        1.2110     6.9960    -1.9290 C.ar  1 <1>  -0.1500 
 11 C        0.0540     9.4090    -1.8990 C.ar  1 <1>   0.7710 
 12 C        1.4240     7.8270    -2.9760 C.ar  1 <1>   0.2110 
 13 N        0.8280     9.0390    -2.9400 N.ar  1 <1>  -0.1790 
 14 N       -0.5500    10.6060    -1.8350 N.pl3 1 <1>  -0.8690 
 15 C       -0.5900    11.7670    -2.7690 C.3   1 <1>   0.3890 
 16 C        0.7610    11.9380    -3.4400 C.2   1 <1>   0.0060 
 17 N        1.0660    11.3570    -4.5500 N.2   1 <1>  -0.3380 
 18 N        1.7970    12.6270    -2.9410 N.pl3 1 <1>   0.0480 
 19 N        2.3440    11.6230    -4.7900 N.2   1 <1>  -0.3380 
 20 C        2.7550    12.3880    -3.8380 C.2   1 <1>   0.0360 
 21 C        1.9130    13.4110    -1.6920 C.3   1 <1>   0.0960 
 22 C        2.3980    12.5240    -0.5420 C.3   1 <1>  -0.0170 
 23 C        2.3640    13.3120     0.7530 C.ar  1 <1>  -0.1440 
 24 C        3.4050    14.1710     1.0750 C.ar  1 <1>  -0.1500 
 25 C        1.2910    13.1880     1.6230 C.ar  1 <1>  -0.1500 
 26 C        3.3700    14.9010     2.2500 C.ar  1 <1>  -0.1500 
 27 C        1.2560    13.9180     2.7980 C.ar  1 <1>  -0.1500 
 28 C        2.2950    14.7760     3.1120 C.ar  1 <1>  -0.1500 
 29 H        1.9740     3.5870     3.2570 H     1 <1>   0.4000 
 30 H        0.0010     4.6560     2.8940 H     1 <1>   0.0800 
 31 H        1.0040     3.4420     1.0300 H     1 <1>   0.0800 
 32 H        2.0840     4.7740     0.6860 H     1 <1>   0.0800 
 33 H        1.9150     6.9180     2.2540 H     1 <1>   0.0800 
 34 H        0.7260     6.8820     3.5310 H     1 <1>   0.0800 
 35 H       -0.9280     4.8250     0.4390 H     1 <1>   0.0800 
 36 H        0.1930     4.7790    -0.8850 H     1 <1>   0.0800 
 37 H       -0.0070     8.2250     1.5880 H     1 <1>   0.0800 
 38 H       -1.0880     6.8900     1.8870 H     1 <1>   0.0800 
 39 H        1.6680     6.0270    -1.8830 H     1 <1>   0.1500 
 40 H        2.0450     7.5720    -3.8210 H     1 <1>   0.1500 
 41 H        0.9750     9.7340    -3.6820 H     1 <1>   0.4570 
 42 H       -1.1650    10.7020    -1.0200 H     1 <1>   0.4000 
 43 H       -0.8510    12.6610    -2.2290 H     1 <1>   0.0800 
 44 H       -1.3480    11.5990    -3.5170 H     1 <1>   0.0800 
 45 H        3.7520    12.7890    -3.7600 H     1 <1>   0.1500 
 46 H        0.9570    13.8370    -1.4470 H     1 <1>   0.0800 
 47 H        2.6060    14.2190    -1.8470 H     1 <1>   0.0800 
 48 H        3.4040    12.1910    -0.7290 H     1 <1>   0.0800 
 49 H        1.7680    11.6580    -0.4440 H     1 <1>   0.0800 
 50 H        4.2500    14.2780     0.4180 H     1 <1>   0.1500 
 51 H        0.4770    12.5220     1.3990 H     1 <1>   0.1500 
 52 H        4.1790    15.5670     2.4960 H     1 <1>   0.1500 
 53 H        0.4230    13.8190     3.4720 H     1 <1>   0.1500 
 54 H        2.2690    15.3440     4.0260 H     1 <1>   0.1500 
@<TRIPOS>BOND
  1   1   2  1   
  2   1  29  1   
  3   2   3  1   
  4   2   4  1   
  5   2  30  1   
  6   3   5  1   
  7   3  31  1   
  8   3  32  1   
  9   4   6  1   
 10   4  33  1   
 11   4  34  1   
 12   5   7  1   
 13   5  35  1   
 14   5  36  1   
 15   6   7  1   
 16   6  37  1   
 17   6  38  1   
 18   7   8  1   
 19   8   9  ar  
 20   8  10  ar  
 21   9  11  ar  
 22  10  12  ar  
 23  10  39  1   
 24  11  13  ar  
 25  11  14  1   
 26  12  13  ar  
 27  12  40  1   
 28  13  41  1   
 29  14  15  1   
 30  14  42  1   
 31  15  16  1   
 32  15  43  1   
 33  15  44  1   
 34  16  17  2   
 35  16  18  1   
 36  17  19  1   
 37  18  20  1   
 38  18  21  1   
 39  19  20  2   
 40  20  45  1   
 41  21  22  1   
 42  21  46  1   
 43  21  47  1   
 44  22  23  1   
 45  22  48  1   
 46  22  49  1   
 47  23  24  ar  
 48  23  25  ar  
 49  24  26  ar  
 50  24  50  1   
 51  25  27  ar  
 52  25  51  1   
 53  26  28  ar  
 54  26  52  1   
 55  27  28  ar  
 56  27  53  1   
 57  28  54  1   
@<TRIPOS>SUBSTRUCTURE
  1 ****  11 GROUP 4 **** **** 0

# MOE 2024.06 (io_trps.svl 2023.06)
