@<TRIPOS>MOLECULE
NONAME
48 50 1 0 0 
SMALL
USER_CHARGES


@<TRIPOS>ATOM
  1 O       -2.4010     2.2380    -1.9650 O.2   1 <1>  -0.5700 
  2 C       -2.2680     2.1870    -0.7540 C.2   1 <1>   0.6160 
  3 N       -3.2220     1.5180    -0.0120 N.am  1 <1>  -0.6600 
  4 C       -1.1220     2.8110    -0.1270 C.2   1 <1>   0.0140 
  5 C       -4.6100     1.3770    -0.5450 C.3   1 <1>   0.2200 
  6 C       -2.7740     0.4910     0.9780 C.3   1 <1>   0.0600 
  7 C       -1.1390     3.2700     1.1690 C.2   1 <1>  -0.0410 
  8 C        0.0940     2.9870    -0.8610 C.2   1 <1>  -0.1500 
  9 C       -5.2080     2.7310    -0.9380 C.3   1 <1>  -0.1600 
 10 C       -5.6150     0.8460     0.4830 C.3   1 <1>  -0.1600 
 11 N       -0.0390     3.8540     1.7440 N.am  1 <1>  -0.5390 
 12 C        1.1780     3.5700    -0.2820 C.2   1 <1>  -0.1360 
 13 C       -6.7260     2.5200    -0.9200 C.3   1 <1>  -0.0800 
 14 C       -6.9850     1.3010    -0.0330 C.3   1 <1>  -0.0800 
 15 C        1.1340     4.0220     1.0630 C.2   1 <1>   0.6160 
 16 C       -7.5380     3.6680    -0.3040 C.3   1 <1>  -0.1600 
 17 C       -7.9750     1.7680     1.0460 C.3   1 <1>  -0.1600 
 18 O        2.0740     4.5450     1.6360 O.2   1 <1>  -0.5700 
 19 C       -8.6860     2.9870     0.4480 C.3   1 <1>   0.4230 
 20 N       -9.7650     2.5600    -0.5010 N.4   1 <1>  -0.9590 
 21 C      -10.3900     3.7130    -1.2270 C.3   1 <1>   0.2630 
 22 C      -10.8530     1.7790     0.1730 C.3   1 <1>   0.2630 
 23 H       -4.5970     0.7280    -1.4070 H     1 <1>   0.0800 
 24 H       -3.1660     0.7230     1.9520 H     1 <1>   0.0800 
 25 H       -1.7000     0.4610     1.0370 H     1 <1>   0.0800 
 26 H       -3.1180    -0.4830     0.6770 H     1 <1>   0.0800 
 27 H       -2.0280     3.1880     1.7730 H     1 <1>   0.1500 
 28 H        0.1190     2.6450    -1.8830 H     1 <1>   0.1500 
 29 H       -4.9120     3.4670    -0.2120 H     1 <1>   0.0800 
 30 H       -4.8730     3.0390    -1.9130 H     1 <1>   0.0800 
 31 H       -5.5670    -0.2250     0.5680 H     1 <1>   0.0800 
 32 H       -5.4100     1.2970     1.4380 H     1 <1>   0.0800 
 33 H       -0.0240     4.2080     2.7020 H     1 <1>   0.3700 
 34 H        2.1040     3.7170    -0.8050 H     1 <1>   0.1500 
 35 H       -7.0700     2.3080    -1.9190 H     1 <1>   0.0800 
 36 H       -7.4210     0.5200    -0.6340 H     1 <1>   0.0800 
 37 H       -7.8370     4.3960    -1.0340 H     1 <1>   0.0800 
 38 H       -6.9370     4.1790     0.4280 H     1 <1>   0.0800 
 39 H       -7.4310     2.1110     1.9080 H     1 <1>   0.0800 
 40 H       -8.6240     0.9790     1.3740 H     1 <1>   0.0800 
 41 H       -9.0900     3.6270     1.2170 H     1 <1>   0.0800 
 42 H       -9.3060     1.9510    -1.1940 H     1 <1>   0.4500 
 43 H      -10.7940     4.4230    -0.5240 H     1 <1>   0.0800 
 44 H      -11.1880     3.3650    -1.8620 H     1 <1>   0.0800 
 45 H       -9.6640     4.2140    -1.8460 H     1 <1>   0.0800 
 46 H      -11.2920     2.3580     0.9690 H     1 <1>   0.0800 
 47 H      -10.4670     0.8620     0.5840 H     1 <1>   0.0800 
 48 H      -11.6250     1.5280    -0.5360 H     1 <1>   0.0800 
@<TRIPOS>BOND
  1   1   2  2   
  2   2   3  am  
  3   2   4  1   
  4   3   5  1   
  5   3   6  1   
  6   4   7  2   
  7   4   8  1   
  8   5   9  1   
  9   5  10  1   
 10   5  23  1   
 11   6  24  1   
 12   6  25  1   
 13   6  26  1   
 14   7  11  1   
 15   7  27  1   
 16   8  12  2   
 17   8  28  1   
 18   9  13  1   
 19   9  29  1   
 20   9  30  1   
 21  10  14  1   
 22  10  31  1   
 23  10  32  1   
 24  11  15  am  
 25  11  33  1   
 26  12  15  1   
 27  12  34  1   
 28  13  14  1   
 29  13  16  1   
 30  13  35  1   
 31  14  17  1   
 32  14  36  1   
 33  15  18  2   
 34  16  19  1   
 35  16  37  1   
 36  16  38  1   
 37  17  19  1   
 38  17  39  1   
 39  17  40  1   
 40  19  20  1   
 41  19  41  1   
 42  20  21  1   
 43  20  22  1   
 44  20  42  1   
 45  21  43  1   
 46  21  44  1   
 47  21  45  1   
 48  22  46  1   
 49  22  47  1   
 50  22  48  1   
@<TRIPOS>SUBSTRUCTURE
  1 ****   9 GROUP 4 **** **** 0

# MOE 2024.06 (io_trps.svl 2023.06)
