@<TRIPOS>MOLECULE
NONAME
50 53 1 0 0 
SMALL
USER_CHARGES


@<TRIPOS>ATOM
  1 S        2.7720    -0.8940     1.6430 S.3   1 <1>  -0.0800 
  2 C        1.5730    -1.0260     0.3800 C.2   1 <1>   0.1980 
  3 C        2.2330    -2.4160     2.2700 C.2   1 <1>  -0.1100 
  4 N        0.8690    -2.0830     0.4380 N.2   1 <1>  -0.5650 
  5 C        1.4970     0.0980    -0.6350 C.3   1 <1>   0.0200 
  6 C        1.2200    -2.9120     1.5240 C.2   1 <1>   0.1410 
  7 C        0.8450     1.3540    -0.0400 C.3   1 <1>  -0.1600 
  8 C        0.5610    -4.1900     1.8020 C.2   1 <1>   0.7160 
  9 C        0.7440     2.4810    -1.0740 C.3   1 <1>  -0.2400 
 10 O        1.0850    -4.9580     2.5920 O.2   1 <1>  -0.5700 
 11 N       -0.6340    -4.5950     1.2360 N.am  1 <1>  -0.6600 
 12 C       -1.5130    -3.7970     0.3430 C.3   1 <1>   0.1400 
 13 C       -1.2090    -5.9480     1.4470 C.3   1 <1>   0.1400 
 14 C       -2.7940    -4.6220     0.2120 C.3   1 <1>   0.2000 
 15 C       -2.3410    -6.0690     0.4190 C.3   1 <1>  -0.0800 
 16 O       -3.6460    -4.2860     1.2510 O.3   1 <1>  -0.6800 
 17 C       -1.8480    -6.6840    -0.9080 C.3   1 <1>  -0.0170 
 18 C       -1.4320    -8.1430    -0.7430 C.ar  1 <1>  -0.1440 
 19 C       -2.3730    -9.1950    -0.6370 C.ar  1 <1>   0.0000 
 20 C       -0.1100    -8.4730    -0.6930 C.ar  1 <1>  -0.1500 
 21 C       -1.8730   -10.5090    -0.4700 C.ar  1 <1>   0.3100 
 22 C       -3.7760    -9.0230    -0.6880 C.ar  1 <1>  -0.1500 
 23 C        0.2790    -9.8080    -0.5300 C.ar  1 <1>   0.1600 
 24 N       -0.5480   -10.7980    -0.4200 N.ar  1 <1>  -0.6200 
 25 C       -2.7810   -11.5730    -0.3530 C.ar  1 <1>  -0.1500 
 26 C       -4.6350   -10.0820    -0.5720 C.ar  1 <1>  -0.1500 
 27 C       -4.1340   -11.3740    -0.4010 C.ar  1 <1>  -0.1500 
 28 H        2.7220    -2.8100     3.1430 H     1 <1>   0.1500 
 29 H        2.4890     0.3240    -0.9820 H     1 <1>   0.0800 
 30 H        0.9190    -0.2420    -1.4760 H     1 <1>   0.0800 
 31 H       -0.1410     1.1060     0.3150 H     1 <1>   0.0800 
 32 H        1.4240     1.6960     0.8010 H     1 <1>   0.0800 
 33 H        0.1470     2.1710    -1.9140 H     1 <1>   0.0800 
 34 H        1.7220     2.7600    -1.4260 H     1 <1>   0.0800 
 35 H        0.2830     3.3460    -0.6300 H     1 <1>   0.0800 
 36 H       -1.7080    -2.8180     0.7450 H     1 <1>   0.0800 
 37 H       -1.0380    -3.7010    -0.6180 H     1 <1>   0.0800 
 38 H       -0.4560    -6.7090     1.3310 H     1 <1>   0.0800 
 39 H       -1.6050    -6.0060     2.4460 H     1 <1>   0.0800 
 40 H       -3.3140    -4.4540    -0.7160 H     1 <1>   0.0800 
 41 H       -3.1430    -6.6710     0.8090 H     1 <1>   0.0800 
 42 H       -3.1420    -4.2830     2.0900 H     1 <1>   0.4000 
 43 H       -1.0110    -6.1170    -1.2770 H     1 <1>   0.0800 
 44 H       -2.6190    -6.6190    -1.6550 H     1 <1>   0.0800 
 45 H        0.6620    -7.7290    -0.7700 H     1 <1>   0.1500 
 46 H       -4.1850    -8.0390    -0.8220 H     1 <1>   0.1500 
 47 H        1.3340   -10.0230    -0.4930 H     1 <1>   0.1500 
 48 H       -2.3730   -12.5580    -0.2240 H     1 <1>   0.1500 
 49 H       -5.7010    -9.9360    -0.6120 H     1 <1>   0.1500 
 50 H       -4.8190   -12.2000    -0.3100 H     1 <1>   0.1500 
@<TRIPOS>BOND
  1   1   2  1   
  2   1   3  1   
  3   2   4  2   
  4   2   5  1   
  5   3   6  2   
  6   3  28  1   
  7   4   6  1   
  8   5   7  1   
  9   5  29  1   
 10   5  30  1   
 11   6   8  1   
 12   7   9  1   
 13   7  31  1   
 14   7  32  1   
 15   8  10  2   
 16   8  11  am  
 17   9  33  1   
 18   9  34  1   
 19   9  35  1   
 20  11  12  1   
 21  11  13  1   
 22  12  14  1   
 23  12  36  1   
 24  12  37  1   
 25  13  15  1   
 26  13  38  1   
 27  13  39  1   
 28  14  15  1   
 29  14  16  1   
 30  14  40  1   
 31  15  17  1   
 32  15  41  1   
 33  16  42  1   
 34  17  18  1   
 35  17  43  1   
 36  17  44  1   
 37  18  19  ar  
 38  18  20  ar  
 39  19  21  ar  
 40  19  22  ar  
 41  20  23  ar  
 42  20  45  1   
 43  21  24  ar  
 44  21  25  ar  
 45  22  26  ar  
 46  22  46  1   
 47  23  24  ar  
 48  23  47  1   
 49  25  27  ar  
 50  25  48  1   
 51  26  27  ar  
 52  26  49  1   
 53  27  50  1   
@<TRIPOS>SUBSTRUCTURE
  1 ****  13 GROUP 4 **** **** 0

# MOE 2024.06 (io_trps.svl 2023.06)
