@<TRIPOS>MOLECULE
NONAME
50 54 1 0 0 
SMALL
USER_CHARGES


@<TRIPOS>ATOM
  1 O       -0.7540    -2.2410    -2.2240 O.2   1 <1>  -0.5700 
  2 C       -0.0780    -1.8400    -1.2920 C.2   1 <1>   0.8410 
  3 N       -0.2700    -0.5600    -0.8440 N.2   1 <1>  -0.6610 
  4 N        0.8590    -2.6710    -0.6950 N.am  1 <1>  -0.4690 
  5 C        0.4490    -0.1550     0.1390 C.2   1 <1>   0.3760 
  6 C        1.6170    -2.2170     0.3550 C.2   1 <1>  -0.0410 
  7 C        1.0540    -4.0740    -1.1840 C.3   1 <1>   0.2010 
  8 C        1.4200    -0.9500     0.7850 C.2   1 <1>  -0.1360 
  9 C        0.8120    -5.1180    -0.0930 C.2   1 <1>   0.5690 
 10 O        1.7960    -5.5990     0.4210 O.2   1 <1>  -0.5700 
 11 N       -0.4550    -5.4960     0.2910 N.am  1 <1>  -0.6600 
 12 C       -0.6730    -6.4580     1.4100 C.3   1 <1>   0.1400 
 13 C       -1.7250    -4.9660    -0.2820 C.3   1 <1>   0.1400 
 14 C       -1.5040    -7.6390     0.9080 C.3   1 <1>  -0.1600 
 15 C       -2.5630    -6.1320    -0.8080 C.3   1 <1>  -0.1600 
 16 C       -2.8250    -7.1750     0.2860 C.3   1 <1>   0.4600 
 17 O       -3.5640    -6.5760     1.3300 O.3   1 <1>  -0.5600 
 18 C       -3.6020    -8.3670    -0.2600 C.2   1 <1>  -0.3320 
 19 C       -4.9570    -6.4540     1.1710 C.3   1 <1>   0.1200 
 20 N       -3.1530    -9.2850    -1.1690 N.pl3 1 <1>   0.0330 
 21 C       -4.8650    -8.6760     0.0950 C.2   1 <1>  -0.1810 
 22 C       -5.6310    -7.8340     1.0850 C.3   1 <1>   0.0210 
 23 C       -4.1590   -10.1960    -1.3850 C.ar  1 <1>  -0.1520 
 24 C       -5.2520    -9.8400    -0.6000 C.ar  1 <1>   0.0000 
 25 C       -4.2080   -11.3200    -2.2130 C.ar  1 <1>  -0.1500 
 26 C       -6.4140   -10.6170    -0.6380 C.ar  1 <1>  -0.1500 
 27 C       -5.3570   -12.0760    -2.2410 C.ar  1 <1>  -0.1500 
 28 C       -6.4610   -11.7240    -1.4530 C.ar  1 <1>  -0.1500 
 29 H        0.3120     0.8480     0.5030 H     1 <1>   0.0600 
 30 H        2.3390    -2.8840     0.8020 H     1 <1>   0.1500 
 31 H        2.0690    -4.1740    -1.5230 H     1 <1>   0.0800 
 32 H        0.4200    -4.2900    -2.0220 H     1 <1>   0.0800 
 33 H        1.9740    -0.5260     1.6020 H     1 <1>   0.1500 
 34 H       -1.1930    -5.9570     2.2090 H     1 <1>   0.0800 
 35 H        0.2650    -6.8170     1.7980 H     1 <1>   0.0800 
 36 H       -1.5420    -4.2780    -1.0840 H     1 <1>   0.0800 
 37 H       -2.2680    -4.4420     0.4870 H     1 <1>   0.0800 
 38 H       -1.7150    -8.3100     1.7200 H     1 <1>   0.0800 
 39 H       -0.9260    -8.1770     0.1810 H     1 <1>   0.0800 
 40 H       -2.0330    -6.5950    -1.6200 H     1 <1>   0.0800 
 41 H       -3.4920    -5.7700    -1.2040 H     1 <1>   0.0800 
 42 H       -5.1520    -5.8870     0.2780 H     1 <1>   0.0800 
 43 H       -5.3370    -5.9080     2.0150 H     1 <1>   0.0800 
 44 H       -2.2290    -9.3120    -1.6100 H     1 <1>   0.2700 
 45 H       -6.6500    -7.7210     0.7670 H     1 <1>   0.0800 
 46 H       -5.6200    -8.3080     2.0500 H     1 <1>   0.0800 
 47 H       -3.3560   -11.5840    -2.8140 H     1 <1>   0.1500 
 48 H       -7.2510   -10.3360    -0.0270 H     1 <1>   0.1500 
 49 H       -5.4200   -12.9460    -2.8700 H     1 <1>   0.1500 
 50 H       -7.3470   -12.3320    -1.4930 H     1 <1>   0.1500 
@<TRIPOS>BOND
  1   1   2  2   
  2   2   3  1   
  3   2   4  am  
  4   3   5  2   
  5   4   6  1   
  6   4   7  1   
  7   5   8  1   
  8   5  29  1   
  9   6   8  2   
 10   6  30  1   
 11   7   9  1   
 12   7  31  1   
 13   7  32  1   
 14   8  33  1   
 15   9  10  2   
 16   9  11  am  
 17  11  12  1   
 18  11  13  1   
 19  12  14  1   
 20  12  34  1   
 21  12  35  1   
 22  13  15  1   
 23  13  36  1   
 24  13  37  1   
 25  14  16  1   
 26  14  38  1   
 27  14  39  1   
 28  15  16  1   
 29  15  40  1   
 30  15  41  1   
 31  16  17  1   
 32  16  18  1   
 33  17  19  1   
 34  18  20  1   
 35  18  21  2   
 36  19  22  1   
 37  19  42  1   
 38  19  43  1   
 39  20  23  1   
 40  20  44  1   
 41  21  22  1   
 42  21  24  1   
 43  22  45  1   
 44  22  46  1   
 45  23  24  ar  
 46  23  25  ar  
 47  24  26  ar  
 48  25  27  ar  
 49  25  47  1   
 50  26  28  ar  
 51  26  48  1   
 52  27  28  ar  
 53  27  49  1   
 54  28  50  1   
@<TRIPOS>SUBSTRUCTURE
  1 ****  15 GROUP 4 **** **** 0

# MOE 2024.06 (io_trps.svl 2023.06)
