@<TRIPOS>MOLECULE
NONAME
45 48 1 0 0 
SMALL
USER_CHARGES


@<TRIPOS>ATOM
  1 S       -0.3690    -0.5310    -2.1330 S.3   1 <1>  -0.0800 
  2 C        0.7020    -0.4310    -0.7330 C.2   1 <1>  -0.0450 
  3 C       -0.1870    -2.2630    -2.2520 C.2   1 <1>  -0.1100 
  4 C        0.9550     0.8620    -0.1590 C.2   1 <1>   0.5940 
  5 C        1.1310    -1.6880    -0.4320 C.2   1 <1>  -0.1500 
  6 C        0.6250    -2.7210    -1.2800 C.2   1 <1>  -0.1810 
  7 O        0.4100     1.8750    -0.5110 O.2   1 <1>  -0.5700 
  8 C        1.9580     0.9710     0.9690 C.3   1 <1>  -0.1790 
  9 C        0.9780    -4.1800    -1.0710 C.3   1 <1>   0.5240 
 10 N       -0.2110    -4.8570    -0.4990 N.4   1 <1>  -0.9590 
 11 C       -0.6510    -4.3000     0.8170 C.3   1 <1>   0.3430 
 12 C       -0.1250    -6.3390    -0.4980 C.3   1 <1>   0.3430 
 13 C       -1.8620    -5.0630     1.3680 C.3   1 <1>  -0.1600 
 14 C       -1.5090    -6.9470    -0.2380 C.3   1 <1>  -0.1600 
 15 C       -2.5360    -5.9460     0.3120 C.3   1 <1>   0.4610 
 16 O       -2.9030    -5.1280    -0.7900 O.3   1 <1>  -0.5600 
 17 C       -3.7570    -6.6730     0.8690 C.2   1 <1>  -0.1810 
 18 C       -4.1220    -4.4150    -0.7240 C.3   1 <1>   0.1200 
 19 C       -4.9860    -6.3970     0.4140 C.2   1 <1>  -0.1400 
 20 C       -3.7550    -7.6840     1.8900 C.2   1 <1>  -0.1500 
 21 C       -5.3230    -5.3690    -0.6310 C.3   1 <1>   0.0200 
 22 S       -6.2090    -7.3780     1.1900 S.3   1 <1>  -0.0800 
 23 C       -4.9830    -8.1630     2.1740 C.2   1 <1>  -0.1100 
 24 H       -0.7230    -2.7510    -3.0490 H     1 <1>   0.1500 
 25 H        1.8050    -1.9090     0.3790 H     1 <1>   0.1500 
 26 H        2.8890     0.5240     0.6770 H     1 <1>   0.0800 
 27 H        1.5770     0.4800     1.8440 H     1 <1>   0.0800 
 28 H        2.1310     2.0070     1.2020 H     1 <1>   0.0800 
 29 H        1.8250    -4.2730    -0.4110 H     1 <1>   0.0800 
 30 H        1.2300    -4.6230    -2.0210 H     1 <1>   0.0800 
 31 H       -1.0070    -4.6400    -1.1300 H     1 <1>   0.4500 
 32 H       -0.9260    -3.2650     0.6840 H     1 <1>   0.0800 
 33 H        0.1560    -4.3420     1.5300 H     1 <1>   0.0800 
 34 H        0.5590    -6.6590     0.2710 H     1 <1>   0.0800 
 35 H        0.2430    -6.6940    -1.4480 H     1 <1>   0.0800 
 36 H       -2.5720    -4.3720     1.7850 H     1 <1>   0.0800 
 37 H       -1.5330    -5.6850     2.1800 H     1 <1>   0.0800 
 38 H       -1.3810    -7.7560     0.4560 H     1 <1>   0.0800 
 39 H       -1.8970    -7.3810    -1.1430 H     1 <1>   0.0800 
 40 H       -4.2020    -3.8070    -1.6080 H     1 <1>   0.0800 
 41 H       -4.0950    -3.7700     0.1370 H     1 <1>   0.0800 
 42 H       -2.8490    -8.0120     2.3670 H     1 <1>   0.1500 
 43 H       -5.5010    -5.8470    -1.5770 H     1 <1>   0.0800 
 44 H       -6.2040    -4.8210    -0.3480 H     1 <1>   0.0800 
 45 H       -5.3190    -8.9100     2.8710 H     1 <1>   0.1500 
@<TRIPOS>BOND
  1   1   2  1   
  2   1   3  1   
  3   2   4  1   
  4   2   5  2   
  5   3   6  2   
  6   3  24  1   
  7   4   7  2   
  8   4   8  1   
  9   5   6  1   
 10   5  25  1   
 11   6   9  1   
 12   8  26  1   
 13   8  27  1   
 14   8  28  1   
 15   9  10  1   
 16   9  29  1   
 17   9  30  1   
 18  10  11  1   
 19  10  12  1   
 20  10  31  1   
 21  11  13  1   
 22  11  32  1   
 23  11  33  1   
 24  12  14  1   
 25  12  34  1   
 26  12  35  1   
 27  13  15  1   
 28  13  36  1   
 29  13  37  1   
 30  14  15  1   
 31  14  38  1   
 32  14  39  1   
 33  15  16  1   
 34  15  17  1   
 35  16  18  1   
 36  17  19  2   
 37  17  20  1   
 38  18  21  1   
 39  18  40  1   
 40  18  41  1   
 41  19  21  1   
 42  19  22  1   
 43  20  23  2   
 44  20  42  1   
 45  21  43  1   
 46  21  44  1   
 47  22  23  1   
 48  23  45  1   
@<TRIPOS>SUBSTRUCTURE
  1 ****  11 GROUP 4 **** **** 0

# MOE 2024.06 (io_trps.svl 2023.06)
