@<TRIPOS>MOLECULE
NONAME
48 51 1 0 0 
SMALL
USER_CHARGES


@<TRIPOS>ATOM
  1 CL       1.3960    -0.4960     0.3350 Cl    1 <1>  -0.1770 
  2 C        1.6040    -2.2390     0.3670 C.ar  1 <1>   0.1770 
  3 C        0.5450    -3.0920     0.7240 C.ar  1 <1>   0.4100 
  4 C        2.8360    -2.7470     0.0340 C.ar  1 <1>  -0.1500 
  5 N        0.6810    -4.4170     0.7540 N.ar  1 <1>  -0.6200 
  6 N       -0.7120    -2.6000     1.0530 N.pl3 1 <1>  -0.8380 
  7 C        2.9660    -4.1210     0.0720 C.ar  1 <1>  -0.1500 
  8 C        1.8750    -4.8930     0.4340 C.ar  1 <1>   0.1600 
  9 C       -1.5290    -3.2960     2.1030 C.3   1 <1>   0.2090 
 10 C       -1.5460    -2.0210    -0.0460 C.3   1 <1>   0.2090 
 11 C       -2.5280    -4.3060     1.5030 C.3   1 <1>   0.2090 
 12 C       -2.5240    -3.0570    -0.6360 C.3   1 <1>   0.2090 
 13 N       -3.3710    -3.6870     0.4260 N.pl3 1 <1>  -0.8380 
 14 C       -4.5800    -4.2670     0.0720 C.ar  1 <1>   0.4100 
 15 N       -4.7280    -5.5520     0.3480 N.ar  1 <1>  -0.6200 
 16 C       -5.5850    -3.5150    -0.5560 C.ar  1 <1>   0.1600 
 17 C       -5.9060    -6.0680    -0.0410 C.ar  1 <1>   0.3960 
 18 N       -6.7490    -3.9850    -0.9540 N.ar  1 <1>  -0.6200 
 19 C       -6.2260    -7.4790     0.1890 C.2   1 <1>   0.5440 
 20 C       -6.8710    -5.2740    -0.6690 C.ar  1 <1>   0.1600 
 21 O       -7.3910    -7.7890     0.3760 O.2   1 <1>  -0.5700 
 22 N       -5.2890    -8.5030     0.1890 N.am  1 <1>  -0.6600 
 23 C       -3.8870    -8.3780    -0.3210 C.3   1 <1>   0.1400 
 24 C       -5.5920    -9.8580     0.7450 C.3   1 <1>   0.1400 
 25 C       -3.5030    -9.5840    -1.1950 C.3   1 <1>   0.1200 
 26 C       -5.1200   -10.9640    -0.2120 C.3   1 <1>   0.1200 
 27 O       -3.7710   -10.7890    -0.5370 O.3   1 <1>  -0.5600 
 28 H        3.6520    -2.1010    -0.2380 H     1 <1>   0.1500 
 29 H        3.9030    -4.5880    -0.1740 H     1 <1>   0.1500 
 30 H        1.9910    -5.9630     0.4610 H     1 <1>   0.1500 
 31 H       -2.0750    -2.5590     2.6630 H     1 <1>   0.0800 
 32 H       -0.8760    -3.8080     2.7890 H     1 <1>   0.0800 
 33 H       -0.9100    -1.6530    -0.8310 H     1 <1>   0.0800 
 34 H       -2.1050    -1.1880     0.3430 H     1 <1>   0.0800 
 35 H       -3.1610    -4.6810     2.2890 H     1 <1>   0.0800 
 36 H       -1.9820    -5.1380     1.0930 H     1 <1>   0.0800 
 37 H       -1.9540    -3.8250    -1.1290 H     1 <1>   0.0800 
 38 H       -3.1430    -2.5790    -1.3720 H     1 <1>   0.0800 
 39 H       -5.3900    -2.4730    -0.7210 H     1 <1>   0.1500 
 40 H       -7.8000    -5.7410    -0.9500 H     1 <1>   0.1500 
 41 H       -3.2120    -8.3110     0.5140 H     1 <1>   0.0800 
 42 H       -3.7750    -7.4880    -0.9130 H     1 <1>   0.0800 
 43 H       -6.6470    -9.9740     0.9210 H     1 <1>   0.0800 
 44 H       -5.0880    -9.9700     1.6880 H     1 <1>   0.0800 
 45 H       -2.4520    -9.5590    -1.4190 H     1 <1>   0.0800 
 46 H       -4.0530    -9.5690    -2.1200 H     1 <1>   0.0800 
 47 H       -5.7010   -10.9540    -1.1170 H     1 <1>   0.0800 
 48 H       -5.2230   -11.9260     0.2560 H     1 <1>   0.0800 
@<TRIPOS>BOND
  1   1   2  1   
  2   2   3  ar  
  3   2   4  ar  
  4   3   5  ar  
  5   3   6  1   
  6   4   7  ar  
  7   4  28  1   
  8   5   8  ar  
  9   6   9  1   
 10   6  10  1   
 11   7   8  ar  
 12   7  29  1   
 13   8  30  1   
 14   9  11  1   
 15   9  31  1   
 16   9  32  1   
 17  10  12  1   
 18  10  33  1   
 19  10  34  1   
 20  11  13  1   
 21  11  35  1   
 22  11  36  1   
 23  12  13  1   
 24  12  37  1   
 25  12  38  1   
 26  13  14  1   
 27  14  15  ar  
 28  14  16  ar  
 29  15  17  ar  
 30  16  18  ar  
 31  16  39  1   
 32  17  19  1   
 33  17  20  ar  
 34  18  20  ar  
 35  19  21  2   
 36  19  22  am  
 37  20  40  1   
 38  22  23  1   
 39  22  24  1   
 40  23  25  1   
 41  23  41  1   
 42  23  42  1   
 43  24  26  1   
 44  24  43  1   
 45  24  44  1   
 46  25  27  1   
 47  25  45  1   
 48  25  46  1   
 49  26  27  1   
 50  26  47  1   
 51  26  48  1   
@<TRIPOS>SUBSTRUCTURE
  1 ****  11 GROUP 4 **** **** 0

# MOE 2024.06 (io_trps.svl 2023.06)
