@<TRIPOS>MOLECULE
NONAME
54 56 1 0 0 
SMALL
USER_CHARGES


@<TRIPOS>ATOM
  1 S       -0.2440     0.0690    -0.3310 S.o2  1 <1>   1.2040 
  2 O       -1.3470     0.7030     0.3540 O.2   1 <1>  -0.6500 
  3 O       -0.0820     0.2320    -1.7580 O.2   1 <1>  -0.6500 
  4 C       -0.2600    -1.7020     0.0530 C.ar  1 <1>  -0.0090 
  5 C        1.2610     0.6210     0.4470 C.3   1 <1>  -0.1350 
  6 C       -0.8720    -2.1820     1.2030 C.ar  1 <1>  -0.1500 
  7 C        0.3540    -2.6240    -0.7850 C.ar  1 <1>  -0.1500 
  8 C       -0.8870    -3.5340     1.5010 C.ar  1 <1>  -0.1500 
  9 C        0.3460    -3.9780    -0.4970 C.ar  1 <1>  -0.1500 
 10 C       -0.2860    -4.4440     0.6450 C.ar  1 <1>  -0.1430 
 11 C       -0.3410    -5.9310     0.9470 C.3   1 <1>   0.4860 
 12 N       -1.3330    -6.5590     0.0320 N.4   1 <1>  -0.9590 
 13 C       -1.3710    -8.0620     0.1880 C.3   1 <1>   0.3430 
 14 C       -2.7120    -5.9720     0.2140 C.3   1 <1>   0.3430 
 15 C       -2.5240    -8.7270    -0.5990 C.3   1 <1>   0.3430 
 16 C       -3.7870    -6.7210    -0.6070 C.3   1 <1>   0.2000 
 17 O       -3.7320    -8.0850    -0.2950 O.3   1 <1>  -0.5600 
 18 C       -2.6130   -10.1970    -0.2140 C.ar  1 <1>  -0.1430 
 19 C       -5.2150    -6.2120    -0.3130 C.3   1 <1>  -0.0800 
 20 C       -3.3160   -10.6060     0.9110 C.ar  1 <1>  -0.1500 
 21 C       -1.9650   -11.1510    -0.9880 C.ar  1 <1>  -0.1500 
 22 C       -6.2650    -6.9880    -1.1250 C.3   1 <1>  -0.2400 
 23 C       -5.3640    -4.7110    -0.6190 C.3   1 <1>  -0.2400 
 24 C       -3.3620   -11.9440     1.2630 C.ar  1 <1>  -0.1500 
 25 C       -2.0110   -12.4880    -0.6360 C.ar  1 <1>  -0.1500 
 26 C       -2.7080   -12.8850     0.4900 C.ar  1 <1>  -0.1500 
 27 H        1.2260     0.4380     1.5040 H     1 <1>   0.0800 
 28 H        1.3870     1.6750     0.2890 H     1 <1>   0.0800 
 29 H        2.1080     0.1110     0.0320 H     1 <1>   0.0800 
 30 H       -1.3510    -1.4850     1.8730 H     1 <1>   0.1500 
 31 H        0.8420    -2.2740    -1.6820 H     1 <1>   0.1500 
 32 H       -1.3750    -3.8590     2.4060 H     1 <1>   0.1500 
 33 H        0.8390    -4.6530    -1.1770 H     1 <1>   0.1500 
 34 H       -0.6290    -6.0870     1.9740 H     1 <1>   0.0800 
 35 H        0.6340    -6.3640     0.7960 H     1 <1>   0.0800 
 36 H       -1.0390    -6.3310    -0.9260 H     1 <1>   0.4500 
 37 H       -0.4380    -8.4940    -0.1330 H     1 <1>   0.0800 
 38 H       -1.5050    -8.3150     1.2270 H     1 <1>   0.0800 
 39 H       -2.9950    -6.0170     1.2530 H     1 <1>   0.0800 
 40 H       -2.7070    -4.9340    -0.0790 H     1 <1>   0.0800 
 41 H       -2.3590    -8.6440    -1.6590 H     1 <1>   0.0800 
 42 H       -3.5910    -6.6080    -1.6600 H     1 <1>   0.0800 
 43 H       -5.4230    -6.3620     0.7330 H     1 <1>   0.0800 
 44 H       -3.8410    -9.8890     1.5200 H     1 <1>   0.1500 
 45 H       -1.4210   -10.8700    -1.8730 H     1 <1>   0.1500 
 46 H       -6.0930    -6.8770    -2.1820 H     1 <1>   0.0800 
 47 H       -7.2540    -6.6300    -0.9000 H     1 <1>   0.0800 
 48 H       -6.2330    -8.0370    -0.8830 H     1 <1>   0.0800 
 49 H       -5.1280    -4.5050    -1.6490 H     1 <1>   0.0800 
 50 H       -4.7330    -4.1110     0.0110 H     1 <1>   0.0800 
 51 H       -6.3800    -4.4000    -0.4430 H     1 <1>   0.0800 
 52 H       -3.9110   -12.2540     2.1350 H     1 <1>   0.1500 
 53 H       -1.5080   -13.2250    -1.2400 H     1 <1>   0.1500 
 54 H       -2.7450   -13.9260     0.7630 H     1 <1>   0.1500 
@<TRIPOS>BOND
  1   1   2  2   
  2   1   3  2   
  3   1   4  1   
  4   1   5  1   
  5   4   6  ar  
  6   4   7  ar  
  7   5  27  1   
  8   5  28  1   
  9   5  29  1   
 10   6   8  ar  
 11   6  30  1   
 12   7   9  ar  
 13   7  31  1   
 14   8  10  ar  
 15   8  32  1   
 16   9  10  ar  
 17   9  33  1   
 18  10  11  1   
 19  11  12  1   
 20  11  34  1   
 21  11  35  1   
 22  12  13  1   
 23  12  14  1   
 24  12  36  1   
 25  13  15  1   
 26  13  37  1   
 27  13  38  1   
 28  14  16  1   
 29  14  39  1   
 30  14  40  1   
 31  15  17  1   
 32  15  18  1   
 33  15  41  1   
 34  16  17  1   
 35  16  19  1   
 36  16  42  1   
 37  18  20  ar  
 38  18  21  ar  
 39  19  22  1   
 40  19  23  1   
 41  19  43  1   
 42  20  24  ar  
 43  20  44  1   
 44  21  25  ar  
 45  21  45  1   
 46  22  46  1   
 47  22  47  1   
 48  22  48  1   
 49  23  49  1   
 50  23  50  1   
 51  23  51  1   
 52  24  26  ar  
 53  24  52  1   
 54  25  26  ar  
 55  25  53  1   
 56  26  54  1   
@<TRIPOS>SUBSTRUCTURE
  1 ****  14 GROUP 4 **** **** 0

# MOE 2024.06 (io_trps.svl 2023.06)
