@<TRIPOS>MOLECULE
NONAME
54 58 1 0 0 
SMALL
USER_CHARGES


@<TRIPOS>ATOM
  1 O        0.1530     0.5300     0.3810 O.2   1 <1>  -0.5700 
  2 C       -0.5010     1.4850     0.0330 C.2   1 <1>   0.5690 
  3 N       -1.8630     1.5100     0.1850 N.am  1 <1>  -0.6600 
  4 C        0.2210     2.6760    -0.5800 C.3   1 <1>  -0.0990 
  5 C       -2.7600     2.6350    -0.2280 C.3   1 <1>   0.1400 
  6 C       -2.5630     0.3410     0.8030 C.3   1 <1>   0.1400 
  7 C        1.7500     2.5460    -0.5880 C.3   1 <1>   0.0210 
  8 C       -3.5400     3.1960     0.9830 C.3   1 <1>   0.1440 
  9 C       -3.9930     0.6860     1.2570 C.3   1 <1>  -0.1600 
 10 C        2.3680     3.8100    -1.1570 C.2   1 <1>  -0.1810 
 11 C       -4.6660     4.0510     0.4250 C.ar  1 <1>   0.1660 
 12 C       -4.0440     2.0690     1.9260 C.3   1 <1>  -0.1600 
 13 C       -2.7020     4.2440     1.7610 C.3   1 <1>  -0.1600 
 14 C        2.4550     5.0460    -0.5240 C.2   1 <1>   0.1390 
 15 C        2.9400     4.0030    -2.3640 C.2   1 <1>  -0.3020 
 16 N       -5.7730     3.5980    -0.1110 N.ar  1 <1>  -0.6200 
 17 C       -4.3810     5.3780     0.5220 C.ar  1 <1>  -0.1440 
 18 C       -3.0380     5.6210     1.1640 C.3   1 <1>  -0.0170 
 19 N        3.0230     5.9430    -1.2700 N.2   1 <1>  -0.7070 
 20 N        3.3290     5.2920    -2.4090 N.pl3 1 <1>   0.3000 
 21 C       -6.6340     4.5260    -0.5520 C.ar  1 <1>   0.6200 
 22 C       -5.3070     6.2670     0.0420 C.ar  1 <1>   0.1600 
 23 N       -6.4320     5.8510    -0.4940 N.ar  1 <1>  -0.6200 
 24 C       -7.8820     4.0580    -1.1410 C.ar  1 <1>   0.0000 
 25 C       -9.0400     4.8420    -1.1280 C.ar  1 <1>  -0.1500 
 26 C       -7.9830     2.8010    -1.7480 C.ar  1 <1>  -0.1500 
 27 C      -10.2260     4.4010    -1.6850 C.ar  1 <1>  -0.1500 
 28 C       -9.1660     2.3540    -2.3070 C.ar  1 <1>  -0.1500 
 29 C      -10.2920     3.1540    -2.2770 C.ar  1 <1>  -0.1500 
 30 H       -0.0410     3.5550    -0.0240 H     1 <1>   0.0800 
 31 H       -0.1190     2.7970    -1.5910 H     1 <1>   0.0800 
 32 H       -3.4620     2.2510    -0.9490 H     1 <1>   0.0800 
 33 H       -2.2180     3.4260    -0.7110 H     1 <1>   0.0800 
 34 H       -1.9940     0.0160     1.6580 H     1 <1>   0.0800 
 35 H       -2.5870    -0.4710     0.0970 H     1 <1>   0.0800 
 36 H        2.0400     1.6990    -1.1860 H     1 <1>   0.0800 
 37 H        2.1150     2.3880     0.4120 H     1 <1>   0.0800 
 38 H       -4.3360    -0.0670     1.9430 H     1 <1>   0.0800 
 39 H       -4.6550     0.6700     0.4080 H     1 <1>   0.0800 
 40 H       -5.0470     2.2810     2.2550 H     1 <1>   0.0800 
 41 H       -3.4200     2.0230     2.8010 H     1 <1>   0.0800 
 42 H       -1.6480     4.0320     1.7330 H     1 <1>   0.0800 
 43 H       -3.0130     4.2560     2.7910 H     1 <1>   0.0800 
 44 H        2.0960     5.2490     0.4710 H     1 <1>   0.1500 
 45 H        3.0890     3.3130    -3.1740 H     1 <1>   0.1500 
 46 H       -2.3200     5.8990     0.4120 H     1 <1>   0.0800 
 47 H       -3.0880     6.3810     1.9240 H     1 <1>   0.0800 
 48 H        3.8020     5.7570    -3.1940 H     1 <1>   0.2700 
 49 H       -5.1260     7.3270     0.0950 H     1 <1>   0.1500 
 50 H       -9.0090     5.8160    -0.6710 H     1 <1>   0.1500 
 51 H       -7.1170     2.1630    -1.7830 H     1 <1>   0.1500 
 52 H      -11.0990     5.0300    -1.6580 H     1 <1>   0.1500 
 53 H       -9.2100     1.3810    -2.7660 H     1 <1>   0.1500 
 54 H      -11.2140     2.8090    -2.7110 H     1 <1>   0.1500 
@<TRIPOS>BOND
  1   1   2  2   
  2   2   3  am  
  3   2   4  1   
  4   3   5  1   
  5   3   6  1   
  6   4   7  1   
  7   4  30  1   
  8   4  31  1   
  9   5   8  1   
 10   5  32  1   
 11   5  33  1   
 12   6   9  1   
 13   6  34  1   
 14   6  35  1   
 15   7  10  1   
 16   7  36  1   
 17   7  37  1   
 18   8  11  1   
 19   8  12  1   
 20   8  13  1   
 21   9  12  1   
 22   9  38  1   
 23   9  39  1   
 24  10  14  1   
 25  10  15  2   
 26  11  16  ar  
 27  11  17  ar  
 28  12  40  1   
 29  12  41  1   
 30  13  18  1   
 31  13  42  1   
 32  13  43  1   
 33  14  19  2   
 34  14  44  1   
 35  15  20  1   
 36  15  45  1   
 37  16  21  ar  
 38  17  18  1   
 39  17  22  ar  
 40  18  46  1   
 41  18  47  1   
 42  19  20  1   
 43  20  48  1   
 44  21  23  ar  
 45  21  24  1   
 46  22  23  ar  
 47  22  49  1   
 48  24  25  ar  
 49  24  26  ar  
 50  25  27  ar  
 51  25  50  1   
 52  26  28  ar  
 53  26  51  1   
 54  27  29  ar  
 55  27  52  1   
 56  28  29  ar  
 57  28  53  1   
 58  29  54  1   
@<TRIPOS>SUBSTRUCTURE
  1 ****   5 GROUP 4 **** **** 0

# MOE 2024.06 (io_trps.svl 2023.06)
