@<TRIPOS>MOLECULE
NONAME
38 39 1 0 0 
SMALL
USER_CHARGES


@<TRIPOS>ATOM
  1 CL       0.1270    -0.7970    -0.4630 Cl    1 <1>  -0.1240 
  2 C       -1.0570    -1.9000     0.1870 C.2   1 <1>   0.2640 
  3 O       -0.9260    -3.1790    -0.0600 O.3   1 <1>  -0.2800 
  4 C       -2.1430    -1.6380     0.9400 C.2   1 <1>  -0.1500 
  5 C       -1.9380    -3.8150     0.5310 C.2   1 <1>   0.0550 
  6 C       -2.7190    -2.8900     1.1670 C.2   1 <1>  -0.1500 
  7 C       -2.0620    -5.2530     0.4320 C.2   1 <1>   0.7150 
  8 O       -1.0990    -5.9710     0.6310 O.2   1 <1>  -0.5700 
  9 N       -3.2660    -5.8520     0.1240 N.am  1 <1>  -0.6600 
 10 C       -4.4330    -5.1560    -0.4780 C.3   1 <1>   0.1400 
 11 C       -3.3870    -7.3190    -0.0870 C.3   1 <1>   0.1400 
 12 C       -5.4860    -6.2510    -0.6340 C.3   1 <1>   0.2000 
 13 C       -4.6630    -7.5090    -0.9180 C.3   1 <1>  -0.0800 
 14 O       -6.1360    -6.3980     0.5830 O.3   1 <1>  -0.6800 
 15 C       -5.4150    -8.8330    -0.6540 C.3   1 <1>  -0.0550 
 16 S       -4.5310   -10.3010    -1.1850 S.o2  1 <1>   1.3330 
 17 O       -4.0150   -10.0480    -2.5120 O.2   1 <1>  -0.6500 
 18 O       -5.3580   -11.4620    -0.9450 O.2   1 <1>  -0.6500 
 19 N       -3.2160   -10.3780    -0.1120 N.am  1 <1>  -0.8490 
 20 C       -3.5300   -11.0560     1.1510 C.3   1 <1>   0.1160 
 21 C       -2.0260   -10.9810    -0.7210 C.3   1 <1>   0.1160 
 22 H       -2.4970    -0.6870     1.2950 H     1 <1>   0.1500 
 23 H       -3.6070    -3.0670     1.7480 H     1 <1>   0.1500 
 24 H       -4.7940    -4.3530     0.1390 H     1 <1>   0.0800 
 25 H       -4.1530    -4.7740    -1.4450 H     1 <1>   0.0800 
 26 H       -2.5250    -7.7080    -0.6030 H     1 <1>   0.0800 
 27 H       -3.4700    -7.8020     0.8710 H     1 <1>   0.0800 
 28 H       -6.2180    -6.0340    -1.3920 H     1 <1>   0.0800 
 29 H       -4.3770    -7.4810    -1.9560 H     1 <1>   0.0800 
 30 H       -5.4660    -6.4280     1.2960 H     1 <1>   0.4000 
 31 H       -6.3470    -8.7950    -1.1850 H     1 <1>   0.0800 
 32 H       -5.6490    -8.9180     0.3890 H     1 <1>   0.0800 
 33 H       -2.6950   -10.9850     1.8260 H     1 <1>   0.0800 
 34 H       -3.7520   -12.0960     0.9740 H     1 <1>   0.0800 
 35 H       -4.3840   -10.5960     1.6170 H     1 <1>   0.0800 
 36 H       -1.2120   -10.9940    -0.0170 H     1 <1>   0.0800 
 37 H       -1.7180   -10.4060    -1.5780 H     1 <1>   0.0800 
 38 H       -2.2380   -11.9890    -1.0390 H     1 <1>   0.0800 
@<TRIPOS>BOND
  1   1   2  1   
  2   2   3  1   
  3   2   4  2   
  4   3   5  1   
  5   4   6  1   
  6   4  22  1   
  7   5   6  2   
  8   5   7  1   
  9   6  23  1   
 10   7   8  2   
 11   7   9  am  
 12   9  10  1   
 13   9  11  1   
 14  10  12  1   
 15  10  24  1   
 16  10  25  1   
 17  11  13  1   
 18  11  26  1   
 19  11  27  1   
 20  12  13  1   
 21  12  14  1   
 22  12  28  1   
 23  13  15  1   
 24  13  29  1   
 25  14  30  1   
 26  15  16  1   
 27  15  31  1   
 28  15  32  1   
 29  16  17  2   
 30  16  18  2   
 31  16  19  am  
 32  19  20  1   
 33  19  21  1   
 34  20  33  1   
 35  20  34  1   
 36  20  35  1   
 37  21  36  1   
 38  21  37  1   
 39  21  38  1   
@<TRIPOS>SUBSTRUCTURE
  1 ****   9 GROUP 4 **** **** 0

# MOE 2024.06 (io_trps.svl 2023.06)
