@<TRIPOS>MOLECULE
NONAME
55 57 1 0 0 
SMALL
USER_CHARGES


@<TRIPOS>ATOM
  1 O       -0.9860     0.7320     0.3610 O.2   1 <1>  -0.5700 
  2 C       -0.6290     1.8870     0.3900 C.2   1 <1>   0.5690 
  3 N       -1.5070     2.9470     0.4660 N.am  1 <1>  -0.5090 
  4 C        0.8840     2.1380     0.3410 C.3   1 <1>   0.1810 
  5 C       -0.9740     4.3310     0.6720 C.3   1 <1>   0.3640 
  6 C       -2.9180     2.7420     0.9010 C.3   1 <1>   0.0490 
  7 O        1.2670     3.3950     0.8480 O.3   1 <1>  -0.5600 
  8 C       -1.7180     5.3910    -0.1440 C.ar  1 <1>  -0.1440 
  9 C        0.5210     4.4560     0.3070 C.3   1 <1>   0.2610 
 10 C       -3.7840     1.7460     0.1940 C.3   1 <1>  -0.2000 
 11 C       -4.0610     3.2060     0.0490 C.3   1 <1>  -0.2000 
 12 C       -2.1470     6.5530     0.4820 C.ar  1 <1>   0.1600 
 13 C       -1.9170     5.2620    -1.5050 C.ar  1 <1>  -0.1500 
 14 C        1.0480     5.8340     0.7460 C.2   1 <1>   0.5690 
 15 N       -2.6990     7.5910    -0.1290 N.ar  1 <1>  -0.6200 
 16 C       -2.5330     6.3120    -2.1520 C.ar  1 <1>  -0.1500 
 17 O        0.6230     6.3190     1.7730 O.2   1 <1>  -0.5700 
 18 N        1.8900     6.5710    -0.0560 N.am  1 <1>  -0.6600 
 19 C       -2.9000     7.4340    -1.4300 C.ar  1 <1>   0.1600 
 20 C        2.0290     8.0430     0.1700 C.3   1 <1>   0.1400 
 21 C        2.8460     5.9660    -1.0260 C.3   1 <1>   0.1400 
 22 C        0.6780     8.7530    -0.0830 C.3   1 <1>   0.3430 
 23 C        4.1880     5.7450    -0.3340 C.3   1 <1>  -0.2400 
 24 N        0.3110     9.7810     0.9510 N.4   1 <1>  -0.9590 
 25 C        0.0890     9.1490     2.2930 C.3   1 <1>   0.2630 
 26 C       -0.9450    10.4760     0.5310 C.3   1 <1>   0.2630 
 27 H        1.2260     2.0590    -0.6740 H     1 <1>   0.0800 
 28 H        1.3830     1.3880     0.9280 H     1 <1>   0.0800 
 29 H       -1.0850     4.5540     1.7200 H     1 <1>   0.0800 
 30 H       -3.0220     2.8020     1.9720 H     1 <1>   0.1000 
 31 H        0.6030     4.3920    -0.7610 H     1 <1>   0.0800 
 32 H       -3.3810     1.2090    -0.6470 H     1 <1>   0.1000 
 33 H       -4.4610     1.1480     0.7780 H     1 <1>   0.1000 
 34 H       -4.9370     3.6030     0.5310 H     1 <1>   0.1000 
 35 H       -3.9060     3.6240    -0.9270 H     1 <1>   0.1000 
 36 H       -2.0110     6.6440     1.5470 H     1 <1>   0.1500 
 37 H       -1.6160     4.3780    -2.0440 H     1 <1>   0.1500 
 38 H       -2.7330     6.2600    -3.2080 H     1 <1>   0.1500 
 39 H       -3.3860     8.2420    -1.9520 H     1 <1>   0.1500 
 40 H        2.3650     8.1990     1.1800 H     1 <1>   0.0800 
 41 H        2.7720     8.4490    -0.4940 H     1 <1>   0.0800 
 42 H        2.4840     5.0210    -1.3900 H     1 <1>   0.0800 
 43 H        2.9700     6.6180    -1.8750 H     1 <1>   0.0800 
 44 H       -0.0990     8.0070    -0.1140 H     1 <1>   0.0800 
 45 H        0.7170     9.2200    -1.0530 H     1 <1>   0.0800 
 46 H        4.0680     5.0830     0.5060 H     1 <1>   0.0800 
 47 H        4.6060     6.6760     0.0040 H     1 <1>   0.0800 
 48 H        4.8800     5.2940    -1.0210 H     1 <1>   0.0800 
 49 H        1.0690    10.4750     1.0290 H     1 <1>   0.4500 
 50 H       -0.7060     8.4240     2.2340 H     1 <1>   0.0800 
 51 H       -0.1780     9.8960     3.0220 H     1 <1>   0.0800 
 52 H        0.9790     8.6420     2.6280 H     1 <1>   0.0800 
 53 H       -1.7560     9.7690     0.4550 H     1 <1>   0.0800 
 54 H       -0.8110    10.9500    -0.4270 H     1 <1>   0.0800 
 55 H       -1.2150    11.2300     1.2530 H     1 <1>   0.0800 
@<TRIPOS>BOND
  1   1   2  2   
  2   2   3  am  
  3   2   4  1   
  4   3   5  1   
  5   3   6  1   
  6   4   7  1   
  7   4  27  1   
  8   4  28  1   
  9   5   8  1   
 10   5   9  1   
 11   5  29  1   
 12   6  10  1   
 13   6  11  1   
 14   6  30  1   
 15   7   9  1   
 16   8  12  ar  
 17   8  13  ar  
 18   9  14  1   
 19   9  31  1   
 20  10  11  1   
 21  10  32  1   
 22  10  33  1   
 23  11  34  1   
 24  11  35  1   
 25  12  15  ar  
 26  12  36  1   
 27  13  16  ar  
 28  13  37  1   
 29  14  17  2   
 30  14  18  am  
 31  15  19  ar  
 32  16  19  ar  
 33  16  38  1   
 34  18  20  1   
 35  18  21  1   
 36  19  39  1   
 37  20  22  1   
 38  20  40  1   
 39  20  41  1   
 40  21  23  1   
 41  21  42  1   
 42  21  43  1   
 43  22  24  1   
 44  22  44  1   
 45  22  45  1   
 46  23  46  1   
 47  23  47  1   
 48  23  48  1   
 49  24  25  1   
 50  24  26  1   
 51  24  49  1   
 52  25  50  1   
 53  25  51  1   
 54  25  52  1   
 55  26  53  1   
 56  26  54  1   
 57  26  55  1   
@<TRIPOS>SUBSTRUCTURE
  1 ****   8 GROUP 4 **** **** 0

# MOE 2024.06 (io_trps.svl 2023.06)
