@<TRIPOS>MOLECULE
NONAME
51 53 1 0 0 
SMALL
USER_CHARGES


@<TRIPOS>ATOM
  1 O       -3.1630     0.8370    -2.2880 O.2   1 <1>  -0.5700 
  2 C       -2.5990     1.0650    -1.2360 C.2   1 <1>   0.5440 
  3 N       -2.5100     0.0270    -0.3370 N.am  1 <1>  -0.6600 
  4 C       -2.1250     2.3990    -0.9160 C.ar  1 <1>   0.0860 
  5 C       -3.0920     0.1730     1.0300 C.3   1 <1>   0.1400 
  6 C       -2.5400    -1.3750    -0.8440 C.3   1 <1>   0.1400 
  7 C       -2.7120     3.5370    -1.4490 C.ar  1 <1>  -0.1500 
  8 C       -1.0650     2.6380    -0.0530 C.ar  1 <1>  -0.1500 
  9 C       -4.5340    -0.3940     1.0910 C.3   1 <1>   0.4230 
 10 C       -3.9860    -1.9010    -0.8400 C.3   1 <1>   0.3430 
 11 C       -2.2580     4.7930    -1.0940 C.ar  1 <1>   0.1660 
 12 C       -0.6790     3.9320     0.2430 C.ar  1 <1>   0.1660 
 13 N       -4.6220    -1.8070     0.5330 N.4   1 <1>  -0.9590 
 14 C       -5.5290     0.5480     0.3720 C.3   1 <1>   0.1200 
 15 N       -1.2630     5.0050    -0.2530 N.ar  1 <1>  -0.6200 
 16 C       -2.9040     6.0320    -1.6750 C.3   1 <1>  -0.0970 
 17 C        0.4770     4.1920     1.1860 C.3   1 <1>  -0.0970 
 18 C       -6.0590    -2.2610     0.5540 C.3   1 <1>   0.4230 
 19 O       -6.8260     0.0320     0.4570 O.3   1 <1>  -0.5600 
 20 C       -6.9920    -1.2290    -0.1270 C.3   1 <1>   0.1200 
 21 C       -6.1920    -3.6720    -0.0420 C.3   1 <1>  -0.1600 
 22 C       -7.5380    -4.3290     0.3030 C.3   1 <1>  -0.1600 
 23 C       -7.6000    -5.7610    -0.2360 C.3   1 <1>  -0.2400 
 24 H       -2.4700    -0.3490     1.7360 H     1 <1>   0.0800 
 25 H       -3.1050     1.2100     1.3210 H     1 <1>   0.0800 
 26 H       -2.1510    -1.4080    -1.8490 H     1 <1>   0.0800 
 27 H       -1.9120    -1.9980    -0.2310 H     1 <1>   0.0800 
 28 H       -3.5250     3.4330    -2.1450 H     1 <1>   0.1500 
 29 H       -0.5370     1.8090     0.3820 H     1 <1>   0.1500 
 30 H       -4.8270    -0.4120     2.1280 H     1 <1>   0.0800 
 31 H       -3.9830    -2.9240    -1.1780 H     1 <1>   0.0800 
 32 H       -4.5530    -1.3200    -1.5490 H     1 <1>   0.0800 
 33 H       -4.0970    -2.4230     1.1620 H     1 <1>   0.4500 
 34 H       -5.2790     0.6780    -0.6670 H     1 <1>   0.0800 
 35 H       -5.5350     1.5150     0.8430 H     1 <1>   0.0800 
 36 H       -3.6940     5.7780    -2.3570 H     1 <1>   0.0800 
 37 H       -2.1640     6.6090    -2.1990 H     1 <1>   0.0800 
 38 H       -3.3080     6.6320    -0.8800 H     1 <1>   0.0800 
 39 H        0.9070     3.2750     1.5430 H     1 <1>   0.0800 
 40 H        0.1320     4.7670     2.0260 H     1 <1>   0.0800 
 41 H        1.2360     4.7550     0.6730 H     1 <1>   0.0800 
 42 H       -6.3720    -2.3230     1.5840 H     1 <1>   0.0800 
 43 H       -8.0220    -1.5080     0.0090 H     1 <1>   0.0800 
 44 H       -6.7960    -1.1530    -1.1820 H     1 <1>   0.0800 
 45 H       -6.0960    -3.6360    -1.1130 H     1 <1>   0.0800 
 46 H       -5.4100    -4.2970     0.3530 H     1 <1>   0.0800 
 47 H       -7.6750    -4.3550     1.3720 H     1 <1>   0.0800 
 48 H       -8.3540    -3.7700    -0.1240 H     1 <1>   0.0800 
 49 H       -6.8210    -6.3660     0.1940 H     1 <1>   0.0800 
 50 H       -7.4950    -5.7710    -1.3080 H     1 <1>   0.0800 
 51 H       -8.5480    -6.2060     0.0120 H     1 <1>   0.0800 
@<TRIPOS>BOND
  1   1   2  2   
  2   2   3  am  
  3   2   4  1   
  4   3   5  1   
  5   3   6  1   
  6   4   7  ar  
  7   4   8  ar  
  8   5   9  1   
  9   5  24  1   
 10   5  25  1   
 11   6  10  1   
 12   6  26  1   
 13   6  27  1   
 14   7  11  ar  
 15   7  28  1   
 16   8  12  ar  
 17   8  29  1   
 18   9  13  1   
 19   9  14  1   
 20   9  30  1   
 21  10  13  1   
 22  10  31  1   
 23  10  32  1   
 24  11  15  ar  
 25  11  16  1   
 26  12  15  ar  
 27  12  17  1   
 28  13  18  1   
 29  13  33  1   
 30  14  19  1   
 31  14  34  1   
 32  14  35  1   
 33  16  36  1   
 34  16  37  1   
 35  16  38  1   
 36  17  39  1   
 37  17  40  1   
 38  17  41  1   
 39  18  20  1   
 40  18  21  1   
 41  18  42  1   
 42  19  20  1   
 43  20  43  1   
 44  20  44  1   
 45  21  22  1   
 46  21  45  1   
 47  21  46  1   
 48  22  23  1   
 49  22  47  1   
 50  22  48  1   
 51  23  49  1   
 52  23  50  1   
 53  23  51  1   
@<TRIPOS>SUBSTRUCTURE
  1 ****   3 GROUP 4 **** **** 0

# MOE 2024.06 (io_trps.svl 2023.06)
