@<TRIPOS>MOLECULE
NONAME
50 52 1 0 0 
SMALL
USER_CHARGES


@<TRIPOS>ATOM
  1 S       -0.7700     0.5140     2.1340 S.3   1 <1>  -0.0800 
  2 C        0.5110     0.3020     0.9700 C.2   1 <1>   0.1980 
  3 C       -0.9520    -1.2110     2.2010 C.2   1 <1>  -0.1100 
  4 N        0.7460    -0.9100     0.6650 N.2   1 <1>  -0.5650 
  5 C        1.2310     1.5430     0.4570 C.3   1 <1>   0.5230 
  6 C       -0.0770    -1.8130     1.3620 C.2   1 <1>   0.1410 
  7 N        2.2750     1.1310    -0.5420 N.4   1 <1>  -0.9590 
  8 C        0.0710    -3.2530     1.1650 C.2   1 <1>   0.7160 
  9 C        3.4320     2.0710    -0.6010 C.3   1 <1>   0.2630 
 10 C        1.6790     0.8790    -1.8900 C.3   1 <1>   0.2630 
 11 O        1.1780    -3.7360     1.0030 O.2   1 <1>  -0.5700 
 12 N       -1.0220    -4.0930     1.1490 N.am  1 <1>  -0.6600 
 13 C       -2.3950    -3.6870     0.7430 C.3   1 <1>   0.1400 
 14 C       -0.9030    -5.5700     1.0710 C.3   1 <1>   0.1400 
 15 C       -3.1510    -4.9890     0.4440 C.3   1 <1>   0.2000 
 16 C       -2.0410    -6.0010     0.1470 C.3   1 <1>  -0.0800 
 17 O       -3.8380    -5.3990     1.5920 O.3   1 <1>  -0.5600 
 18 C       -2.4480    -7.4760     0.3220 C.3   1 <1>   0.0200 
 19 C       -5.1310    -4.8980     1.7220 C.3   1 <1>   0.0400 
 20 C       -1.3720    -8.4460    -0.1370 C.2   1 <1>  -0.0400 
 21 O       -1.5550    -9.7250     0.0600 O.3   1 <1>  -0.0190 
 22 C       -0.1860    -8.2940    -0.7490 C.2   1 <1>  -0.1500 
 23 N       -0.5570   -10.4350    -0.3810 N.2   1 <1>  -0.4100 
 24 C        0.2840    -9.5980    -0.8730 C.2   1 <1>   0.1080 
 25 C        1.6040    -9.9870    -1.5010 C.3   1 <1>  -0.0590 
 26 H       -1.6880    -1.6170     2.8720 H     1 <1>   0.1500 
 27 H        1.6980     2.0320     1.2950 H     1 <1>   0.0800 
 28 H        0.5260     2.2220     0.0090 H     1 <1>   0.0800 
 29 H        2.5910     0.2050    -0.1920 H     1 <1>   0.4500 
 30 H        3.1130     3.0400    -0.9480 H     1 <1>   0.0800 
 31 H        4.1820     1.6940    -1.2780 H     1 <1>   0.0800 
 32 H        3.8780     2.1790     0.3740 H     1 <1>   0.0800 
 33 H        1.2700     1.7880    -2.3000 H     1 <1>   0.0800 
 34 H        0.8920     0.1440    -1.8160 H     1 <1>   0.0800 
 35 H        2.4310     0.5020    -2.5650 H     1 <1>   0.0800 
 36 H       -2.8820    -3.1310     1.5230 H     1 <1>   0.0800 
 37 H       -2.3340    -3.0880    -0.1490 H     1 <1>   0.0800 
 38 H        0.0570    -5.8760     0.6920 H     1 <1>   0.0800 
 39 H       -1.0430    -5.9800     2.0570 H     1 <1>   0.0800 
 40 H       -3.8430    -4.8960    -0.3750 H     1 <1>   0.0800 
 41 H       -1.7200    -5.8480    -0.8680 H     1 <1>   0.0800 
 42 H       -3.3420    -7.6690    -0.2430 H     1 <1>   0.0800 
 43 H       -2.6680    -7.6730     1.3570 H     1 <1>   0.0800 
 44 H       -5.5390    -5.2660     2.6480 H     1 <1>   0.0800 
 45 H       -5.7320    -5.2480     0.9010 H     1 <1>   0.0800 
 46 H       -5.1040    -3.8230     1.7430 H     1 <1>   0.0800 
 47 H        0.3210    -7.4080    -1.0810 H     1 <1>   0.1500 
 48 H        2.4030    -9.4310    -1.0460 H     1 <1>   0.0800 
 49 H        1.5800    -9.7790    -2.5540 H     1 <1>   0.0800 
 50 H        1.7840   -11.0370    -1.3560 H     1 <1>   0.0800 
@<TRIPOS>BOND
  1   1   2  1   
  2   1   3  1   
  3   2   4  2   
  4   2   5  1   
  5   3   6  2   
  6   3  26  1   
  7   4   6  1   
  8   5   7  1   
  9   5  27  1   
 10   5  28  1   
 11   6   8  1   
 12   7   9  1   
 13   7  10  1   
 14   7  29  1   
 15   8  11  2   
 16   8  12  am  
 17   9  30  1   
 18   9  31  1   
 19   9  32  1   
 20  10  33  1   
 21  10  34  1   
 22  10  35  1   
 23  12  13  1   
 24  12  14  1   
 25  13  15  1   
 26  13  36  1   
 27  13  37  1   
 28  14  16  1   
 29  14  38  1   
 30  14  39  1   
 31  15  16  1   
 32  15  17  1   
 33  15  40  1   
 34  16  18  1   
 35  16  41  1   
 36  17  19  1   
 37  18  20  1   
 38  18  42  1   
 39  18  43  1   
 40  19  44  1   
 41  19  45  1   
 42  19  46  1   
 43  20  21  1   
 44  20  22  2   
 45  21  23  1   
 46  22  24  1   
 47  22  47  1   
 48  23  24  2   
 49  24  25  1   
 50  25  48  1   
 51  25  49  1   
 52  25  50  1   
@<TRIPOS>SUBSTRUCTURE
  1 ****  12 GROUP 4 **** **** 0

# MOE 2024.06 (io_trps.svl 2023.06)
