@<TRIPOS>MOLECULE
NONAME
54 56 1 0 0 
SMALL
USER_CHARGES


@<TRIPOS>ATOM
  1 O        0.5550     0.6980    -1.6420 O.2   1 <1>  -0.5700 
  2 C        1.1560    -0.1460    -1.0220 C.2   1 <1>   0.5690 
  3 N        2.3000     0.1950    -0.3260 N.am  1 <1>  -0.6600 
  4 C        0.5850    -1.5580    -1.0860 C.3   1 <1>   0.1570 
  5 C        3.2830    -0.7590     0.2910 C.3   1 <1>   0.1400 
  6 C        2.4980     1.6200     0.0680 C.3   1 <1>   0.1400 
  7 N        0.4970    -2.1860     0.2500 N.pl3 1 <1>   0.0480 
  8 C        4.7120    -0.6520    -0.2910 C.3   1 <1>   0.3430 
  9 C        3.3950     2.3430    -0.9370 C.3   1 <1>  -0.1600 
 10 C        0.9080    -3.4250     0.6230 C.2   1 <1>   0.0060 
 11 C        0.0940    -1.6020     1.3950 C.2   1 <1>  -0.3020 
 12 N        5.2320     0.7490    -0.4370 N.4   1 <1>  -0.9590 
 13 C        4.5180     1.4890    -1.5190 C.3   1 <1>   0.3430 
 14 N        0.8230    -3.6360     1.8940 N.2   1 <1>  -0.5650 
 15 C        1.4210    -4.4800    -0.3380 C.3   1 <1>  -0.0600 
 16 C        0.2990    -2.4980     2.3820 C.2   1 <1>   0.0770 
 17 C        6.6910     0.7830    -0.6630 C.3   1 <1>   0.5230 
 18 C        7.1360     2.1550    -0.2230 C.2   1 <1>  -0.3320 
 19 N        7.4690     2.4800     1.0610 N.pl3 1 <1>   0.0480 
 20 C        7.2770     3.2550    -1.0070 C.2   1 <1>  -0.1500 
 21 C        7.8000     3.7890     1.0640 C.2   1 <1>  -0.3020 
 22 C        7.5320     1.5980     2.2440 C.3   1 <1>   0.0160 
 23 C        7.6950     4.3250    -0.1960 C.2   1 <1>  -0.0860 
 24 C        7.9380     5.6620    -0.6700 C.2   1 <1>   0.5950 
 25 O        7.7280     6.0040    -1.8060 O.2   1 <1>  -0.5700 
 26 C        8.4730     6.6980     0.2940 C.3   1 <1>  -0.1790 
 27 H        1.1980    -2.1540    -1.7310 H     1 <1>   0.0800 
 28 H       -0.4050    -1.5150    -1.5020 H     1 <1>   0.0800 
 29 H        2.9660    -1.7740     0.1540 H     1 <1>   0.0800 
 30 H        3.3150    -0.5890     1.3540 H     1 <1>   0.0800 
 31 H        2.9320     1.6630     1.0520 H     1 <1>   0.0800 
 32 H        1.5460     2.1240     0.1240 H     1 <1>   0.0800 
 33 H        4.7200    -1.1320    -1.2560 H     1 <1>   0.0800 
 34 H        5.3710    -1.2150     0.3490 H     1 <1>   0.0800 
 35 H        3.8080     3.2240    -0.4790 H     1 <1>   0.0800 
 36 H        2.7800     2.6810    -1.7530 H     1 <1>   0.0800 
 37 H       -0.3080    -0.6060     1.4480 H     1 <1>   0.1500 
 38 H        5.0830     1.2840     0.4250 H     1 <1>   0.4500 
 39 H        5.1990     2.1350    -2.0500 H     1 <1>   0.0800 
 40 H        4.1030     0.7900    -2.2270 H     1 <1>   0.0800 
 41 H        0.6800    -4.6860    -1.0890 H     1 <1>   0.0800 
 42 H        1.6170    -5.3920     0.2000 H     1 <1>   0.0800 
 43 H        2.3310    -4.1580    -0.8070 H     1 <1>   0.0800 
 44 H        0.0900    -2.3860     3.4340 H     1 <1>   0.1500 
 45 H        6.9170     0.6270    -1.7060 H     1 <1>   0.0800 
 46 H        7.1940     0.0310    -0.0770 H     1 <1>   0.0800 
 47 H        7.1170     3.3620    -2.0690 H     1 <1>   0.1500 
 48 H        8.1070     4.3010     1.9600 H     1 <1>   0.1500 
 49 H        6.5510     1.2260     2.4750 H     1 <1>   0.0800 
 50 H        7.9030     2.1550     3.0860 H     1 <1>   0.0800 
 51 H        8.2000     0.7800     2.0480 H     1 <1>   0.0800 
 52 H        9.3830     6.3440     0.7400 H     1 <1>   0.0800 
 53 H        7.7460     6.8880     1.0610 H     1 <1>   0.0800 
 54 H        8.6760     7.6140    -0.2300 H     1 <1>   0.0800 
@<TRIPOS>BOND
  1   1   2  2   
  2   2   3  am  
  3   2   4  1   
  4   3   5  1   
  5   3   6  1   
  6   4   7  1   
  7   4  27  1   
  8   4  28  1   
  9   5   8  1   
 10   5  29  1   
 11   5  30  1   
 12   6   9  1   
 13   6  31  1   
 14   6  32  1   
 15   7  10  1   
 16   7  11  1   
 17   8  12  1   
 18   8  33  1   
 19   8  34  1   
 20   9  13  1   
 21   9  35  1   
 22   9  36  1   
 23  10  14  2   
 24  10  15  1   
 25  11  16  2   
 26  11  37  1   
 27  12  13  1   
 28  12  17  1   
 29  12  38  1   
 30  13  39  1   
 31  13  40  1   
 32  14  16  1   
 33  15  41  1   
 34  15  42  1   
 35  15  43  1   
 36  16  44  1   
 37  17  18  1   
 38  17  45  1   
 39  17  46  1   
 40  18  19  1   
 41  18  20  2   
 42  19  21  1   
 43  19  22  1   
 44  20  23  1   
 45  20  47  1   
 46  21  23  2   
 47  21  48  1   
 48  22  49  1   
 49  22  50  1   
 50  22  51  1   
 51  23  24  1   
 52  24  25  2   
 53  24  26  1   
 54  26  52  1   
 55  26  53  1   
 56  26  54  1   
@<TRIPOS>SUBSTRUCTURE
  1 ****  12 GROUP 4 **** **** 0

# MOE 2024.06 (io_trps.svl 2023.06)
