@<TRIPOS>MOLECULE
NONAME
49 53 1 0 0 
SMALL
USER_CHARGES


@<TRIPOS>ATOM
  1 F       -2.5010     0.8760    -0.3510 F     1 <1>  -0.1900 
  2 C       -3.0400    -0.2950    -0.1490 C.ar  1 <1>   0.1900 
  3 C       -4.3980    -0.4090    -0.0840 C.ar  1 <1>  -0.1500 
  4 C       -2.1910    -1.3910    -0.0070 C.ar  1 <1>  -0.1500 
  5 C       -4.9860    -1.6640     0.1310 C.ar  1 <1>   0.3100 
  6 C       -2.7460    -2.6250     0.2070 C.ar  1 <1>  -0.1500 
  7 N       -6.3350    -1.7180     0.1780 N.ar  1 <1>  -0.6200 
  8 C       -4.1480    -2.7970     0.2840 C.ar  1 <1>   0.0000 
  9 C       -6.8940    -2.8810     0.3700 C.ar  1 <1>   0.4100 
 10 C       -4.7780    -4.0410     0.5120 C.ar  1 <1>  -0.1440 
 11 N       -8.2770    -2.9320     0.3950 N.pl3 1 <1>  -0.8380 
 12 C       -6.1380    -4.0570     0.5560 C.ar  1 <1>  -0.1500 
 13 C       -3.9760    -5.3190     0.7130 C.3   1 <1>  -0.0970 
 14 C       -9.0920    -1.7610     0.8590 C.3   1 <1>   0.2090 
 15 C       -9.0650    -4.0600    -0.1740 C.3   1 <1>   0.2090 
 16 C      -10.0090    -1.2260    -0.2590 C.3   1 <1>   0.1430 
 17 C      -10.0010    -3.5540    -1.2800 C.3   1 <1>  -0.1600 
 18 C      -10.8300    -0.0850     0.3120 C.ar  1 <1>   0.1670 
 19 C      -10.8760    -2.3770    -0.8120 C.3   1 <1>  -0.1600 
 20 C       -9.2080    -0.5160    -1.3830 C.3   1 <1>  -0.1600 
 21 N      -11.8560    -0.2080     1.1210 N.ar  1 <1>  -0.6200 
 22 C      -10.3580     1.1250    -0.1070 C.ar  1 <1>  -0.1430 
 23 C       -9.1630     0.9760    -1.0150 C.3   1 <1>  -0.0170 
 24 C      -12.3890     0.9450     1.4930 C.ar  1 <1>   0.7200 
 25 C      -11.0010     2.2540     0.3390 C.ar  1 <1>   0.1600 
 26 N      -12.0350     2.1750     1.1460 N.ar  1 <1>  -0.6200 
 27 N      -13.4410     0.8580     2.3080 N.pl3 1 <1>  -0.9000 
 28 H       -5.0350     0.4460    -0.1960 H     1 <1>   0.1500 
 29 H       -1.1280    -1.2440    -0.0680 H     1 <1>   0.1500 
 30 H       -2.1030    -3.4790     0.3190 H     1 <1>   0.1500 
 31 H       -6.6700    -4.9660     0.7480 H     1 <1>   0.1500 
 32 H       -3.3290    -5.2180     1.5660 H     1 <1>   0.0800 
 33 H       -3.3820    -5.5230    -0.1590 H     1 <1>   0.0800 
 34 H       -4.6270    -6.1580     0.8810 H     1 <1>   0.0800 
 35 H       -8.4560    -0.9700     1.2160 H     1 <1>   0.0800 
 36 H       -9.7020    -2.0770     1.6870 H     1 <1>   0.0800 
 37 H       -9.6420    -4.5130     0.6140 H     1 <1>   0.0800 
 38 H       -8.4110    -4.8060    -0.5880 H     1 <1>   0.0800 
 39 H      -10.6310    -4.3630    -1.6030 H     1 <1>   0.0800 
 40 H       -9.4020    -3.2540    -2.1220 H     1 <1>   0.0800 
 41 H      -11.4900    -2.0240    -1.6210 H     1 <1>   0.0800 
 42 H      -11.5350    -2.7210    -0.0330 H     1 <1>   0.0800 
 43 H       -9.7360    -0.6130    -2.3140 H     1 <1>   0.0800 
 44 H       -8.2230    -0.9270    -1.5130 H     1 <1>   0.0800 
 45 H       -9.2340     1.6020    -1.8870 H     1 <1>   0.0800 
 46 H       -8.2610     1.2000    -0.4710 H     1 <1>   0.0800 
 47 H      -10.6640     3.2300     0.0330 H     1 <1>   0.1500 
 48 H      -14.0290     1.6840     2.3380 H     1 <1>   0.4000 
 49 H      -13.9080    -0.0440     2.3110 H     1 <1>   0.4000 
@<TRIPOS>BOND
  1   1   2  1   
  2   2   3  ar  
  3   2   4  ar  
  4   3   5  ar  
  5   3  28  1   
  6   4   6  ar  
  7   4  29  1   
  8   5   7  ar  
  9   5   8  ar  
 10   6   8  ar  
 11   6  30  1   
 12   7   9  ar  
 13   8  10  ar  
 14   9  11  1   
 15   9  12  ar  
 16  10  12  ar  
 17  10  13  1   
 18  11  14  1   
 19  11  15  1   
 20  12  31  1   
 21  13  32  1   
 22  13  33  1   
 23  13  34  1   
 24  14  16  1   
 25  14  35  1   
 26  14  36  1   
 27  15  17  1   
 28  15  37  1   
 29  15  38  1   
 30  16  18  1   
 31  16  19  1   
 32  16  20  1   
 33  17  19  1   
 34  17  39  1   
 35  17  40  1   
 36  18  21  ar  
 37  18  22  ar  
 38  19  41  1   
 39  19  42  1   
 40  20  23  1   
 41  20  43  1   
 42  20  44  1   
 43  21  24  ar  
 44  22  23  1   
 45  22  25  ar  
 46  23  45  1   
 47  23  46  1   
 48  24  26  ar  
 49  24  27  1   
 50  25  26  ar  
 51  25  47  1   
 52  27  48  1   
 53  27  49  1   
@<TRIPOS>SUBSTRUCTURE
  1 ****   7 GROUP 4 **** **** 0

# MOE 2024.06 (io_trps.svl 2023.06)
