@<TRIPOS>MOLECULE
NONAME
46 48 1 0 0 
SMALL
USER_CHARGES


@<TRIPOS>ATOM
  1 CL      -0.0780     1.7740     1.8390 Cl    1 <1>  -0.1770 
  2 C       -1.6550     2.2140     1.2370 C.ar  1 <1>   0.1770 
  3 C       -1.8220     2.4840    -0.1050 C.ar  1 <1>  -0.1500 
  4 C       -2.7190     2.2940     2.1110 C.ar  1 <1>  -0.1500 
  5 C       -3.0770     2.8290    -0.5750 C.ar  1 <1>  -0.1500 
  6 C       -3.9700     2.6420     1.6310 C.ar  1 <1>  -0.1500 
  7 C       -4.1820     2.9020     0.2760 C.ar  1 <1>  -0.1430 
  8 C       -5.5730     3.3210    -0.2990 C.3   1 <1>   0.2040 
  9 C       -5.5570     4.8390    -0.6130 C.2   1 <1>   0.5690 
 10 C       -5.8900     2.5330    -1.6020 C.3   1 <1>  -0.1600 
 11 C       -6.7520     3.0320     0.6750 C.3   1 <1>  -0.1600 
 12 O       -6.5120     5.3570    -1.1470 O.2   1 <1>  -0.5700 
 13 N       -4.4660     5.5850    -0.2960 N.am  1 <1>  -0.7300 
 14 C       -6.0600     1.0240    -1.3610 C.3   1 <1>  -0.1600 
 15 C       -6.9970     1.5310     0.9350 C.3   1 <1>  -0.1600 
 16 C       -4.2030     6.9610    -0.7870 C.3   1 <1>   0.2810 
 17 C       -7.2060     0.7650    -0.3760 C.3   1 <1>  -0.1600 
 18 C       -2.7010     7.2130    -1.0420 C.2   1 <1>   0.5690 
 19 C       -4.7850     7.9600     0.2240 C.3   1 <1>  -0.1600 
 20 O       -2.0010     6.3270    -1.4720 O.2   1 <1>  -0.5700 
 21 N       -2.1530     8.4260    -0.7710 N.am  1 <1>  -0.7300 
 22 C       -4.3470     9.3920    -0.1230 C.3   1 <1>  -0.1600 
 23 C       -2.8210     9.5510    -0.0790 C.3   1 <1>   0.1400 
 24 H       -0.9800     2.4320    -0.7710 H     1 <1>   0.1500 
 25 H       -2.5660     2.0870     3.1550 H     1 <1>   0.1500 
 26 H       -3.1670     3.0550    -1.6230 H     1 <1>   0.1500 
 27 H       -4.7660     2.7070     2.3480 H     1 <1>   0.1500 
 28 H       -5.1380     2.6980    -2.3490 H     1 <1>   0.0800 
 29 H       -6.8100     2.9090    -2.0180 H     1 <1>   0.0800 
 30 H       -7.6530     3.4360     0.2430 H     1 <1>   0.0800 
 31 H       -6.6090     3.5570     1.6020 H     1 <1>   0.0800 
 32 H       -3.6250     5.0920     0.0260 H     1 <1>   0.3700 
 33 H       -5.1460     0.6090    -0.9720 H     1 <1>   0.0800 
 34 H       -6.2740     0.5330    -2.2940 H     1 <1>   0.0800 
 35 H       -7.8670     1.4130     1.5580 H     1 <1>   0.0800 
 36 H       -6.1640     1.0980     1.4580 H     1 <1>   0.0800 
 37 H       -4.7070     7.0920    -1.7290 H     1 <1>   0.0800 
 38 H       -7.2760    -0.2900    -0.1720 H     1 <1>   0.0800 
 39 H       -8.1350     1.0750    -0.8240 H     1 <1>   0.0800 
 40 H       -4.4400     7.7130     1.2120 H     1 <1>   0.0800 
 41 H       -5.8590     7.8920     0.2070 H     1 <1>   0.0800 
 42 H       -1.1490     8.5130    -0.9440 H     1 <1>   0.3700 
 43 H       -4.7930    10.0850     0.5700 H     1 <1>   0.0800 
 44 H       -4.7000     9.6490    -1.1070 H     1 <1>   0.0800 
 45 H       -2.5380    10.4800    -0.5450 H     1 <1>   0.0800 
 46 H       -2.4890     9.5710     0.9460 H     1 <1>   0.0800 
@<TRIPOS>BOND
  1   1   2  1   
  2   2   3  ar  
  3   2   4  ar  
  4   3   5  ar  
  5   3  24  1   
  6   4   6  ar  
  7   4  25  1   
  8   5   7  ar  
  9   5  26  1   
 10   6   7  ar  
 11   6  27  1   
 12   7   8  1   
 13   8   9  1   
 14   8  10  1   
 15   8  11  1   
 16   9  12  2   
 17   9  13  am  
 18  10  14  1   
 19  10  28  1   
 20  10  29  1   
 21  11  15  1   
 22  11  30  1   
 23  11  31  1   
 24  13  16  1   
 25  13  32  1   
 26  14  17  1   
 27  14  33  1   
 28  14  34  1   
 29  15  17  1   
 30  15  35  1   
 31  15  36  1   
 32  16  18  1   
 33  16  19  1   
 34  16  37  1   
 35  17  38  1   
 36  17  39  1   
 37  18  20  2   
 38  18  21  am  
 39  19  22  1   
 40  19  40  1   
 41  19  41  1   
 42  21  23  1   
 43  21  42  1   
 44  22  23  1   
 45  22  43  1   
 46  22  44  1   
 47  23  45  1   
 48  23  46  1   
@<TRIPOS>SUBSTRUCTURE
  1 ****  13 GROUP 4 **** **** 0

# MOE 2024.06 (io_trps.svl 2023.06)
