@<TRIPOS>MOLECULE
NONAME
59 62 1 0 0 
SMALL
USER_CHARGES


@<TRIPOS>ATOM
  1 O        0.2010     0.5580    -0.6240 O.2   1 <1>  -0.5700 
  2 C       -0.4860     1.3910    -0.0740 C.2   1 <1>   0.5690 
  3 N       -1.8590     1.3280    -0.1520 N.am  1 <1>  -0.6600 
  4 C        0.1840     2.5500     0.7050 C.3   1 <1>   0.1710 
  5 C       -2.8070     2.3550     0.3920 C.3   1 <1>   0.1400 
  6 C       -2.5480     0.1870    -0.8240 C.3   1 <1>   0.1400 
  7 N        1.6510     2.5190     0.9790 N.3   1 <1>  -0.8100 
  8 C       -3.7070     2.9230    -0.7210 C.3   1 <1>   0.1430 
  9 C       -3.4540     0.7050    -1.9480 C.3   1 <1>  -0.1600 
 10 C        2.4540     2.5440    -0.2580 C.3   1 <1>   0.2530 
 11 C        2.0190     1.3830     1.8390 C.3   1 <1>   0.0300 
 12 C       -4.6660     3.9140    -0.0920 C.ar  1 <1>   0.1670 
 13 C       -4.4420     1.7690    -1.4370 C.3   1 <1>  -0.1600 
 14 C       -2.9100     3.8090    -1.7180 C.3   1 <1>  -0.1600 
 15 C        3.9110     2.8680     0.0440 C.ar  1 <1>  -0.1440 
 16 N       -5.6670     3.6020     0.6920 N.ar  1 <1>  -0.6200 
 17 C       -4.3520     5.1980    -0.4180 C.ar  1 <1>  -0.1440 
 18 C       -3.1370     5.2750    -1.3080 C.3   1 <1>  -0.0170 
 19 C        4.9470     2.1020    -0.4530 C.ar  1 <1>  -0.1500 
 20 C        4.2750     3.9430     0.8290 C.ar  1 <1>  -0.1500 
 21 C       -6.3800     4.6340     1.1490 C.ar  1 <1>   0.7200 
 22 C       -5.1410     6.1960     0.0940 C.ar  1 <1>   0.1600 
 23 C        6.2560     2.4430    -0.1540 C.ar  1 <1>   0.1600 
 24 C        5.6150     4.1970     1.0690 C.ar  1 <1>   0.1600 
 25 N       -6.1590     5.9250     0.8760 N.ar  1 <1>  -0.6200 
 26 N       -7.4460     4.3390     1.9790 N.pl3 1 <1>  -0.8380 
 27 N        6.6170     3.4740     0.5940 N.ar  1 <1>  -0.6200 
 28 C       -8.3630     5.4040     2.4760 C.3   1 <1>   0.1290 
 29 C       -7.9360     2.9420     2.1450 C.3   1 <1>   0.1290 
 30 H       -0.3110     2.6210     1.6560 H     1 <1>   0.0800 
 31 H       -0.0310     3.4570     0.1720 H     1 <1>   0.0800 
 32 H       -2.2860     3.1650     0.8680 H     1 <1>   0.0800 
 33 H       -3.4280     1.8880     1.1390 H     1 <1>   0.0800 
 34 H       -3.1390    -0.3400    -0.0950 H     1 <1>   0.0800 
 35 H       -1.8340    -0.5090    -1.2320 H     1 <1>   0.0800 
 36 H       -4.0020    -0.1210    -2.3660 H     1 <1>   0.0800 
 37 H       -2.8380     1.1120    -2.7300 H     1 <1>   0.0800 
 38 H        2.0700     3.2990    -0.9200 H     1 <1>   0.0800 
 39 H        2.3920     1.5950    -0.7610 H     1 <1>   0.0800 
 40 H        1.4260     1.3930     2.7370 H     1 <1>   0.0800 
 41 H        3.0550     1.4530     2.1200 H     1 <1>   0.0800 
 42 H        1.8620     0.4490     1.3250 H     1 <1>   0.0800 
 43 H       -5.0320     2.1520    -2.2510 H     1 <1>   0.0800 
 44 H       -5.1200     1.3050    -0.7420 H     1 <1>   0.0800 
 45 H       -3.3080     3.6800    -2.7100 H     1 <1>   0.0800 
 46 H       -1.8640     3.5620    -1.7470 H     1 <1>   0.0800 
 47 H       -3.3120     5.9030    -2.1640 H     1 <1>   0.0800 
 48 H       -2.2990     5.6490    -0.7450 H     1 <1>   0.0800 
 49 H        4.7470     1.2450    -1.0700 H     1 <1>   0.1500 
 50 H        3.5190     4.5760     1.2570 H     1 <1>   0.1500 
 51 H       -4.9360     7.2270    -0.1380 H     1 <1>   0.1500 
 52 H        7.0490     1.8340    -0.5520 H     1 <1>   0.1500 
 53 H        5.8740     5.0400     1.6850 H     1 <1>   0.1500 
 54 H       -7.8020     6.2790     2.7590 H     1 <1>   0.0800 
 55 H       -8.9050     5.0610     3.3380 H     1 <1>   0.0800 
 56 H       -9.0580     5.6710     1.7000 H     1 <1>   0.0800 
 57 H       -7.1080     2.2760     2.3150 H     1 <1>   0.0800 
 58 H       -8.4550     2.6350     1.2540 H     1 <1>   0.0800 
 59 H       -8.6030     2.8720     2.9860 H     1 <1>   0.0800 
@<TRIPOS>BOND
  1   1   2  2   
  2   2   3  am  
  3   2   4  1   
  4   3   5  1   
  5   3   6  1   
  6   4   7  1   
  7   4  30  1   
  8   4  31  1   
  9   5   8  1   
 10   5  32  1   
 11   5  33  1   
 12   6   9  1   
 13   6  34  1   
 14   6  35  1   
 15   7  10  1   
 16   7  11  1   
 17   8  12  1   
 18   8  13  1   
 19   8  14  1   
 20   9  13  1   
 21   9  36  1   
 22   9  37  1   
 23  10  15  1   
 24  10  38  1   
 25  10  39  1   
 26  11  40  1   
 27  11  41  1   
 28  11  42  1   
 29  12  16  ar  
 30  12  17  ar  
 31  13  43  1   
 32  13  44  1   
 33  14  18  1   
 34  14  45  1   
 35  14  46  1   
 36  15  19  ar  
 37  15  20  ar  
 38  16  21  ar  
 39  17  18  1   
 40  17  22  ar  
 41  18  47  1   
 42  18  48  1   
 43  19  23  ar  
 44  19  49  1   
 45  20  24  ar  
 46  20  50  1   
 47  21  25  ar  
 48  21  26  1   
 49  22  25  ar  
 50  22  51  1   
 51  23  27  ar  
 52  23  52  1   
 53  24  27  ar  
 54  24  53  1   
 55  26  28  1   
 56  26  29  1   
 57  28  54  1   
 58  28  55  1   
 59  28  56  1   
 60  29  57  1   
 61  29  58  1   
 62  29  59  1   
@<TRIPOS>SUBSTRUCTURE
  1 ****   5 GROUP 4 **** **** 0

# MOE 2024.06 (io_trps.svl 2023.06)
