@<TRIPOS>MOLECULE
NONAME
38 38 1 0 0 
SMALL
USER_CHARGES


@<TRIPOS>ATOM
  1 S        0.1460     0.1520    -0.3810 S.o2  1 <1>   1.0900 
  2 O        1.3040    -0.5970     0.0480 O.2   1 <1>  -0.6500 
  3 O       -0.0060     0.5050    -1.7730 O.2   1 <1>  -0.6500 
  4 C        0.0500     1.6500     0.6280 C.3   1 <1>   0.0250 
  5 C       -1.2880    -0.8000     0.0890 C.3   1 <1>  -0.1350 
  6 C       -1.2240     2.4850     0.3720 C.3   1 <1>  -0.1600 
  7 C        1.2920     2.5410     0.4260 C.3   1 <1>  -0.1600 
  8 C       -1.2620     3.7490     1.2350 C.3   1 <1>   0.1400 
  9 C        1.2440     3.8040     1.2870 C.3   1 <1>   0.1400 
 10 N       -0.0220     4.5330     1.0170 N.am  1 <1>  -0.6600 
 11 C       -0.0630     5.8340     0.5780 C.2   1 <1>   0.7800 
 12 O       -1.1130     6.4110     0.3740 O.2   1 <1>  -0.5700 
 13 O        1.1060     6.4500     0.3800 O.3   1 <1>  -0.4300 
 14 C        1.3160     7.7670    -0.0800 C.3   1 <1>   0.2800 
 15 C        0.7260     8.7770     0.9110 C.3   1 <1>  -0.2400 
 16 C        2.8350     7.9340    -0.1260 C.3   1 <1>  -0.2400 
 17 C        0.7470     7.9320    -1.4940 C.3   1 <1>  -0.2400 
 18 H        0.0410     1.3530     1.6600 H     1 <1>   0.0800 
 19 H       -1.2750    -1.7450    -0.4200 H     1 <1>   0.0800 
 20 H       -2.1910    -0.2890    -0.1820 H     1 <1>   0.0800 
 21 H       -1.2900    -0.9860     1.1450 H     1 <1>   0.0800 
 22 H       -2.1020     1.9040     0.5860 H     1 <1>   0.0800 
 23 H       -1.2670     2.7740    -0.6650 H     1 <1>   0.0800 
 24 H        1.3690     2.8270    -0.6100 H     1 <1>   0.0800 
 25 H        2.1790     1.9830     0.6730 H     1 <1>   0.0800 
 26 H       -1.3310     3.4880     2.2780 H     1 <1>   0.0800 
 27 H       -2.1320     4.3320     0.9820 H     1 <1>   0.0800 
 28 H        2.1020     4.4180     1.0700 H     1 <1>   0.0800 
 29 H        1.2810     3.5420     2.3310 H     1 <1>   0.0800 
 30 H        1.0920     8.5850     1.9040 H     1 <1>   0.0800 
 31 H       -0.3470     8.7350     0.9160 H     1 <1>   0.0800 
 32 H        1.0090     9.7740     0.6300 H     1 <1>   0.0800 
 33 H        3.2550     7.7960     0.8540 H     1 <1>   0.0800 
 34 H        3.0930     8.9200    -0.4700 H     1 <1>   0.0800 
 35 H        3.2690     7.2160    -0.7980 H     1 <1>   0.0800 
 36 H       -0.3260     7.8910    -1.4890 H     1 <1>   0.0800 
 37 H        1.1270     7.1630    -2.1420 H     1 <1>   0.0800 
 38 H        1.0320     8.8880    -1.8950 H     1 <1>   0.0800 
@<TRIPOS>BOND
  1   1   2  2   
  2   1   3  2   
  3   1   4  1   
  4   1   5  1   
  5   4   6  1   
  6   4   7  1   
  7   4  18  1   
  8   5  19  1   
  9   5  20  1   
 10   5  21  1   
 11   6   8  1   
 12   6  22  1   
 13   6  23  1   
 14   7   9  1   
 15   7  24  1   
 16   7  25  1   
 17   8  10  1   
 18   8  26  1   
 19   8  27  1   
 20   9  10  1   
 21   9  28  1   
 22   9  29  1   
 23  10  11  am  
 24  11  12  2   
 25  11  13  1   
 26  13  14  1   
 27  14  15  1   
 28  14  16  1   
 29  14  17  1   
 30  15  30  1   
 31  15  31  1   
 32  15  32  1   
 33  16  33  1   
 34  16  34  1   
 35  16  35  1   
 36  17  36  1   
 37  17  37  1   
 38  17  38  1   
@<TRIPOS>SUBSTRUCTURE
  1 ****  10 GROUP 4 **** **** 0

# MOE 2024.06 (io_trps.svl 2023.06)
