@<TRIPOS>MOLECULE
NONAME
53 55 1 0 0 
SMALL
USER_CHARGES


@<TRIPOS>ATOM
  1 O       -1.1830     0.2860    -1.5840 O.2   1 <1>  -0.5700 
  2 C       -1.4540     0.6390    -0.4630 C.2   1 <1>   0.5690 
  3 N       -1.7950    -0.2410     0.5060 N.am  1 <1>  -0.7300 
  4 C       -1.4090     2.1080    -0.1350 C.3   1 <1>  -0.0990 
  5 C       -1.8590    -1.7110     0.3340 C.3   1 <1>   0.2200 
  6 C        0.0350     2.6070    -0.2020 C.3   1 <1>   0.0960 
  7 C       -3.3000    -2.1970     0.2490 C.3   1 <1>  -0.0800 
  8 C       -1.4170    -2.3760     1.6300 C.3   1 <1>   0.1200 
  9 N        0.0900     4.0410     0.1330 N.pl3 1 <1>   0.3140 
 10 C       -3.7070    -2.3330     1.7210 C.3   1 <1>   0.1200 
 11 C       -4.2550    -1.3320    -0.5960 C.3   1 <1>  -0.0170 
 12 O       -2.5270    -2.2980     2.4720 O.3   1 <1>  -0.5600 
 13 N        0.0380     4.4260     1.4140 N.2   1 <1>  -0.7070 
 14 C        0.1500     5.0990    -0.6980 C.2   1 <1>  -0.3320 
 15 C       -5.6370    -1.9620    -0.6690 C.ar  1 <1>  -0.1440 
 16 C        0.0770     5.7150     1.3800 C.2   1 <1>   0.1080 
 17 C        0.1640     6.2300     0.0770 C.2   1 <1>  -0.0860 
 18 C        0.1630     4.9520    -2.2160 C.3   1 <1>  -0.0600 
 19 C       -6.6760    -1.5450     0.1380 C.ar  1 <1>  -0.1500 
 20 C       -5.9210    -2.9870    -1.5480 C.ar  1 <1>  -0.1500 
 21 C        0.0390     6.5310     2.6550 C.3   1 <1>  -0.0590 
 22 C        0.2540     7.6320    -0.2500 C.2   1 <1>   0.5950 
 23 C       -7.9130    -2.1600     0.0330 C.ar  1 <1>   0.1600 
 24 C       -7.1930    -3.5340    -1.5730 C.ar  1 <1>   0.1600 
 25 O       -0.2040     8.5130     0.4330 O.2   1 <1>  -0.5700 
 26 C        0.9860     8.0690    -1.5000 C.3   1 <1>  -0.1790 
 27 N       -8.1960    -3.1470    -0.8020 N.ar  1 <1>  -0.6200 
 28 H       -2.0340     0.0750     1.4500 H     1 <1>   0.3700 
 29 H       -2.0130     2.6370    -0.8490 H     1 <1>   0.0800 
 30 H       -1.8060     2.2770     0.8500 H     1 <1>   0.0800 
 31 H       -1.2650    -2.0220    -0.5100 H     1 <1>   0.0800 
 32 H        0.4430     2.4520    -1.1840 H     1 <1>   0.0800 
 33 H        0.6420     2.0750     0.5070 H     1 <1>   0.0800 
 34 H       -3.2870    -3.1870    -0.1710 H     1 <1>   0.0800 
 35 H       -0.5760    -1.8860     2.0870 H     1 <1>   0.0800 
 36 H       -1.1960    -3.4170     1.4700 H     1 <1>   0.0800 
 37 H       -4.2150    -3.2630     1.9090 H     1 <1>   0.0800 
 38 H       -4.3210    -1.5110     2.0440 H     1 <1>   0.0800 
 39 H       -3.8560    -1.2290    -1.5910 H     1 <1>   0.0800 
 40 H       -4.3380    -0.3440    -0.1790 H     1 <1>   0.0800 
 41 H       -0.0820     5.8780    -2.7010 H     1 <1>   0.0800 
 42 H       -0.5680     4.2260    -2.5280 H     1 <1>   0.0800 
 43 H        1.1340     4.6310    -2.5500 H     1 <1>   0.0800 
 44 H       -6.5390    -0.7480     0.8460 H     1 <1>   0.1500 
 45 H       -5.1670    -3.3650    -2.2130 H     1 <1>   0.1500 
 46 H        0.8740     7.2050     2.6860 H     1 <1>   0.0800 
 47 H        0.0830     5.8820     3.5100 H     1 <1>   0.0800 
 48 H       -0.8730     7.0980     2.6950 H     1 <1>   0.0800 
 49 H       -8.7120    -1.8220     0.6700 H     1 <1>   0.1500 
 50 H       -7.3960    -4.3330    -2.2660 H     1 <1>   0.1500 
 51 H        1.7210     7.3380    -1.7790 H     1 <1>   0.0800 
 52 H        1.4860     9.0020    -1.3120 H     1 <1>   0.0800 
 53 H        0.2830     8.2080    -2.2980 H     1 <1>   0.0800 
@<TRIPOS>BOND
  1   1   2  2   
  2   2   3  am  
  3   2   4  1   
  4   3   5  1   
  5   3  28  1   
  6   4   6  1   
  7   4  29  1   
  8   4  30  1   
  9   5   7  1   
 10   5   8  1   
 11   5  31  1   
 12   6   9  1   
 13   6  32  1   
 14   6  33  1   
 15   7  10  1   
 16   7  11  1   
 17   7  34  1   
 18   8  12  1   
 19   8  35  1   
 20   8  36  1   
 21   9  13  1   
 22   9  14  1   
 23  10  12  1   
 24  10  37  1   
 25  10  38  1   
 26  11  15  1   
 27  11  39  1   
 28  11  40  1   
 29  13  16  2   
 30  14  17  2   
 31  14  18  1   
 32  15  19  ar  
 33  15  20  ar  
 34  16  17  1   
 35  16  21  1   
 36  17  22  1   
 37  18  41  1   
 38  18  42  1   
 39  18  43  1   
 40  19  23  ar  
 41  19  44  1   
 42  20  24  ar  
 43  20  45  1   
 44  21  46  1   
 45  21  47  1   
 46  21  48  1   
 47  22  25  2   
 48  22  26  1   
 49  23  27  ar  
 50  23  49  1   
 51  24  27  ar  
 52  24  50  1   
 53  26  51  1   
 54  26  52  1   
 55  26  53  1   
@<TRIPOS>SUBSTRUCTURE
  1 ****   4 GROUP 4 **** **** 0

# MOE 2024.06 (io_trps.svl 2023.06)
