@<TRIPOS>MOLECULE
NONAME
52 55 1 0 0 
SMALL
USER_CHARGES


@<TRIPOS>ATOM
  1 O       -1.4030     1.2380    -1.5780 O.2   1 <1>  -0.5700 
  2 C       -2.3030     0.4530    -1.3710 C.2   1 <1>   0.6900 
  3 N       -3.6360     0.7800    -1.5730 N.am  1 <1>  -0.4690 
  4 N       -2.0010    -0.7910    -0.9160 N.am  1 <1>  -0.4900 
  5 C       -4.6360    -0.1540    -1.3150 C.2   1 <1>  -0.0410 
  6 C       -4.0170     2.1380    -2.0850 C.3   1 <1>   0.2010 
  7 C       -2.9440    -1.7320    -0.6450 C.2   1 <1>   0.6160 
  8 C       -4.3070    -1.3840    -0.8600 C.2   1 <1>  -0.1360 
  9 C       -5.0150     2.8600    -1.1770 C.2   1 <1>   0.5690 
 10 O       -2.5890    -2.8170    -0.2350 O.2   1 <1>  -0.5700 
 11 O       -6.1740     2.7730    -1.5150 O.2   1 <1>  -0.5700 
 12 N       -4.6060     3.5630    -0.0600 N.am  1 <1>  -0.6600 
 13 C       -5.4740     4.4220     0.8280 C.3   1 <1>   0.2200 
 14 C       -3.2000     3.5280     0.4570 C.3   1 <1>   0.1400 
 15 C       -4.9820     5.9040     0.8700 C.3   1 <1>   0.1380 
 16 C       -7.0020     4.3340     0.6900 C.3   1 <1>  -0.1600 
 17 C       -2.6390     4.9460     0.6340 C.3   1 <1>  -0.1600 
 18 C       -4.9240     6.6450    -0.4970 C.2   1 <1>  -0.2760 
 19 C       -5.9400     6.7130     1.7870 C.3   1 <1>   0.1200 
 20 C       -3.5640     5.8360     1.4860 C.3   1 <1>  -0.1600 
 21 C       -7.6950     5.1520     1.7940 C.3   1 <1>   0.1200 
 22 C       -5.3950     6.2050    -1.6720 C.2   1 <1>  -0.2880 
 23 C       -4.2620     8.0280    -0.4830 C.3   1 <1>  -0.0220 
 24 O       -6.7670     5.8790     2.5490 O.3   1 <1>  -0.5600 
 25 C       -5.2910     6.9640    -2.9880 C.3   1 <1>   0.2580 
 26 C       -4.6140     8.8320    -1.7420 C.3   1 <1>   0.1200 
 27 O       -4.4080     8.0410    -2.8700 O.3   1 <1>  -0.5600 
 28 H       -1.0270    -1.0290    -0.7760 H     1 <1>   0.3700 
 29 H       -5.6590     0.1450    -1.4900 H     1 <1>   0.1500 
 30 H       -3.1520     2.7590    -2.2240 H     1 <1>   0.0800 
 31 H       -4.4720     2.0150    -3.0510 H     1 <1>   0.0800 
 32 H       -5.0360    -2.1410    -0.6430 H     1 <1>   0.1500 
 33 H       -5.3040     4.0330     1.8180 H     1 <1>   0.0800 
 34 H       -3.1990     3.0240     1.4090 H     1 <1>   0.0800 
 35 H       -2.5460     2.9820    -0.1930 H     1 <1>   0.0800 
 36 H       -7.3170     3.3100     0.7690 H     1 <1>   0.0800 
 37 H       -7.3280     4.7090    -0.2600 H     1 <1>   0.0800 
 38 H       -1.6720     4.8830     1.1010 H     1 <1>   0.0800 
 39 H       -2.4980     5.3850    -0.3380 H     1 <1>   0.0800 
 40 H       -6.5790     7.3480     1.1970 H     1 <1>   0.0800 
 41 H       -5.3850     7.3330     2.4670 H     1 <1>   0.0800 
 42 H       -3.1340     6.8150     1.5900 H     1 <1>   0.0800 
 43 H       -3.6280     5.4220     2.4780 H     1 <1>   0.0800 
 44 H       -8.2130     4.4970     2.4730 H     1 <1>   0.0800 
 45 H       -8.4060     5.8410     1.3720 H     1 <1>   0.0800 
 46 H       -5.8980     5.2700    -1.8120 H     1 <1>   0.1500 
 47 H       -3.1930     7.9190    -0.4410 H     1 <1>   0.0800 
 48 H       -4.5730     8.5980     0.3720 H     1 <1>   0.0800 
 49 H       -6.2530     7.3410    -3.2880 H     1 <1>   0.0800 
 50 H       -4.9080     6.3210    -3.7610 H     1 <1>   0.0800 
 51 H       -3.9840     9.6990    -1.8250 H     1 <1>   0.0800 
 52 H       -5.6450     9.1430    -1.7250 H     1 <1>   0.0800 
@<TRIPOS>BOND
  1   1   2  2   
  2   2   3  am  
  3   2   4  am  
  4   3   5  1   
  5   3   6  1   
  6   4   7  am  
  7   4  28  1   
  8   5   8  2   
  9   5  29  1   
 10   6   9  1   
 11   6  30  1   
 12   6  31  1   
 13   7   8  1   
 14   7  10  2   
 15   8  32  1   
 16   9  11  2   
 17   9  12  am  
 18  12  13  1   
 19  12  14  1   
 20  13  15  1   
 21  13  16  1   
 22  13  33  1   
 23  14  17  1   
 24  14  34  1   
 25  14  35  1   
 26  15  18  1   
 27  15  19  1   
 28  15  20  1   
 29  16  21  1   
 30  16  36  1   
 31  16  37  1   
 32  17  20  1   
 33  17  38  1   
 34  17  39  1   
 35  18  22  2   
 36  18  23  1   
 37  19  24  1   
 38  19  40  1   
 39  19  41  1   
 40  20  42  1   
 41  20  43  1   
 42  21  24  1   
 43  21  44  1   
 44  21  45  1   
 45  22  25  1   
 46  22  46  1   
 47  23  26  1   
 48  23  47  1   
 49  23  48  1   
 50  25  27  1   
 51  25  49  1   
 52  25  50  1   
 53  26  27  1   
 54  26  51  1   
 55  26  52  1   
@<TRIPOS>SUBSTRUCTURE
  1 ****  12 GROUP 4 **** **** 0

# MOE 2024.06 (io_trps.svl 2023.06)
