@<TRIPOS>MOLECULE
NONAME
51 54 1 0 0 
SMALL
USER_CHARGES


@<TRIPOS>ATOM
  1 O       -1.1450     0.8670     2.3740 O.3   1 <1>  -0.5600 
  2 C       -0.1720     0.9800     1.3780 C.3   1 <1>   0.1200 
  3 C       -2.3780     1.3510     1.9260 C.3   1 <1>   0.1200 
  4 C       -0.6780     2.0510     0.4170 C.3   1 <1>   0.2890 
  5 C       -2.1800     1.8300     0.4820 C.3   1 <1>  -0.0800 
  6 N       -0.3630     3.3910     0.9760 N.pl3 1 <1>  -0.8690 
  7 C       -2.6460     0.7810    -0.5500 C.3   1 <1>  -0.0170 
  8 C        0.1870     4.4450     0.3600 C.ar  1 <1>   0.4100 
  9 C       -4.1550     0.5540    -0.4910 C.ar  1 <1>  -0.1430 
 10 N        0.4740     4.3070    -0.9390 N.ar  1 <1>  -0.6200 
 11 C        0.4590     5.6430     1.0500 C.ar  1 <1>  -0.1430 
 12 C       -5.0870     1.4770    -1.0220 C.ar  1 <1>   0.0000 
 13 C       -4.6510    -0.5750     0.0930 C.ar  1 <1>  -0.1500 
 14 C        1.0310     5.3040    -1.5500 C.ar  1 <1>   0.5280 
 15 C        1.0620     6.6660     0.3610 C.ar  1 <1>   0.2180 
 16 C        0.0660     5.7480     2.5290 C.3   1 <1>  -0.0970 
 17 C       -6.4640     1.1730    -0.8870 C.ar  1 <1>   0.3100 
 18 C       -4.7370     2.6780    -1.6830 C.ar  1 <1>  -0.1500 
 19 C       -6.0330    -0.7840     0.1670 C.ar  1 <1>   0.1600 
 20 N        1.3330     6.4690    -0.9450 N.ar  1 <1>  -0.1790 
 21 C        1.3600     5.1510    -3.0210 C.3   1 <1>  -0.0970 
 22 C        1.4510     8.0120     0.9600 C.3   1 <1>  -0.0970 
 23 N       -6.9190     0.0420    -0.2920 N.ar  1 <1>  -0.6200 
 24 C       -7.4120     2.0760    -1.3930 C.ar  1 <1>  -0.1500 
 25 C       -5.6870     3.5360    -2.1670 C.ar  1 <1>  -0.1500 
 26 C       -7.0420     3.2350    -2.0190 C.ar  1 <1>  -0.1500 
 27 H        0.7740     1.2360     1.8220 H     1 <1>   0.0800 
 28 H       -0.0960     0.0280     0.8840 H     1 <1>   0.0800 
 29 H       -3.1120     0.5700     2.0180 H     1 <1>   0.0800 
 30 H       -2.6550     2.1710     2.5640 H     1 <1>   0.0800 
 31 H       -0.2700     1.9320    -0.5720 H     1 <1>   0.0800 
 32 H       -2.7120     2.7490     0.3150 H     1 <1>   0.0800 
 33 H       -0.5710     3.4270     1.9790 H     1 <1>   0.4000 
 34 H       -2.1420    -0.1520    -0.3700 H     1 <1>   0.0800 
 35 H       -2.3750     1.0940    -1.5430 H     1 <1>   0.0800 
 36 H       -4.0060    -1.3260     0.5120 H     1 <1>   0.1500 
 37 H        0.1230     6.7510     2.9070 H     1 <1>   0.0800 
 38 H        0.7100     5.1230     3.1240 H     1 <1>   0.0800 
 39 H       -0.9490     5.4180     2.6660 H     1 <1>   0.0800 
 40 H       -3.7010     2.9270    -1.8130 H     1 <1>   0.1500 
 41 H       -6.3810    -1.6880     0.6370 H     1 <1>   0.1500 
 42 H        1.7740     7.2050    -1.4950 H     1 <1>   0.4570 
 43 H        1.0650     4.1740    -3.3650 H     1 <1>   0.0800 
 44 H        2.4170     5.2570    -3.1820 H     1 <1>   0.0800 
 45 H        0.8320     5.8850    -3.6030 H     1 <1>   0.0800 
 46 H        1.8090     7.8930     1.9670 H     1 <1>   0.0800 
 47 H        0.5990     8.6700     0.9720 H     1 <1>   0.0800 
 48 H        2.2390     8.4790     0.3960 H     1 <1>   0.0800 
 49 H       -8.4490     1.8230    -1.2700 H     1 <1>   0.1500 
 50 H       -5.4070     4.4480    -2.6660 H     1 <1>   0.1500 
 51 H       -7.7810     3.9180    -2.4020 H     1 <1>   0.1500 
@<TRIPOS>BOND
  1   1   2  1   
  2   1   3  1   
  3   2   4  1   
  4   2  27  1   
  5   2  28  1   
  6   3   5  1   
  7   3  29  1   
  8   3  30  1   
  9   4   5  1   
 10   4   6  1   
 11   4  31  1   
 12   5   7  1   
 13   5  32  1   
 14   6   8  1   
 15   6  33  1   
 16   7   9  1   
 17   7  34  1   
 18   7  35  1   
 19   8  10  ar  
 20   8  11  ar  
 21   9  12  ar  
 22   9  13  ar  
 23  10  14  ar  
 24  11  15  ar  
 25  11  16  1   
 26  12  17  ar  
 27  12  18  ar  
 28  13  19  ar  
 29  13  36  1   
 30  14  20  ar  
 31  14  21  1   
 32  15  20  ar  
 33  15  22  1   
 34  16  37  1   
 35  16  38  1   
 36  16  39  1   
 37  17  23  ar  
 38  17  24  ar  
 39  18  25  ar  
 40  18  40  1   
 41  19  23  ar  
 42  19  41  1   
 43  20  42  1   
 44  21  43  1   
 45  21  44  1   
 46  21  45  1   
 47  22  46  1   
 48  22  47  1   
 49  22  48  1   
 50  24  26  ar  
 51  24  49  1   
 52  25  26  ar  
 53  25  50  1   
 54  26  51  1   
@<TRIPOS>SUBSTRUCTURE
  1 ****   5 GROUP 4 **** **** 0

# MOE 2024.06 (io_trps.svl 2023.06)
