@<TRIPOS>MOLECULE
NONAME
48 50 1 0 0 
SMALL
USER_CHARGES


@<TRIPOS>ATOM
  1 O        0.6500    -0.1540    -1.0160 O.2   1 <1>  -0.5700 
  2 C        1.5590    -0.6600    -0.3860 C.2   1 <1>   0.5440 
  3 N        2.7520     0.0260    -0.2710 N.am  1 <1>  -0.6600 
  4 C        1.3560    -1.9640     0.2180 C.ar  1 <1>   0.0860 
  5 C        4.0480    -0.6820    -0.0190 C.3   1 <1>   0.1400 
  6 C        2.7760     1.4890    -0.5550 C.3   1 <1>   0.1400 
  7 C        0.7550    -3.0060    -0.4660 C.ar  1 <1>  -0.1500 
  8 C        1.7320    -2.2600     1.5220 C.ar  1 <1>  -0.1500 
  9 C        5.2060    -0.1970    -0.9020 C.3   1 <1>   0.1100 
 10 C        3.8540     2.2440     0.2270 C.3   1 <1>  -0.1600 
 11 C        0.5830    -4.2390     0.1370 C.ar  1 <1>   0.3920 
 12 C        1.5180    -3.5210     2.0400 C.ar  1 <1>   0.1600 
 13 N        5.9270     0.9400    -0.2930 N.3   1 <1>  -0.8100 
 14 C        5.2270     2.2240    -0.4500 C.3   1 <1>   0.1100 
 15 O       -0.0070    -5.2040    -0.5990 O.3   1 <1>  -0.3630 
 16 N        0.9610    -4.5210     1.3810 N.ar  1 <1>  -0.6200 
 17 C        7.3210     1.0100    -0.8160 C.3   1 <1>   0.2900 
 18 C       -0.2490    -6.4880    -0.0580 C.3   1 <1>   0.0400 
 19 C        8.2530     1.9520    -0.0540 C.2   1 <1>   0.2980 
 20 O        8.2540     3.2250    -0.3010 O.3   1 <1>  -0.2800 
 21 N        9.1200     1.6340     0.8320 N.2   1 <1>  -0.3380 
 22 C        9.1610     3.6900     0.4950 C.2   1 <1>   0.2980 
 23 N        9.7120     2.7730     1.1940 N.2   1 <1>  -0.3380 
 24 C        9.4670     5.1760     0.5190 C.3   1 <1>   0.0200 
 25 C        8.2720     6.0010     1.0130 C.3   1 <1>  -0.2400 
 26 H        3.9120    -1.7300    -0.2170 H     1 <1>   0.0800 
 27 H        4.3250    -0.5760     1.0160 H     1 <1>   0.0800 
 28 H        1.8180     1.9010    -0.2860 H     1 <1>   0.0800 
 29 H        2.9040     1.6410    -1.6130 H     1 <1>   0.0800 
 30 H        0.4140    -2.8610    -1.4740 H     1 <1>   0.1500 
 31 H        2.1860    -1.4980     2.1290 H     1 <1>   0.1500 
 32 H        4.8570     0.0450    -1.8920 H     1 <1>   0.0800 
 33 H        5.8870    -1.0260    -0.9900 H     1 <1>   0.0800 
 34 H        3.9190     1.8940     1.2420 H     1 <1>   0.0800 
 35 H        3.5460     3.2730     0.2700 H     1 <1>   0.0800 
 36 H        1.8210    -3.7220     3.0550 H     1 <1>   0.1500 
 37 H        5.8130     2.9970     0.0160 H     1 <1>   0.0800 
 38 H        5.1290     2.4690    -1.4940 H     1 <1>   0.0800 
 39 H        7.3070     1.2980    -1.8520 H     1 <1>   0.0800 
 40 H        7.7620     0.0310    -0.7540 H     1 <1>   0.0800 
 41 H       -0.7280    -7.0880    -0.8100 H     1 <1>   0.0800 
 42 H       -0.8900    -6.3880     0.8010 H     1 <1>   0.0800 
 43 H        0.6910    -6.9290     0.2260 H     1 <1>   0.0800 
 44 H        9.7420     5.4890    -0.4720 H     1 <1>   0.0800 
 45 H       10.3090     5.3440     1.1680 H     1 <1>   0.0800 
 46 H        7.4290     5.8650     0.3590 H     1 <1>   0.0800 
 47 H        8.5270     7.0450     1.0370 H     1 <1>   0.0800 
 48 H        7.9930     5.6890     2.0050 H     1 <1>   0.0800 
@<TRIPOS>BOND
  1   1   2  2   
  2   2   3  am  
  3   2   4  1   
  4   3   5  1   
  5   3   6  1   
  6   4   7  ar  
  7   4   8  ar  
  8   5   9  1   
  9   5  26  1   
 10   5  27  1   
 11   6  10  1   
 12   6  28  1   
 13   6  29  1   
 14   7  11  ar  
 15   7  30  1   
 16   8  12  ar  
 17   8  31  1   
 18   9  13  1   
 19   9  32  1   
 20   9  33  1   
 21  10  14  1   
 22  10  34  1   
 23  10  35  1   
 24  11  15  1   
 25  11  16  ar  
 26  12  16  ar  
 27  12  36  1   
 28  13  14  1   
 29  13  17  1   
 30  14  37  1   
 31  14  38  1   
 32  15  18  1   
 33  17  19  1   
 34  17  39  1   
 35  17  40  1   
 36  18  41  1   
 37  18  42  1   
 38  18  43  1   
 39  19  20  1   
 40  19  21  2   
 41  20  22  1   
 42  21  23  1   
 43  22  23  2   
 44  22  24  1   
 45  24  25  1   
 46  24  44  1   
 47  24  45  1   
 48  25  46  1   
 49  25  47  1   
 50  25  48  1   
@<TRIPOS>SUBSTRUCTURE
  1 ****   5 GROUP 4 **** **** 0

# MOE 2024.06 (io_trps.svl 2023.06)
