@<TRIPOS>MOLECULE
NONAME
57 60 1 0 0 
SMALL
USER_CHARGES


@<TRIPOS>ATOM
  1 S       -0.8550     1.3250    -1.9500 S.3   1 <1>  -0.0800 
  2 C       -1.3100     1.5430    -0.2670 C.2   1 <1>  -0.1400 
  3 C       -2.2550     0.2960    -2.2270 C.2   1 <1>  -0.1100 
  4 C       -2.4420     0.8820     0.0070 C.2   1 <1>  -0.1810 
  5 C       -0.4920     2.3840     0.7070 C.3   1 <1>   0.4600 
  6 C       -2.9850     0.1620    -1.1030 C.2   1 <1>  -0.1500 
  7 C       -3.0250     0.9490     1.4010 C.3   1 <1>   0.0210 
  8 O       -1.0390     2.2320     2.0040 O.3   1 <1>  -0.5600 
  9 C        0.9520     1.8770     0.7890 C.3   1 <1>  -0.1600 
 10 C       -0.5190     3.8720     0.3280 C.3   1 <1>  -0.1600 
 11 C       -2.4410     2.1740     2.1320 C.3   1 <1>   0.1200 
 12 C        1.8020     2.7400     1.7240 C.3   1 <1>   0.1400 
 13 C        0.3400     4.7040     1.2800 C.3   1 <1>   0.1400 
 14 N        1.7280     4.1600     1.2780 N.am  1 <1>  -0.6600 
 15 C        2.8510     4.8480     0.8900 C.2   1 <1>   0.5690 
 16 O        3.9520     4.3490     0.9410 O.2   1 <1>  -0.5700 
 17 C        2.7290     6.2730     0.3710 C.3   1 <1>  -0.0990 
 18 C        4.0580     6.8830    -0.1210 C.3   1 <1>  -0.0990 
 19 C        3.9260     8.3110    -0.6360 C.2   1 <1>   0.5690 
 20 O        2.8120     8.7550    -0.7980 O.2   1 <1>  -0.5700 
 21 N        5.0460     9.0580    -0.9170 N.am  1 <1>  -0.6600 
 22 C        6.4330     8.5190    -0.8490 C.3   1 <1>   0.1400 
 23 C        4.8840    10.4590    -1.4100 C.3   1 <1>   0.1400 
 24 C        7.0510     8.8160     0.5230 C.3   1 <1>  -0.1600 
 25 C        6.0150    11.4180    -1.0080 C.3   1 <1>  -0.1600 
 26 C        7.5250    10.2660     0.7050 C.3   1 <1>  -0.1600 
 27 C        6.4380    11.3240     0.4670 C.3   1 <1>  -0.1600 
 28 H       -2.3830    -0.1060    -3.2160 H     1 <1>   0.1500 
 29 H       -3.8880    -0.4150    -1.0070 H     1 <1>   0.1500 
 30 H       -2.7820     0.0510     1.9400 H     1 <1>   0.0800 
 31 H       -4.0940     1.0400     1.3520 H     1 <1>   0.0800 
 32 H        1.4000     1.8940    -0.1870 H     1 <1>   0.0800 
 33 H        0.9520     0.8580     1.1290 H     1 <1>   0.0800 
 34 H       -1.5280     4.2350     0.3240 H     1 <1>   0.0800 
 35 H       -0.1360     3.9880    -0.6700 H     1 <1>   0.0800 
 36 H       -2.6710     2.1230     3.1810 H     1 <1>   0.0800 
 37 H       -2.8580     3.0810     1.7320 H     1 <1>   0.0800 
 38 H        2.8200     2.3880     1.7150 H     1 <1>   0.0800 
 39 H        1.4340     2.6660     2.7330 H     1 <1>   0.0800 
 40 H       -0.0570     4.6430     2.2790 H     1 <1>   0.0800 
 41 H        0.3170     5.7350     0.9790 H     1 <1>   0.0800 
 42 H        2.3360     6.8900     1.1590 H     1 <1>   0.0800 
 43 H        2.0290     6.2760    -0.4450 H     1 <1>   0.0800 
 44 H        4.4460     6.2710    -0.9140 H     1 <1>   0.0800 
 45 H        4.7590     6.8700     0.6920 H     1 <1>   0.0800 
 46 H        7.0350     8.9440    -1.6330 H     1 <1>   0.0800 
 47 H        6.4200     7.4550    -1.0070 H     1 <1>   0.0800 
 48 H        3.9620    10.8580    -1.0200 H     1 <1>   0.0800 
 49 H        4.7950    10.4390    -2.4820 H     1 <1>   0.0800 
 50 H        7.9030     8.1720     0.6510 H     1 <1>   0.0800 
 51 H        6.3450     8.5670     1.2950 H     1 <1>   0.0800 
 52 H        5.6590    12.4160    -1.1940 H     1 <1>   0.0800 
 53 H        6.8630    11.2740    -1.6520 H     1 <1>   0.0800 
 54 H        8.3550    10.4550     0.0450 H     1 <1>   0.0800 
 55 H        7.8910    10.3740     1.7110 H     1 <1>   0.0800 
 56 H        5.5810    11.1270     1.0900 H     1 <1>   0.0800 
 57 H        6.8390    12.2780     0.7630 H     1 <1>   0.0800 
@<TRIPOS>BOND
  1   1   2  1   
  2   1   3  1   
  3   2   4  2   
  4   2   5  1   
  5   3   6  2   
  6   3  28  1   
  7   4   6  1   
  8   4   7  1   
  9   5   8  1   
 10   5   9  1   
 11   5  10  1   
 12   6  29  1   
 13   7  11  1   
 14   7  30  1   
 15   7  31  1   
 16   8  11  1   
 17   9  12  1   
 18   9  32  1   
 19   9  33  1   
 20  10  13  1   
 21  10  34  1   
 22  10  35  1   
 23  11  36  1   
 24  11  37  1   
 25  12  14  1   
 26  12  38  1   
 27  12  39  1   
 28  13  14  1   
 29  13  40  1   
 30  13  41  1   
 31  14  15  am  
 32  15  16  2   
 33  15  17  1   
 34  17  18  1   
 35  17  42  1   
 36  17  43  1   
 37  18  19  1   
 38  18  44  1   
 39  18  45  1   
 40  19  20  2   
 41  19  21  am  
 42  21  22  1   
 43  21  23  1   
 44  22  24  1   
 45  22  46  1   
 46  22  47  1   
 47  23  25  1   
 48  23  48  1   
 49  23  49  1   
 50  24  26  1   
 51  24  50  1   
 52  24  51  1   
 53  25  27  1   
 54  25  52  1   
 55  25  53  1   
 56  26  27  1   
 57  26  54  1   
 58  26  55  1   
 59  27  56  1   
 60  27  57  1   
@<TRIPOS>SUBSTRUCTURE
  1 ****  15 GROUP 4 **** **** 0

# MOE 2024.06 (io_trps.svl 2023.06)
