@<TRIPOS>MOLECULE
NONAME
39 40 1 0 0 
SMALL
USER_CHARGES


@<TRIPOS>ATOM
  1 O        0.9110     0.5610     0.7270 O.2   1 <1>  -0.5700 
  2 C        0.6110     1.7240     0.5370 C.2   1 <1>   0.5440 
  3 N       -0.6800     2.1110     0.7770 N.am  1 <1>  -0.7300 
  4 C        1.6020     2.6750     0.0850 C.ar  1 <1>   0.0860 
  5 C       -1.7700     1.2120     1.2030 C.3   1 <1>   0.1400 
  6 C        2.9600     2.4340     0.2810 C.ar  1 <1>   0.1600 
  7 C        1.2710     3.8630    -0.5650 C.ar  1 <1>  -0.1500 
  8 C       -3.0630     1.6680     0.5380 C.3   1 <1>  -0.2400 
  9 N        3.9540     3.2300    -0.0730 N.ar  1 <1>  -0.6200 
 10 C        2.2920     4.7000    -0.9440 C.ar  1 <1>  -0.1500 
 11 C        3.6180     4.3630    -0.6800 C.ar  1 <1>   0.4100 
 12 N        4.6390     5.2100    -1.0470 N.pl3 1 <1>  -0.8380 
 13 C        4.6460     6.6090    -0.5400 C.3   1 <1>   0.3900 
 14 C        5.9700     4.6470    -1.4160 C.3   1 <1>   0.1290 
 15 C        5.6710     6.7950     0.5670 C.2   1 <1>  -0.1810 
 16 C        6.6320     7.7350     0.7300 C.2   1 <1>  -0.3320 
 17 C        5.7910     5.9690     1.6800 C.2   1 <1>   0.1390 
 18 N        7.2570     7.4430     1.8910 N.pl3 1 <1>   0.3000 
 19 C        7.0180     8.9170    -0.1430 C.3   1 <1>  -0.0600 
 20 N        6.7370     6.3540     2.4820 N.2   1 <1>  -0.7070 
 21 H       -0.9130     3.1030     0.7650 H     1 <1>   0.3700 
 22 H       -1.8660     1.2510     2.2760 H     1 <1>   0.0800 
 23 H       -1.5450     0.1980     0.9160 H     1 <1>   0.0800 
 24 H        3.2360     1.5140     0.7690 H     1 <1>   0.1500 
 25 H        0.2480     4.1140    -0.7770 H     1 <1>   0.1500 
 26 H       -3.3130     2.6680     0.8410 H     1 <1>   0.0800 
 27 H       -3.8660     1.0140     0.8300 H     1 <1>   0.0800 
 28 H       -2.9640     1.6260    -0.5320 H     1 <1>   0.0800 
 29 H        2.0850     5.6180    -1.4580 H     1 <1>   0.1500 
 30 H        3.6760     6.8640    -0.1510 H     1 <1>   0.0800 
 31 H        4.8620     7.2720    -1.3570 H     1 <1>   0.0800 
 32 H        5.8380     3.7370    -1.9760 H     1 <1>   0.0800 
 33 H        6.5340     4.4220    -0.5270 H     1 <1>   0.0800 
 34 H        6.5180     5.3510    -2.0170 H     1 <1>   0.0800 
 35 H        5.1720     5.1020     1.8540 H     1 <1>   0.1500 
 36 H        8.0380     7.9640     2.3080 H     1 <1>   0.2700 
 37 H        6.3950     8.9670    -1.0170 H     1 <1>   0.0800 
 38 H        8.0410     8.8230    -0.4610 H     1 <1>   0.0800 
 39 H        6.9070     9.8350     0.4070 H     1 <1>   0.0800 
@<TRIPOS>BOND
  1   1   2  2   
  2   2   3  am  
  3   2   4  1   
  4   3   5  1   
  5   3  21  1   
  6   4   6  ar  
  7   4   7  ar  
  8   5   8  1   
  9   5  22  1   
 10   5  23  1   
 11   6   9  ar  
 12   6  24  1   
 13   7  10  ar  
 14   7  25  1   
 15   8  26  1   
 16   8  27  1   
 17   8  28  1   
 18   9  11  ar  
 19  10  11  ar  
 20  10  29  1   
 21  11  12  1   
 22  12  13  1   
 23  12  14  1   
 24  13  15  1   
 25  13  30  1   
 26  13  31  1   
 27  14  32  1   
 28  14  33  1   
 29  14  34  1   
 30  15  16  2   
 31  15  17  1   
 32  16  18  1   
 33  16  19  1   
 34  17  20  2   
 35  17  35  1   
 36  18  20  1   
 37  18  36  1   
 38  19  37  1   
 39  19  38  1   
 40  19  39  1   
@<TRIPOS>SUBSTRUCTURE
  1 ****  11 GROUP 4 **** **** 0

# MOE 2024.06 (io_trps.svl 2023.06)
