@<TRIPOS>MOLECULE
NONAME
58 60 1 0 0 
SMALL
USER_CHARGES


@<TRIPOS>ATOM
  1 O       -0.8160     0.7750    -0.1640 O.2   1 <1>  -0.5700 
  2 C       -1.8630     1.2280    -0.5680 C.2   1 <1>   0.6900 
  3 N       -2.1320     2.5570    -0.7420 N.am  1 <1>  -0.4200 
  4 N       -2.9120     0.4690    -0.9410 N.am  1 <1>  -0.7300 
  5 C       -3.3640     2.7030    -1.3060 C.2   1 <1>   0.5690 
  6 C       -1.1980     3.6540    -0.4220 C.3   1 <1>   0.1400 
  7 C       -3.9730     1.3190    -1.5240 C.3   1 <1>   0.2810 
  8 O       -3.9060     3.7450    -1.5860 O.2   1 <1>  -0.5700 
  9 C       -1.3920     4.0990     1.0310 C.3   1 <1>  -0.1600 
 10 C       -5.2990     1.1280    -0.7830 C.3   1 <1>  -0.0990 
 11 C       -0.4370     5.2400     1.3960 C.3   1 <1>  -0.2400 
 12 C       -5.9050    -0.2430    -1.0180 C.2   1 <1>   0.5690 
 13 O       -5.5060    -0.8930    -1.9560 O.2   1 <1>  -0.5700 
 14 N       -6.9030    -0.7110    -0.2050 N.am  1 <1>  -0.6600 
 15 C       -7.4840    -2.0730    -0.4150 C.3   1 <1>   0.1400 
 16 C       -7.6000     0.0780     0.8510 C.3   1 <1>   0.1400 
 17 C       -8.7980    -2.0390    -1.2170 C.3   1 <1>   0.1400 
 18 C       -8.6950     0.9710     0.2530 C.3   1 <1>  -0.1600 
 19 N       -9.8040    -1.0840    -0.6420 N.am  1 <1>  -0.6600 
 20 C       -9.4800     0.3470    -0.9080 C.3   1 <1>   0.1400 
 21 C      -10.9390    -1.4080     0.0630 C.2   1 <1>   0.5690 
 22 O      -11.6080    -0.5430     0.5810 O.2   1 <1>  -0.5700 
 23 C      -11.3950    -2.8670     0.2260 C.3   1 <1>  -0.0190 
 24 C      -12.9110    -3.0040     0.4750 C.3   1 <1>  -0.1600 
 25 C      -10.6490    -3.5780     1.3680 C.3   1 <1>  -0.1600 
 26 C      -13.2970    -4.4670     0.7100 C.3   1 <1>   0.1200 
 27 C      -11.1670    -5.0080     1.5540 C.3   1 <1>   0.1200 
 28 O      -12.5430    -4.9820     1.7640 O.3   1 <1>  -0.5600 
 29 H       -2.8320    -0.5290    -1.1480 H     1 <1>   0.3700 
 30 H       -1.3810     4.4800    -1.0880 H     1 <1>   0.0800 
 31 H       -0.1870     3.3130    -0.5710 H     1 <1>   0.0800 
 32 H       -4.0750     1.1280    -2.5790 H     1 <1>   0.0800 
 33 H       -1.2090     3.2640     1.6860 H     1 <1>   0.0800 
 34 H       -2.4070     4.4310     1.1690 H     1 <1>   0.0800 
 35 H       -5.9970     1.8650    -1.1320 H     1 <1>   0.0800 
 36 H       -5.1320     1.2870     0.2650 H     1 <1>   0.0800 
 37 H        0.5860     4.9260     1.2830 H     1 <1>   0.0800 
 38 H       -0.5910     5.5350     2.4200 H     1 <1>   0.0800 
 39 H       -0.6110     6.0950     0.7660 H     1 <1>   0.0800 
 40 H       -7.6560    -2.5360     0.5390 H     1 <1>   0.0800 
 41 H       -6.7770    -2.6930    -0.9400 H     1 <1>   0.0800 
 42 H       -6.8990     0.6750     1.4080 H     1 <1>   0.0800 
 43 H       -8.0580    -0.6010     1.5510 H     1 <1>   0.0800 
 44 H       -9.1940    -3.0340    -1.2610 H     1 <1>   0.0800 
 45 H       -8.5730    -1.7480    -2.2290 H     1 <1>   0.0800 
 46 H       -8.2610     1.8930    -0.0850 H     1 <1>   0.0800 
 47 H       -9.3880     1.2250     1.0350 H     1 <1>   0.0800 
 48 H       -8.9010     0.4200    -1.8130 H     1 <1>   0.0800 
 49 H      -10.3910     0.9020    -1.0640 H     1 <1>   0.0800 
 50 H      -11.1960    -3.3830    -0.6940 H     1 <1>   0.0800 
 51 H      -13.4560    -2.6150    -0.3670 H     1 <1>   0.0800 
 52 H      -13.1970    -2.4330     1.3420 H     1 <1>   0.0800 
 53 H      -10.7930    -3.0350     2.2870 H     1 <1>   0.0800 
 54 H       -9.5960    -3.6090     1.1670 H     1 <1>   0.0800 
 55 H      -13.1200    -5.0680    -0.1660 H     1 <1>   0.0800 
 56 H      -14.3360    -4.5420     0.9830 H     1 <1>   0.0800 
 57 H      -10.7140    -5.4640     2.4170 H     1 <1>   0.0800 
 58 H      -10.9640    -5.6170     0.6890 H     1 <1>   0.0800 
@<TRIPOS>BOND
  1   1   2  2   
  2   2   3  am  
  3   2   4  am  
  4   3   5  am  
  5   3   6  1   
  6   4   7  1   
  7   4  29  1   
  8   5   7  1   
  9   5   8  2   
 10   6   9  1   
 11   6  30  1   
 12   6  31  1   
 13   7  10  1   
 14   7  32  1   
 15   9  11  1   
 16   9  33  1   
 17   9  34  1   
 18  10  12  1   
 19  10  35  1   
 20  10  36  1   
 21  11  37  1   
 22  11  38  1   
 23  11  39  1   
 24  12  13  2   
 25  12  14  am  
 26  14  15  1   
 27  14  16  1   
 28  15  17  1   
 29  15  40  1   
 30  15  41  1   
 31  16  18  1   
 32  16  42  1   
 33  16  43  1   
 34  17  19  1   
 35  17  44  1   
 36  17  45  1   
 37  18  20  1   
 38  18  46  1   
 39  18  47  1   
 40  19  20  1   
 41  19  21  am  
 42  20  48  1   
 43  20  49  1   
 44  21  22  2   
 45  21  23  1   
 46  23  24  1   
 47  23  25  1   
 48  23  50  1   
 49  24  26  1   
 50  24  51  1   
 51  24  52  1   
 52  25  27  1   
 53  25  53  1   
 54  25  54  1   
 55  26  28  1   
 56  26  55  1   
 57  26  56  1   
 58  27  28  1   
 59  27  57  1   
 60  27  58  1   
@<TRIPOS>SUBSTRUCTURE
  1 ****  14 GROUP 4 **** **** 0

# MOE 2024.06 (io_trps.svl 2023.06)
