@<TRIPOS>MOLECULE
NONAME
49 52 1 0 0 
SMALL
USER_CHARGES


@<TRIPOS>ATOM
  1 O        1.7350    -0.5440    -2.1490 O.2   1 <1>  -0.5700 
  2 C        1.3780    -1.4050    -1.3600 C.2   1 <1>   0.5440 
  3 N        0.8180    -0.9650    -0.1720 N.am  1 <1>  -0.6600 
  4 C        1.5900    -2.8140    -1.7140 C.ar  1 <1>   0.3960 
  5 C        0.3790    -1.8110     0.9630 C.3   1 <1>   0.1400 
  6 C        0.7180     0.4700     0.1800 C.3   1 <1>   0.1400 
  7 N        0.8340    -3.7950    -1.1880 N.ar  1 <1>  -0.6200 
  8 C        2.6070    -3.1040    -2.6330 C.ar  1 <1>   0.1600 
  9 C       -0.1130    -0.8350     2.0280 C.3   1 <1>  -0.1600 
 10 C        0.5710     0.4880     1.6960 C.3   1 <1>  -0.1600 
 11 C        1.1530    -4.9980    -1.6100 C.ar  1 <1>   0.4100 
 12 N        2.9450    -4.3140    -3.0630 N.ar  1 <1>  -0.6200 
 13 N        0.3740    -5.9880    -1.0790 N.pl3 1 <1>  -0.8690 
 14 C        2.1920    -5.2450    -2.5190 C.ar  1 <1>   0.1600 
 15 C       -0.4120    -6.8490    -1.9840 C.3   1 <1>   0.3890 
 16 C       -1.6500    -7.3300    -1.2570 C.2   1 <1>  -0.0400 
 17 O       -2.5810    -6.4760    -0.9330 O.3   1 <1>  -0.0190 
 18 C       -2.0430    -8.5390    -0.8350 C.2   1 <1>  -0.1500 
 19 N       -3.5730    -7.0460    -0.3200 N.2   1 <1>  -0.4100 
 20 C       -3.2870    -8.3100    -0.2340 C.2   1 <1>   0.2350 
 21 C       -4.1280    -9.3180     0.3810 C.ar  1 <1>   0.0540 
 22 C       -5.5070    -9.1470     0.4600 C.ar  1 <1>  -0.1500 
 23 C       -3.5950   -10.4920     0.9150 C.ar  1 <1>  -0.1500 
 24 C       -6.3310   -10.0990     1.0330 C.ar  1 <1>   0.0830 
 25 C       -4.4060   -11.4540     1.4910 C.ar  1 <1>  -0.1500 
 26 O       -7.6600    -9.8270     1.0510 O.3   1 <1>  -0.3630 
 27 C       -5.7740   -11.2640     1.5520 C.ar  1 <1>  -0.1500 
 28 C       -8.5850   -10.7200     1.6290 C.3   1 <1>   0.0400 
 29 H        1.2160    -2.3820     1.3270 H     1 <1>   0.0800 
 30 H       -0.4130    -2.4760     0.6620 H     1 <1>   0.0800 
 31 H       -0.1570     0.8830    -0.2920 H     1 <1>   0.0800 
 32 H        1.5920     1.0120    -0.1400 H     1 <1>   0.0800 
 33 H        3.1760    -2.2820    -3.0320 H     1 <1>   0.1500 
 34 H        0.1170    -1.1790     3.0200 H     1 <1>   0.0800 
 35 H       -1.1790    -0.7270     1.9330 H     1 <1>   0.0800 
 36 H        0.0070     1.3390     2.0320 H     1 <1>   0.0800 
 37 H        1.5510     0.5160     2.1400 H     1 <1>   0.0800 
 38 H       -0.2480    -5.5940    -0.3650 H     1 <1>   0.4000 
 39 H        2.3910    -6.2650    -2.7870 H     1 <1>   0.1500 
 40 H        0.1850    -7.6930    -2.2810 H     1 <1>   0.0800 
 41 H       -0.7030    -6.2970    -2.8630 H     1 <1>   0.0800 
 42 H       -1.5480    -9.4880    -0.9220 H     1 <1>   0.1500 
 43 H       -5.9530    -8.2510     0.0660 H     1 <1>   0.1500 
 44 H       -2.5340   -10.6570     0.8880 H     1 <1>   0.1500 
 45 H       -3.9710   -12.3520     1.8960 H     1 <1>   0.1500 
 46 H       -6.3840   -12.0240     2.0030 H     1 <1>   0.1500 
 47 H       -9.5660   -10.2910     1.5330 H     1 <1>   0.0800 
 48 H       -8.3420   -10.8490     2.6690 H     1 <1>   0.0800 
 49 H       -8.5420   -11.6570     1.1020 H     1 <1>   0.0800 
@<TRIPOS>BOND
  1   1   2  2   
  2   2   3  am  
  3   2   4  1   
  4   3   5  1   
  5   3   6  1   
  6   4   7  ar  
  7   4   8  ar  
  8   5   9  1   
  9   5  29  1   
 10   5  30  1   
 11   6  10  1   
 12   6  31  1   
 13   6  32  1   
 14   7  11  ar  
 15   8  12  ar  
 16   8  33  1   
 17   9  10  1   
 18   9  34  1   
 19   9  35  1   
 20  10  36  1   
 21  10  37  1   
 22  11  13  1   
 23  11  14  ar  
 24  12  14  ar  
 25  13  15  1   
 26  13  38  1   
 27  14  39  1   
 28  15  16  1   
 29  15  40  1   
 30  15  41  1   
 31  16  17  1   
 32  16  18  2   
 33  17  19  1   
 34  18  20  1   
 35  18  42  1   
 36  19  20  2   
 37  20  21  1   
 38  21  22  ar  
 39  21  23  ar  
 40  22  24  ar  
 41  22  43  1   
 42  23  25  ar  
 43  23  44  1   
 44  24  26  1   
 45  24  27  ar  
 46  25  27  ar  
 47  25  45  1   
 48  26  28  1   
 49  27  46  1   
 50  28  47  1   
 51  28  48  1   
 52  28  49  1   
@<TRIPOS>SUBSTRUCTURE
  1 ****  17 GROUP 4 **** **** 0

# MOE 2024.06 (io_trps.svl 2023.06)
