@<TRIPOS>MOLECULE
NONAME
46 49 1 0 0 
SMALL
USER_CHARGES


@<TRIPOS>ATOM
  1 S       -0.5940    -0.0760     1.1920 S.3   1 <1>  -0.0800 
  2 C       -1.0260     1.3520     0.2650 C.2   1 <1>  -0.1400 
  3 C       -2.2680    -0.6170     1.1950 C.2   1 <1>  -0.1100 
  4 C       -2.3410     1.3800     0.0190 C.2   1 <1>  -0.1810 
  5 C       -0.0040     2.3910    -0.1680 C.3   1 <1>   0.4600 
  6 C       -3.0570     0.2560     0.5390 C.2   1 <1>  -0.1500 
  7 C       -2.9350     2.5400    -0.7450 C.3   1 <1>   0.0210 
  8 O       -0.6390     3.3510    -0.9980 O.3   1 <1>  -0.5600 
  9 C        0.6250     3.1190     1.0240 C.3   1 <1>  -0.1600 
 10 C        1.1020     1.7590    -1.0260 C.3   1 <1>  -0.1600 
 11 C       -1.9610     3.7340    -0.6730 C.3   1 <1>   0.1200 
 12 C        1.6090     4.2110     0.5910 C.3   1 <1>   0.3430 
 13 C        2.3440     2.6440    -1.1800 C.3   1 <1>   0.3430 
 14 N        2.0120     4.0500    -0.8410 N.4   1 <1>  -0.9590 
 15 C        3.0600     5.0210    -1.2520 C.3   1 <1>   0.4860 
 16 C        2.5090     6.4240    -1.1310 C.ar  1 <1>  -0.1430 
 17 C        2.8190     7.1840    -0.0080 C.ar  1 <1>   0.3930 
 18 C        1.7030     6.9660    -2.1120 C.ar  1 <1>  -0.1500 
 19 O        3.6070     6.6130     0.9320 O.3   1 <1>  -0.3630 
 20 N        2.3780     8.4170     0.2030 N.ar  1 <1>  -0.6200 
 21 C        1.2480     8.2520    -1.9030 C.ar  1 <1>  -0.1500 
 22 C        4.0420     7.3540     2.0600 C.3   1 <1>   0.0400 
 23 C        1.6100     8.9220    -0.7480 C.ar  1 <1>   0.1600 
 24 H       -2.4880    -1.5440     1.6940 H     1 <1>   0.1500 
 25 H       -4.1200     0.1550     0.3980 H     1 <1>   0.1500 
 26 H       -3.8780     2.8230    -0.3140 H     1 <1>   0.0800 
 27 H       -3.1000     2.2580    -1.7700 H     1 <1>   0.0800 
 28 H        1.1510     2.4030     1.6280 H     1 <1>   0.0800 
 29 H       -0.1400     3.5420     1.6510 H     1 <1>   0.0800 
 30 H        0.6990     1.5130    -1.9920 H     1 <1>   0.0800 
 31 H        1.4230     0.8340    -0.5840 H     1 <1>   0.0800 
 32 H       -1.9620     4.1510     0.3190 H     1 <1>   0.0800 
 33 H       -2.2650     4.4980    -1.3680 H     1 <1>   0.0800 
 34 H        2.4780     4.1880     1.2290 H     1 <1>   0.0800 
 35 H        1.1370     5.1730     0.7150 H     1 <1>   0.0800 
 36 H        2.7050     2.5750    -2.1930 H     1 <1>   0.0800 
 37 H        3.1200     2.2920    -0.5190 H     1 <1>   0.0800 
 38 H        1.1490     4.2670    -1.3730 H     1 <1>   0.4500 
 39 H        3.3470     4.8440    -2.2750 H     1 <1>   0.0800 
 40 H        3.9350     4.9110    -0.6310 H     1 <1>   0.0800 
 41 H        1.4340     6.4290    -3.0060 H     1 <1>   0.1500 
 42 H        0.6190     8.7360    -2.6300 H     1 <1>   0.1500 
 43 H        4.6750     6.7260     2.6600 H     1 <1>   0.0800 
 44 H        3.1830     7.6650     2.6290 H     1 <1>   0.0800 
 45 H        4.5930     8.2140     1.7200 H     1 <1>   0.0800 
 46 H        1.2480     9.9270    -0.5990 H     1 <1>   0.1500 
@<TRIPOS>BOND
  1   1   2  1   
  2   1   3  1   
  3   2   4  2   
  4   2   5  1   
  5   3   6  2   
  6   3  24  1   
  7   4   6  1   
  8   4   7  1   
  9   5   8  1   
 10   5   9  1   
 11   5  10  1   
 12   6  25  1   
 13   7  11  1   
 14   7  26  1   
 15   7  27  1   
 16   8  11  1   
 17   9  12  1   
 18   9  28  1   
 19   9  29  1   
 20  10  13  1   
 21  10  30  1   
 22  10  31  1   
 23  11  32  1   
 24  11  33  1   
 25  12  14  1   
 26  12  34  1   
 27  12  35  1   
 28  13  14  1   
 29  13  36  1   
 30  13  37  1   
 31  14  15  1   
 32  14  38  1   
 33  15  16  1   
 34  15  39  1   
 35  15  40  1   
 36  16  17  ar  
 37  16  18  ar  
 38  17  19  1   
 39  17  20  ar  
 40  18  21  ar  
 41  18  41  1   
 42  19  22  1   
 43  20  23  ar  
 44  21  23  ar  
 45  21  42  1   
 46  22  43  1   
 47  22  44  1   
 48  22  45  1   
 49  23  46  1   
@<TRIPOS>SUBSTRUCTURE
  1 ****  12 GROUP 4 **** **** 0

# MOE 2024.06 (io_trps.svl 2023.06)
