@<TRIPOS>MOLECULE
NONAME
60 63 1 0 0 
SMALL
USER_CHARGES


@<TRIPOS>ATOM
  1 O       -0.9440    -0.9320     1.4070 O.2   1 <1>  -0.5700 
  2 C       -0.8170    -1.7100     0.4920 C.2   1 <1>   0.5690 
  3 N       -1.9120    -2.1470    -0.2200 N.am  1 <1>  -0.6600 
  4 C        0.5820    -2.2170     0.1490 C.3   1 <1>  -0.0990 
  5 C       -1.9020    -3.2390    -1.2230 C.3   1 <1>   0.1400 
  6 C       -3.2550    -1.5620     0.0270 C.3   1 <1>   0.1400 
  7 C        1.7220    -1.5170     0.9130 C.3   1 <1>  -0.1600 
  8 C       -2.7950    -4.3720    -0.7100 C.3   1 <1>  -0.1600 
  9 C       -4.1590    -2.6610     0.5810 C.3   1 <1>  -0.1600 
 10 C        3.0920    -2.0670     0.5040 C.3   1 <1>  -0.2400 
 11 C       -4.2020    -3.8630    -0.3640 C.3   1 <1>   0.4230 
 12 N       -5.0040    -4.9160     0.2990 N.4   1 <1>  -0.9060 
 13 C       -5.3890    -6.1010    -0.5180 C.3   1 <1>   0.4230 
 14 C       -6.6970    -6.6540     0.0410 C.3   1 <1>  -0.0800 
 15 C       -4.4450    -7.2540    -0.1910 C.3   1 <1>   0.1200 
 16 C       -6.2230    -7.5750     1.1820 C.3   1 <1>   0.1200 
 17 C       -7.5010    -7.4290    -1.0260 C.3   1 <1>  -0.0170 
 18 O       -4.8290    -7.6120     1.0920 O.3   1 <1>  -0.5600 
 19 C       -8.8270    -7.9180    -0.4520 C.ar  1 <1>  -0.1440 
 20 C       -9.9310    -7.0550    -0.2460 C.ar  1 <1>   0.0000 
 21 C       -8.9790    -9.2290    -0.1050 C.ar  1 <1>  -0.1500 
 22 C      -11.0910    -7.6050     0.3540 C.ar  1 <1>   0.3100 
 23 C       -9.9590    -5.6850    -0.6020 C.ar  1 <1>  -0.1500 
 24 C      -10.1780    -9.6740     0.4630 C.ar  1 <1>   0.1600 
 25 N      -11.1960    -8.9110     0.7000 N.ar  1 <1>  -0.6200 
 26 C      -12.1910    -6.7690     0.6020 C.ar  1 <1>  -0.1500 
 27 C      -11.0510    -4.8990    -0.3520 C.ar  1 <1>  -0.1500 
 28 C      -12.1800    -5.4440     0.2630 C.ar  1 <1>  -0.1500 
 29 H        0.6200    -3.2690     0.3620 H     1 <1>   0.0800 
 30 H        0.7420    -2.0740    -0.9030 H     1 <1>   0.0800 
 31 H       -2.2720    -2.8590    -2.1610 H     1 <1>   0.0800 
 32 H       -0.9060    -3.6120    -1.3900 H     1 <1>   0.0800 
 33 H       -3.1980    -0.7460     0.7290 H     1 <1>   0.0800 
 34 H       -3.6470    -1.1700    -0.8970 H     1 <1>   0.0800 
 35 H        1.6870    -0.4590     0.7160 H     1 <1>   0.0800 
 36 H        1.5830    -1.6580     1.9720 H     1 <1>   0.0800 
 37 H       -2.3270    -4.7950     0.1620 H     1 <1>   0.0800 
 38 H       -2.8460    -5.1220    -1.4770 H     1 <1>   0.0800 
 39 H       -5.1450    -2.2520     0.7130 H     1 <1>   0.0800 
 40 H       -3.7740    -2.9470     1.5450 H     1 <1>   0.0800 
 41 H        3.2630    -1.9120    -0.5470 H     1 <1>   0.0800 
 42 H        3.1570    -3.1190     0.7170 H     1 <1>   0.0800 
 43 H        3.8670    -1.5600     1.0530 H     1 <1>   0.0800 
 44 H       -4.6910    -3.5560    -1.2750 H     1 <1>   0.0800 
 45 H       -5.8500    -4.4880     0.6860 H     1 <1>   0.4500 
 46 H       -4.4900    -5.2890     1.1130 H     1 <1>   0.4500 
 47 H       -5.4430    -5.8680    -1.5690 H     1 <1>   0.0800 
 48 H       -7.3240    -5.8730     0.4330 H     1 <1>   0.0800 
 49 H       -3.4030    -6.9910    -0.1930 H     1 <1>   0.0800 
 50 H       -4.6050    -8.0980    -0.8400 H     1 <1>   0.0800 
 51 H       -6.5930    -8.5820     1.0880 H     1 <1>   0.0800 
 52 H       -6.4900    -7.1900     2.1520 H     1 <1>   0.0800 
 53 H       -6.9350    -8.2740    -1.3770 H     1 <1>   0.0800 
 54 H       -7.6960    -6.8080    -1.8830 H     1 <1>   0.0800 
 55 H       -8.1970    -9.9530    -0.2460 H     1 <1>   0.1500 
 56 H       -9.1140    -5.2450    -1.0900 H     1 <1>   0.1500 
 57 H      -10.2580   -10.7170     0.7240 H     1 <1>   0.1500 
 58 H      -13.0510    -7.2110     1.0700 H     1 <1>   0.1500 
 59 H      -11.0650    -3.8580    -0.6270 H     1 <1>   0.1500 
 60 H      -13.0330    -4.8160     0.4590 H     1 <1>   0.1500 
@<TRIPOS>BOND
  1   1   2  2   
  2   2   3  am  
  3   2   4  1   
  4   3   5  1   
  5   3   6  1   
  6   4   7  1   
  7   4  29  1   
  8   4  30  1   
  9   5   8  1   
 10   5  31  1   
 11   5  32  1   
 12   6   9  1   
 13   6  33  1   
 14   6  34  1   
 15   7  10  1   
 16   7  35  1   
 17   7  36  1   
 18   8  11  1   
 19   8  37  1   
 20   8  38  1   
 21   9  11  1   
 22   9  39  1   
 23   9  40  1   
 24  10  41  1   
 25  10  42  1   
 26  10  43  1   
 27  11  12  1   
 28  11  44  1   
 29  12  13  1   
 30  12  45  1   
 31  12  46  1   
 32  13  14  1   
 33  13  15  1   
 34  13  47  1   
 35  14  16  1   
 36  14  17  1   
 37  14  48  1   
 38  15  18  1   
 39  15  49  1   
 40  15  50  1   
 41  16  18  1   
 42  16  51  1   
 43  16  52  1   
 44  17  19  1   
 45  17  53  1   
 46  17  54  1   
 47  19  20  ar  
 48  19  21  ar  
 49  20  22  ar  
 50  20  23  ar  
 51  21  24  ar  
 52  21  55  1   
 53  22  25  ar  
 54  22  26  ar  
 55  23  27  ar  
 56  23  56  1   
 57  24  25  ar  
 58  24  57  1   
 59  26  28  ar  
 60  26  58  1   
 61  27  28  ar  
 62  27  59  1   
 63  28  60  1   
@<TRIPOS>SUBSTRUCTURE
  1 ****  12 GROUP 4 **** **** 0

# MOE 2024.06 (io_trps.svl 2023.06)
