@<TRIPOS>MOLECULE
NONAME
42 44 1 0 0 
SMALL
USER_CHARGES


@<TRIPOS>ATOM
  1 O       -0.5720    -0.0370    -0.6250 O.2   1 <1>  -0.5700 
  2 C       -1.5250    -0.7020    -0.2600 C.2   1 <1>   0.5410 
  3 C       -1.5510    -2.1140    -0.3680 C.2   1 <1>  -0.1360 
  4 C       -2.6870    -0.1060     0.2990 C.2   1 <1>  -0.1360 
  5 C       -2.6270    -2.8510     0.0330 C.2   1 <1>   0.0910 
  6 C       -3.7300    -0.8730     0.6890 C.2   1 <1>  -0.0620 
  7 O       -3.6890    -2.2020     0.5580 O.3   1 <1>  -0.1530 
  8 C       -2.7000    -4.3000    -0.0490 C.2   1 <1>   0.6160 
  9 C       -5.0150    -0.3500     1.2980 C.3   1 <1>  -0.1020 
 10 O       -1.6630    -4.9280    -0.1700 O.2   1 <1>  -0.5700 
 11 N       -3.8780    -5.0180    -0.0130 N.am  1 <1>  -0.6600 
 12 C       -5.2450    -4.4850    -0.2450 C.3   1 <1>   0.1400 
 13 C       -3.8960    -6.5040    -0.0320 C.3   1 <1>   0.1400 
 14 C       -6.0750    -5.6970    -0.6640 C.3   1 <1>   0.2000 
 15 C       -5.3740    -6.8960    -0.0340 C.3   1 <1>  -0.0800 
 16 O       -7.3800    -5.6050    -0.2080 O.3   1 <1>  -0.6800 
 17 C       -5.6600    -8.2180    -0.7620 C.3   1 <1>   0.0210 
 18 C       -4.8620    -9.3550    -0.1550 C.2   1 <1>   0.1080 
 19 N       -5.0120    -9.7410     1.0740 N.2   1 <1>  -0.7070 
 20 C       -3.8890   -10.0910    -0.8220 C.2   1 <1>  -0.1500 
 21 N       -4.1300   -10.7470     1.2250 N.pl3 1 <1>   0.3000 
 22 C       -3.4370   -10.9770     0.0900 C.2   1 <1>  -0.3320 
 23 C       -2.3670   -12.0440    -0.0550 C.3   1 <1>  -0.0600 
 24 H       -0.6750    -2.5770    -0.7810 H     1 <1>   0.1500 
 25 H       -2.6750     0.9630     0.3860 H     1 <1>   0.1500 
 26 H       -5.1520    -0.7680     2.2790 H     1 <1>   0.0800 
 27 H       -5.8520    -0.6270     0.6830 H     1 <1>   0.0800 
 28 H       -4.9880     0.7220     1.3810 H     1 <1>   0.0800 
 29 H       -5.6200    -4.0690     0.6740 H     1 <1>   0.0800 
 30 H       -5.2390    -3.7390    -1.0200 H     1 <1>   0.0800 
 31 H       -3.4020    -6.8500    -0.9250 H     1 <1>   0.0800 
 32 H       -3.3860    -6.9050     0.8290 H     1 <1>   0.0800 
 33 H       -6.0940    -5.7680    -1.7380 H     1 <1>   0.0800 
 34 H       -5.6740    -6.9910     0.9950 H     1 <1>   0.0800 
 35 H       -7.4110    -5.7440     0.7590 H     1 <1>   0.4000 
 36 H       -5.4160    -8.1280    -1.8050 H     1 <1>   0.0800 
 37 H       -6.7070    -8.4520    -0.6820 H     1 <1>   0.0800 
 38 H       -3.5820    -9.9600    -1.8440 H     1 <1>   0.1500 
 39 H       -4.0260   -11.2540     2.1110 H     1 <1>   0.2700 
 40 H       -1.9630   -12.0290    -1.0510 H     1 <1>   0.0800 
 41 H       -2.7860   -13.0180     0.1300 H     1 <1>   0.0800 
 42 H       -1.5680   -11.8660     0.6420 H     1 <1>   0.0800 
@<TRIPOS>BOND
  1   1   2  2   
  2   2   3  1   
  3   2   4  1   
  4   3   5  2   
  5   3  24  1   
  6   4   6  2   
  7   4  25  1   
  8   5   7  1   
  9   5   8  1   
 10   6   7  1   
 11   6   9  1   
 12   8  10  2   
 13   8  11  am  
 14   9  26  1   
 15   9  27  1   
 16   9  28  1   
 17  11  12  1   
 18  11  13  1   
 19  12  14  1   
 20  12  29  1   
 21  12  30  1   
 22  13  15  1   
 23  13  31  1   
 24  13  32  1   
 25  14  15  1   
 26  14  16  1   
 27  14  33  1   
 28  15  17  1   
 29  15  34  1   
 30  16  35  1   
 31  17  18  1   
 32  17  36  1   
 33  17  37  1   
 34  18  19  2   
 35  18  20  1   
 36  19  21  1   
 37  20  22  2   
 38  20  38  1   
 39  21  22  1   
 40  21  39  1   
 41  22  23  1   
 42  23  40  1   
 43  23  41  1   
 44  23  42  1   
@<TRIPOS>SUBSTRUCTURE
  1 ****  11 GROUP 4 **** **** 0

# MOE 2024.06 (io_trps.svl 2023.06)
