@<TRIPOS>MOLECULE
NONAME
21 22 1 0 0 
SMALL
USER_CHARGES


@<TRIPOS>ATOM
  1 O        0.8120    -0.0880    -0.8580 O.3   1 <1>  -0.5600 
  2 C        0.8770     1.0370    -0.0470 C.3   1 <1>   0.7400 
  3 C        1.8070    -0.9490    -0.4490 C.3   1 <1>   0.1200 
  4 O        1.2020     0.5250     1.2080 O.3   1 <1>  -0.5600 
  5 C        1.9660     2.0340    -0.4930 C.2   1 <1>   0.0060 
  6 C       -0.5050     1.6640     0.0230 C.3   1 <1>  -0.2400 
  7 C        1.9940    -0.5980     1.0170 C.3   1 <1>   0.1200 
  8 N        2.3830     2.2680    -1.7040 N.2   1 <1>  -0.5650 
  9 N        2.6000     2.7870     0.4330 N.pl3 1 <1>   0.0330 
 10 C        3.3280     3.2150    -1.5510 C.2   1 <1>   0.0770 
 11 C        3.4750     3.5450    -0.2500 C.2   1 <1>  -0.3020 
 12 H        2.6960    -0.7480    -1.0220 H     1 <1>   0.0800 
 13 H        1.4840    -1.9640    -0.5960 H     1 <1>   0.0800 
 14 H       -1.2220     0.9340     0.3460 H     1 <1>   0.0800 
 15 H       -0.7750     2.0260    -0.9520 H     1 <1>   0.0800 
 16 H       -0.4960     2.4920     0.7050 H     1 <1>   0.0800 
 17 H        3.0190    -0.3570     1.2380 H     1 <1>   0.0800 
 18 H        1.6460    -1.3840     1.6650 H     1 <1>   0.0800 
 19 H        2.4330     2.7490     1.4440 H     1 <1>   0.2700 
 20 H        3.8590     3.6130    -2.3990 H     1 <1>   0.1500 
 21 H        4.1360     4.2560     0.2110 H     1 <1>   0.1500 
@<TRIPOS>BOND
  1   1   2  1   
  2   1   3  1   
  3   2   4  1   
  4   2   5  1   
  5   2   6  1   
  6   3   7  1   
  7   3  12  1   
  8   3  13  1   
  9   4   7  1   
 10   5   8  2   
 11   5   9  1   
 12   6  14  1   
 13   6  15  1   
 14   6  16  1   
 15   7  17  1   
 16   7  18  1   
 17   8  10  1   
 18   9  11  1   
 19   9  19  1   
 20  10  11  2   
 21  10  20  1   
 22  11  21  1   
@<TRIPOS>SUBSTRUCTURE
  1 ****   5 GROUP 4 **** **** 0

# MOE 2024.06 (io_trps.svl 2023.06)
