@<TRIPOS>MOLECULE
NONAME
50 54 1 0 0 
SMALL
USER_CHARGES


@<TRIPOS>ATOM
  1 CL      -1.6710    -0.4260    -1.2070 Cl    1 <1>  -0.1770 
  2 C       -1.1450    -1.9970    -0.6630 C.ar  1 <1>   0.1770 
  3 C        0.1870    -2.3450    -0.7770 C.ar  1 <1>  -0.1500 
  4 C       -2.0660    -2.8740    -0.1250 C.ar  1 <1>  -0.1500 
  5 C        0.5970    -3.5950    -0.3430 C.ar  1 <1>  -0.1500 
  6 C       -1.6410    -4.1210     0.3050 C.ar  1 <1>  -0.1500 
  7 C       -0.3050    -4.5040     0.2040 C.ar  1 <1>  -0.0090 
  8 S        0.2510    -6.1380     0.7640 S.o2  1 <1>   1.4470 
  9 O        1.3930    -6.0050     1.6390 O.2   1 <1>  -0.6500 
 10 O       -0.8730    -6.9580     1.1540 O.2   1 <1>  -0.6500 
 11 N        0.7890    -6.8730    -0.6450 N.am  1 <1>  -0.9140 
 12 C        1.8670    -7.8430    -0.4780 C.3   1 <1>   0.1960 
 13 C        1.4400    -9.0900     0.3220 C.3   1 <1>  -0.0800 
 14 C        0.4620    -9.9760    -0.4680 C.3   1 <1>   0.2000 
 15 C        2.5700   -10.1070     0.5980 C.3   1 <1>  -0.0800 
 16 O        1.3410   -10.7950    -1.1420 O.3   1 <1>  -0.5600 
 17 C       -0.2390   -10.9850     0.4520 C.3   1 <1>  -0.1600 
 18 C        2.0250   -11.3590    -0.0800 C.3   1 <1>   0.2800 
 19 C        3.9440    -9.9120    -0.0570 C.3   1 <1>   0.1400 
 20 C        0.8830   -11.9950     0.7140 C.3   1 <1>  -0.1600 
 21 C        3.2310   -12.1980    -0.5040 C.3   1 <1>   0.1400 
 22 N        4.3960   -11.2740    -0.4290 N.am  1 <1>  -0.6600 
 23 C        5.6940   -11.7130    -0.3180 C.2   1 <1>   0.7160 
 24 O        5.9040   -12.9050    -0.1990 O.2   1 <1>  -0.5700 
 25 C        6.7910   -10.7760    -0.3150 C.2   1 <1>  -0.0860 
 26 C        6.9010    -9.6330    -1.1120 C.2   1 <1>   0.1390 
 27 C        7.9370   -10.7510     0.4190 C.2   1 <1>  -0.3020 
 28 N        7.9790    -8.9530    -0.8810 N.2   1 <1>  -0.7070 
 29 N        8.6250    -9.6560     0.0660 N.pl3 1 <1>   0.3000 
 30 H        0.8880    -1.6470    -1.1990 H     1 <1>   0.1500 
 31 H       -3.0980    -2.5820    -0.0440 H     1 <1>   0.1500 
 32 H        1.6350    -3.8730    -0.4290 H     1 <1>   0.1500 
 33 H       -2.3600    -4.8060     0.7270 H     1 <1>   0.1500 
 34 H       -0.0300    -7.3610    -1.0010 H     1 <1>   0.4200 
 35 H        2.1900    -8.1480    -1.4600 H     1 <1>   0.0800 
 36 H        2.7020    -7.3640     0.0080 H     1 <1>   0.0800 
 37 H        1.0090    -8.7930     1.2610 H     1 <1>   0.0800 
 38 H       -0.1940    -9.4600    -1.1470 H     1 <1>   0.0800 
 39 H        2.7030   -10.2760     1.6520 H     1 <1>   0.0800 
 40 H       -0.6050   -10.5210     1.3510 H     1 <1>   0.0800 
 41 H       -1.0590   -11.4480    -0.0690 H     1 <1>   0.0800 
 42 H        4.6310    -9.4390     0.6250 H     1 <1>   0.0800 
 43 H        3.8810    -9.3370    -0.9620 H     1 <1>   0.0800 
 44 H        0.6390   -12.9600     0.3050 H     1 <1>   0.0800 
 45 H        1.1230   -12.0920     1.7580 H     1 <1>   0.0800 
 46 H        3.1040   -12.5810    -1.5020 H     1 <1>   0.0800 
 47 H        3.3780   -13.0120     0.1840 H     1 <1>   0.0800 
 48 H        6.1680    -9.3430    -1.8460 H     1 <1>   0.1500 
 49 H        8.2710   -11.4570     1.1590 H     1 <1>   0.1500 
 50 H        9.5330    -9.3560     0.4430 H     1 <1>   0.2700 
@<TRIPOS>BOND
  1   1   2  1   
  2   2   3  ar  
  3   2   4  ar  
  4   3   5  ar  
  5   3  30  1   
  6   4   6  ar  
  7   4  31  1   
  8   5   7  ar  
  9   5  32  1   
 10   6   7  ar  
 11   6  33  1   
 12   7   8  1   
 13   8   9  2   
 14   8  10  2   
 15   8  11  am  
 16  11  12  1   
 17  11  34  1   
 18  12  13  1   
 19  12  35  1   
 20  12  36  1   
 21  13  14  1   
 22  13  15  1   
 23  13  37  1   
 24  14  16  1   
 25  14  17  1   
 26  14  38  1   
 27  15  18  1   
 28  15  19  1   
 29  15  39  1   
 30  16  18  1   
 31  17  20  1   
 32  17  40  1   
 33  17  41  1   
 34  18  20  1   
 35  18  21  1   
 36  19  22  1   
 37  19  42  1   
 38  19  43  1   
 39  20  44  1   
 40  20  45  1   
 41  21  22  1   
 42  21  46  1   
 43  21  47  1   
 44  22  23  am  
 45  23  24  2   
 46  23  25  1   
 47  25  26  1   
 48  25  27  2   
 49  26  28  2   
 50  26  48  1   
 51  27  29  1   
 52  27  49  1   
 53  28  29  1   
 54  29  50  1   
@<TRIPOS>SUBSTRUCTURE
  1 ****  12 GROUP 4 **** **** 0

# MOE 2024.06 (io_trps.svl 2023.06)
