@<TRIPOS>MOLECULE
NONAME
56 58 1 0 0 
SMALL
USER_CHARGES


@<TRIPOS>ATOM
  1 O       -0.4120     1.1070    -1.4490 O.2   1 <1>  -0.5700 
  2 C       -0.5120     2.3020    -1.2970 C.2   1 <1>   0.5690 
  3 N       -1.3380     2.8830    -0.3650 N.am  1 <1>  -0.6600 
  4 C        0.3380     3.1920    -2.2040 C.3   1 <1>   0.1810 
  5 C       -1.3890     4.3790    -0.2190 C.3   1 <1>   0.3640 
  6 C       -2.1010     2.1280     0.6700 C.3   1 <1>   0.2200 
  7 O        0.6600     4.4150    -1.5950 O.3   1 <1>  -0.5600 
  8 C       -2.8280     4.8770    -0.3570 C.ar  1 <1>  -0.1440 
  9 C       -0.4790     5.1580    -1.2010 C.3   1 <1>   0.2610 
 10 C       -1.1390     1.4060     1.6120 C.3   1 <1>  -0.2400 
 11 C       -3.1090     1.1680     0.0360 C.3   1 <1>  -0.2400 
 12 C       -3.6420     4.4420    -1.3940 C.ar  1 <1>  -0.1500 
 13 C       -3.3340     5.7880     0.5600 C.ar  1 <1>  -0.1500 
 14 C       -0.1070     6.5090    -0.5720 C.2   1 <1>   0.5690 
 15 C       -4.9420     4.9040    -1.5090 C.ar  1 <1>  -0.1500 
 16 C       -4.6330     6.2510     0.4450 C.ar  1 <1>  -0.1500 
 17 O       -0.6730     7.4860    -1.0100 O.2   1 <1>  -0.5700 
 18 N        0.7990     6.6300     0.4650 N.am  1 <1>  -0.6600 
 19 C       -5.4380     5.8090    -0.5890 C.ar  1 <1>  -0.1500 
 20 C        1.0870     7.9660     1.0490 C.3   1 <1>   0.1400 
 21 C        1.6870     5.5310     0.9510 C.3   1 <1>   0.0600 
 22 C        2.2670     8.6050     0.3160 C.3   1 <1>  -0.1600 
 23 C        2.4680    10.0540     0.7720 C.3   1 <1>   0.0960 
 24 N        3.6650    10.6360     0.1400 N.pl3 1 <1>   0.3140 
 25 N        4.8590    10.6450     0.7610 N.2   1 <1>  -0.7070 
 26 C        3.7440    11.2030    -1.0800 C.2   1 <1>  -0.3020 
 27 C        5.6660    11.2180    -0.0790 C.2   1 <1>   0.1390 
 28 C        5.0240    11.5910    -1.2530 C.2   1 <1>  -0.1500 
 29 H       -0.1880     3.3880    -3.1210 H     1 <1>   0.0800 
 30 H        1.2590     2.6890    -2.4330 H     1 <1>   0.0800 
 31 H       -1.0580     4.6030     0.7800 H     1 <1>   0.0800 
 32 H       -2.6650     2.8290     1.2640 H     1 <1>   0.0800 
 33 H       -1.0370     5.3680    -2.0960 H     1 <1>   0.0800 
 34 H       -0.5970     0.6370     1.0900 H     1 <1>   0.0800 
 35 H       -1.6900     0.9430     2.4090 H     1 <1>   0.0800 
 36 H       -0.4420     2.1030     2.0400 H     1 <1>   0.0800 
 37 H       -2.6140     0.3770    -0.4960 H     1 <1>   0.0800 
 38 H       -3.7560     1.6980    -0.6370 H     1 <1>   0.0800 
 39 H       -3.7150     0.7230     0.8030 H     1 <1>   0.0800 
 40 H       -3.2710     3.7360    -2.1160 H     1 <1>   0.1500 
 41 H       -2.7200     6.1510     1.3670 H     1 <1>   0.1500 
 42 H       -5.5660     4.5600    -2.3150 H     1 <1>   0.1500 
 43 H       -5.0170     6.9590     1.1590 H     1 <1>   0.1500 
 44 H       -6.4470     6.1700    -0.6780 H     1 <1>   0.1500 
 45 H        0.2170     8.5950     0.9550 H     1 <1>   0.0800 
 46 H        1.3070     7.8670     2.0990 H     1 <1>   0.0800 
 47 H        1.9200     5.6740     1.9920 H     1 <1>   0.0800 
 48 H        2.6010     5.5330     0.3830 H     1 <1>   0.0800 
 49 H        1.2180     4.5700     0.8420 H     1 <1>   0.0800 
 50 H        2.0720     8.5950    -0.7430 H     1 <1>   0.0800 
 51 H        3.1620     8.0420     0.5170 H     1 <1>   0.0800 
 52 H        2.6040    10.0940     1.8380 H     1 <1>   0.0800 
 53 H        1.6160    10.6540     0.5080 H     1 <1>   0.0800 
 54 H        2.9020    11.2950    -1.7410 H     1 <1>   0.1500 
 55 H        6.7110    11.3800     0.1220 H     1 <1>   0.1500 
 56 H        5.4770    12.0800    -2.0970 H     1 <1>   0.1500 
@<TRIPOS>BOND
  1   1   2  2   
  2   2   3  am  
  3   2   4  1   
  4   3   5  1   
  5   3   6  1   
  6   4   7  1   
  7   4  29  1   
  8   4  30  1   
  9   5   8  1   
 10   5   9  1   
 11   5  31  1   
 12   6  10  1   
 13   6  11  1   
 14   6  32  1   
 15   7   9  1   
 16   8  12  ar  
 17   8  13  ar  
 18   9  14  1   
 19   9  33  1   
 20  10  34  1   
 21  10  35  1   
 22  10  36  1   
 23  11  37  1   
 24  11  38  1   
 25  11  39  1   
 26  12  15  ar  
 27  12  40  1   
 28  13  16  ar  
 29  13  41  1   
 30  14  17  2   
 31  14  18  am  
 32  15  19  ar  
 33  15  42  1   
 34  16  19  ar  
 35  16  43  1   
 36  18  20  1   
 37  18  21  1   
 38  19  44  1   
 39  20  22  1   
 40  20  45  1   
 41  20  46  1   
 42  21  47  1   
 43  21  48  1   
 44  21  49  1   
 45  22  23  1   
 46  22  50  1   
 47  22  51  1   
 48  23  24  1   
 49  23  52  1   
 50  23  53  1   
 51  24  25  1   
 52  24  26  1   
 53  25  27  2   
 54  26  28  2   
 55  26  54  1   
 56  27  28  1   
 57  27  55  1   
 58  28  56  1   
@<TRIPOS>SUBSTRUCTURE
  1 ****  14 GROUP 4 **** **** 0

# MOE 2024.06 (io_trps.svl 2023.06)
