@<TRIPOS>MOLECULE
NONAME
49 52 1 0 0 
SMALL
USER_CHARGES


@<TRIPOS>ATOM
  1 O       -0.7170     0.1750    -0.5510 O.2   1 <1>  -0.5700 
  2 C       -1.0430     0.2320     0.6250 C.2   1 <1>   0.7160 
  3 N       -1.5650    -0.8770     1.2180 N.am  1 <1>  -0.7300 
  4 C       -0.8890     1.4670     1.3800 C.2   1 <1>   0.2030 
  5 C       -1.7630    -2.2100     0.6040 C.3   1 <1>   0.2200 
  6 N       -1.2580     1.6610     2.6350 N.2   1 <1>  -0.7070 
  7 C       -0.3210     2.6430     0.8730 C.2   1 <1>  -0.1810 
  8 C       -3.2410    -2.5030     0.3840 C.3   1 <1>  -0.0800 
  9 C       -1.4130    -3.2860     1.6230 C.3   1 <1>   0.1200 
 10 N       -0.9290     2.9290     2.9280 N.pl3 1 <1>   0.3000 
 11 C       -0.3560     3.5400     1.8710 C.2   1 <1>  -0.3320 
 12 C        0.2410     2.9000    -0.5100 C.3   1 <1>   0.5240 
 13 C       -3.6920    -3.0350     1.7490 C.3   1 <1>   0.1200 
 14 C       -4.0900    -1.3360    -0.1500 C.3   1 <1>  -0.0170 
 15 O       -2.5360    -3.4020     2.4440 O.3   1 <1>  -0.5600 
 16 C        0.1710     4.9570     1.7460 C.3   1 <1>   0.0200 
 17 N        0.2960     4.3870    -0.7170 N.4   1 <1>  -0.9590 
 18 C       -5.5270    -1.7740    -0.3890 C.ar  1 <1>  -0.1430 
 19 C        0.9700     5.0960     0.4310 C.3   1 <1>   0.3430 
 20 C        0.9220     4.7200    -2.0310 C.3   1 <1>   0.2630 
 21 C       -6.5350    -1.4990     0.5130 C.ar  1 <1>  -0.1500 
 22 C       -5.8950    -2.4710    -1.5210 C.ar  1 <1>  -0.1500 
 23 C       -7.8250    -1.9280     0.2490 C.ar  1 <1>   0.1600 
 24 C       -7.2160    -2.8540    -1.6900 C.ar  1 <1>   0.1600 
 25 N       -8.1900    -2.6010    -0.8300 N.ar  1 <1>  -0.6200 
 26 H       -1.8270    -0.8010     2.2070 H     1 <1>   0.3700 
 27 H       -1.1830    -2.3040    -0.2990 H     1 <1>   0.0800 
 28 H       -3.3130    -3.3180    -0.3150 H     1 <1>   0.0800 
 29 H       -0.5520    -3.0360     2.2190 H     1 <1>   0.0800 
 30 H       -1.2610    -4.2350     1.1390 H     1 <1>   0.0800 
 31 H       -1.1070     3.3400     3.8560 H     1 <1>   0.2700 
 32 H       -0.3920     2.4410    -1.2530 H     1 <1>   0.0800 
 33 H        1.2260     2.4690    -0.5830 H     1 <1>   0.0800 
 34 H       -4.3330    -3.8940     1.6520 H     1 <1>   0.0800 
 35 H       -4.1880    -2.2740     2.3260 H     1 <1>   0.0800 
 36 H       -3.6690    -0.9800    -1.0740 H     1 <1>   0.0800 
 37 H       -4.0830    -0.5150     0.5460 H     1 <1>   0.0800 
 38 H       -0.6500     5.6530     1.7480 H     1 <1>   0.0800 
 39 H        0.8120     5.1940     2.5770 H     1 <1>   0.0800 
 40 H       -0.6880     4.6890    -0.7190 H     1 <1>   0.4500 
 41 H        1.9500     4.6720     0.5770 H     1 <1>   0.0800 
 42 H        1.0910     6.1430     0.2020 H     1 <1>   0.0800 
 43 H        1.9490     4.3930    -2.0510 H     1 <1>   0.0800 
 44 H        0.8950     5.7850    -2.1990 H     1 <1>   0.0800 
 45 H        0.3900     4.2340    -2.8340 H     1 <1>   0.0800 
 46 H       -6.3320    -0.9560     1.4180 H     1 <1>   0.1500 
 47 H       -5.1700    -2.7210    -2.2740 H     1 <1>   0.1500 
 48 H       -8.5980    -1.7050     0.9640 H     1 <1>   0.1500 
 49 H       -7.4850    -3.3980    -2.5790 H     1 <1>   0.1500 
@<TRIPOS>BOND
  1   1   2  2   
  2   2   3  am  
  3   2   4  1   
  4   3   5  1   
  5   3  26  1   
  6   4   6  2   
  7   4   7  1   
  8   5   8  1   
  9   5   9  1   
 10   5  27  1   
 11   6  10  1   
 12   7  11  2   
 13   7  12  1   
 14   8  13  1   
 15   8  14  1   
 16   8  28  1   
 17   9  15  1   
 18   9  29  1   
 19   9  30  1   
 20  10  11  1   
 21  10  31  1   
 22  11  16  1   
 23  12  17  1   
 24  12  32  1   
 25  12  33  1   
 26  13  15  1   
 27  13  34  1   
 28  13  35  1   
 29  14  18  1   
 30  14  36  1   
 31  14  37  1   
 32  16  19  1   
 33  16  38  1   
 34  16  39  1   
 35  17  19  1   
 36  17  20  1   
 37  17  40  1   
 38  18  21  ar  
 39  18  22  ar  
 40  19  41  1   
 41  19  42  1   
 42  20  43  1   
 43  20  44  1   
 44  20  45  1   
 45  21  23  ar  
 46  21  46  1   
 47  22  24  ar  
 48  22  47  1   
 49  23  25  ar  
 50  23  48  1   
 51  24  25  ar  
 52  24  49  1   
@<TRIPOS>SUBSTRUCTURE
  1 ****   2 GROUP 4 **** **** 0

# MOE 2024.06 (io_trps.svl 2023.06)
