@<TRIPOS>MOLECULE
NONAME
61 63 1 0 0 
SMALL
USER_CHARGES


@<TRIPOS>ATOM
  1 O        0.0190     0.0590     0.9640 O.3   1 <1>  -0.5600 
  2 C        0.3570    -1.0730     0.2210 C.3   1 <1>   0.2800 
  3 C       -0.9880     0.8970     0.4650 C.3   1 <1>   0.1200 
  4 C       -0.9130    -1.7620    -0.3500 C.3   1 <1>  -0.1600 
  5 C        1.1010    -1.9780     1.2180 C.3   1 <1>  -0.1600 
  6 C        1.3290    -0.6260    -0.8830 C.3   1 <1>  -0.1600 
  7 C       -2.3350     0.1580     0.4070 C.3   1 <1>  -0.1600 
  8 C       -2.1880    -1.3660     0.4010 C.3   1 <1>   0.2800 
  9 C        1.8420    -3.1170     0.5290 C.3   1 <1>   0.3430 
 10 C        2.0590    -1.8090    -1.5120 C.3   1 <1>   0.3430 
 11 O       -2.0460    -1.7670     1.7020 O.3   1 <1>  -0.6800 
 12 C       -3.4290    -2.0700    -0.1400 C.3   1 <1>  -0.2400 
 13 N        2.8180    -2.5440    -0.4500 N.4   1 <1>  -0.9590 
 14 C        3.7160    -3.6310    -1.0060 C.3   1 <1>   0.3430 
 15 C        5.1930    -3.2470    -1.4070 C.3   1 <1>   0.5030 
 16 N        5.9870    -2.5310    -0.3370 N.4   1 <1>  -0.9590 
 17 C        5.2190    -2.4200    -2.7010 C.3   1 <1>  -0.2400 
 18 C        5.9500    -4.5470    -1.7040 C.3   1 <1>  -0.2400 
 19 C        5.9510    -3.1900     1.0150 C.3   1 <1>   0.3430 
 20 C        5.8180    -1.0390    -0.2310 C.3   1 <1>   0.3430 
 21 C        7.0440    -2.6150     1.9150 C.3   1 <1>  -0.1600 
 22 C        6.9080    -0.4440     0.6610 C.3   1 <1>  -0.1600 
 23 C        6.9330    -1.0930     2.0470 C.3   1 <1>  -0.1600 
 24 H       -0.6970     1.2400    -0.5130 H     1 <1>   0.0800 
 25 H       -1.0590     1.7510     1.1160 H     1 <1>   0.0800 
 26 H       -0.8170    -2.8320    -0.3480 H     1 <1>   0.0800 
 27 H       -1.0470    -1.4740    -1.3770 H     1 <1>   0.0800 
 28 H        0.4060    -2.4040     1.9180 H     1 <1>   0.0800 
 29 H        1.8040    -1.3930     1.7840 H     1 <1>   0.0800 
 30 H        2.0510     0.0590    -0.4740 H     1 <1>   0.0800 
 31 H        0.7930    -0.1040    -1.6560 H     1 <1>   0.0800 
 32 H       -2.8350     0.4730    -0.4920 H     1 <1>   0.0800 
 33 H       -2.9630     0.4650     1.2260 H     1 <1>   0.0800 
 34 H        1.1360    -3.7570     0.0230 H     1 <1>   0.0800 
 35 H        2.3550    -3.7030     1.2740 H     1 <1>   0.0800 
 36 H        2.7240    -1.4440    -2.2760 H     1 <1>   0.0800 
 37 H        1.3430    -2.4680    -1.9780 H     1 <1>   0.0800 
 38 H       -1.4440    -1.1300     2.1390 H     1 <1>   0.4000 
 39 H       -3.5930    -1.8060    -1.1690 H     1 <1>   0.0800 
 40 H       -4.2950    -1.7780     0.4260 H     1 <1>   0.0800 
 41 H       -3.3150    -3.1370    -0.0750 H     1 <1>   0.0800 
 42 H        3.3740    -1.8590     0.0730 H     1 <1>   0.4500 
 43 H        3.2380    -4.0730    -1.8660 H     1 <1>   0.0800 
 44 H        3.7900    -4.4160    -0.2730 H     1 <1>   0.0800 
 45 H        6.9660    -2.6380    -0.6410 H     1 <1>   0.4500 
 46 H        4.6960    -1.4880    -2.6090 H     1 <1>   0.0800 
 47 H        4.7510    -2.9690    -3.5010 H     1 <1>   0.0800 
 48 H        6.2320    -2.2170    -3.0050 H     1 <1>   0.0800 
 49 H        5.9350    -5.2270    -0.8710 H     1 <1>   0.0800 
 50 H        6.9730    -4.3500    -1.9720 H     1 <1>   0.0800 
 51 H        5.4970    -5.0610    -2.5350 H     1 <1>   0.0800 
 52 H        6.1110    -4.2520     0.9240 H     1 <1>   0.0800 
 53 H        4.9930    -3.0290     1.4800 H     1 <1>   0.0800 
 54 H        4.8560    -0.7970     0.1850 H     1 <1>   0.0800 
 55 H        5.8960    -0.5780    -1.2030 H     1 <1>   0.0800 
 56 H        8.0110    -2.8790     1.5220 H     1 <1>   0.0800 
 57 H        6.9680    -3.0610     2.8920 H     1 <1>   0.0800 
 58 H        6.7370     0.6140     0.7690 H     1 <1>   0.0800 
 59 H        7.8660    -0.5610     0.1840 H     1 <1>   0.0800 
 60 H        7.7700    -0.7150     2.6120 H     1 <1>   0.0800 
 61 H        6.0360    -0.8380     2.5880 H     1 <1>   0.0800 
@<TRIPOS>BOND
  1   1   2  1   
  2   1   3  1   
  3   2   4  1   
  4   2   5  1   
  5   2   6  1   
  6   3   7  1   
  7   3  24  1   
  8   3  25  1   
  9   4   8  1   
 10   4  26  1   
 11   4  27  1   
 12   5   9  1   
 13   5  28  1   
 14   5  29  1   
 15   6  10  1   
 16   6  30  1   
 17   6  31  1   
 18   7   8  1   
 19   7  32  1   
 20   7  33  1   
 21   8  11  1   
 22   8  12  1   
 23   9  13  1   
 24   9  34  1   
 25   9  35  1   
 26  10  13  1   
 27  10  36  1   
 28  10  37  1   
 29  11  38  1   
 30  12  39  1   
 31  12  40  1   
 32  12  41  1   
 33  13  14  1   
 34  13  42  1   
 35  14  15  1   
 36  14  43  1   
 37  14  44  1   
 38  15  16  1   
 39  15  17  1   
 40  15  18  1   
 41  16  19  1   
 42  16  20  1   
 43  16  45  1   
 44  17  46  1   
 45  17  47  1   
 46  17  48  1   
 47  18  49  1   
 48  18  50  1   
 49  18  51  1   
 50  19  21  1   
 51  19  52  1   
 52  19  53  1   
 53  20  22  1   
 54  20  54  1   
 55  20  55  1   
 56  21  23  1   
 57  21  56  1   
 58  21  57  1   
 59  22  23  1   
 60  22  58  1   
 61  22  59  1   
 62  23  60  1   
 63  23  61  1   
@<TRIPOS>SUBSTRUCTURE
  1 ****  13 GROUP 4 **** **** 0

# MOE 2024.06 (io_trps.svl 2023.06)
