@<TRIPOS>MOLECULE
NONAME
51 53 1 0 0 
SMALL
USER_CHARGES


@<TRIPOS>ATOM
  1 O        1.7650    -0.3220     2.2990 O.2   1 <1>  -0.5700 
  2 C        2.0640    -0.8080     1.2250 C.2   1 <1>   0.5440 
  3 N        2.5660     0.0230     0.2340 N.am  1 <1>  -0.6600 
  4 C        1.9070    -2.2310     1.0230 C.ar  1 <1>   0.0860 
  5 C        2.7930     1.4720     0.5450 C.3   1 <1>   0.1400 
  6 C        3.1740    -0.5270    -1.0200 C.3   1 <1>   0.1400 
  7 C        0.7590    -2.7520     0.4330 C.ar  1 <1>  -0.1500 
  8 C        2.9120    -3.1190     1.3910 C.ar  1 <1>  -0.1500 
  9 C        4.2670     1.8140     0.8860 C.3   1 <1>   0.4230 
 10 C        4.6550    -0.1440    -1.2360 C.3   1 <1>  -0.0800 
 11 C        0.6070    -4.1130     0.1950 C.ar  1 <1>   0.0830 
 12 C        2.7830    -4.4730     1.1530 C.ar  1 <1>  -0.1500 
 13 N        5.0910     2.1800    -0.3250 N.4   1 <1>  -0.9590 
 14 C        5.0070     0.7370     1.7270 C.3   1 <1>   0.1200 
 15 C        5.6460    -0.6650    -0.1710 C.3   1 <1>   0.1200 
 16 C        4.8110     1.3490    -1.5340 C.3   1 <1>   0.3430 
 17 O       -0.5380    -4.5830    -0.3790 O.3   1 <1>  -0.3630 
 18 C        1.6490    -4.9910     0.5500 C.ar  1 <1>   0.0830 
 19 C        4.9720     3.6350    -0.6500 C.3   1 <1>   0.2630 
 20 O        5.1650    -0.5260     1.1290 O.3   1 <1>  -0.5600 
 21 C       -1.7640    -3.8980    -0.2280 C.3   1 <1>   0.0400 
 22 O        1.6830    -6.3400     0.3690 O.3   1 <1>  -0.3630 
 23 C        0.6770    -7.0730    -0.2880 C.3   1 <1>   0.1200 
 24 C        1.1190    -8.5320    -0.3500 C.3   1 <1>  -0.2400 
 25 H        2.4460     2.0730    -0.2750 H     1 <1>   0.0800 
 26 H        2.1910     1.7530     1.3910 H     1 <1>   0.0800 
 27 H        3.1100    -1.6010    -1.0250 H     1 <1>   0.0800 
 28 H        2.5880    -0.1820    -1.8550 H     1 <1>   0.0800 
 29 H       -0.0090    -2.0540     0.1600 H     1 <1>   0.1500 
 30 H        3.8000    -2.7370     1.8650 H     1 <1>   0.1500 
 31 H        4.2260     2.6900     1.5110 H     1 <1>   0.0800 
 32 H        4.9350    -0.6330    -2.1520 H     1 <1>   0.0800 
 33 H        3.5710    -5.1470     1.4390 H     1 <1>   0.1500 
 34 H        6.0660     1.9900    -0.0550 H     1 <1>   0.4500 
 35 H        4.4500     0.5710     2.6340 H     1 <1>   0.0800 
 36 H        5.9830     1.0910     2.0090 H     1 <1>   0.0800 
 37 H        6.6090    -0.1900    -0.2410 H     1 <1>   0.0800 
 38 H        5.7910    -1.7220    -0.3200 H     1 <1>   0.0800 
 39 H        3.9120     1.6980    -2.0160 H     1 <1>   0.0800 
 40 H        5.6220     1.4770    -2.2340 H     1 <1>   0.0800 
 41 H        3.9600     3.8770    -0.9310 H     1 <1>   0.0800 
 42 H        5.6270     3.8920    -1.4680 H     1 <1>   0.0800 
 43 H        5.2450     4.2340     0.2050 H     1 <1>   0.0800 
 44 H       -2.5530    -4.5530    -0.5500 H     1 <1>   0.0800 
 45 H       -1.7520    -3.0160    -0.8430 H     1 <1>   0.0800 
 46 H       -1.8990    -3.6450     0.8090 H     1 <1>   0.0800 
 47 H       -0.2360    -6.9750     0.2730 H     1 <1>   0.0800 
 48 H        0.5540    -6.6690    -1.2780 H     1 <1>   0.0800 
 49 H        1.2540    -8.9180     0.6440 H     1 <1>   0.0800 
 50 H        2.0410    -8.6140    -0.8970 H     1 <1>   0.0800 
 51 H        0.3690    -9.1180    -0.8490 H     1 <1>   0.0800 
@<TRIPOS>BOND
  1   1   2  2   
  2   2   3  am  
  3   2   4  1   
  4   3   5  1   
  5   3   6  1   
  6   4   7  ar  
  7   4   8  ar  
  8   5   9  1   
  9   5  25  1   
 10   5  26  1   
 11   6  10  1   
 12   6  27  1   
 13   6  28  1   
 14   7  11  ar  
 15   7  29  1   
 16   8  12  ar  
 17   8  30  1   
 18   9  13  1   
 19   9  14  1   
 20   9  31  1   
 21  10  15  1   
 22  10  16  1   
 23  10  32  1   
 24  11  17  1   
 25  11  18  ar  
 26  12  18  ar  
 27  12  33  1   
 28  13  16  1   
 29  13  19  1   
 30  13  34  1   
 31  14  20  1   
 32  14  35  1   
 33  14  36  1   
 34  15  20  1   
 35  15  37  1   
 36  15  38  1   
 37  16  39  1   
 38  16  40  1   
 39  17  21  1   
 40  18  22  1   
 41  19  41  1   
 42  19  42  1   
 43  19  43  1   
 44  21  44  1   
 45  21  45  1   
 46  21  46  1   
 47  22  23  1   
 48  23  24  1   
 49  23  47  1   
 50  23  48  1   
 51  24  49  1   
 52  24  50  1   
 53  24  51  1   
@<TRIPOS>SUBSTRUCTURE
  1 ****   4 GROUP 4 **** **** 0

# MOE 2024.06 (io_trps.svl 2023.06)
