@<TRIPOS>MOLECULE
NONAME
52 54 1 0 0 
SMALL
USER_CHARGES


@<TRIPOS>ATOM
  1 N       -0.9910    -0.1000     1.1390 N.ar  1 <1>  -0.6200 
  2 C       -1.6490    -1.0570     0.5090 C.ar  1 <1>   0.4100 
  3 C        0.1510    -0.5340     1.6580 C.ar  1 <1>   0.1600 
  4 N       -2.8690    -0.6970    -0.0840 N.pl3 1 <1>  -0.8380 
  5 C       -1.1680    -2.4020     0.4130 C.ar  1 <1>   0.4100 
  6 C        0.6090    -1.8360     1.5670 C.ar  1 <1>   0.1600 
  7 C       -2.7460    -0.2560    -1.4980 C.3   1 <1>   0.1290 
  8 C       -3.7560     0.1940     0.7150 C.3   1 <1>   0.1290 
  9 N       -0.0360    -2.8200     0.9480 N.ar  1 <1>  -0.6200 
 10 N       -1.9270    -3.3450    -0.2680 N.pl3 1 <1>  -0.8690 
 11 C       -2.0370    -4.7020     0.2620 C.3   1 <1>   0.2890 
 12 C       -1.0920    -5.5980    -0.5320 C.3   1 <1>  -0.1600 
 13 C       -3.4800    -5.1710     0.1210 C.3   1 <1>  -0.1600 
 14 C       -1.2500    -7.0490    -0.1030 C.3   1 <1>   0.3430 
 15 C       -3.6020    -6.6340     0.5340 C.3   1 <1>   0.3430 
 16 N       -2.6710    -7.4740    -0.2820 N.4   1 <1>  -0.9590 
 17 C       -2.8050    -8.9330     0.0200 C.3   1 <1>   0.3430 
 18 C       -4.1410    -9.5040    -0.4590 C.3   1 <1>  -0.0170 
 19 C       -4.1380   -10.9990    -0.2080 C.ar  1 <1>  -0.1430 
 20 C       -3.6700   -11.8700    -1.1810 C.ar  1 <1>  -0.1500 
 21 C       -4.5900   -11.5060     1.0010 C.ar  1 <1>  -0.1500 
 22 C       -3.6480   -13.2330    -0.9440 C.ar  1 <1>  -0.1500 
 23 C       -4.5670   -12.8690     1.2370 C.ar  1 <1>  -0.1500 
 24 C       -4.0950   -13.7330     0.2650 C.ar  1 <1>  -0.1500 
 25 H        0.7480     0.1910     2.1830 H     1 <1>   0.1500 
 26 H        1.5500    -2.0860     2.0240 H     1 <1>   0.1500 
 27 H       -2.0910    -0.9200    -2.0360 H     1 <1>   0.0800 
 28 H       -2.3350     0.7390    -1.5360 H     1 <1>   0.0800 
 29 H       -3.7120    -0.2610    -1.9710 H     1 <1>   0.0800 
 30 H       -3.7530    -0.1170     1.7460 H     1 <1>   0.0800 
 31 H       -4.7630     0.1430     0.3400 H     1 <1>   0.0800 
 32 H       -3.4050     1.2100     0.6610 H     1 <1>   0.0800 
 33 H       -2.8280    -2.9000    -0.4930 H     1 <1>   0.4000 
 34 H       -1.7570    -4.7090     1.3040 H     1 <1>   0.0800 
 35 H       -0.0790    -5.2880    -0.3500 H     1 <1>   0.0800 
 36 H       -1.2840    -5.5030    -1.5860 H     1 <1>   0.0800 
 37 H       -3.8140    -5.0550    -0.8950 H     1 <1>   0.0800 
 38 H       -4.1100    -4.5740     0.7570 H     1 <1>   0.0800 
 39 H       -0.9620    -7.1510     0.9310 H     1 <1>   0.0800 
 40 H       -0.5990    -7.6690    -0.6990 H     1 <1>   0.0800 
 41 H       -4.6210    -6.9570     0.3890 H     1 <1>   0.0800 
 42 H       -3.3610    -6.7340     1.5800 H     1 <1>   0.0800 
 43 H       -2.9020    -7.3270    -1.2750 H     1 <1>   0.4500 
 44 H       -2.7060    -9.1020     1.0810 H     1 <1>   0.0800 
 45 H       -2.0150    -9.4760    -0.4730 H     1 <1>   0.0800 
 46 H       -4.2700    -9.3210    -1.5110 H     1 <1>   0.0800 
 47 H       -4.9640    -9.0610     0.0730 H     1 <1>   0.0800 
 48 H       -3.3220   -11.5030    -2.1310 H     1 <1>   0.1500 
 49 H       -4.9660   -10.8540     1.7700 H     1 <1>   0.1500 
 50 H       -3.2860   -13.9070    -1.7010 H     1 <1>   0.1500 
 51 H       -4.9200   -13.2620     2.1760 H     1 <1>   0.1500 
 52 H       -4.0790   -14.7940     0.4490 H     1 <1>   0.1500 
@<TRIPOS>BOND
  1   1   2  ar  
  2   1   3  ar  
  3   2   4  1   
  4   2   5  ar  
  5   3   6  ar  
  6   3  25  1   
  7   4   7  1   
  8   4   8  1   
  9   5   9  ar  
 10   5  10  1   
 11   6   9  ar  
 12   6  26  1   
 13   7  27  1   
 14   7  28  1   
 15   7  29  1   
 16   8  30  1   
 17   8  31  1   
 18   8  32  1   
 19  10  11  1   
 20  10  33  1   
 21  11  12  1   
 22  11  13  1   
 23  11  34  1   
 24  12  14  1   
 25  12  35  1   
 26  12  36  1   
 27  13  15  1   
 28  13  37  1   
 29  13  38  1   
 30  14  16  1   
 31  14  39  1   
 32  14  40  1   
 33  15  16  1   
 34  15  41  1   
 35  15  42  1   
 36  16  17  1   
 37  16  43  1   
 38  17  18  1   
 39  17  44  1   
 40  17  45  1   
 41  18  19  1   
 42  18  46  1   
 43  18  47  1   
 44  19  20  ar  
 45  19  21  ar  
 46  20  22  ar  
 47  20  48  1   
 48  21  23  ar  
 49  21  49  1   
 50  22  24  ar  
 51  22  50  1   
 52  23  24  ar  
 53  23  51  1   
 54  24  52  1   
@<TRIPOS>SUBSTRUCTURE
  1 ****  13 GROUP 4 **** **** 0

# MOE 2024.06 (io_trps.svl 2023.06)
