@<TRIPOS>MOLECULE
NONAME
34 35 1 0 0 
SMALL
USER_CHARGES


@<TRIPOS>ATOM
  1 CL      -0.9340    -1.0970    -0.3240 Cl    1 <1>  -0.1770 
  2 C       -1.8520     0.2560     0.2880 C.ar  1 <1>   0.1770 
  3 C       -3.1700     0.4360    -0.1150 C.ar  1 <1>  -0.1440 
  4 C       -1.2350     1.1220     1.1710 C.ar  1 <1>  -0.1500 
  5 C       -3.8870     1.5210     0.3840 C.ar  1 <1>  -0.1500 
  6 C       -3.8150    -0.5250    -1.0970 C.3   1 <1>   0.4870 
  7 C       -1.9740     2.1840     1.6490 C.ar  1 <1>   0.1900 
  8 C       -3.2880     2.4010     1.2730 C.ar  1 <1>  -0.1500 
  9 N       -4.7400    -1.4250    -0.3690 N.4   1 <1>  -0.9590 
 10 F       -1.4150     3.0140     2.4850 F     1 <1>  -0.1900 
 11 C       -3.9790    -2.4330     0.4740 C.3   1 <1>   0.3430 
 12 C       -5.6890    -2.1010    -1.3010 C.3   1 <1>   0.3430 
 13 C       -4.7360    -3.7560     0.7080 C.3   1 <1>   0.2000 
 14 C       -6.7830    -2.8030    -0.4900 C.3   1 <1>  -0.1600 
 15 O       -4.4880    -4.5950    -0.3660 O.3   1 <1>  -0.6800 
 16 C       -6.2470    -3.5110     0.7820 C.3   1 <1>  -0.1860 
 17 C       -6.9630    -4.8140     1.0580 C.2   1 <1>   0.9060 
 18 O       -7.7260    -4.8650     2.0190 O.co2 1 <1>  -0.9000 
 19 O       -6.7270    -5.7700     0.3090 O.co2 1 <1>  -0.9000 
 20 H       -0.2140     0.9790     1.4770 H     1 <1>   0.1500 
 21 H       -4.9080     1.6980     0.0870 H     1 <1>   0.1500 
 22 H       -3.0660    -1.1040    -1.6140 H     1 <1>   0.0800 
 23 H       -4.3620     0.0440    -1.8310 H     1 <1>   0.0800 
 24 H       -3.8220     3.2470     1.6700 H     1 <1>   0.1500 
 25 H       -5.3090    -0.8660     0.2740 H     1 <1>   0.4500 
 26 H       -3.0390    -2.6780     0.0080 H     1 <1>   0.0800 
 27 H       -3.7630    -1.9890     1.4310 H     1 <1>   0.0800 
 28 H       -6.1400    -1.3920    -1.9760 H     1 <1>   0.0800 
 29 H       -5.1570    -2.8380    -1.8820 H     1 <1>   0.0800 
 30 H       -4.3810    -4.2550     1.5950 H     1 <1>   0.0800 
 31 H       -7.5550    -2.1060    -0.2160 H     1 <1>   0.0800 
 32 H       -7.2410    -3.5350    -1.1360 H     1 <1>   0.0800 
 33 H       -5.1940    -5.3130    -0.3180 H     1 <1>   0.4000 
 34 H       -6.4330    -2.8770     1.6290 H     1 <1>   0.0800 
@<TRIPOS>BOND
  1   1   2  1   
  2   2   3  ar  
  3   2   4  ar  
  4   3   5  ar  
  5   3   6  1   
  6   4   7  ar  
  7   4  20  1   
  8   5   8  ar  
  9   5  21  1   
 10   6   9  1   
 11   6  22  1   
 12   6  23  1   
 13   7   8  ar  
 14   7  10  1   
 15   8  24  1   
 16   9  11  1   
 17   9  12  1   
 18   9  25  1   
 19  11  13  1   
 20  11  26  1   
 21  11  27  1   
 22  12  14  1   
 23  12  28  1   
 24  12  29  1   
 25  13  15  1   
 26  13  16  1   
 27  13  30  1   
 28  14  16  1   
 29  14  31  1   
 30  14  32  1   
 31  15  33  1   
 32  16  17  1   
 33  16  34  1   
 34  17  18  ar  
 35  17  19  ar  
@<TRIPOS>SUBSTRUCTURE
  1 ****   9 GROUP 4 **** **** 0

# MOE 2024.06 (io_trps.svl 2023.06)
