@<TRIPOS>MOLECULE
NONAME
56 59 1 0 0 
SMALL
USER_CHARGES


@<TRIPOS>ATOM
  1 O       -0.0580     0.5000     1.3630 O.2   1 <1>  -0.5700 
  2 C       -0.0760     1.5860     0.8140 C.2   1 <1>   0.5440 
  3 N       -1.2690     2.0510     0.3000 N.am  1 <1>  -0.6600 
  4 C        1.1530     2.3550     0.7310 C.ar  1 <1>   0.0860 
  5 C       -1.5000     3.4840    -0.0440 C.3   1 <1>   0.1400 
  6 C       -2.4530     1.1490     0.2160 C.3   1 <1>   0.1400 
  7 C        1.6060     2.8960    -0.4720 C.ar  1 <1>  -0.1500 
  8 C        1.9370     2.5660     1.8630 C.ar  1 <1>  -0.1500 
  9 C       -2.9430     3.8630     0.2840 C.3   1 <1>  -0.1600 
 10 C       -3.4260     1.6510    -0.8520 C.3   1 <1>  -0.1600 
 11 C        2.7790     3.6240    -0.5390 C.ar  1 <1>  -0.1500 
 12 C        3.1130     3.2920     1.8040 C.ar  1 <1>  -0.1500 
 13 C       -3.9780     3.0830    -0.5760 C.3   1 <1>   0.2800 
 14 C        3.5450     3.8250     0.6000 C.ar  1 <1>  -0.1430 
 15 O       -4.0800     3.6700    -1.8570 O.3   1 <1>  -0.5600 
 16 C       -5.4060     3.0660     0.0720 C.3   1 <1>   0.2000 
 17 C        4.8490     4.6130     0.5280 C.3   1 <1>   0.2390 
 18 C       -4.6210     4.9610    -1.9760 C.3   1 <1>   0.1200 
 19 O       -6.2190     2.1600    -0.6250 O.3   1 <1>  -0.6800 
 20 C       -6.1050     4.4570     0.0310 C.3   1 <1>   0.2800 
 21 N        5.7750     4.0530    -0.4780 N.pl3 1 <1>   0.3140 
 22 C       -6.0390     5.0220    -1.3940 C.3   1 <1>  -0.1600 
 23 O       -5.4550     5.3450     0.8670 O.3   1 <1>  -0.6800 
 24 C       -7.5500     4.4230     0.5440 C.3   1 <1>  -0.2400 
 25 N        6.3150     4.7960    -1.4210 N.2   1 <1>  -0.4180 
 26 C        6.2410     2.8210    -0.6280 C.2   1 <1>   0.0060 
 27 N        7.0740     4.0190    -2.1060 N.2   1 <1>   0.0000 
 28 N        7.0400     2.7830    -1.6230 N.2   1 <1>  -0.3380 
 29 C        5.8940     1.6200     0.2340 C.3   1 <1>  -0.0600 
 30 H       -0.8310     4.1100     0.5210 H     1 <1>   0.0800 
 31 H       -1.3150     3.6360    -1.0940 H     1 <1>   0.0800 
 32 H       -2.1260     0.1530    -0.0340 H     1 <1>   0.0800 
 33 H       -2.9380     1.1100     1.1760 H     1 <1>   0.0800 
 34 H        1.0280     2.7340    -1.3650 H     1 <1>   0.1500 
 35 H        1.6090     2.1450     2.7990 H     1 <1>   0.1500 
 36 H       -3.0490     4.9230     0.1890 H     1 <1>   0.0800 
 37 H       -3.1100     3.6410     1.3230 H     1 <1>   0.0800 
 38 H       -4.2050     0.9210    -0.9440 H     1 <1>   0.0800 
 39 H       -2.8940     1.6470    -1.7870 H     1 <1>   0.0800 
 40 H        3.0970     4.0270    -1.4880 H     1 <1>   0.1500 
 41 H        3.6850     3.4310     2.7060 H     1 <1>   0.1500 
 42 H       -5.3540     2.7190     1.0880 H     1 <1>   0.0800 
 43 H        5.3470     4.6090     1.4790 H     1 <1>   0.0800 
 44 H        4.6350     5.6330     0.2630 H     1 <1>   0.0800 
 45 H       -3.9730     5.6690    -1.4950 H     1 <1>   0.0800 
 46 H       -4.6470     5.2000    -3.0250 H     1 <1>   0.0800 
 47 H       -6.0440     2.2840    -1.5820 H     1 <1>   0.4000 
 48 H       -6.6850     4.4490    -2.0350 H     1 <1>   0.0800 
 49 H       -6.3960     6.0350    -1.4120 H     1 <1>   0.0800 
 50 H       -5.9920     6.1530     0.9590 H     1 <1>   0.4000 
 51 H       -8.1540     3.7880    -0.0790 H     1 <1>   0.0800 
 52 H       -7.9880     5.4040     0.5370 H     1 <1>   0.0800 
 53 H       -7.5770     4.0250     1.5430 H     1 <1>   0.0800 
 54 H        6.5220     0.7870    -0.0310 H     1 <1>   0.0800 
 55 H        4.8690     1.3350     0.0760 H     1 <1>   0.0800 
 56 H        6.0440     1.8460     1.2740 H     1 <1>   0.0800 
@<TRIPOS>BOND
  1   1   2  2   
  2   2   3  am  
  3   2   4  1   
  4   3   5  1   
  5   3   6  1   
  6   4   7  ar  
  7   4   8  ar  
  8   5   9  1   
  9   5  30  1   
 10   5  31  1   
 11   6  10  1   
 12   6  32  1   
 13   6  33  1   
 14   7  11  ar  
 15   7  34  1   
 16   8  12  ar  
 17   8  35  1   
 18   9  13  1   
 19   9  36  1   
 20   9  37  1   
 21  10  13  1   
 22  10  38  1   
 23  10  39  1   
 24  11  14  ar  
 25  11  40  1   
 26  12  14  ar  
 27  12  41  1   
 28  13  15  1   
 29  13  16  1   
 30  14  17  1   
 31  15  18  1   
 32  16  19  1   
 33  16  20  1   
 34  16  42  1   
 35  17  21  1   
 36  17  43  1   
 37  17  44  1   
 38  18  22  1   
 39  18  45  1   
 40  18  46  1   
 41  19  47  1   
 42  20  22  1   
 43  20  23  1   
 44  20  24  1   
 45  21  25  1   
 46  21  26  1   
 47  22  48  1   
 48  22  49  1   
 49  23  50  1   
 50  24  51  1   
 51  24  52  1   
 52  24  53  1   
 53  25  27  2   
 54  26  28  2   
 55  26  29  1   
 56  27  28  1   
 57  29  54  1   
 58  29  55  1   
 59  29  56  1   
@<TRIPOS>SUBSTRUCTURE
  1 ****   5 GROUP 4 **** **** 0

# MOE 2024.06 (io_trps.svl 2023.06)
