@<TRIPOS>MOLECULE
NONAME
44 45 1 0 0 
SMALL
USER_CHARGES


@<TRIPOS>ATOM
  1 O       -0.5400     1.6340    -1.6610 O.3   1 <1>  -0.6800 
  2 C       -0.1460     2.6550    -0.8010 C.3   1 <1>   0.2000 
  3 C       -1.3200     3.0550     0.1370 C.3   1 <1>   0.0000 
  4 C        1.1140     2.2090    -0.0400 C.3   1 <1>   0.2090 
  5 C       -0.7850     4.1460     1.1010 C.3   1 <1>  -0.1600 
  6 C       -1.7870     1.8060     0.9390 C.3   1 <1>   0.1200 
  7 C       -2.5370     3.6010    -0.6690 C.3   1 <1>  -0.1600 
  8 N        1.5280     3.2480     0.9500 N.pl3 1 <1>  -0.8380 
  9 C        0.4640     3.7130     1.8820 C.3   1 <1>   0.2090 
 10 O       -2.8110     2.1200     1.8260 O.3   1 <1>  -0.6800 
 11 C       -2.2510     4.7340    -1.6740 C.3   1 <1>  -0.1600 
 12 C        2.5470     4.1070     0.5940 C.ar  1 <1>   0.4100 
 13 C       -3.5440     5.1930    -2.3530 C.3   1 <1>  -0.2400 
 14 N        2.2430     5.3900     0.4430 N.ar  1 <1>  -0.6200 
 15 C        3.8320     3.6120     0.3940 C.ar  1 <1>  -0.1500 
 16 C        3.2380     6.1820     0.0830 C.ar  1 <1>   0.1600 
 17 C        4.8520     4.4520     0.0190 C.ar  1 <1>  -0.1500 
 18 C        4.5590     5.8000    -0.1500 C.ar  1 <1>   0.0280 
 19 C        5.5570     6.7710    -0.5440 C.2   1 <1>  -0.1780 
 20 C        6.8590     6.5690    -0.8060 C.2   1 <1>  -0.3000 
 21 H       -1.3040     1.9340    -2.1910 H     1 <1>   0.4000 
 22 H        0.1400     3.4940    -1.4090 H     1 <1>   0.0800 
 23 H        1.9050     2.0500    -0.7510 H     1 <1>   0.0800 
 24 H        0.9340     1.2830     0.4750 H     1 <1>   0.0800 
 25 H       -1.5470     4.4460     1.7950 H     1 <1>   0.0800 
 26 H       -0.5120     5.0230     0.5440 H     1 <1>   0.0800 
 27 H       -0.9860     1.3740     1.5100 H     1 <1>   0.0800 
 28 H       -2.1650     1.0500     0.2720 H     1 <1>   0.0800 
 29 H       -2.9920     2.7850    -1.2030 H     1 <1>   0.0800 
 30 H       -3.2770     3.9550     0.0280 H     1 <1>   0.0800 
 31 H        0.2270     2.9190     2.5680 H     1 <1>   0.0800 
 32 H        0.8310     4.5430     2.4630 H     1 <1>   0.0800 
 33 H       -2.5260     2.8190     2.4440 H     1 <1>   0.4000 
 34 H       -1.8100     5.5790    -1.1740 H     1 <1>   0.0800 
 35 H       -1.5690     4.4030    -2.4360 H     1 <1>   0.0800 
 36 H       -4.2420     5.5640    -1.6230 H     1 <1>   0.0800 
 37 H       -4.0020     4.3780    -2.8860 H     1 <1>   0.0800 
 38 H       -3.3320     5.9830    -3.0530 H     1 <1>   0.0800 
 39 H        4.0080     2.5640     0.5440 H     1 <1>   0.1500 
 40 H        2.9910     7.2210    -0.0400 H     1 <1>   0.1500 
 41 H        5.8440     4.0740    -0.1360 H     1 <1>   0.1500 
 42 H        5.1710     7.7730    -0.6280 H     1 <1>   0.1500 
 43 H        7.5350     7.3560    -1.0950 H     1 <1>   0.1500 
 44 H        7.3570     5.6180    -0.7560 H     1 <1>   0.1500 
@<TRIPOS>BOND
  1   1   2  1   
  2   1  21  1   
  3   2   3  1   
  4   2   4  1   
  5   2  22  1   
  6   3   5  1   
  7   3   6  1   
  8   3   7  1   
  9   4   8  1   
 10   4  23  1   
 11   4  24  1   
 12   5   9  1   
 13   5  25  1   
 14   5  26  1   
 15   6  10  1   
 16   6  27  1   
 17   6  28  1   
 18   7  11  1   
 19   7  29  1   
 20   7  30  1   
 21   8   9  1   
 22   8  12  1   
 23   9  31  1   
 24   9  32  1   
 25  10  33  1   
 26  11  13  1   
 27  11  34  1   
 28  11  35  1   
 29  12  14  ar  
 30  12  15  ar  
 31  13  36  1   
 32  13  37  1   
 33  13  38  1   
 34  14  16  ar  
 35  15  17  ar  
 36  15  39  1   
 37  16  18  ar  
 38  16  40  1   
 39  17  18  ar  
 40  17  41  1   
 41  18  19  1   
 42  19  20  2   
 43  19  42  1   
 44  20  43  1   
 45  20  44  1   
@<TRIPOS>SUBSTRUCTURE
  1 ****   8 GROUP 4 **** **** 0

# MOE 2024.06 (io_trps.svl 2023.06)
