@<TRIPOS>MOLECULE
NONAME
37 39 1 0 0 
SMALL
USER_CHARGES


@<TRIPOS>ATOM
  1 S        0.1260    -0.2330    -0.0670 S.3   1 <1>  -0.0800 
  2 C       -1.4240     0.5930     0.0460 C.2   1 <1>   0.4620 
  3 C        0.9220     1.3140    -0.1400 C.2   1 <1>  -0.1100 
  4 N       -1.3270     1.8740     0.0310 N.2   1 <1>  -0.5650 
  5 N       -2.5770    -0.1470     0.1390 N.pl3 1 <1>  -0.8220 
  6 C       -0.0070     2.2810    -0.0730 C.2   1 <1>   0.0460 
  7 C       -3.9140     0.4830     0.0410 C.3   1 <1>   0.2090 
  8 C       -2.6540    -1.6050    -0.1130 C.3   1 <1>   0.2090 
  9 C        0.2450     3.7830    -0.1010 C.3   1 <1>   0.3010 
 10 C       -4.8540    -0.6510    -0.3770 C.3   1 <1>   0.2000 
 11 C       -4.1400    -1.9450     0.0120 C.3   1 <1>  -0.0800 
 12 O        1.5840     4.0570     0.1540 O.3   1 <1>  -0.6800 
 13 O       -6.0800    -0.5760     0.2710 O.3   1 <1>  -0.6800 
 14 C       -4.5830    -3.1450    -0.8420 C.3   1 <1>  -0.0170 
 15 C       -3.8970    -4.4320    -0.4110 C.ar  1 <1>   0.1670 
 16 N       -2.6620    -4.6180    -0.8530 N.ar  1 <1>  -0.6200 
 17 C       -4.5720    -5.3290     0.4030 C.ar  1 <1>  -0.1500 
 18 C       -2.0790    -5.7440    -0.4700 C.ar  1 <1>   0.1600 
 19 C       -3.9530    -6.4970     0.7940 C.ar  1 <1>  -0.1500 
 20 C       -2.6690    -6.7000     0.3380 C.ar  1 <1>  -0.1500 
 21 H        1.9930     1.3300    -0.2290 H     1 <1>   0.1500 
 22 H       -4.1840     0.8830     1.0030 H     1 <1>   0.0800 
 23 H       -3.9070     1.2680    -0.6960 H     1 <1>   0.0800 
 24 H       -2.2950    -1.8140    -1.1070 H     1 <1>   0.0800 
 25 H       -2.0660    -2.1550     0.6030 H     1 <1>   0.0800 
 26 H       -0.3450     4.2710     0.6540 H     1 <1>   0.0800 
 27 H       -0.0080     4.1860    -1.0660 H     1 <1>   0.0800 
 28 H       -5.0260    -0.6020    -1.4380 H     1 <1>   0.0800 
 29 H       -4.3260    -2.1580     1.0500 H     1 <1>   0.0800 
 30 H        1.8270     3.6780     1.0200 H     1 <1>   0.4000 
 31 H       -5.9490    -0.5940     1.2390 H     1 <1>   0.4000 
 32 H       -4.3590    -2.9630    -1.8790 H     1 <1>   0.0800 
 33 H       -5.6480    -3.2620    -0.7590 H     1 <1>   0.0800 
 34 H       -5.5740    -5.1190     0.7300 H     1 <1>   0.1500 
 35 H       -1.0760    -5.9140    -0.8220 H     1 <1>   0.1500 
 36 H       -4.4490    -7.2160     1.4240 H     1 <1>   0.1500 
 37 H       -2.1280    -7.5900     0.6040 H     1 <1>   0.1500 
@<TRIPOS>BOND
  1   1   2  1   
  2   1   3  1   
  3   2   4  2   
  4   2   5  1   
  5   3   6  2   
  6   3  21  1   
  7   4   6  1   
  8   5   7  1   
  9   5   8  1   
 10   6   9  1   
 11   7  10  1   
 12   7  22  1   
 13   7  23  1   
 14   8  11  1   
 15   8  24  1   
 16   8  25  1   
 17   9  12  1   
 18   9  26  1   
 19   9  27  1   
 20  10  11  1   
 21  10  13  1   
 22  10  28  1   
 23  11  14  1   
 24  11  29  1   
 25  12  30  1   
 26  13  31  1   
 27  14  15  1   
 28  14  32  1   
 29  14  33  1   
 30  15  16  ar  
 31  15  17  ar  
 32  16  18  ar  
 33  17  19  ar  
 34  17  34  1   
 35  18  20  ar  
 36  18  35  1   
 37  19  20  ar  
 38  19  36  1   
 39  20  37  1   
@<TRIPOS>SUBSTRUCTURE
  1 ****   8 GROUP 4 **** **** 0

# MOE 2024.06 (io_trps.svl 2023.06)
