@<TRIPOS>MOLECULE
NONAME
51 53 1 0 0 
SMALL
USER_CHARGES


@<TRIPOS>ATOM
  1 O        0.3280     0.4030     0.0720 O.3   1 <1>  -0.0190 
  2 N        0.4620     1.6500     0.4140 N.2   1 <1>  -0.4100 
  3 C       -0.7530     0.3920    -0.6690 C.2   1 <1>   0.2980 
  4 C       -0.5070     2.2850    -0.1160 C.2   1 <1>   0.3350 
  5 N       -1.3160     1.5230    -0.8310 N.2   1 <1>  -0.5650 
  6 C       -1.2260    -0.9220    -1.2510 C.3   1 <1>  -0.0600 
  7 C       -0.7330     3.7910     0.0270 C.3   1 <1>   0.5240 
  8 N        0.5530     4.5100     0.3710 N.4   1 <1>  -0.9590 
  9 C        0.3010     5.8720     0.9160 C.3   1 <1>   0.3430 
 10 C        1.4910     4.4830    -0.7910 C.3   1 <1>   0.3430 
 11 C        1.6260     6.5190     1.3240 C.3   1 <1>  -0.1600 
 12 C        2.8240     5.1140    -0.3890 C.3   1 <1>  -0.1600 
 13 C        2.6130     6.5300     0.1500 C.3   1 <1>   0.4230 
 14 N        3.9190     7.1400     0.5210 N.4   1 <1>  -0.9590 
 15 C        4.6950     6.5290     1.6610 C.3   1 <1>   0.3430 
 16 C        3.8930     8.6370     0.6770 C.3   1 <1>   0.3430 
 17 C        6.1200     7.1310     1.7340 C.3   1 <1>   0.1100 
 18 C        5.3340     9.2050     0.7360 C.3   1 <1>   0.1100 
 19 N        6.3570     8.1300     0.6630 N.3   1 <1>  -0.8100 
 20 C        7.7400     8.6550     0.7390 C.3   1 <1>   0.1100 
 21 C        8.1640     9.3440    -0.5640 C.3   1 <1>   0.1200 
 22 O        9.4920     9.7290    -0.4640 O.3   1 <1>  -0.6800 
 23 H       -0.4630    -1.3360    -1.8850 H     1 <1>   0.0800 
 24 H       -2.1180    -0.7690    -1.8310 H     1 <1>   0.0800 
 25 H       -1.4390    -1.6150    -0.4580 H     1 <1>   0.0800 
 26 H       -1.4630     3.9420     0.8040 H     1 <1>   0.0800 
 27 H       -1.1400     4.1710    -0.8950 H     1 <1>   0.0800 
 28 H        0.9660     3.9100     1.1070 H     1 <1>   0.4500 
 29 H       -0.3510     5.8120     1.7750 H     1 <1>   0.0800 
 30 H       -0.1870     6.4800     0.1680 H     1 <1>   0.0800 
 31 H        1.0640     5.0250    -1.6210 H     1 <1>   0.0800 
 32 H        1.6590     3.4640    -1.1080 H     1 <1>   0.0800 
 33 H        2.0280     5.9760     2.1610 H     1 <1>   0.0800 
 34 H        1.4240     7.5260     1.6420 H     1 <1>   0.0800 
 35 H        3.4570     5.1480    -1.2580 H     1 <1>   0.0800 
 36 H        3.2920     4.4810     0.3430 H     1 <1>   0.0800 
 37 H        2.1820     7.1210    -0.6440 H     1 <1>   0.0800 
 38 H        4.5870     7.0310    -0.2640 H     1 <1>   0.4500 
 39 H        4.7830     5.4640     1.5260 H     1 <1>   0.0800 
 40 H        4.1890     6.7030     2.5960 H     1 <1>   0.0800 
 41 H        3.3670     8.9100     1.5760 H     1 <1>   0.0800 
 42 H        3.3800     9.0880    -0.1570 H     1 <1>   0.0800 
 43 H        6.8380     6.3330     1.6430 H     1 <1>   0.0800 
 44 H        6.2670     7.5850     2.7000 H     1 <1>   0.0800 
 45 H        5.4550     9.7700     1.6450 H     1 <1>   0.0800 
 46 H        5.4650     9.8870    -0.0870 H     1 <1>   0.0800 
 47 H        8.4190     7.8340     0.9020 H     1 <1>   0.0800 
 48 H        7.8300     9.3410     1.5650 H     1 <1>   0.0800 
 49 H        7.5770    10.2220    -0.7650 H     1 <1>   0.0800 
 50 H        8.0880     8.6560    -1.3890 H     1 <1>   0.0800 
 51 H        9.6050    10.4720     0.1610 H     1 <1>   0.4000 
@<TRIPOS>BOND
  1   1   2  1   
  2   1   3  1   
  3   2   4  2   
  4   3   5  2   
  5   3   6  1   
  6   4   5  1   
  7   4   7  1   
  8   6  23  1   
  9   6  24  1   
 10   6  25  1   
 11   7   8  1   
 12   7  26  1   
 13   7  27  1   
 14   8   9  1   
 15   8  10  1   
 16   8  28  1   
 17   9  11  1   
 18   9  29  1   
 19   9  30  1   
 20  10  12  1   
 21  10  31  1   
 22  10  32  1   
 23  11  13  1   
 24  11  33  1   
 25  11  34  1   
 26  12  13  1   
 27  12  35  1   
 28  12  36  1   
 29  13  14  1   
 30  13  37  1   
 31  14  15  1   
 32  14  16  1   
 33  14  38  1   
 34  15  17  1   
 35  15  39  1   
 36  15  40  1   
 37  16  18  1   
 38  16  41  1   
 39  16  42  1   
 40  17  19  1   
 41  17  43  1   
 42  17  44  1   
 43  18  19  1   
 44  18  45  1   
 45  18  46  1   
 46  19  20  1   
 47  20  21  1   
 48  20  47  1   
 49  20  48  1   
 50  21  22  1   
 51  21  49  1   
 52  21  50  1   
 53  22  51  1   
@<TRIPOS>SUBSTRUCTURE
  1 ****  12 GROUP 4 **** **** 0

# MOE 2024.06 (io_trps.svl 2023.06)
