@<TRIPOS>MOLECULE
NONAME
42 43 1 0 0 
SMALL
USER_CHARGES


@<TRIPOS>ATOM
  1 O        0.1050    -0.7500     1.3210 O.3   1 <1>  -0.2800 
  2 C       -0.9500    -0.9690     0.5620 C.2   1 <1>  -0.0400 
  3 C        0.1950     0.5490     1.5220 C.2   1 <1>  -0.0100 
  4 C       -1.5610     0.2010     0.2600 C.2   1 <1>  -0.1500 
  5 C       -1.2510    -2.4130     0.2000 C.3   1 <1>   0.5230 
  6 C       -0.8070     1.1960     0.8930 C.2   1 <1>  -0.1500 
  7 N       -2.7030    -2.5940    -0.0950 N.4   1 <1>  -0.9590 
  8 C       -2.9590    -3.9490    -0.6910 C.3   1 <1>   0.3430 
  9 C       -3.5270    -2.3440     1.1280 C.3   1 <1>   0.3430 
 10 C       -4.4540    -4.1750    -0.9880 C.3   1 <1>   0.2000 
 11 C       -5.0130    -2.5180     0.8000 C.3   1 <1>  -0.1600 
 12 O       -4.5970    -5.4720    -1.4490 O.3   1 <1>  -0.6800 
 13 C       -5.3510    -3.9320     0.2570 C.3   1 <1>   0.0000 
 14 C       -5.0430    -5.0130     1.3360 C.3   1 <1>   0.1200 
 15 C       -6.8630    -4.0230    -0.1050 C.3   1 <1>  -0.1600 
 16 O       -5.7950    -4.8200     2.4870 O.3   1 <1>  -0.6800 
 17 C       -7.3580    -3.1490    -1.2740 C.3   1 <1>  -0.1600 
 18 C       -8.8670    -3.3190    -1.4680 C.3   1 <1>  -0.2400 
 19 H        1.0030     0.9300     2.1250 H     1 <1>   0.1500 
 20 H       -2.4340     0.4010    -0.3360 H     1 <1>   0.1500 
 21 H       -0.9670    -3.0450     1.0260 H     1 <1>   0.0800 
 22 H       -0.6530    -2.6880    -0.6530 H     1 <1>   0.0800 
 23 H       -1.0080     2.2540     0.8640 H     1 <1>   0.1500 
 24 H       -2.9460    -1.8800    -0.7930 H     1 <1>   0.4500 
 25 H       -2.4070    -4.0550    -1.6110 H     1 <1>   0.0800 
 26 H       -2.6290    -4.7120    -0.0070 H     1 <1>   0.0800 
 27 H       -3.2440    -3.0330     1.9080 H     1 <1>   0.0800 
 28 H       -3.3550    -1.3430     1.4910 H     1 <1>   0.0800 
 29 H       -4.7340    -3.5200    -1.7930 H     1 <1>   0.0800 
 30 H       -5.5900    -2.3180     1.6860 H     1 <1>   0.0800 
 31 H       -5.2850    -1.7640     0.0840 H     1 <1>   0.0800 
 32 H       -5.5320    -5.6560    -1.6850 H     1 <1>   0.4000 
 33 H       -4.0070    -5.0260     1.6220 H     1 <1>   0.0800 
 34 H       -5.2940    -5.9930     0.9640 H     1 <1>   0.0800 
 35 H       -7.1040    -5.0480    -0.3300 H     1 <1>   0.0800 
 36 H       -7.4420    -3.7660     0.7660 H     1 <1>   0.0800 
 37 H       -5.5950    -3.9830     2.9430 H     1 <1>   0.4000 
 38 H       -7.1600    -2.1090    -1.0850 H     1 <1>   0.0800 
 39 H       -6.8730    -3.4270    -2.1930 H     1 <1>   0.0800 
 40 H       -9.3990    -3.0210    -0.5810 H     1 <1>   0.0800 
 41 H       -9.1100    -4.3440    -1.6860 H     1 <1>   0.0800 
 42 H       -9.2060    -2.7080    -2.2860 H     1 <1>   0.0800 
@<TRIPOS>BOND
  1   1   2  1   
  2   1   3  1   
  3   2   4  2   
  4   2   5  1   
  5   3   6  2   
  6   3  19  1   
  7   4   6  1   
  8   4  20  1   
  9   5   7  1   
 10   5  21  1   
 11   5  22  1   
 12   6  23  1   
 13   7   8  1   
 14   7   9  1   
 15   7  24  1   
 16   8  10  1   
 17   8  25  1   
 18   8  26  1   
 19   9  11  1   
 20   9  27  1   
 21   9  28  1   
 22  10  12  1   
 23  10  13  1   
 24  10  29  1   
 25  11  13  1   
 26  11  30  1   
 27  11  31  1   
 28  12  32  1   
 29  13  14  1   
 30  13  15  1   
 31  14  16  1   
 32  14  33  1   
 33  14  34  1   
 34  15  17  1   
 35  15  35  1   
 36  15  36  1   
 37  16  37  1   
 38  17  18  1   
 39  17  38  1   
 40  17  39  1   
 41  18  40  1   
 42  18  41  1   
 43  18  42  1   
@<TRIPOS>SUBSTRUCTURE
  1 ****   9 GROUP 4 **** **** 0

# MOE 2024.06 (io_trps.svl 2023.06)
