@<TRIPOS>MOLECULE
NONAME
46 48 1 0 0 
SMALL
USER_CHARGES


@<TRIPOS>ATOM
  1 O       -0.3200     0.4820     0.7540 O.2   1 <1>  -0.5700 
  2 C       -1.3920     1.0540     0.7020 C.2   1 <1>   0.5440 
  3 N       -2.5260     0.3080     0.4700 N.am  1 <1>  -0.6600 
  4 C       -1.4440     2.4950     0.8610 C.ar  1 <1>   0.0860 
  5 C       -3.8090     0.8510    -0.0450 C.3   1 <1>   0.1400 
  6 C       -2.4780    -1.1650     0.3000 C.3   1 <1>   0.1400 
  7 C       -0.5710     3.3170     0.1520 C.ar  1 <1>  -0.1500 
  8 C       -2.3510     3.1090     1.7200 C.ar  1 <1>  -0.1500 
  9 C       -4.5210    -0.3490    -0.6720 C.3   1 <1>   0.2000 
 10 C       -3.9200    -1.5800     0.0020 C.3   1 <1>  -0.0800 
 11 C       -0.5960     4.7030     0.2670 C.ar  1 <1>   0.0830 
 12 C       -2.3990     4.4830     1.8430 C.ar  1 <1>  -0.1500 
 13 O       -5.8890    -0.3080    -0.4470 O.3   1 <1>  -0.6800 
 14 C       -4.0480    -2.8480    -0.8600 C.3   1 <1>  -0.0170 
 15 O        0.2810     5.4740    -0.4420 O.3   1 <1>  -0.3630 
 16 C       -1.5400     5.2990     1.1250 C.ar  1 <1>   0.0830 
 17 C       -3.4910    -4.0710    -0.1480 C.ar  1 <1>   0.1670 
 18 C        1.4170     4.9270    -1.0780 C.3   1 <1>   0.0400 
 19 O       -1.7210     6.6290     1.3520 O.3   1 <1>  -0.3630 
 20 N       -2.1850    -4.2600    -0.2320 N.ar  1 <1>  -0.6200 
 21 C       -4.3480    -4.9210     0.5500 C.ar  1 <1>   0.1600 
 22 C       -0.9760     7.6470     0.7250 C.3   1 <1>   0.0400 
 23 C       -1.7950    -5.3400     0.4240 C.ar  1 <1>   0.1600 
 24 N       -3.9610    -6.0010     1.2070 N.ar  1 <1>  -0.6200 
 25 C       -2.6540    -6.1820     1.1200 C.ar  1 <1>   0.1600 
 26 H       -4.3810     1.2480     0.7740 H     1 <1>   0.0800 
 27 H       -3.6290     1.6160    -0.7810 H     1 <1>   0.0800 
 28 H       -1.8280    -1.4030    -0.5270 H     1 <1>   0.0800 
 29 H       -2.1010    -1.6420     1.1890 H     1 <1>   0.0800 
 30 H        0.1300     2.8240    -0.4940 H     1 <1>   0.1500 
 31 H       -3.0200     2.4990     2.3020 H     1 <1>   0.1500 
 32 H       -4.3500    -0.3600    -1.7350 H     1 <1>   0.0800 
 33 H       -4.4030    -1.7410     0.9490 H     1 <1>   0.0800 
 34 H       -3.1100     4.9410     2.5080 H     1 <1>   0.1500 
 35 H       -6.0770    -0.2860     0.5110 H     1 <1>   0.4000 
 36 H       -3.5250    -2.7160    -1.7910 H     1 <1>   0.0800 
 37 H       -5.0850    -3.0130    -1.0940 H     1 <1>   0.0800 
 38 H        2.0150     5.7390    -1.4490 H     1 <1>   0.0800 
 39 H        1.0960     4.3080    -1.8970 H     1 <1>   0.0800 
 40 H        1.9800     4.3570    -0.3590 H     1 <1>   0.0800 
 41 H       -5.4000    -4.6970     0.5680 H     1 <1>   0.1500 
 42 H       -1.3400     8.5950     1.0770 H     1 <1>   0.0800 
 43 H       -1.1130     7.5740    -0.3390 H     1 <1>   0.0800 
 44 H        0.0600     7.5320     0.9880 H     1 <1>   0.0800 
 45 H       -0.7440    -5.5700     0.4100 H     1 <1>   0.1500 
 46 H       -2.2410    -7.0380     1.6240 H     1 <1>   0.1500 
@<TRIPOS>BOND
  1   1   2  2   
  2   2   3  am  
  3   2   4  1   
  4   3   5  1   
  5   3   6  1   
  6   4   7  ar  
  7   4   8  ar  
  8   5   9  1   
  9   5  26  1   
 10   5  27  1   
 11   6  10  1   
 12   6  28  1   
 13   6  29  1   
 14   7  11  ar  
 15   7  30  1   
 16   8  12  ar  
 17   8  31  1   
 18   9  10  1   
 19   9  13  1   
 20   9  32  1   
 21  10  14  1   
 22  10  33  1   
 23  11  15  1   
 24  11  16  ar  
 25  12  16  ar  
 26  12  34  1   
 27  13  35  1   
 28  14  17  1   
 29  14  36  1   
 30  14  37  1   
 31  15  18  1   
 32  16  19  1   
 33  17  20  ar  
 34  17  21  ar  
 35  18  38  1   
 36  18  39  1   
 37  18  40  1   
 38  19  22  1   
 39  20  23  ar  
 40  21  24  ar  
 41  21  41  1   
 42  22  42  1   
 43  22  43  1   
 44  22  44  1   
 45  23  25  ar  
 46  23  45  1   
 47  24  25  ar  
 48  25  46  1   
@<TRIPOS>SUBSTRUCTURE
  1 ****   3 GROUP 4 **** **** 0

# MOE 2024.06 (io_trps.svl 2023.06)
