@<TRIPOS>MOLECULE
NONAME
48 49 1 0 0 
SMALL
USER_CHARGES


@<TRIPOS>ATOM
  1 O       -2.0350    -1.6570     0.3840 O.co2 1 <1>  -0.9000 
  2 C       -1.3000    -2.0720     1.2970 C.2   1 <1>   0.9790 
  3 O       -1.6730    -1.9280     2.4690 O.co2 1 <1>  -0.9000 
  4 C       -0.2510    -3.0210     0.9710 C.ar  1 <1>  -0.1790 
  5 C        0.1360    -3.2200    -0.3540 C.ar  1 <1>  -0.1500 
  6 C        0.2650    -3.8830     1.9380 C.ar  1 <1>  -0.1500 
  7 C        0.7630    -4.3850    -0.7350 C.ar  1 <1>  -0.1500 
  8 C        0.8990    -5.0520     1.5680 C.ar  1 <1>  -0.1500 
  9 C        1.0350    -5.3500     0.2210 C.ar  1 <1>  -0.1430 
 10 C        1.2860    -6.7680    -0.2170 C.3   1 <1>   0.4870 
 11 N       -0.0270    -7.4840    -0.0440 N.4   1 <1>  -0.9590 
 12 C        0.0170    -8.9040    -0.4830 C.3   1 <1>   0.5240 
 13 C       -1.2840    -6.7690    -0.5380 C.3   1 <1>   0.3430 
 14 C       -1.0990    -9.6350     0.2590 C.2   1 <1>   0.0460 
 15 C       -2.0450    -5.9840     0.5800 C.3   1 <1>   0.3430 
 16 N       -1.5290    -9.1760     1.4590 N.2   1 <1>  -0.5650 
 17 C       -1.7830   -10.7440    -0.1050 C.2   1 <1>  -0.3320 
 18 N       -3.2630    -5.1900     0.1670 N.4   1 <1>  -0.9590 
 19 C       -2.4420   -10.0280     1.8060 C.2   1 <1>   0.0360 
 20 N       -2.6460   -11.0040     0.8970 N.pl3 1 <1>   0.0330 
 21 C       -1.6880   -11.6300    -1.3380 C.3   1 <1>  -0.0600 
 22 C       -3.0090    -4.2140    -0.9440 C.3   1 <1>   0.2630 
 23 C       -3.7130    -4.3670     1.3460 C.3   1 <1>   0.2630 
 24 H       -0.1280    -2.4730    -1.0880 H     1 <1>   0.1500 
 25 H        0.0970    -3.6550     2.9800 H     1 <1>   0.1500 
 26 H        0.9770    -4.5460    -1.7790 H     1 <1>   0.1500 
 27 H        1.2180    -5.7380     2.3360 H     1 <1>   0.1500 
 28 H        2.0540    -7.2180     0.3920 H     1 <1>   0.0800 
 29 H        1.5960    -6.7840    -1.2500 H     1 <1>   0.0800 
 30 H       -0.1720    -7.6090     0.9740 H     1 <1>   0.4500 
 31 H        0.9580    -9.3480    -0.2040 H     1 <1>   0.0800 
 32 H       -0.1130    -8.9910    -1.5490 H     1 <1>   0.0800 
 33 H       -1.9660    -7.5000    -0.9390 H     1 <1>   0.0800 
 34 H       -1.0180    -6.0890    -1.3290 H     1 <1>   0.0800 
 35 H       -1.3590    -5.2930     1.0260 H     1 <1>   0.0800 
 36 H       -2.3370    -6.6860     1.3440 H     1 <1>   0.0800 
 37 H       -4.0430    -5.8090    -0.0950 H     1 <1>   0.4500 
 38 H       -2.9980    -9.9880     2.7280 H     1 <1>   0.1500 
 39 H       -3.3070   -11.7870     0.9710 H     1 <1>   0.2700 
 40 H       -0.9370   -11.2720    -2.0190 H     1 <1>   0.0800 
 41 H       -2.6320   -11.6540    -1.8550 H     1 <1>   0.0800 
 42 H       -1.4310   -12.6360    -1.0520 H     1 <1>   0.0800 
 43 H       -2.1870    -3.5670    -0.6960 H     1 <1>   0.0800 
 44 H       -3.8740    -3.5890    -1.0980 H     1 <1>   0.0800 
 45 H       -2.7830    -4.7240    -1.8650 H     1 <1>   0.0800 
 46 H       -2.9080    -3.7520     1.7130 H     1 <1>   0.0800 
 47 H       -4.0450    -5.0010     2.1510 H     1 <1>   0.0800 
 48 H       -4.5220    -3.7120     1.0650 H     1 <1>   0.0800 
@<TRIPOS>BOND
  1   1   2  ar  
  2   2   3  ar  
  3   2   4  1   
  4   4   5  ar  
  5   4   6  ar  
  6   5   7  ar  
  7   5  24  1   
  8   6   8  ar  
  9   6  25  1   
 10   7   9  ar  
 11   7  26  1   
 12   8   9  ar  
 13   8  27  1   
 14   9  10  1   
 15  10  11  1   
 16  10  28  1   
 17  10  29  1   
 18  11  12  1   
 19  11  13  1   
 20  11  30  1   
 21  12  14  1   
 22  12  31  1   
 23  12  32  1   
 24  13  15  1   
 25  13  33  1   
 26  13  34  1   
 27  14  16  1   
 28  14  17  2   
 29  15  18  1   
 30  15  35  1   
 31  15  36  1   
 32  16  19  2   
 33  17  20  1   
 34  17  21  1   
 35  18  22  1   
 36  18  23  1   
 37  18  37  1   
 38  19  20  1   
 39  19  38  1   
 40  20  39  1   
 41  21  40  1   
 42  21  41  1   
 43  21  42  1   
 44  22  43  1   
 45  22  44  1   
 46  22  45  1   
 47  23  46  1   
 48  23  47  1   
 49  23  48  1   
@<TRIPOS>SUBSTRUCTURE
  1 ****  15 GROUP 4 **** **** 0

# MOE 2024.06 (io_trps.svl 2023.06)
