@<TRIPOS>MOLECULE
NONAME
42 44 1 0 0 
SMALL
USER_CHARGES


@<TRIPOS>ATOM
  1 CL       2.6570     1.1410     1.6900 Cl    1 <1>  -0.1770 
  2 C        2.6330    -0.1690     0.5290 C.ar  1 <1>   0.1770 
  3 C        2.6700     0.1370    -0.8280 C.ar  1 <1>   0.0860 
  4 C        2.5880    -1.4790     0.9970 C.ar  1 <1>  -0.1440 
  5 C        2.6700    -0.9460    -1.7000 C.ar  1 <1>   0.1900 
  6 C        2.7090     1.4950    -1.3020 C.2   1 <1>   0.5440 
  7 C        2.5820    -2.5250     0.0840 C.ar  1 <1>  -0.1500 
  8 C        2.5430    -1.7790     2.4890 C.3   1 <1>  -0.0970 
  9 F        2.7300    -0.7300    -2.9850 F     1 <1>  -0.1900 
 10 C        2.6250    -2.2590    -1.2730 C.ar  1 <1>  -0.1500 
 11 O        1.6630     2.0390    -1.5990 O.2   1 <1>  -0.5700 
 12 N        3.8970     2.1920    -1.4200 N.am  1 <1>  -0.6600 
 13 C        3.9180     3.6390    -1.7780 C.3   1 <1>   0.1400 
 14 C        5.2380     1.5890    -1.1820 C.3   1 <1>   0.1400 
 15 C        4.6350     4.4270    -0.6790 C.3   1 <1>  -0.1600 
 16 C        5.9560     2.3640    -0.0770 C.3   1 <1>  -0.1600 
 17 C        6.0340     3.8530    -0.4220 C.3   1 <1>   0.2000 
 18 O        6.6210     4.5130     0.6790 O.3   1 <1>  -0.3630 
 19 C        7.1710     5.7530     0.5940 C.ar  1 <1>   0.0830 
 20 C        7.3270     6.4820    -0.5870 C.ar  1 <1>   0.1600 
 21 C        7.6070     6.3190     1.7750 C.ar  1 <1>  -0.1500 
 22 N        7.8640     7.6910    -0.6700 N.ar  1 <1>  -0.6200 
 23 C        8.1690     7.5750     1.7070 C.ar  1 <1>  -0.1500 
 24 C        8.2720     8.2080     0.4790 C.ar  1 <1>   0.1600 
 25 H        2.5450    -3.5470     0.4230 H     1 <1>   0.1500 
 26 H        1.6720    -1.3270     2.9290 H     1 <1>   0.0800 
 27 H        3.4190    -1.3830     2.9720 H     1 <1>   0.0800 
 28 H        2.5050    -2.8380     2.6720 H     1 <1>   0.0800 
 29 H        2.6230    -3.0580    -1.9940 H     1 <1>   0.1500 
 30 H        2.9180     4.0210    -1.8940 H     1 <1>   0.0800 
 31 H        4.4290     3.7600    -2.7170 H     1 <1>   0.0800 
 32 H        5.8080     1.6390    -2.0940 H     1 <1>   0.0800 
 33 H        5.1570     0.5550    -0.9000 H     1 <1>   0.0800 
 34 H        4.0480     4.3690     0.2210 H     1 <1>   0.0800 
 35 H        4.6990     5.4570    -0.9750 H     1 <1>   0.0800 
 36 H        6.9490     1.9710     0.0450 H     1 <1>   0.0800 
 37 H        5.4200     2.2330     0.8470 H     1 <1>   0.0800 
 38 H        6.6700     3.9760    -1.2820 H     1 <1>   0.0800 
 39 H        6.9960     6.0600    -1.5160 H     1 <1>   0.1500 
 40 H        7.5060     5.7890     2.7050 H     1 <1>   0.1500 
 41 H        8.5250     8.0630     2.5960 H     1 <1>   0.1500 
 42 H        8.7140     9.1890     0.4400 H     1 <1>   0.1500 
@<TRIPOS>BOND
  1   1   2  1   
  2   2   3  ar  
  3   2   4  ar  
  4   3   5  ar  
  5   3   6  1   
  6   4   7  ar  
  7   4   8  1   
  8   5   9  1   
  9   5  10  ar  
 10   6  11  2   
 11   6  12  am  
 12   7  10  ar  
 13   7  25  1   
 14   8  26  1   
 15   8  27  1   
 16   8  28  1   
 17  10  29  1   
 18  12  13  1   
 19  12  14  1   
 20  13  15  1   
 21  13  30  1   
 22  13  31  1   
 23  14  16  1   
 24  14  32  1   
 25  14  33  1   
 26  15  17  1   
 27  15  34  1   
 28  15  35  1   
 29  16  17  1   
 30  16  36  1   
 31  16  37  1   
 32  17  18  1   
 33  17  38  1   
 34  18  19  1   
 35  19  20  ar  
 36  19  21  ar  
 37  20  22  ar  
 38  20  39  1   
 39  21  23  ar  
 40  21  40  1   
 41  22  24  ar  
 42  23  24  ar  
 43  23  41  1   
 44  24  42  1   
@<TRIPOS>SUBSTRUCTURE
  1 ****  16 GROUP 4 **** **** 0

# MOE 2024.06 (io_trps.svl 2023.06)
