@<TRIPOS>MOLECULE
NONAME
61 66 1 0 0 
SMALL
USER_CHARGES


@<TRIPOS>ATOM
  1 F       -0.6820     1.0020    -2.6790 F     1 <1>  -0.1900 
  2 C       -1.2550     1.9870    -2.0340 C.ar  1 <1>   0.1900 
  3 C       -2.5440     1.8300    -1.5870 C.ar  1 <1>  -0.1500 
  4 C       -0.5150     3.1560    -1.8350 C.ar  1 <1>  -0.1500 
  5 C       -3.1310     2.8970    -0.9000 C.ar  1 <1>   0.0000 
  6 C       -1.0910     4.2080    -1.1610 C.ar  1 <1>  -0.1500 
  7 C       -2.4040     4.0710    -0.6950 C.ar  1 <1>  -0.1520 
  8 C       -4.3950     3.1080    -0.3080 C.2   1 <1>  -0.1810 
  9 N       -3.1980     4.9570    -0.0060 N.pl3 1 <1>   0.0330 
 10 C       -4.3980     4.3490     0.2240 C.2   1 <1>  -0.3320 
 11 C       -5.5680     2.1420    -0.2660 C.3   1 <1>   0.3210 
 12 C       -5.5890     4.9360     0.9500 C.3   1 <1>   0.0200 
 13 N       -6.7920     2.8200     0.2820 N.am  1 <1>  -0.6600 
 14 C       -6.5270     3.7980     1.3940 C.3   1 <1>   0.1400 
 15 C       -8.0220     2.4910    -0.2340 C.2   1 <1>   0.5690 
 16 O       -8.1240     1.6460    -1.0940 O.2   1 <1>  -0.5700 
 17 C       -9.3080     3.1820     0.2520 C.3   1 <1>  -0.0190 
 18 C      -10.5780     2.3440    -0.0070 C.3   1 <1>  -0.1600 
 19 C       -9.4610     4.5710    -0.3990 C.3   1 <1>  -0.1600 
 20 C      -11.8430     3.0610     0.4860 C.3   1 <1>  -0.1600 
 21 C      -10.7250     5.2920     0.0920 C.3   1 <1>  -0.1600 
 22 C      -11.9900     4.4530    -0.1600 C.3   1 <1>  -0.0800 
 23 C      -13.2280     5.2040     0.3630 C.3   1 <1>   0.1400 
 24 N      -14.4760     4.4410     0.1250 N.am  1 <1>  -0.6600 
 25 C      -15.2820     3.8960     1.0810 C.2   1 <1>   0.5440 
 26 C      -15.0070     4.1640    -1.2340 C.3   1 <1>   0.2840 
 27 O      -15.0670     3.9800     2.2740 O.2   1 <1>  -0.5700 
 28 C      -16.3860     3.2300     0.4530 C.ar  1 <1>   0.0860 
 29 C      -16.2620     3.3650    -0.9180 C.ar  1 <1>  -0.1430 
 30 C      -17.4640     2.5320     0.9820 C.ar  1 <1>  -0.1500 
 31 C      -17.1930     2.8170    -1.7800 C.ar  1 <1>  -0.1500 
 32 C      -18.4030     1.9790     0.1260 C.ar  1 <1>  -0.1500 
 33 C      -18.2680     2.1210    -1.2480 C.ar  1 <1>  -0.1500 
 34 H       -3.0890     0.9210    -1.7560 H     1 <1>   0.1500 
 35 H        0.4900     3.2110    -2.2130 H     1 <1>   0.1500 
 36 H       -0.5510     5.1220    -0.9910 H     1 <1>   0.1500 
 37 H       -2.9240     5.9040     0.2730 H     1 <1>   0.2700 
 38 H       -5.3200     1.3010     0.3570 H     1 <1>   0.0800 
 39 H       -5.7510     1.7840    -1.2640 H     1 <1>   0.0800 
 40 H       -6.1160     5.6080     0.2970 H     1 <1>   0.0800 
 41 H       -5.2650     5.4840     1.8160 H     1 <1>   0.0800 
 42 H       -7.4330     4.2270     1.7740 H     1 <1>   0.0800 
 43 H       -6.0570     3.2620     2.2010 H     1 <1>   0.0800 
 44 H       -9.2440     3.2990     1.3160 H     1 <1>   0.0800 
 45 H      -10.4880     1.3940     0.4900 H     1 <1>   0.0800 
 46 H      -10.6730     2.1510    -1.0620 H     1 <1>   0.0800 
 47 H       -9.5090     4.4520    -1.4680 H     1 <1>   0.0800 
 48 H       -8.6000     5.1760    -0.1800 H     1 <1>   0.0800 
 49 H      -11.8060     3.1640     1.5580 H     1 <1>   0.0800 
 50 H      -12.6980     2.4520     0.2500 H     1 <1>   0.0800 
 51 H      -10.8110     6.2370    -0.4170 H     1 <1>   0.0800 
 52 H      -10.6310     5.4930     1.1460 H     1 <1>   0.0800 
 53 H      -12.0930     4.3290    -1.2240 H     1 <1>   0.0800 
 54 H      -13.3080     6.1620    -0.1200 H     1 <1>   0.0800 
 55 H      -13.1200     5.3760     1.4210 H     1 <1>   0.0800 
 56 H      -14.3080     3.5770    -1.8040 H     1 <1>   0.0800 
 57 H      -15.2430     5.0830    -1.7420 H     1 <1>   0.0800 
 58 H      -17.5520     2.4320     2.0500 H     1 <1>   0.1500 
 59 H      -17.0900     2.9260    -2.8460 H     1 <1>   0.1500 
 60 H      -19.2410     1.4370     0.5300 H     1 <1>   0.1500 
 61 H      -19.0040     1.6870    -1.9040 H     1 <1>   0.1500 
@<TRIPOS>BOND
  1   1   2  1   
  2   2   3  ar  
  3   2   4  ar  
  4   3   5  ar  
  5   3  34  1   
  6   4   6  ar  
  7   4  35  1   
  8   5   7  ar  
  9   5   8  1   
 10   6   7  ar  
 11   6  36  1   
 12   7   9  1   
 13   8  10  2   
 14   8  11  1   
 15   9  10  1   
 16   9  37  1   
 17  10  12  1   
 18  11  13  1   
 19  11  38  1   
 20  11  39  1   
 21  12  14  1   
 22  12  40  1   
 23  12  41  1   
 24  13  14  1   
 25  13  15  am  
 26  14  42  1   
 27  14  43  1   
 28  15  16  2   
 29  15  17  1   
 30  17  18  1   
 31  17  19  1   
 32  17  44  1   
 33  18  20  1   
 34  18  45  1   
 35  18  46  1   
 36  19  21  1   
 37  19  47  1   
 38  19  48  1   
 39  20  22  1   
 40  20  49  1   
 41  20  50  1   
 42  21  22  1   
 43  21  51  1   
 44  21  52  1   
 45  22  23  1   
 46  22  53  1   
 47  23  24  1   
 48  23  54  1   
 49  23  55  1   
 50  24  25  am  
 51  24  26  1   
 52  25  27  2   
 53  25  28  1   
 54  26  29  1   
 55  26  56  1   
 56  26  57  1   
 57  28  29  ar  
 58  28  30  ar  
 59  29  31  ar  
 60  30  32  ar  
 61  30  58  1   
 62  31  33  ar  
 63  31  59  1   
 64  32  33  ar  
 65  32  60  1   
 66  33  61  1   
@<TRIPOS>SUBSTRUCTURE
  1 ****  17 GROUP 4 **** **** 0

# MOE 2024.06 (io_trps.svl 2023.06)
