@<TRIPOS>MOLECULE
NONAME
44 47 1 0 0 
SMALL
USER_CHARGES


@<TRIPOS>ATOM
  1 O        0.3920    -0.0790     0.4200 O.3   1 <1>  -0.6800 
  2 C        1.5420    -0.2050    -0.3420 C.3   1 <1>   0.2000 
  3 C        2.3440    -1.4220     0.1060 C.3   1 <1>  -0.0800 
  4 C        2.4760     0.9840    -0.1060 C.3   1 <1>   0.2090 
  5 C        3.7840    -1.0530    -0.2460 C.3   1 <1>   0.2090 
  6 C        1.8760    -2.7420    -0.5340 C.3   1 <1>  -0.0170 
  7 N        3.8690     0.4360    -0.1550 N.pl3 1 <1>  -0.8380 
  8 C        2.7220    -3.9300    -0.0920 C.ar  1 <1>   0.1660 
  9 C        4.9970     1.1810    -0.0900 C.ar  1 <1>   0.4610 
 10 N        3.9350    -4.0290    -0.6210 N.ar  1 <1>  -0.6200 
 11 C        2.2040    -4.8490     0.8200 C.ar  1 <1>   0.1600 
 12 N        6.1830     0.5680    -0.2020 N.ar  1 <1>  -0.1790 
 13 C        5.0640     2.5830     0.0820 C.ar  1 <1>   0.0000 
 14 C        4.5710    -5.1130    -0.2000 C.ar  1 <1>   0.1600 
 15 N        2.8480    -5.9170     1.2540 N.ar  1 <1>  -0.6200 
 16 C        7.3840     1.2320    -0.1650 C.ar  1 <1>   0.5280 
 17 C        6.2980     3.1860     0.1090 C.ar  1 <1>   0.1050 
 18 C        4.1770     3.6580     0.2570 C.2   1 <1>   0.1390 
 19 C        4.0460    -6.0250     0.7070 C.ar  1 <1>   0.1600 
 20 N        7.4780     2.5070    -0.0160 N.ar  1 <1>  -0.5670 
 21 C        8.6460     0.4050    -0.3090 C.3   1 <1>  -0.0970 
 22 N        6.0940     4.5120     0.2800 N.pl3 1 <1>   0.3140 
 23 N        4.7780     4.7950     0.3700 N.2   1 <1>  -0.7070 
 24 C        7.1070     5.5740     0.3730 C.3   1 <1>   0.0160 
 25 H       -0.2670    -0.7620     0.1890 H     1 <1>   0.4000 
 26 H        1.2710    -0.2580    -1.3830 H     1 <1>   0.0800 
 27 H        2.2860    -1.5040     1.1790 H     1 <1>   0.0800 
 28 H        2.2900     1.4050     0.8680 H     1 <1>   0.0800 
 29 H        2.3290     1.7280    -0.8710 H     1 <1>   0.0800 
 30 H        4.0040    -1.3600    -1.2560 H     1 <1>   0.0800 
 31 H        4.4640    -1.5340     0.4370 H     1 <1>   0.0800 
 32 H        1.9240    -2.6700    -1.6070 H     1 <1>   0.0800 
 33 H        0.8490    -2.9180    -0.2700 H     1 <1>   0.0800 
 34 H        1.2120    -4.6980     1.2090 H     1 <1>   0.1500 
 35 H        6.1730    -0.4360    -0.3340 H     1 <1>   0.4570 
 36 H        5.5560    -5.2940    -0.5920 H     1 <1>   0.1500 
 37 H        3.1050     3.5700     0.2980 H     1 <1>   0.1500 
 38 H        4.6400    -6.8760     0.9910 H     1 <1>   0.1500 
 39 H        9.5110     1.0440    -0.2690 H     1 <1>   0.0800 
 40 H        8.6510    -0.1090    -1.2530 H     1 <1>   0.0800 
 41 H        8.7190    -0.3100     0.4900 H     1 <1>   0.0800 
 42 H        8.0900     5.1540     0.2630 H     1 <1>   0.0800 
 43 H        7.0220     6.0550     1.3290 H     1 <1>   0.0800 
 44 H        6.9310     6.2940    -0.4050 H     1 <1>   0.0800 
@<TRIPOS>BOND
  1   1   2  1   
  2   1  25  1   
  3   2   3  1   
  4   2   4  1   
  5   2  26  1   
  6   3   5  1   
  7   3   6  1   
  8   3  27  1   
  9   4   7  1   
 10   4  28  1   
 11   4  29  1   
 12   5   7  1   
 13   5  30  1   
 14   5  31  1   
 15   6   8  1   
 16   6  32  1   
 17   6  33  1   
 18   7   9  1   
 19   8  10  ar  
 20   8  11  ar  
 21   9  12  ar  
 22   9  13  ar  
 23  10  14  ar  
 24  11  15  ar  
 25  11  34  1   
 26  12  16  ar  
 27  12  35  1   
 28  13  17  ar  
 29  13  18  1   
 30  14  19  ar  
 31  14  36  1   
 32  15  19  ar  
 33  16  20  ar  
 34  16  21  1   
 35  17  20  ar  
 36  17  22  1   
 37  18  23  2   
 38  18  37  1   
 39  19  38  1   
 40  21  39  1   
 41  21  40  1   
 42  21  41  1   
 43  22  23  1   
 44  22  24  1   
 45  24  42  1   
 46  24  43  1   
 47  24  44  1   
@<TRIPOS>SUBSTRUCTURE
  1 ****   7 GROUP 4 **** **** 0

# MOE 2024.06 (io_trps.svl 2023.06)
