@<TRIPOS>MOLECULE
NONAME
45 47 1 0 0 
SMALL
USER_CHARGES


@<TRIPOS>ATOM
  1 S        0.8540     1.7130     1.7310 S.o2  1 <1>   1.3330 
  2 O        0.4650     2.9920     2.2740 O.2   1 <1>  -0.6500 
  3 O        1.8540     0.9170     2.4010 O.2   1 <1>  -0.6500 
  4 N        1.4290     2.0010     0.1570 N.am  1 <1>  -0.8490 
  5 C       -0.5850     0.6980     1.4670 C.3   1 <1>  -0.1350 
  6 C        2.9020     1.9420     0.1030 C.3   1 <1>   0.1960 
  7 C        0.7220     3.0680    -0.5610 C.3   1 <1>   0.1960 
  8 C        3.5600     2.4930    -1.1740 C.3   1 <1>   0.3430 
  9 C        1.3530     4.4530    -0.3910 C.3   1 <1>  -0.1600 
 10 N        3.6900     3.9890    -1.1510 N.4   1 <1>  -0.9590 
 11 C        2.4340     4.7410    -1.4270 C.3   1 <1>   0.3430 
 12 C        4.8000     4.4740    -2.0370 C.3   1 <1>   0.5230 
 13 C        5.2860     5.8370    -1.5600 C.2   1 <1>   0.1980 
 14 S        6.4270     6.6830    -2.5710 S.3   1 <1>  -0.0800 
 15 N        4.9650     6.4570    -0.4940 N.2   1 <1>  -0.5650 
 16 C        6.4370     7.9800    -1.4150 C.2   1 <1>  -0.1100 
 17 C        5.6090     7.6950    -0.3870 C.2   1 <1>   0.1730 
 18 C        5.3410     8.5410     0.7640 C.ar  1 <1>   0.0540 
 19 C        4.9240     8.0000     1.9840 C.ar  1 <1>  -0.1500 
 20 C        5.4950     9.9290     0.6830 C.ar  1 <1>  -0.1500 
 21 C        4.6690     8.8040     3.0820 C.ar  1 <1>  -0.1500 
 22 C        5.2450    10.7470     1.7710 C.ar  1 <1>  -0.1500 
 23 C        4.8350    10.1680     2.9550 C.ar  1 <1>   0.1900 
 24 F        4.5980    10.9330     3.9850 F     1 <1>  -0.1900 
 25 H       -1.0200     0.4310     2.4100 H     1 <1>   0.0800 
 26 H       -0.3130    -0.2000     0.9490 H     1 <1>   0.0800 
 27 H       -1.3170     1.2250     0.8890 H     1 <1>   0.0800 
 28 H        3.1860     0.9070     0.2000 H     1 <1>   0.0800 
 29 H        3.3180     2.4590     0.9530 H     1 <1>   0.0800 
 30 H       -0.2980     3.1090    -0.2110 H     1 <1>   0.0800 
 31 H        0.6750     2.8160    -1.6070 H     1 <1>   0.0800 
 32 H        3.0050     2.1660    -2.0380 H     1 <1>   0.0800 
 33 H        4.5460     2.0630    -1.2330 H     1 <1>   0.0800 
 34 H        1.7100     4.6110     0.6120 H     1 <1>   0.0800 
 35 H        0.5710     5.1740    -0.5540 H     1 <1>   0.0800 
 36 H        3.9790     4.2910    -0.2040 H     1 <1>   0.4500 
 37 H        2.6450     5.8000    -1.4010 H     1 <1>   0.0800 
 38 H        2.0660     4.5010    -2.4110 H     1 <1>   0.0800 
 39 H        4.4620     4.5440    -3.0570 H     1 <1>   0.0800 
 40 H        5.6300     3.7890    -1.9960 H     1 <1>   0.0800 
 41 H        7.0650     8.8280    -1.6180 H     1 <1>   0.1500 
 42 H        4.8010     6.9370     2.0780 H     1 <1>   0.1500 
 43 H        5.8080    10.3810    -0.2410 H     1 <1>   0.1500 
 44 H        4.3490     8.3860     4.0200 H     1 <1>   0.1500 
 45 H        5.3630    11.8140     1.7090 H     1 <1>   0.1500 
@<TRIPOS>BOND
  1   1   2  2   
  2   1   3  2   
  3   1   4  am  
  4   1   5  1   
  5   4   6  1   
  6   4   7  1   
  7   5  25  1   
  8   5  26  1   
  9   5  27  1   
 10   6   8  1   
 11   6  28  1   
 12   6  29  1   
 13   7   9  1   
 14   7  30  1   
 15   7  31  1   
 16   8  10  1   
 17   8  32  1   
 18   8  33  1   
 19   9  11  1   
 20   9  34  1   
 21   9  35  1   
 22  10  11  1   
 23  10  12  1   
 24  10  36  1   
 25  11  37  1   
 26  11  38  1   
 27  12  13  1   
 28  12  39  1   
 29  12  40  1   
 30  13  14  1   
 31  13  15  2   
 32  14  16  1   
 33  15  17  1   
 34  16  17  2   
 35  16  41  1   
 36  17  18  1   
 37  18  19  ar  
 38  18  20  ar  
 39  19  21  ar  
 40  19  42  1   
 41  20  22  ar  
 42  20  43  1   
 43  21  23  ar  
 44  21  44  1   
 45  22  23  ar  
 46  22  45  1   
 47  23  24  1   
@<TRIPOS>SUBSTRUCTURE
  1 ****  15 GROUP 4 **** **** 0

# MOE 2024.06 (io_trps.svl 2023.06)
