@<TRIPOS>MOLECULE
NONAME
46 48 1 0 0 
SMALL
USER_CHARGES


@<TRIPOS>ATOM
  1 F        0.2270    -0.7450    -0.2120 F     1 <1>  -0.1900 
  2 C       -0.4520    -1.8620    -0.1370 C.ar  1 <1>   0.1900 
  3 C       -0.0250    -3.0350    -0.7700 C.ar  1 <1>   0.0820 
  4 C       -1.6150    -1.8260     0.6070 C.ar  1 <1>  -0.1500 
  5 O        1.0990    -3.1960    -1.5270 O.3   1 <1>  -0.3630 
  6 C       -0.8130    -4.1650    -0.6260 C.ar  1 <1>  -0.1500 
  7 C       -2.3750    -2.9730     0.7310 C.ar  1 <1>  -0.1500 
  8 C        1.9780    -2.1360    -1.8330 C.3   1 <1>   0.0400 
  9 C       -1.9970    -4.1690     0.1170 C.ar  1 <1>   0.0530 
 10 C       -2.7830    -5.3750     0.2370 C.2   1 <1>   0.0870 
 11 O       -2.1960    -6.5440     0.1600 O.3   1 <1>  -0.0190 
 12 C       -4.1070    -5.6150     0.4190 C.2   1 <1>  -0.2330 
 13 N       -3.0310    -7.5400     0.2820 N.2   1 <1>  -0.4100 
 14 C       -4.1990    -7.0130     0.4340 C.2   1 <1>   0.3720 
 15 C       -5.1690    -4.6730     0.5530 C.2   1 <1>   1.0330 
 16 N       -5.3550    -7.8030     0.6120 N.pl3 1 <1>  -0.8210 
 17 O       -5.3790    -4.0990     1.6360 O.co2 1 <1>  -0.9000 
 18 O       -5.8900    -4.3890    -0.4200 O.co2 1 <1>  -0.9000 
 19 C       -5.2840    -9.2420     0.2530 C.3   1 <1>   0.2090 
 20 C       -6.6540    -7.2550     0.1570 C.3   1 <1>   0.2090 
 21 C       -6.6380    -9.6010    -0.3650 C.3   1 <1>  -0.0800 
 22 C       -7.5670    -8.4640     0.0550 C.3   1 <1>  -0.1600 
 23 C       -7.1340   -10.9940     0.0610 C.3   1 <1>  -0.0990 
 24 C       -8.4430   -11.3660    -0.6040 C.2   1 <1>   0.5690 
 25 O       -8.4170   -11.8610    -1.7030 O.2   1 <1>  -0.5700 
 26 N       -9.6040   -11.1380     0.0650 N.am  1 <1>  -0.7300 
 27 C      -10.9610   -11.4510    -0.4490 C.3   1 <1>   0.0600 
 28 H       -1.9250    -0.9140     1.0850 H     1 <1>   0.1500 
 29 H       -0.4990    -5.0720    -1.1100 H     1 <1>   0.1500 
 30 H       -3.2760    -2.9380     1.3200 H     1 <1>   0.1500 
 31 H        2.7560    -2.5200    -2.4680 H     1 <1>   0.0800 
 32 H        2.4050    -1.7610    -0.9200 H     1 <1>   0.0800 
 33 H        1.4320    -1.3670    -2.3500 H     1 <1>   0.0800 
 34 H       -5.1020    -9.8060     1.1510 H     1 <1>   0.0800 
 35 H       -4.4920    -9.4360    -0.4510 H     1 <1>   0.0800 
 36 H       -6.5340    -6.7910    -0.8080 H     1 <1>   0.0800 
 37 H       -7.0370    -6.5330     0.8600 H     1 <1>   0.0800 
 38 H       -6.5240    -9.5780    -1.4360 H     1 <1>   0.0800 
 39 H       -8.3610    -8.2970    -0.6510 H     1 <1>   0.0800 
 40 H       -7.9860    -8.6490     1.0270 H     1 <1>   0.0800 
 41 H       -7.2490   -11.0350     1.1280 H     1 <1>   0.0800 
 42 H       -6.4020   -11.7290    -0.2180 H     1 <1>   0.0800 
 43 H       -9.5650   -10.6840     0.9790 H     1 <1>   0.3700 
 44 H      -10.8960   -11.9180    -1.4170 H     1 <1>   0.0800 
 45 H      -11.5340   -10.5440    -0.5400 H     1 <1>   0.0800 
 46 H      -11.4610   -12.1230     0.2270 H     1 <1>   0.0800 
@<TRIPOS>BOND
  1   1   2  1   
  2   2   3  ar  
  3   2   4  ar  
  4   3   5  1   
  5   3   6  ar  
  6   4   7  ar  
  7   4  28  1   
  8   5   8  1   
  9   6   9  ar  
 10   6  29  1   
 11   7   9  ar  
 12   7  30  1   
 13   8  31  1   
 14   8  32  1   
 15   8  33  1   
 16   9  10  1   
 17  10  11  1   
 18  10  12  2   
 19  11  13  1   
 20  12  14  1   
 21  12  15  1   
 22  13  14  2   
 23  14  16  1   
 24  15  17  ar  
 25  15  18  ar  
 26  16  19  1   
 27  16  20  1   
 28  19  21  1   
 29  19  34  1   
 30  19  35  1   
 31  20  22  1   
 32  20  36  1   
 33  20  37  1   
 34  21  22  1   
 35  21  23  1   
 36  21  38  1   
 37  22  39  1   
 38  22  40  1   
 39  23  24  1   
 40  23  41  1   
 41  23  42  1   
 42  24  25  2   
 43  24  26  am  
 44  26  27  1   
 45  26  43  1   
 46  27  44  1   
 47  27  45  1   
 48  27  46  1   
@<TRIPOS>SUBSTRUCTURE
  1 ****  12 GROUP 4 **** **** 0

# MOE 2024.06 (io_trps.svl 2023.06)
