@<TRIPOS>MOLECULE
NONAME
44 45 1 0 0 
SMALL
USER_CHARGES


@<TRIPOS>ATOM
  1 O        2.5020    -0.7340     0.6050 O.2   1 <1>  -0.5700 
  2 C        2.5010    -0.8970    -0.5890 C.2   1 <1>   0.5690 
  3 N        3.1710    -0.0790    -1.4420 N.am  1 <1>  -0.4930 
  4 C        1.7150    -2.0690    -1.1680 C.3   1 <1>  -0.0990 
  5 C        3.9290     1.0810    -1.2010 C.2   1 <1>   0.3520 
  6 C        0.8440    -2.7820    -0.1030 C.3   1 <1>  -0.1600 
  7 N        4.6430     1.5670    -2.1390 N.2   1 <1>  -0.4100 
  8 C        4.0680     1.9070    -0.0710 C.2   1 <1>   0.3520 
  9 C       -0.1290    -3.8610    -0.6200 C.3   1 <1>   0.4230 
 10 O        5.1900     2.6180    -1.6070 O.3   1 <1>   0.2420 
 11 N        4.8680     2.8560    -0.3720 N.2   1 <1>  -0.4100 
 12 N        3.4490     1.7540     1.1830 N.am  1 <1>  -0.4930 
 13 N       -0.7970    -4.5460     0.5320 N.4   1 <1>  -0.9590 
 14 C        0.6080    -4.9130    -1.4570 C.3   1 <1>  -0.2400 
 15 C        3.3350     2.5630     2.2630 C.2   1 <1>   0.5690 
 16 C       -1.8630    -5.5230     0.0900 C.3   1 <1>   0.3430 
 17 C       -1.3970    -3.5950     1.5460 C.3   1 <1>   0.3430 
 18 O        2.7210     2.1820     3.2270 O.2   1 <1>  -0.5700 
 19 C        3.9440     3.9460     2.3010 C.3   1 <1>  -0.1790 
 20 C       -2.5830    -6.1790     1.2840 C.3   1 <1>   0.1200 
 21 C       -2.1370    -4.3360     2.6750 C.3   1 <1>   0.1200 
 22 O       -3.0930    -5.2000     2.1380 O.3   1 <1>  -0.5600 
 23 H        3.1910    -0.3420    -2.4260 H     1 <1>   0.3700 
 24 H        2.4260    -2.7570    -1.5880 H     1 <1>   0.0800 
 25 H        1.0870    -1.6980    -1.9590 H     1 <1>   0.0800 
 26 H        0.2710    -2.0080     0.3770 H     1 <1>   0.0800 
 27 H        1.5030    -3.2160     0.6300 H     1 <1>   0.0800 
 28 H       -0.8780    -3.3860    -1.2350 H     1 <1>   0.0800 
 29 H        2.9870     0.8470     1.3180 H     1 <1>   0.3700 
 30 H       -0.0730    -5.0860     1.0210 H     1 <1>   0.4500 
 31 H        1.3740    -5.3990    -0.8780 H     1 <1>   0.0800 
 32 H        1.0740    -4.4520    -2.3080 H     1 <1>   0.0800 
 33 H       -0.0620    -5.6520    -1.8550 H     1 <1>   0.0800 
 34 H       -1.4290    -6.3020    -0.5130 H     1 <1>   0.0800 
 35 H       -2.5990    -5.0130    -0.5090 H     1 <1>   0.0800 
 36 H       -2.0960    -2.9360     1.0580 H     1 <1>   0.0800 
 37 H       -0.6240    -2.9880     1.9880 H     1 <1>   0.0800 
 38 H        3.5700     4.5330     1.4830 H     1 <1>   0.0800 
 39 H        5.0130     3.8740     2.2340 H     1 <1>   0.0800 
 40 H        3.6860     4.4320     3.2240 H     1 <1>   0.0800 
 41 H       -1.9170    -6.8150     1.8420 H     1 <1>   0.0800 
 42 H       -3.4110    -6.7720     0.9370 H     1 <1>   0.0800 
 43 H       -2.6510    -3.6310     3.3050 H     1 <1>   0.0800 
 44 H       -1.4550    -4.9050     3.2830 H     1 <1>   0.0800 
@<TRIPOS>BOND
  1   1   2  2   
  2   2   3  am  
  3   2   4  1   
  4   3   5  1   
  5   3  23  1   
  6   4   6  1   
  7   4  24  1   
  8   4  25  1   
  9   5   7  2   
 10   5   8  1   
 11   6   9  1   
 12   6  26  1   
 13   6  27  1   
 14   7  10  1   
 15   8  11  2   
 16   8  12  1   
 17   9  13  1   
 18   9  14  1   
 19   9  28  1   
 20  10  11  1   
 21  12  15  am  
 22  12  29  1   
 23  13  16  1   
 24  13  17  1   
 25  13  30  1   
 26  14  31  1   
 27  14  32  1   
 28  14  33  1   
 29  15  18  2   
 30  15  19  1   
 31  16  20  1   
 32  16  34  1   
 33  16  35  1   
 34  17  21  1   
 35  17  36  1   
 36  17  37  1   
 37  19  38  1   
 38  19  39  1   
 39  19  40  1   
 40  20  22  1   
 41  20  41  1   
 42  20  42  1   
 43  21  22  1   
 44  21  43  1   
 45  21  44  1   
@<TRIPOS>SUBSTRUCTURE
  1 ****   1 GROUP 4 **** **** 0

# MOE 2024.06 (io_trps.svl 2023.06)
