@<TRIPOS>MOLECULE
NONAME
56 60 1 0 0 
SMALL
USER_CHARGES


@<TRIPOS>ATOM
  1 O       -0.9760    -0.6210    -2.0330 O.2   1 <1>  -0.5700 
  2 C       -1.7180    -0.9020    -1.1110 C.2   1 <1>   0.7150 
  3 N       -1.7200    -2.2190    -0.6690 N.am  1 <1>  -0.6600 
  4 C       -2.5510     0.1470    -0.5490 C.2   1 <1>   0.0550 
  5 C       -2.1910    -2.6030     0.7020 C.3   1 <1>   0.2200 
  6 C       -1.0750    -3.2600    -1.5150 C.3   1 <1>   0.1400 
  7 O       -3.6530    -0.1250     0.1730 O.3   1 <1>  -0.2800 
  8 C       -2.4140     1.4930    -0.6570 C.2   1 <1>  -0.1500 
  9 C       -1.2320    -3.5850     1.4260 C.3   1 <1>   0.1200 
 10 C       -3.6570    -3.1020     0.6310 C.3   1 <1>   0.3430 
 11 C       -1.6720    -4.6560    -1.3190 C.3   1 <1>  -0.0800 
 12 C       -4.2130     1.0300     0.5310 C.ar  1 <1>   0.1400 
 13 C       -3.4760     2.0900     0.0390 C.ar  1 <1>   0.0000 
 14 O       -1.4810    -4.9320     1.1130 O.3   1 <1>  -0.5600 
 15 N       -3.8300    -4.4560     0.0030 N.4   1 <1>  -0.9590 
 16 C       -1.0230    -5.3910    -0.1250 C.3   1 <1>   0.1200 
 17 C       -3.2150    -4.6380    -1.3500 C.3   1 <1>   0.3430 
 18 C       -5.3640     1.2230     1.2840 C.ar  1 <1>  -0.1500 
 19 C       -3.8920     3.3960     0.3010 C.ar  1 <1>  -0.1500 
 20 C       -5.2190    -4.9580     0.0780 C.3   1 <1>   0.5240 
 21 C       -5.7690     2.5170     1.5410 C.ar  1 <1>  -0.1500 
 22 C       -5.0330     3.6000     1.0490 C.ar  1 <1>  -0.1500 
 23 C       -5.1630    -6.4490    -0.1530 C.2   1 <1>  -0.1810 
 24 C       -5.7680    -7.1310    -1.2000 C.2   1 <1>   0.1390 
 25 C       -4.5240    -7.4060     0.5580 C.2   1 <1>  -0.3020 
 26 N       -5.5170    -8.4000    -1.1580 N.2   1 <1>  -0.7070 
 27 N       -4.7580    -8.5800    -0.0620 N.pl3 1 <1>   0.3140 
 28 C       -4.2820    -9.9190     0.3490 C.3   1 <1>   0.0960 
 29 C       -5.0720   -10.4420     1.5550 C.3   1 <1>  -0.2400 
 30 H       -2.1840    -1.7110     1.3020 H     1 <1>   0.0800 
 31 H       -1.1950    -2.9860    -2.5520 H     1 <1>   0.0800 
 32 H       -0.0160    -3.2710    -1.3160 H     1 <1>   0.0800 
 33 H       -1.6450     2.0350    -1.1780 H     1 <1>   0.1500 
 34 H       -1.3830    -3.4920     2.4880 H     1 <1>   0.0800 
 35 H       -0.2010    -3.3500     1.2210 H     1 <1>   0.0800 
 36 H       -4.2400    -2.3770     0.0880 H     1 <1>   0.0800 
 37 H       -4.0390    -3.1380     1.6370 H     1 <1>   0.0800 
 38 H       -1.3660    -5.2060    -2.1910 H     1 <1>   0.0800 
 39 H       -3.2630    -5.0850     0.6050 H     1 <1>   0.4500 
 40 H        0.0510    -5.2920    -0.1460 H     1 <1>   0.0800 
 41 H       -1.2570    -6.4410    -0.1750 H     1 <1>   0.0800 
 42 H       -3.5390    -5.5850    -1.7520 H     1 <1>   0.0800 
 43 H       -3.5570    -3.8650    -2.0190 H     1 <1>   0.0800 
 44 H       -5.9180     0.3800     1.6530 H     1 <1>   0.1500 
 45 H       -3.3210     4.2230    -0.0830 H     1 <1>   0.1500 
 46 H       -5.6350    -4.7660     1.0540 H     1 <1>   0.0800 
 47 H       -5.8350    -4.4810    -0.6660 H     1 <1>   0.0800 
 48 H       -6.6570     2.7050     2.1210 H     1 <1>   0.1500 
 49 H       -5.3680     4.6010     1.2600 H     1 <1>   0.1500 
 50 H       -6.3760    -6.6870    -1.9720 H     1 <1>   0.1500 
 51 H       -3.9290    -7.3380     1.4520 H     1 <1>   0.1500 
 52 H       -4.4030   -10.5880    -0.4840 H     1 <1>   0.0800 
 53 H       -3.2370    -9.8540     0.5870 H     1 <1>   0.0800 
 54 H       -6.1180   -10.5100     1.3090 H     1 <1>   0.0800 
 55 H       -4.9460    -9.7920     2.4030 H     1 <1>   0.0800 
 56 H       -4.7220   -11.4230     1.8210 H     1 <1>   0.0800 
@<TRIPOS>BOND
  1   1   2  2   
  2   2   3  am  
  3   2   4  1   
  4   3   5  1   
  5   3   6  1   
  6   4   7  1   
  7   4   8  2   
  8   5   9  1   
  9   5  10  1   
 10   5  30  1   
 11   6  11  1   
 12   6  31  1   
 13   6  32  1   
 14   7  12  1   
 15   8  13  1   
 16   8  33  1   
 17   9  14  1   
 18   9  34  1   
 19   9  35  1   
 20  10  15  1   
 21  10  36  1   
 22  10  37  1   
 23  11  16  1   
 24  11  17  1   
 25  11  38  1   
 26  12  13  ar  
 27  12  18  ar  
 28  13  19  ar  
 29  14  16  1   
 30  15  17  1   
 31  15  20  1   
 32  15  39  1   
 33  16  40  1   
 34  16  41  1   
 35  17  42  1   
 36  17  43  1   
 37  18  21  ar  
 38  18  44  1   
 39  19  22  ar  
 40  19  45  1   
 41  20  23  1   
 42  20  46  1   
 43  20  47  1   
 44  21  22  ar  
 45  21  48  1   
 46  22  49  1   
 47  23  24  1   
 48  23  25  2   
 49  24  26  2   
 50  24  50  1   
 51  25  27  1   
 52  25  51  1   
 53  26  27  1   
 54  27  28  1   
 55  28  29  1   
 56  28  52  1   
 57  28  53  1   
 58  29  54  1   
 59  29  55  1   
 60  29  56  1   
@<TRIPOS>SUBSTRUCTURE
  1 ****  10 GROUP 4 **** **** 0

# MOE 2024.06 (io_trps.svl 2023.06)
