@<TRIPOS>MOLECULE
NONAME
41 44 1 0 0 
SMALL
USER_CHARGES


@<TRIPOS>ATOM
  1 O       -0.7560     0.2810     0.2310 O.2   1 <1>  -0.5700 
  2 C       -1.8270     0.8560     0.1260 C.2   1 <1>   0.7160 
  3 N       -2.9390     0.0750    -0.1360 N.am  1 <1>  -0.6600 
  4 C       -1.8530     2.3050     0.2820 C.2   1 <1>   0.1410 
  5 C       -4.3310     0.5480    -0.3520 C.3   1 <1>   0.1400 
  6 C       -2.8720    -1.4030    -0.2500 C.3   1 <1>   0.1400 
  7 N       -2.9600     3.0870     0.2640 N.2   1 <1>  -0.2270 
  8 C       -0.7930     3.1290     0.4740 C.2   1 <1>  -0.3020 
  9 C       -5.1420    -0.7120    -0.6600 C.3   1 <1>   0.2000 
 10 C       -4.3200    -1.8760    -0.1120 C.3   1 <1>  -0.0800 
 11 N       -2.6170     4.3120     0.4330 N.2   1 <1>  -0.4180 
 12 N       -1.2920     4.3550     0.5630 N.pl3 1 <1>   0.3000 
 13 O       -6.3860    -0.6840    -0.0480 O.3   1 <1>  -0.6800 
 14 C       -4.6130    -3.2030    -0.8320 C.3   1 <1>  -0.0170 
 15 C       -3.7630    -4.3310    -0.2740 C.ar  1 <1>   0.1670 
 16 N       -2.5950    -4.5180    -0.8080 N.ar  1 <1>  -0.6200 
 17 C       -4.2660    -5.1020     0.7850 C.ar  1 <1>  -0.1500 
 18 C       -1.8200    -5.5110    -0.3020 C.ar  1 <1>   0.3100 
 19 C       -3.5120    -6.1070     1.3090 C.ar  1 <1>  -0.1500 
 20 C       -2.2390    -6.3370     0.7630 C.ar  1 <1>   0.0000 
 21 C       -0.5470    -5.7270    -0.8540 C.ar  1 <1>  -0.1500 
 22 C       -1.3710    -7.3450     1.2310 C.ar  1 <1>  -0.1500 
 23 C        0.2820    -6.7110    -0.3850 C.ar  1 <1>  -0.1500 
 24 C       -0.1360    -7.5290     0.6700 C.ar  1 <1>  -0.1500 
 25 H       -4.6890     1.0260     0.5430 H     1 <1>   0.0800 
 26 H       -4.3690     1.2340    -1.1800 H     1 <1>   0.0800 
 27 H       -2.4730    -1.6630    -1.2160 H     1 <1>   0.0800 
 28 H       -2.2440    -1.8270     0.5150 H     1 <1>   0.0800 
 29 H        0.2510     2.8850     0.5470 H     1 <1>   0.1500 
 30 H       -5.2880    -0.8010    -1.7230 H     1 <1>   0.0800 
 31 H       -4.5150    -1.9900     0.9400 H     1 <1>   0.0800 
 32 H       -0.7790     5.2320     0.7100 H     1 <1>   0.2700 
 33 H       -6.2860    -0.5500     0.9150 H     1 <1>   0.4000 
 34 H       -4.4120    -3.1010    -1.8840 H     1 <1>   0.0800 
 35 H       -5.6540    -3.4480    -0.7230 H     1 <1>   0.0800 
 36 H       -5.2460    -4.8880     1.1730 H     1 <1>   0.1500 
 37 H       -3.8640    -6.7200     2.1200 H     1 <1>   0.1500 
 38 H       -0.2440    -5.0870    -1.6630 H     1 <1>   0.1500 
 39 H       -1.6980    -7.9690     2.0430 H     1 <1>   0.1500 
 40 H        1.2560    -6.8650    -0.8180 H     1 <1>   0.1500 
 41 H        0.5250    -8.2980     1.0290 H     1 <1>   0.1500 
@<TRIPOS>BOND
  1   1   2  2   
  2   2   3  am  
  3   2   4  1   
  4   3   5  1   
  5   3   6  1   
  6   4   7  1   
  7   4   8  2   
  8   5   9  1   
  9   5  25  1   
 10   5  26  1   
 11   6  10  1   
 12   6  27  1   
 13   6  28  1   
 14   7  11  2   
 15   8  12  1   
 16   8  29  1   
 17   9  10  1   
 18   9  13  1   
 19   9  30  1   
 20  10  14  1   
 21  10  31  1   
 22  11  12  1   
 23  12  32  1   
 24  13  33  1   
 25  14  15  1   
 26  14  34  1   
 27  14  35  1   
 28  15  16  ar  
 29  15  17  ar  
 30  16  18  ar  
 31  17  19  ar  
 32  17  36  1   
 33  18  20  ar  
 34  18  21  ar  
 35  19  20  ar  
 36  19  37  1   
 37  20  22  ar  
 38  21  23  ar  
 39  21  38  1   
 40  22  24  ar  
 41  22  39  1   
 42  23  24  ar  
 43  23  40  1   
 44  24  41  1   
@<TRIPOS>SUBSTRUCTURE
  1 ****   6 GROUP 4 **** **** 0

# MOE 2024.06 (io_trps.svl 2023.06)
