@<TRIPOS>MOLECULE
NONAME
47 49 1 0 0 
SMALL
USER_CHARGES


@<TRIPOS>ATOM
  1 S        0.2600    -0.4140    -0.0470 S.3   1 <1>  -0.0800 
  2 C       -1.3920    -0.9410     0.0190 C.2   1 <1>   0.4420 
  3 C       -0.3340     1.2100     0.0060 C.2   1 <1>   0.1980 
  4 N       -2.2090     0.0490     0.0650 N.2   1 <1>  -0.3380 
  5 N       -1.6110    -2.3000     0.0030 N.am  1 <1>  -0.4940 
  6 N       -1.6000     1.2700     0.0580 N.2   1 <1>  -0.3380 
  7 C        0.6560     2.3530    -0.0130 C.3   1 <1>   0.0200 
  8 C       -2.7820    -2.9910     0.1760 C.2   1 <1>   0.7160 
  9 C       -0.1130     3.6750     0.1000 C.3   1 <1>   0.3430 
 10 O       -3.7800    -2.4210     0.5610 O.2   1 <1>  -0.5700 
 11 C       -2.8060    -4.4120    -0.0670 C.2   1 <1>  -0.0860 
 12 N        0.7850     4.8770     0.1570 N.4   1 <1>  -0.9590 
 13 C       -1.8570    -5.1820    -0.7450 C.2   1 <1>   0.1390 
 14 C       -3.7360    -5.3380     0.2920 C.2   1 <1>  -0.3020 
 15 C       -0.0190     6.0810     0.5390 C.3   1 <1>   0.2630 
 16 C        1.4930     5.1290    -1.1400 C.3   1 <1>   0.2630 
 17 N       -2.1570    -6.4370    -0.7860 N.2   1 <1>  -0.7070 
 18 N       -3.3530    -6.5530    -0.1500 N.pl3 1 <1>   0.5930 
 19 C       -3.9950    -7.8070     0.0630 C.ar  1 <1>  -0.0230 
 20 C       -5.3700    -7.9710    -0.1370 C.ar  1 <1>   0.0820 
 21 C       -3.2430    -8.9010     0.4810 C.ar  1 <1>  -0.1500 
 22 O       -6.0850    -6.8960    -0.5680 O.3   1 <1>  -0.3630 
 23 C       -5.9610    -9.2100     0.0980 C.ar  1 <1>  -0.1500 
 24 C       -3.8350   -10.1290     0.7100 C.ar  1 <1>  -0.1500 
 25 C       -7.4620    -6.9810    -0.8630 C.3   1 <1>   0.0400 
 26 C       -5.1960   -10.2830     0.5210 C.ar  1 <1>  -0.1500 
 27 H       -0.7850    -2.8760    -0.1090 H     1 <1>   0.3700 
 28 H        1.2090     2.3100    -0.9330 H     1 <1>   0.0800 
 29 H        1.3270     2.2420     0.8190 H     1 <1>   0.0800 
 30 H       -0.7150     3.6360     0.9940 H     1 <1>   0.0800 
 31 H       -0.7890     3.7620    -0.7370 H     1 <1>   0.0800 
 32 H        1.4900     4.7270     0.8960 H     1 <1>   0.4500 
 33 H       -0.9620    -4.7910    -1.1990 H     1 <1>   0.1500 
 34 H       -4.6500    -5.1880     0.8370 H     1 <1>   0.1500 
 35 H       -0.7760     6.2790    -0.2030 H     1 <1>   0.0800 
 36 H        0.6180     6.9480     0.6210 H     1 <1>   0.0800 
 37 H       -0.5030     5.9220     1.4900 H     1 <1>   0.0800 
 38 H        0.7790     5.2760    -1.9350 H     1 <1>   0.0800 
 39 H        2.1260     4.2940    -1.3950 H     1 <1>   0.0800 
 40 H        2.1090     6.0110    -1.0650 H     1 <1>   0.0800 
 41 H       -2.1810    -8.7890     0.6250 H     1 <1>   0.1500 
 42 H       -7.0130    -9.3640    -0.0420 H     1 <1>   0.1500 
 43 H       -3.2370   -10.9640     1.0340 H     1 <1>   0.1500 
 44 H       -7.7880    -6.0150    -1.2070 H     1 <1>   0.0800 
 45 H       -7.9960    -7.2490     0.0310 H     1 <1>   0.0800 
 46 H       -7.6090    -7.7120    -1.6380 H     1 <1>   0.0800 
 47 H       -5.6580   -11.2380     0.7000 H     1 <1>   0.1500 
@<TRIPOS>BOND
  1   1   2  1   
  2   1   3  1   
  3   2   4  2   
  4   2   5  1   
  5   3   6  2   
  6   3   7  1   
  7   4   6  1   
  8   5   8  am  
  9   5  27  1   
 10   7   9  1   
 11   7  28  1   
 12   7  29  1   
 13   8  10  2   
 14   8  11  1   
 15   9  12  1   
 16   9  30  1   
 17   9  31  1   
 18  11  13  1   
 19  11  14  2   
 20  12  15  1   
 21  12  16  1   
 22  12  32  1   
 23  13  17  2   
 24  13  33  1   
 25  14  18  1   
 26  14  34  1   
 27  15  35  1   
 28  15  36  1   
 29  15  37  1   
 30  16  38  1   
 31  16  39  1   
 32  16  40  1   
 33  17  18  1   
 34  18  19  1   
 35  19  20  ar  
 36  19  21  ar  
 37  20  22  1   
 38  20  23  ar  
 39  21  24  ar  
 40  21  41  1   
 41  22  25  1   
 42  23  26  ar  
 43  23  42  1   
 44  24  26  ar  
 45  24  43  1   
 46  25  44  1   
 47  25  45  1   
 48  25  46  1   
 49  26  47  1   
@<TRIPOS>SUBSTRUCTURE
  1 ****   8 GROUP 4 **** **** 0

# MOE 2024.06 (io_trps.svl 2023.06)
