@<TRIPOS>MOLECULE
NONAME
61 64 1 0 0 
SMALL
USER_CHARGES


@<TRIPOS>ATOM
  1 N       -0.1220    -0.2690    -0.2500 N.ar  1 <1>  -0.1790 
  2 C        1.1070     0.3670    -0.1800 C.ar  1 <1>   0.3610 
  3 C       -0.3220    -1.5790    -0.4560 C.ar  1 <1>   0.4610 
  4 C        2.2630    -0.4140    -0.3520 C.ar  1 <1>   0.0000 
  5 C        1.1920     1.7530     0.0540 C.ar  1 <1>  -0.1440 
  6 N       -1.5870    -2.0980    -0.4950 N.pl3 1 <1>  -0.8380 
  7 C        0.8550    -2.3550    -0.6340 C.ar  1 <1>  -0.1500 
  8 C        2.1040    -1.8140    -0.5890 C.ar  1 <1>  -0.1430 
  9 C        3.5030     0.2340    -0.2810 C.ar  1 <1>  -0.1500 
 10 C        2.4360     2.3570     0.1130 C.ar  1 <1>  -0.1430 
 11 C       -0.0960     2.5690     0.2380 C.3   1 <1>  -0.0970 
 12 C       -1.9420    -3.4580    -1.0740 C.3   1 <1>   0.2090 
 13 C       -2.8410    -1.3350    -0.1210 C.3   1 <1>   0.2090 
 14 C        3.3350    -2.6910    -0.7920 C.3   1 <1>  -0.0970 
 15 C        3.5820     1.5830    -0.0550 C.ar  1 <1>  -0.1500 
 16 C        2.6380     3.8500     0.3540 C.3   1 <1>  -0.0970 
 17 C       -2.8820    -4.3330    -0.1650 C.3   1 <1>   0.5030 
 18 C       -3.8150    -2.1730     0.7450 C.3   1 <1>   0.3430 
 19 N       -4.1310    -3.5310     0.1610 N.4   1 <1>  -0.9590 
 20 C       -3.2980    -5.6090    -0.9280 C.3   1 <1>  -0.1600 
 21 C       -2.1530    -4.7490     1.1330 C.3   1 <1>  -0.1600 
 22 C       -5.1630    -4.1970     1.0380 C.3   1 <1>   0.2630 
 23 C       -2.1290    -6.5680    -1.1750 C.3   1 <1>   0.3430 
 24 C       -0.9910    -5.7140     0.8810 C.3   1 <1>   0.3430 
 25 N       -1.4680    -6.9030     0.1180 N.4   1 <1>  -0.9590 
 26 C       -0.3360    -7.8650    -0.1130 C.3   1 <1>   0.2630 
 27 H       -0.9200     0.3490    -0.1850 H     1 <1>   0.4570 
 28 H        0.7720    -3.4050    -0.8070 H     1 <1>   0.1500 
 29 H        4.4160    -0.3210    -0.4050 H     1 <1>   0.1500 
 30 H       -0.6820     2.1730     1.0480 H     1 <1>   0.0800 
 31 H       -0.6760     2.5620    -0.6680 H     1 <1>   0.0800 
 32 H        0.0980     3.5980     0.4760 H     1 <1>   0.0800 
 33 H       -1.0620    -4.0170    -1.3180 H     1 <1>   0.0800 
 34 H       -2.4450    -3.2910    -2.0120 H     1 <1>   0.0800 
 35 H       -3.3500    -1.0270    -1.0200 H     1 <1>   0.0800 
 36 H       -2.5990    -0.4460     0.4340 H     1 <1>   0.0800 
 37 H        3.9010    -2.3450    -1.6390 H     1 <1>   0.0800 
 38 H        3.0680    -3.7160    -0.9700 H     1 <1>   0.0800 
 39 H        3.9650    -2.6570     0.0810 H     1 <1>   0.0800 
 40 H        4.5530     2.0490    -0.0070 H     1 <1>   0.1500 
 41 H        2.1330     4.4230    -0.4020 H     1 <1>   0.0800 
 42 H        3.6810     4.1140     0.3230 H     1 <1>   0.0800 
 43 H        2.2580     4.1260     1.3220 H     1 <1>   0.0800 
 44 H       -4.7300    -1.6140     0.8700 H     1 <1>   0.0800 
 45 H       -3.3820    -2.2950     1.7250 H     1 <1>   0.0800 
 46 H       -4.6030    -3.3510    -0.7380 H     1 <1>   0.4500 
 47 H       -3.7260    -5.3470    -1.8800 H     1 <1>   0.0800 
 48 H       -4.0410    -6.1610    -0.3830 H     1 <1>   0.0800 
 49 H       -2.8270    -5.2370     1.8140 H     1 <1>   0.0800 
 50 H       -1.7580    -3.8840     1.6330 H     1 <1>   0.0800 
 51 H       -4.7620    -4.4000     2.0180 H     1 <1>   0.0800 
 52 H       -5.5030    -5.1220     0.6030 H     1 <1>   0.0800 
 53 H       -6.0220    -3.5540     1.1550 H     1 <1>   0.0800 
 54 H       -1.4140    -6.1210    -1.8480 H     1 <1>   0.0800 
 55 H       -2.4980    -7.4710    -1.6410 H     1 <1>   0.0800 
 56 H       -0.5760    -6.0310     1.8270 H     1 <1>   0.0800 
 57 H       -0.2100    -5.2160     0.3300 H     1 <1>   0.0800 
 58 H       -2.1480    -7.4140     0.7060 H     1 <1>   0.4500 
 59 H        0.4300    -7.4150    -0.7230 H     1 <1>   0.0800 
 60 H       -0.6920    -8.7530    -0.6110 H     1 <1>   0.0800 
 61 H        0.1050    -8.1610     0.8270 H     1 <1>   0.0800 
@<TRIPOS>BOND
  1   1   2  ar  
  2   1   3  ar  
  3   1  27  1   
  4   2   4  ar  
  5   2   5  ar  
  6   3   6  1   
  7   3   7  ar  
  8   4   8  ar  
  9   4   9  ar  
 10   5  10  ar  
 11   5  11  1   
 12   6  12  1   
 13   6  13  1   
 14   7   8  ar  
 15   7  28  1   
 16   8  14  1   
 17   9  15  ar  
 18   9  29  1   
 19  10  15  ar  
 20  10  16  1   
 21  11  30  1   
 22  11  31  1   
 23  11  32  1   
 24  12  17  1   
 25  12  33  1   
 26  12  34  1   
 27  13  18  1   
 28  13  35  1   
 29  13  36  1   
 30  14  37  1   
 31  14  38  1   
 32  14  39  1   
 33  15  40  1   
 34  16  41  1   
 35  16  42  1   
 36  16  43  1   
 37  17  19  1   
 38  17  20  1   
 39  17  21  1   
 40  18  19  1   
 41  18  44  1   
 42  18  45  1   
 43  19  22  1   
 44  19  46  1   
 45  20  23  1   
 46  20  47  1   
 47  20  48  1   
 48  21  24  1   
 49  21  49  1   
 50  21  50  1   
 51  22  51  1   
 52  22  52  1   
 53  22  53  1   
 54  23  25  1   
 55  23  54  1   
 56  23  55  1   
 57  24  25  1   
 58  24  56  1   
 59  24  57  1   
 60  25  26  1   
 61  25  58  1   
 62  26  59  1   
 63  26  60  1   
 64  26  61  1   
@<TRIPOS>SUBSTRUCTURE
  1 ****   3 GROUP 4 **** **** 0

# MOE 2024.06 (io_trps.svl 2023.06)
