@<TRIPOS>MOLECULE
NONAME
41 44 1 0 0 
SMALL
USER_CHARGES


@<TRIPOS>ATOM
  1 F        3.0900     0.4760    -2.6300 F     1 <1>  -0.1900 
  2 C        3.1870    -0.0380    -1.4310 C.ar  1 <1>   0.1900 
  3 C        3.4340     0.8220    -0.3370 C.ar  1 <1>   0.3100 
  4 C        3.0420    -1.3940    -1.3090 C.ar  1 <1>  -0.1500 
  5 N        3.5730     2.1670    -0.5060 N.ar  1 <1>  -0.6200 
  6 C        3.5320     0.2130     0.9350 C.ar  1 <1>   0.0000 
  7 C        3.1410    -1.9750    -0.0410 C.ar  1 <1>  -0.1500 
  8 C        3.8230     2.9020     0.5380 C.ar  1 <1>   0.1670 
  9 C        3.7840     1.0380     2.0440 C.ar  1 <1>  -0.1500 
 10 C        3.3800    -1.1850     1.0520 C.ar  1 <1>  -0.1500 
 11 C        3.9270     2.3760     1.8360 C.ar  1 <1>  -0.1500 
 12 C        3.9970     4.4120     0.3410 C.3   1 <1>   0.2540 
 13 N        5.3880     4.8420     0.0560 N.3   1 <1>  -0.8100 
 14 C        6.3080     4.6030     1.1950 C.3   1 <1>   0.1100 
 15 C        5.8610     4.2790    -1.2300 C.3   1 <1>   0.1100 
 16 C        7.7100     5.2670     1.0850 C.3   1 <1>   0.2200 
 17 C        7.1660     4.9060    -1.7630 C.3   1 <1>  -0.0190 
 18 N        7.7410     6.4030     0.1280 N.am  1 <1>  -0.7300 
 19 C        8.8090     4.2440     0.7290 C.3   1 <1>   0.1200 
 20 C        7.4510     6.2790    -1.1840 C.2   1 <1>   0.5690 
 21 C        8.3870     3.9850    -1.5980 C.3   1 <1>   0.1200 
 22 O        8.4550     3.4010    -0.3300 O.3   1 <1>  -0.5600 
 23 O        7.4510     7.2490    -1.9020 O.2   1 <1>  -0.5700 
 24 H        2.8550    -2.0060    -2.1730 H     1 <1>   0.1500 
 25 H        3.0280    -3.0410     0.0590 H     1 <1>   0.1500 
 26 H        3.8590     0.6050     3.0250 H     1 <1>   0.1500 
 27 H        3.4580    -1.6280     2.0300 H     1 <1>   0.1500 
 28 H        4.1220     3.0430     2.6560 H     1 <1>   0.1500 
 29 H        3.6450     4.9280     1.2160 H     1 <1>   0.0800 
 30 H        3.3670     4.7210    -0.4760 H     1 <1>   0.0800 
 31 H        5.8450     4.9920     2.0840 H     1 <1>   0.0800 
 32 H        6.4300     3.5430     1.3410 H     1 <1>   0.0800 
 33 H        5.9800     3.2120    -1.1410 H     1 <1>   0.0800 
 34 H        5.0960     4.4510    -1.9680 H     1 <1>   0.0800 
 35 H        7.9620     5.6580     2.0550 H     1 <1>   0.0800 
 36 H        7.0400     5.0410    -2.8210 H     1 <1>   0.0800 
 37 H        7.7740     7.3520     0.5000 H     1 <1>   0.3700 
 38 H        8.9780     3.6050     1.5780 H     1 <1>   0.0800 
 39 H        9.7350     4.7400     0.4930 H     1 <1>   0.0800 
 40 H        9.3030     4.5170    -1.7910 H     1 <1>   0.0800 
 41 H        8.3120     3.1760    -2.3020 H     1 <1>   0.0800 
@<TRIPOS>BOND
  1   1   2  1   
  2   2   3  ar  
  3   2   4  ar  
  4   3   5  ar  
  5   3   6  ar  
  6   4   7  ar  
  7   4  24  1   
  8   5   8  ar  
  9   6   9  ar  
 10   6  10  ar  
 11   7  10  ar  
 12   7  25  1   
 13   8  11  ar  
 14   8  12  1   
 15   9  11  ar  
 16   9  26  1   
 17  10  27  1   
 18  11  28  1   
 19  12  13  1   
 20  12  29  1   
 21  12  30  1   
 22  13  14  1   
 23  13  15  1   
 24  14  16  1   
 25  14  31  1   
 26  14  32  1   
 27  15  17  1   
 28  15  33  1   
 29  15  34  1   
 30  16  18  1   
 31  16  19  1   
 32  16  35  1   
 33  17  20  1   
 34  17  21  1   
 35  17  36  1   
 36  18  20  am  
 37  18  37  1   
 38  19  22  1   
 39  19  38  1   
 40  19  39  1   
 41  20  23  2   
 42  21  22  1   
 43  21  40  1   
 44  21  41  1   
@<TRIPOS>SUBSTRUCTURE
  1 ****   8 GROUP 4 **** **** 0

# MOE 2024.06 (io_trps.svl 2023.06)
