@<TRIPOS>MOLECULE
NONAME
50 52 1 0 0 
SMALL
USER_CHARGES


@<TRIPOS>ATOM
  1 O       -0.8400    -1.5790    -0.0020 O.3   1 <1>  -0.6800 
  2 C        0.3500    -1.9050    -0.6340 C.3   1 <1>   0.1200 
  3 C        1.4930    -2.0640     0.4160 C.3   1 <1>   0.0000 
  4 C        2.8340    -2.5360    -0.2070 C.3   1 <1>   0.4230 
  5 C        1.7730    -0.6830     1.0660 C.3   1 <1>  -0.1600 
  6 C        1.1260    -3.0780     1.5230 C.3   1 <1>  -0.1600 
  7 N        2.9090    -4.0290    -0.5300 N.4   1 <1>  -0.9590 
  8 C        3.3040    -1.5390    -1.2930 C.3   1 <1>   0.2090 
  9 C        2.3190     0.3590     0.0760 C.3   1 <1>   0.2090 
 10 C        0.9860    -4.5200     0.9990 C.3   1 <1>  -0.1600 
 11 C        1.6350    -4.7890    -0.3650 C.3   1 <1>   0.3430 
 12 C        3.5620    -4.3660    -1.8340 C.3   1 <1>   0.2630 
 13 N        3.4890    -0.1920    -0.6740 N.pl3 1 <1>  -0.8380 
 14 C        4.7570     0.1440    -0.2190 C.ar  1 <1>   0.4100 
 15 N        5.3870    -0.8340     0.4290 N.ar  1 <1>  -0.6200 
 16 C        5.3040     1.4190    -0.4350 C.ar  1 <1>   0.0730 
 17 C        6.5870    -0.5500     0.8970 C.ar  1 <1>   0.1670 
 18 C        4.5550     2.4000    -1.1630 C.1   1 <1>   0.4840 
 19 C        6.5690     1.6930     0.0640 C.ar  1 <1>  -0.1430 
 20 C        7.2080     0.6760     0.7430 C.ar  1 <1>  -0.1500 
 21 C        7.2910    -1.6630     1.6440 C.3   1 <1>  -0.0970 
 22 N        3.9630     3.2000    -1.7220 N.1   1 <1>  -0.5570 
 23 C        7.2490     3.0460    -0.1150 C.3   1 <1>  -0.0970 
 24 H       -1.5490    -1.3740    -0.6450 H     1 <1>   0.4000 
 25 H        0.1730    -2.8030    -1.1910 H     1 <1>   0.0800 
 26 H        0.5630    -1.1180    -1.3360 H     1 <1>   0.0800 
 27 H        3.5570    -2.3970     0.5800 H     1 <1>   0.0800 
 28 H        2.4950    -0.7890     1.8570 H     1 <1>   0.0800 
 29 H        0.8740    -0.2960     1.5150 H     1 <1>   0.0800 
 30 H        1.9010    -3.0670     2.2720 H     1 <1>   0.0800 
 31 H        0.2170    -2.7840     2.0210 H     1 <1>   0.0800 
 32 H        3.5270    -4.3950     0.2080 H     1 <1>   0.4500 
 33 H        2.5960    -1.4680    -2.0980 H     1 <1>   0.0800 
 34 H        4.2500    -1.8490    -1.6990 H     1 <1>   0.0800 
 35 H        2.6140     1.2390     0.6230 H     1 <1>   0.0800 
 36 H        1.5570     0.6600    -0.6230 H     1 <1>   0.0800 
 37 H       -0.0610    -4.7560     0.9110 H     1 <1>   0.0800 
 38 H        1.3920    -5.2020     1.7260 H     1 <1>   0.0800 
 39 H        0.9500    -4.5110    -1.1470 H     1 <1>   0.0800 
 40 H        1.8200    -5.8470    -0.4640 H     1 <1>   0.0800 
 41 H        2.9780    -3.9850    -2.6560 H     1 <1>   0.0800 
 42 H        3.6510    -5.4350    -1.9420 H     1 <1>   0.0800 
 43 H        4.5500    -3.9370    -1.8800 H     1 <1>   0.0800 
 44 H        8.1900     0.8350     1.1520 H     1 <1>   0.1500 
 45 H        8.2570    -1.3480     1.9920 H     1 <1>   0.0800 
 46 H        7.4180    -2.5100     0.9950 H     1 <1>   0.0800 
 47 H        6.7000    -1.9580     2.4920 H     1 <1>   0.0800 
 48 H        8.2190     3.0560     0.3510 H     1 <1>   0.0800 
 49 H        6.6540     3.8240     0.3310 H     1 <1>   0.0800 
 50 H        7.3760     3.2640    -1.1610 H     1 <1>   0.0800 
@<TRIPOS>BOND
  1   1   2  1   
  2   1  24  1   
  3   2   3  1   
  4   2  25  1   
  5   2  26  1   
  6   3   4  1   
  7   3   5  1   
  8   3   6  1   
  9   4   7  1   
 10   4   8  1   
 11   4  27  1   
 12   5   9  1   
 13   5  28  1   
 14   5  29  1   
 15   6  10  1   
 16   6  30  1   
 17   6  31  1   
 18   7  11  1   
 19   7  12  1   
 20   7  32  1   
 21   8  13  1   
 22   8  33  1   
 23   8  34  1   
 24   9  13  1   
 25   9  35  1   
 26   9  36  1   
 27  10  11  1   
 28  10  37  1   
 29  10  38  1   
 30  11  39  1   
 31  11  40  1   
 32  12  41  1   
 33  12  42  1   
 34  12  43  1   
 35  13  14  1   
 36  14  15  ar  
 37  14  16  ar  
 38  15  17  ar  
 39  16  18  1   
 40  16  19  ar  
 41  17  20  ar  
 42  17  21  1   
 43  18  22  3   
 44  19  20  ar  
 45  19  23  1   
 46  20  44  1   
 47  21  45  1   
 48  21  46  1   
 49  21  47  1   
 50  23  48  1   
 51  23  49  1   
 52  23  50  1   
@<TRIPOS>SUBSTRUCTURE
  1 ****  13 GROUP 4 **** **** 0

# MOE 2024.06 (io_trps.svl 2023.06)
