@<TRIPOS>MOLECULE
NONAME
45 47 1 0 0 
SMALL
USER_CHARGES


@<TRIPOS>ATOM
  1 CL       2.1740     4.8160     1.7200 Cl    1 <1>  -0.1770 
  2 C        1.1220     3.6690     0.9210 C.ar  1 <1>   0.1770 
  3 C        1.6380     2.5360     0.3030 C.ar  1 <1>  -0.1440 
  4 C       -0.2350     3.9350     0.9290 C.ar  1 <1>  -0.1500 
  5 C        0.7470     1.6650    -0.3160 C.ar  1 <1>  -0.1500 
  6 C        3.1390     2.2560     0.2890 C.3   1 <1>   0.3640 
  7 C       -1.1080     3.0580     0.3100 C.ar  1 <1>  -0.1500 
  8 C       -0.6140     1.9240    -0.3110 C.ar  1 <1>  -0.1500 
  9 N        3.3650     0.8330     0.6410 N.am  1 <1>  -0.7300 
 10 C        3.7740     2.6050    -1.0790 C.3   1 <1>   0.2610 
 11 C        4.2680     0.0440     0.0160 C.2   1 <1>   0.5690 
 12 O        5.0680     2.0270    -1.1910 O.3   1 <1>  -0.5600 
 13 C        3.8410     4.1230    -1.2400 C.2   1 <1>   0.5690 
 14 O        4.4210    -1.1010     0.3570 O.2   1 <1>  -0.5700 
 15 C        5.0780     0.6150    -1.1530 C.3   1 <1>   0.1810 
 16 O        2.9070     4.7100    -1.7320 O.2   1 <1>  -0.5700 
 17 N        4.9400     4.7920    -0.8140 N.am  1 <1>  -0.7300 
 18 C        5.0880     6.2680    -0.8140 C.3   1 <1>   0.3210 
 19 C        6.3080     6.7210    -0.0130 C.2   1 <1>   0.3350 
 20 N        7.1700     5.9510     0.5290 N.2   1 <1>  -0.4100 
 21 N        6.5650     8.0080     0.1740 N.2   1 <1>  -0.5650 
 22 O        8.0480     6.7090     1.1110 O.3   1 <1>  -0.0190 
 23 C        7.6340     7.9280     0.8640 C.2   1 <1>   0.2980 
 24 C        8.4620     9.0900     1.4180 C.3   1 <1>   0.1000 
 25 C        7.7050    10.4270     1.3780 C.3   1 <1>  -0.2400 
 26 C        9.7880     9.2210     0.6560 C.3   1 <1>  -0.2400 
 27 H       -0.6010     4.8230     1.4130 H     1 <1>   0.1500 
 28 H        1.1040     0.7760    -0.8080 H     1 <1>   0.1500 
 29 H        3.6290     2.8480     1.0410 H     1 <1>   0.0800 
 30 H       -2.1660     3.2570     0.3100 H     1 <1>   0.1500 
 31 H       -1.2920     1.2410    -0.7940 H     1 <1>   0.1500 
 32 H        2.8410     0.4520     1.4300 H     1 <1>   0.3700 
 33 H        3.1670     2.2130    -1.8750 H     1 <1>   0.0800 
 34 H        4.6780     0.2480    -2.0800 H     1 <1>   0.0800 
 35 H        6.1010     0.2970    -1.0660 H     1 <1>   0.0800 
 36 H        5.7630     4.2740    -0.4870 H     1 <1>   0.3700 
 37 H        5.1870     6.6130    -1.8280 H     1 <1>   0.0800 
 38 H        4.2040     6.7130    -0.3910 H     1 <1>   0.0800 
 39 H        8.6820     8.8650     2.4480 H     1 <1>   0.0800 
 40 H        7.4740    10.6960     0.3620 H     1 <1>   0.0800 
 41 H        8.2960    11.2090     1.8180 H     1 <1>   0.0800 
 42 H        6.7830    10.3440     1.9260 H     1 <1>   0.0800 
 43 H        9.6000     9.4310    -0.3830 H     1 <1>   0.0800 
 44 H       10.3470     8.3040     0.7220 H     1 <1>   0.0800 
 45 H       10.3840    10.0140     1.0690 H     1 <1>   0.0800 
@<TRIPOS>BOND
  1   1   2  1   
  2   2   3  ar  
  3   2   4  ar  
  4   3   5  ar  
  5   3   6  1   
  6   4   7  ar  
  7   4  27  1   
  8   5   8  ar  
  9   5  28  1   
 10   6   9  1   
 11   6  10  1   
 12   6  29  1   
 13   7   8  ar  
 14   7  30  1   
 15   8  31  1   
 16   9  11  am  
 17   9  32  1   
 18  10  12  1   
 19  10  13  1   
 20  10  33  1   
 21  11  14  2   
 22  11  15  1   
 23  12  15  1   
 24  13  16  2   
 25  13  17  am  
 26  15  34  1   
 27  15  35  1   
 28  17  18  1   
 29  17  36  1   
 30  18  19  1   
 31  18  37  1   
 32  18  38  1   
 33  19  20  2   
 34  19  21  1   
 35  20  22  1   
 36  21  23  2   
 37  22  23  1   
 38  23  24  1   
 39  24  25  1   
 40  24  26  1   
 41  24  39  1   
 42  25  40  1   
 43  25  41  1   
 44  25  42  1   
 45  26  43  1   
 46  26  44  1   
 47  26  45  1   
@<TRIPOS>SUBSTRUCTURE
  1 ****  17 GROUP 4 **** **** 0

# MOE 2024.06 (io_trps.svl 2023.06)
