@<TRIPOS>MOLECULE
NONAME
54 57 1 0 0 
SMALL
USER_CHARGES


@<TRIPOS>ATOM
  1 O       -0.1190    -0.7110    -0.4400 O.2   1 <1>  -0.5700 
  2 C       -0.4010     0.4370    -0.6980 C.2   1 <1>   0.5690 
  3 N       -1.6840     0.9130    -0.5450 N.am  1 <1>  -0.6600 
  4 C        0.7200     1.3130    -1.2540 C.3   1 <1>   0.1810 
  5 C       -2.1160     2.3240    -0.8120 C.3   1 <1>   0.1400 
  6 C       -2.8000     0.0190    -0.1240 C.3   1 <1>   0.1400 
  7 O        1.0470     2.3720    -0.3670 O.3   1 <1>  -0.3620 
  8 C       -2.7850     2.9470     0.4300 C.3   1 <1>   0.1440 
  9 C       -3.4880     0.5840     1.1230 C.3   1 <1>  -0.1600 
 10 C        1.8920     3.3640    -0.7420 C.ar  1 <1>   0.0820 
 11 C       -3.3230     4.3290     0.1050 C.ar  1 <1>   0.1660 
 12 C       -3.9360     2.0440     0.9250 C.3   1 <1>  -0.1600 
 13 C       -1.7660     3.2490     1.5630 C.3   1 <1>  -0.1600 
 14 C        2.0110     4.4430     0.1170 C.ar  1 <1>  -0.1500 
 15 C        2.6260     3.3500    -1.9230 C.ar  1 <1>  -0.1500 
 16 N       -4.0590     4.6330    -0.9430 N.ar  1 <1>  -0.6200 
 17 C       -2.9540     5.2480     1.0400 C.ar  1 <1>  -0.1430 
 18 C       -2.1190     4.6330     2.1340 C.3   1 <1>  -0.0170 
 19 C        2.8380     5.5120    -0.1860 C.ar  1 <1>  -0.1430 
 20 C        3.4540     4.4150    -2.2290 C.ar  1 <1>  -0.1500 
 21 C       -4.4120     5.9090    -1.0120 C.ar  1 <1>   0.4770 
 22 C       -3.3760     6.5430     0.8680 C.ar  1 <1>   0.1600 
 23 C        3.5670     5.4990    -1.3710 C.ar  1 <1>  -0.1430 
 24 C        2.9290     6.6770     0.7900 C.3   1 <1>  -0.0970 
 25 N       -4.1140     6.8870    -0.1670 N.ar  1 <1>  -0.6200 
 26 C       -5.2590     6.3070    -2.1960 C.3   1 <1>  -0.0970 
 27 C        4.4900     6.6490    -1.7500 C.3   1 <1>  -0.0970 
 28 H        0.4090     1.7340    -2.1910 H     1 <1>   0.0800 
 29 H        1.6020     0.7170    -1.3970 H     1 <1>   0.0800 
 30 H       -2.8260     2.3140    -1.6210 H     1 <1>   0.0800 
 31 H       -1.2920     2.9410    -1.1180 H     1 <1>   0.0800 
 32 H       -2.4360    -0.9730     0.0850 H     1 <1>   0.0800 
 33 H       -3.5100    -0.0520    -0.9300 H     1 <1>   0.0800 
 34 H       -2.8080     0.5070     1.9530 H     1 <1>   0.0800 
 35 H       -4.3440    -0.0240     1.3550 H     1 <1>   0.0800 
 36 H       -4.7250     2.0630     0.1920 H     1 <1>   0.0800 
 37 H       -4.3400     2.4320     1.8430 H     1 <1>   0.0800 
 38 H       -0.7790     3.3090     1.1450 H     1 <1>   0.0800 
 39 H       -1.7530     2.4970     2.3300 H     1 <1>   0.0800 
 40 H        1.4440     4.4350     1.0290 H     1 <1>   0.1500 
 41 H        2.5720     2.5290    -2.6100 H     1 <1>   0.1500 
 42 H       -1.2360     5.2140     2.3370 H     1 <1>   0.0800 
 43 H       -2.7100     4.5360     3.0290 H     1 <1>   0.0800 
 44 H        4.0160     4.3930    -3.1460 H     1 <1>   0.1500 
 45 H       -3.1090     7.3040     1.5810 H     1 <1>   0.1500 
 46 H        2.3040     6.5090     1.6490 H     1 <1>   0.0800 
 47 H        2.6080     7.5840     0.3110 H     1 <1>   0.0800 
 48 H        3.9420     6.7950     1.1290 H     1 <1>   0.0800 
 49 H       -5.4200     5.4660    -2.8450 H     1 <1>   0.0800 
 50 H       -4.7610     7.0840    -2.7460 H     1 <1>   0.0800 
 51 H       -6.2070     6.6710    -1.8500 H     1 <1>   0.0800 
 52 H        5.2580     6.7650    -1.0070 H     1 <1>   0.0800 
 53 H        3.9290     7.5630    -1.8230 H     1 <1>   0.0800 
 54 H        4.9630     6.4680    -2.6980 H     1 <1>   0.0800 
@<TRIPOS>BOND
  1   1   2  2   
  2   2   3  am  
  3   2   4  1   
  4   3   5  1   
  5   3   6  1   
  6   4   7  1   
  7   4  28  1   
  8   4  29  1   
  9   5   8  1   
 10   5  30  1   
 11   5  31  1   
 12   6   9  1   
 13   6  32  1   
 14   6  33  1   
 15   7  10  1   
 16   8  11  1   
 17   8  12  1   
 18   8  13  1   
 19   9  12  1   
 20   9  34  1   
 21   9  35  1   
 22  10  14  ar  
 23  10  15  ar  
 24  11  16  ar  
 25  11  17  ar  
 26  12  36  1   
 27  12  37  1   
 28  13  18  1   
 29  13  38  1   
 30  13  39  1   
 31  14  19  ar  
 32  14  40  1   
 33  15  20  ar  
 34  15  41  1   
 35  16  21  ar  
 36  17  18  1   
 37  17  22  ar  
 38  18  42  1   
 39  18  43  1   
 40  19  23  ar  
 41  19  24  1   
 42  20  23  ar  
 43  20  44  1   
 44  21  25  ar  
 45  21  26  1   
 46  22  25  ar  
 47  22  45  1   
 48  23  27  1   
 49  24  46  1   
 50  24  47  1   
 51  24  48  1   
 52  26  49  1   
 53  26  50  1   
 54  26  51  1   
 55  27  52  1   
 56  27  53  1   
 57  27  54  1   
@<TRIPOS>SUBSTRUCTURE
  1 ****   5 GROUP 4 **** **** 0

# MOE 2024.06 (io_trps.svl 2023.06)
