@<TRIPOS>MOLECULE
NONAME
60 62 1 0 0 
SMALL
USER_CHARGES


@<TRIPOS>ATOM
  1 O        1.1050    -1.8550     1.3220 O.2   1 <1>  -0.5700 
  2 C        1.8280    -1.9640     0.3560 C.2   1 <1>   0.5690 
  3 N        2.6610    -0.9350    -0.0110 N.am  1 <1>  -0.6600 
  4 C        1.7820    -3.2900    -0.4220 C.3   1 <1>  -0.0190 
  5 C        2.4940     0.4320     0.5810 C.3   1 <1>   0.1400 
  6 C        3.8420    -1.0290    -0.9300 C.3   1 <1>   0.1400 
  7 C        0.3490    -3.7430    -0.8180 C.3   1 <1>  -0.0190 
  8 C        2.5460    -4.3800     0.3750 C.3   1 <1>  -0.1600 
  9 C        3.7820     0.8980     1.2760 C.3   1 <1>   0.2090 
 10 C        5.1350    -0.5190    -0.2600 C.3   1 <1>   0.2090 
 11 C       -0.5470    -2.6010    -1.2990 C.2   1 <1>   0.5690 
 12 C       -0.2930    -4.6130     0.2810 C.3   1 <1>  -0.1600 
 13 C        2.0000    -5.7910     0.1220 C.3   1 <1>  -0.1600 
 14 N        4.9520     0.8450     0.3370 N.pl3 1 <1>  -0.8380 
 15 O       -0.7180    -2.4650    -2.4870 O.2   1 <1>  -0.5700 
 16 N       -1.1220    -1.7710    -0.3950 N.am  1 <1>  -0.7300 
 17 C        0.5200    -5.8980     0.5380 C.3   1 <1>  -0.1600 
 18 C        5.7650     1.9040     0.0730 C.ar  1 <1>   0.1000 
 19 C       -2.0090    -0.6380    -0.7100 C.3   1 <1>   0.1400 
 20 C        5.2690     3.2120    -0.0190 C.ar  1 <1>  -0.1500 
 21 C        7.1430     1.7410    -0.1170 C.ar  1 <1>  -0.1500 
 22 C       -3.1080    -0.5590     0.3480 C.3   1 <1>  -0.1600 
 23 C        6.0980     4.2740    -0.2790 C.ar  1 <1>   0.2180 
 24 C        7.9510     2.8160    -0.3760 C.ar  1 <1>   0.2110 
 25 C       -4.0610     0.6100     0.0770 C.3   1 <1>  -0.2400 
 26 N        7.4260     4.0640    -0.4530 N.ar  1 <1>  -0.1790 
 27 C        5.5720     5.6960    -0.3830 C.3   1 <1>  -0.0970 
 28 H        2.2800    -3.1530    -1.3610 H     1 <1>   0.0800 
 29 H        2.2460     1.1240    -0.2040 H     1 <1>   0.0800 
 30 H        1.6870     0.4440     1.2920 H     1 <1>   0.0800 
 31 H        4.0150    -2.0410    -1.2410 H     1 <1>   0.0800 
 32 H        3.6470    -0.4400    -1.8100 H     1 <1>   0.0800 
 33 H        0.4540    -4.3870    -1.6740 H     1 <1>   0.0800 
 34 H        3.5920    -4.3410     0.1280 H     1 <1>   0.0800 
 35 H        2.4580    -4.1800     1.4300 H     1 <1>   0.0800 
 36 H        3.9730     0.2510     2.1150 H     1 <1>   0.0800 
 37 H        3.6460     1.8920     1.6620 H     1 <1>   0.0800 
 38 H        5.9170    -0.5010    -0.9980 H     1 <1>   0.0800 
 39 H        5.4230    -1.2080     0.5160 H     1 <1>   0.0800 
 40 H       -0.3510    -4.0440     1.1930 H     1 <1>   0.0800 
 41 H       -1.2980    -4.8750    -0.0010 H     1 <1>   0.0800 
 42 H        2.0990    -6.0250    -0.9240 H     1 <1>   0.0800 
 43 H        2.5790    -6.5130     0.6710 H     1 <1>   0.0800 
 44 H       -0.7470    -1.7950     0.5640 H     1 <1>   0.3700 
 45 H        0.4600    -6.1340     1.5870 H     1 <1>   0.0800 
 46 H        0.0740    -6.7180     0.0000 H     1 <1>   0.0800 
 47 H       -1.4300     0.2700    -0.7180 H     1 <1>   0.0800 
 48 H       -2.4430    -0.7770    -1.6870 H     1 <1>   0.0800 
 49 H        4.2140     3.3670     0.1050 H     1 <1>   0.1500 
 50 H        7.5650     0.7550    -0.0410 H     1 <1>   0.1500 
 51 H       -3.6670    -1.4790     0.3450 H     1 <1>   0.0800 
 52 H       -2.6610    -0.4310     1.3190 H     1 <1>   0.0800 
 53 H        9.0130     2.6900    -0.5170 H     1 <1>   0.1500 
 54 H       -4.5340     0.4930    -0.8830 H     1 <1>   0.0800 
 55 H       -3.5270     1.5430     0.0890 H     1 <1>   0.0800 
 56 H       -4.8270     0.6430     0.8320 H     1 <1>   0.0800 
 57 H        8.0380     4.8630    -0.6470 H     1 <1>   0.4570 
 58 H        4.5080     5.7190    -0.2260 H     1 <1>   0.0800 
 59 H        5.7730     6.1010    -1.3600 H     1 <1>   0.0800 
 60 H        6.0330     6.3230     0.3600 H     1 <1>   0.0800 
@<TRIPOS>BOND
  1   1   2  2   
  2   2   3  am  
  3   2   4  1   
  4   3   5  1   
  5   3   6  1   
  6   4   7  1   
  7   4   8  1   
  8   4  28  1   
  9   5   9  1   
 10   5  29  1   
 11   5  30  1   
 12   6  10  1   
 13   6  31  1   
 14   6  32  1   
 15   7  11  1   
 16   7  12  1   
 17   7  33  1   
 18   8  13  1   
 19   8  34  1   
 20   8  35  1   
 21   9  14  1   
 22   9  36  1   
 23   9  37  1   
 24  10  14  1   
 25  10  38  1   
 26  10  39  1   
 27  11  15  2   
 28  11  16  am  
 29  12  17  1   
 30  12  40  1   
 31  12  41  1   
 32  13  17  1   
 33  13  42  1   
 34  13  43  1   
 35  14  18  1   
 36  16  19  1   
 37  16  44  1   
 38  17  45  1   
 39  17  46  1   
 40  18  20  ar  
 41  18  21  ar  
 42  19  22  1   
 43  19  47  1   
 44  19  48  1   
 45  20  23  ar  
 46  20  49  1   
 47  21  24  ar  
 48  21  50  1   
 49  22  25  1   
 50  22  51  1   
 51  22  52  1   
 52  23  26  ar  
 53  23  27  1   
 54  24  26  ar  
 55  24  53  1   
 56  25  54  1   
 57  25  55  1   
 58  25  56  1   
 59  26  57  1   
 60  27  58  1   
 61  27  59  1   
 62  27  60  1   
@<TRIPOS>SUBSTRUCTURE
  1 ****   3 GROUP 4 **** **** 0

# MOE 2024.06 (io_trps.svl 2023.06)
