@<TRIPOS>MOLECULE
NONAME
47 50 1 0 0 
SMALL
USER_CHARGES


@<TRIPOS>ATOM
  1 CL      -1.9460     0.3060     2.5220 Cl    1 <1>  -0.1230 
  2 C       -2.2890     0.4530     0.8070 C.2   1 <1>   0.1230 
  3 C       -2.8180    -0.5520     0.0150 C.2   1 <1>   0.1080 
  4 C       -2.1060     1.5210     0.0070 C.2   1 <1>  -0.3320 
  5 N       -2.9720    -0.1530    -1.2200 N.2   1 <1>  -0.7070 
  6 C       -3.1790    -1.9440     0.5100 C.3   1 <1>   0.5240 
  7 N       -2.5230     1.1310    -1.2200 N.pl3 1 <1>   0.3000 
  8 C       -1.5540     2.9010     0.3260 C.3   1 <1>  -0.0600 
  9 N       -4.1870    -2.5070    -0.4300 N.4   1 <1>  -0.9590 
 10 C       -5.5660    -1.9790    -0.1960 C.3   1 <1>   0.3430 
 11 C       -4.2390    -3.9940    -0.4720 C.3   1 <1>   0.3430 
 12 C       -6.4960    -3.1910    -0.3030 C.3   1 <1>   0.2000 
 13 C       -5.6230    -4.3900     0.0460 C.3   1 <1>  -0.0800 
 14 O       -7.5670    -3.1020     0.5720 O.3   1 <1>  -0.6800 
 15 C       -6.1390    -5.7130    -0.5500 C.3   1 <1>  -0.0170 
 16 C       -5.2170    -6.8700    -0.1980 C.ar  1 <1>   0.1670 
 17 N       -4.0440    -6.8840    -0.7540 N.ar  1 <1>  -0.6200 
 18 C       -5.6620    -7.8490     0.7060 C.ar  1 <1>  -0.1500 
 19 C       -3.2110    -7.9150    -0.4490 C.ar  1 <1>   0.3100 
 20 C       -4.8420    -8.8820     1.0410 C.ar  1 <1>  -0.1500 
 21 C       -3.5660    -8.9370     0.4590 C.ar  1 <1>   0.0000 
 22 C       -1.9430    -7.9670    -1.0510 C.ar  1 <1>  -0.1500 
 23 C       -2.6360    -9.9570     0.7390 C.ar  1 <1>  -0.1500 
 24 C       -1.0540    -8.9690    -0.7670 C.ar  1 <1>  -0.1500 
 25 C       -1.4050    -9.9740     0.1400 C.ar  1 <1>  -0.1500 
 26 H       -3.5670    -1.9010     1.5140 H     1 <1>   0.0800 
 27 H       -2.2880    -2.5500     0.5030 H     1 <1>   0.0800 
 28 H       -2.5110     1.7140    -2.0700 H     1 <1>   0.2700 
 29 H       -1.2900     2.9670     1.3670 H     1 <1>   0.0800 
 30 H       -2.2880     3.6580     0.1140 H     1 <1>   0.0800 
 31 H       -0.6720     3.0970    -0.2590 H     1 <1>   0.0800 
 32 H       -3.8680    -2.1250    -1.3420 H     1 <1>   0.4500 
 33 H       -5.6400    -1.5570     0.7930 H     1 <1>   0.0800 
 34 H       -5.8210    -1.2300    -0.9280 H     1 <1>   0.0800 
 35 H       -4.1310    -4.3320    -1.4910 H     1 <1>   0.0800 
 36 H       -3.4610    -4.4480     0.1210 H     1 <1>   0.0800 
 37 H       -6.8850    -3.2590    -1.3060 H     1 <1>   0.0800 
 38 H       -5.5480    -4.4910     1.1150 H     1 <1>   0.0800 
 39 H       -7.3140    -3.2680     1.5020 H     1 <1>   0.4000 
 40 H       -6.2010    -5.6390    -1.6220 H     1 <1>   0.0800 
 41 H       -7.1310    -5.9090    -0.1830 H     1 <1>   0.0800 
 42 H       -6.6480    -7.7770     1.1280 H     1 <1>   0.1500 
 43 H       -5.1460    -9.6510     1.7300 H     1 <1>   0.1500 
 44 H       -1.6890    -7.1920    -1.7500 H     1 <1>   0.1500 
 45 H       -2.9120   -10.7300     1.4350 H     1 <1>   0.1500 
 46 H       -0.0850    -9.0000    -1.2340 H     1 <1>   0.1500 
 47 H       -0.6960   -10.7550     0.3560 H     1 <1>   0.1500 
@<TRIPOS>BOND
  1   1   2  1   
  2   2   3  1   
  3   2   4  2   
  4   3   5  2   
  5   3   6  1   
  6   4   7  1   
  7   4   8  1   
  8   5   7  1   
  9   6   9  1   
 10   6  26  1   
 11   6  27  1   
 12   7  28  1   
 13   8  29  1   
 14   8  30  1   
 15   8  31  1   
 16   9  10  1   
 17   9  11  1   
 18   9  32  1   
 19  10  12  1   
 20  10  33  1   
 21  10  34  1   
 22  11  13  1   
 23  11  35  1   
 24  11  36  1   
 25  12  13  1   
 26  12  14  1   
 27  12  37  1   
 28  13  15  1   
 29  13  38  1   
 30  14  39  1   
 31  15  16  1   
 32  15  40  1   
 33  15  41  1   
 34  16  17  ar  
 35  16  18  ar  
 36  17  19  ar  
 37  18  20  ar  
 38  18  42  1   
 39  19  21  ar  
 40  19  22  ar  
 41  20  21  ar  
 42  20  43  1   
 43  21  23  ar  
 44  22  24  ar  
 45  22  44  1   
 46  23  25  ar  
 47  23  45  1   
 48  24  25  ar  
 49  24  46  1   
 50  25  47  1   
@<TRIPOS>SUBSTRUCTURE
  1 ****  11 GROUP 4 **** **** 0

# MOE 2024.06 (io_trps.svl 2023.06)
