@<TRIPOS>MOLECULE
NONAME
48 50 1 0 0 
SMALL
USER_CHARGES


@<TRIPOS>ATOM
  1 CL      -0.0680    -0.2250     0.1600 Cl    1 <1>  -0.1770 
  2 C       -1.6560    -0.9450     0.0850 C.ar  1 <1>   0.1770 
  3 C       -2.2390    -1.1720    -1.1470 C.ar  1 <1>  -0.1500 
  4 C       -2.3060    -1.2770     1.2580 C.ar  1 <1>  -0.1500 
  5 C       -3.5000    -1.7430    -1.2040 C.ar  1 <1>  -0.1500 
  6 C       -3.5660    -1.8480     1.1940 C.ar  1 <1>  -0.1500 
  7 C       -4.1680    -2.0810    -0.0350 C.ar  1 <1>  -0.1430 
  8 C       -5.5510    -2.7080    -0.1020 C.3   1 <1>  -0.0160 
  9 C       -5.4460    -4.2340    -0.2090 C.3   1 <1>  -0.1600 
 10 C       -6.8340    -4.9000    -0.2720 C.3   1 <1>  -0.0990 
 11 C       -6.7940    -6.4220    -0.3610 C.2   1 <1>   0.5690 
 12 O       -5.7560    -6.9740    -0.6410 O.2   1 <1>  -0.5700 
 13 N       -7.9350    -7.1390    -0.1360 N.am  1 <1>  -0.6600 
 14 C       -9.2970    -6.5960     0.0930 C.3   1 <1>   0.1400 
 15 C       -7.9620    -8.6200    -0.2030 C.3   1 <1>   0.1400 
 16 C      -10.2250    -7.8000    -0.0650 C.3   1 <1>   0.2000 
 17 C       -9.3650    -9.0200     0.2570 C.3   1 <1>  -0.0800 
 18 O      -11.3040    -7.7300     0.8010 O.3   1 <1>  -0.6800 
 19 C       -9.8820   -10.3090    -0.4000 C.3   1 <1>   0.0200 
 20 C       -8.9600   -11.4750    -0.1050 C.2   1 <1>  -0.0400 
 21 O       -8.7950   -11.8830     1.1260 O.3   1 <1>  -0.0190 
 22 C       -8.2030   -12.2460    -0.9000 C.2   1 <1>  -0.1500 
 23 N       -7.9650   -12.8820     1.1970 N.2   1 <1>  -0.4100 
 24 C       -7.5930   -13.1240    -0.0090 C.2   1 <1>   0.1080 
 25 C       -6.6200   -14.2150    -0.3960 C.3   1 <1>  -0.0590 
 26 H       -1.7130    -0.9060    -2.0460 H     1 <1>   0.1500 
 27 H       -1.8300    -1.0930     2.2040 H     1 <1>   0.1500 
 28 H       -3.9570    -1.9250    -2.1610 H     1 <1>   0.1500 
 29 H       -4.0750    -2.1120     2.1050 H     1 <1>   0.1500 
 30 H       -6.1090    -2.4410     0.7790 H     1 <1>   0.0800 
 31 H       -6.0790    -2.3180    -0.9550 H     1 <1>   0.0800 
 32 H       -4.9060    -4.6160     0.6410 H     1 <1>   0.0800 
 33 H       -4.8860    -4.4910    -1.0920 H     1 <1>   0.0800 
 34 H       -7.3630    -4.5340    -1.1320 H     1 <1>   0.0800 
 35 H       -7.3860    -4.6280     0.6080 H     1 <1>   0.0800 
 36 H       -9.3540    -6.1970     1.0910 H     1 <1>   0.0800 
 37 H       -9.5320    -5.8360    -0.6320 H     1 <1>   0.0800 
 38 H       -7.7820    -8.9250    -1.2200 H     1 <1>   0.0800 
 39 H       -7.2010    -9.0440     0.4330 H     1 <1>   0.0800 
 40 H      -10.6000    -7.8370    -1.0730 H     1 <1>   0.0800 
 41 H       -9.3210    -9.1570     1.3230 H     1 <1>   0.0800 
 42 H      -11.0070    -7.8130     1.7280 H     1 <1>   0.4000 
 43 H       -9.9550   -10.1760    -1.4640 H     1 <1>   0.0800 
 44 H      -10.8650   -10.5360    -0.0240 H     1 <1>   0.0800 
 45 H       -8.0710   -12.2220    -1.9660 H     1 <1>   0.1500 
 46 H       -7.0860   -14.8920    -1.0870 H     1 <1>   0.0800 
 47 H       -6.3160   -14.7630     0.4780 H     1 <1>   0.0800 
 48 H       -5.7500   -13.7820    -0.8540 H     1 <1>   0.0800 
@<TRIPOS>BOND
  1   1   2  1   
  2   2   3  ar  
  3   2   4  ar  
  4   3   5  ar  
  5   3  26  1   
  6   4   6  ar  
  7   4  27  1   
  8   5   7  ar  
  9   5  28  1   
 10   6   7  ar  
 11   6  29  1   
 12   7   8  1   
 13   8   9  1   
 14   8  30  1   
 15   8  31  1   
 16   9  10  1   
 17   9  32  1   
 18   9  33  1   
 19  10  11  1   
 20  10  34  1   
 21  10  35  1   
 22  11  12  2   
 23  11  13  am  
 24  13  14  1   
 25  13  15  1   
 26  14  16  1   
 27  14  36  1   
 28  14  37  1   
 29  15  17  1   
 30  15  38  1   
 31  15  39  1   
 32  16  17  1   
 33  16  18  1   
 34  16  40  1   
 35  17  19  1   
 36  17  41  1   
 37  18  42  1   
 38  19  20  1   
 39  19  43  1   
 40  19  44  1   
 41  20  21  1   
 42  20  22  2   
 43  21  23  1   
 44  22  24  1   
 45  22  45  1   
 46  23  24  2   
 47  24  25  1   
 48  25  46  1   
 49  25  47  1   
 50  25  48  1   
@<TRIPOS>SUBSTRUCTURE
  1 ****  11 GROUP 4 **** **** 0

# MOE 2024.06 (io_trps.svl 2023.06)
