@<TRIPOS>MOLECULE
NONAME
52 55 1 0 0 
SMALL
USER_CHARGES


@<TRIPOS>ATOM
  1 O       -0.0860    -0.1240     1.0720 O.3   1 <1>  -0.6800 
  2 C        1.0150    -0.4160     0.2790 C.3   1 <1>   0.2000 
  3 C        1.7180    -1.6310     0.8940 C.3   1 <1>  -0.0800 
  4 C        2.0010     0.7530     0.4040 C.3   1 <1>   0.3430 
  5 C        2.7160    -0.9950     1.8630 C.3   1 <1>   0.3430 
  6 C        2.3810    -2.5580    -0.1560 C.3   1 <1>   0.0210 
  7 N        3.1630     0.2410     1.1860 N.4   1 <1>  -0.9590 
  8 C        3.6970    -2.0710    -0.7470 C.2   1 <1>   0.1080 
  9 C        3.8370     1.2570     2.0240 C.3   1 <1>   0.4860 
 10 N        3.8540    -0.9160    -1.3180 N.2   1 <1>  -0.7070 
 11 C        4.8730    -2.8120    -0.7410 C.2   1 <1>  -0.1500 
 12 C        4.3950     2.3230     1.1090 C.ar  1 <1>  -0.1440 
 13 N        5.1460    -0.8970    -1.7150 N.pl3 1 <1>   0.3000 
 14 C        5.7810    -2.0330    -1.3640 C.2   1 <1>  -0.3320 
 15 C        5.5930     2.0770     0.4250 C.ar  1 <1>   0.0000 
 16 C        3.7490     3.5270     0.9230 C.ar  1 <1>  -0.1500 
 17 C        7.2420    -2.3190    -1.6610 C.3   1 <1>  -0.0600 
 18 C        6.1010     3.0370    -0.4460 C.ar  1 <1>  -0.1520 
 19 C        6.5070     1.0010     0.4010 C.2   1 <1>  -0.1500 
 20 C        4.2690     4.4880     0.0500 C.ar  1 <1>  -0.1500 
 21 N        7.2740     2.5630    -0.9870 N.pl3 1 <1>   0.0480 
 22 C        5.4350     4.2510    -0.6360 C.ar  1 <1>  -0.1500 
 23 C        7.5020     1.3250    -0.4570 C.2   1 <1>  -0.3020 
 24 C        8.1680     3.2840    -1.9180 C.3   1 <1>   0.0960 
 25 C        9.1160     4.2060    -1.1460 C.3   1 <1>  -0.2400 
 26 H       -0.8420    -0.7110     0.8590 H     1 <1>   0.4000 
 27 H        0.6840    -0.5610    -0.7360 H     1 <1>   0.0800 
 28 H        1.0140    -2.2310     1.4440 H     1 <1>   0.0800 
 29 H        1.5240     1.5780     0.9060 H     1 <1>   0.0800 
 30 H        2.3350     1.0670    -0.5720 H     1 <1>   0.0800 
 31 H        3.5430    -1.6530     2.0770 H     1 <1>   0.0800 
 32 H        2.2060    -0.7410     2.7780 H     1 <1>   0.0800 
 33 H        1.6940    -2.7380    -0.9640 H     1 <1>   0.0800 
 34 H        2.5660    -3.5110     0.3070 H     1 <1>   0.0800 
 35 H        3.8260    -0.0540     0.4380 H     1 <1>   0.4500 
 36 H        3.1360     1.6920     2.7170 H     1 <1>   0.0800 
 37 H        4.6430     0.8070     2.5800 H     1 <1>   0.0800 
 38 H        5.0090    -3.7980    -0.3320 H     1 <1>   0.1500 
 39 H        5.5700    -0.0950    -2.2020 H     1 <1>   0.2700 
 40 H        2.8330     3.7550     1.4410 H     1 <1>   0.1500 
 41 H        7.5040    -3.3050    -1.3190 H     1 <1>   0.0800 
 42 H        7.8730    -1.6060    -1.1630 H     1 <1>   0.0800 
 43 H        7.4240    -2.2680    -2.7210 H     1 <1>   0.0800 
 44 H        6.4150     0.0960     0.9750 H     1 <1>   0.1500 
 45 H        3.7460     5.4210    -0.0790 H     1 <1>   0.1500 
 46 H        5.8380     4.9890    -1.3070 H     1 <1>   0.1500 
 47 H        8.3760     0.7540    -0.7170 H     1 <1>   0.1500 
 48 H        8.7350     2.5640    -2.4810 H     1 <1>   0.0800 
 49 H        7.5690     3.8560    -2.6030 H     1 <1>   0.0800 
 50 H        9.7270     3.6340    -0.4700 H     1 <1>   0.0800 
 51 H        8.5560     4.9350    -0.5860 H     1 <1>   0.0800 
 52 H        9.7600     4.7250    -1.8330 H     1 <1>   0.0800 
@<TRIPOS>BOND
  1   1   2  1   
  2   1  26  1   
  3   2   3  1   
  4   2   4  1   
  5   2  27  1   
  6   3   5  1   
  7   3   6  1   
  8   3  28  1   
  9   4   7  1   
 10   4  29  1   
 11   4  30  1   
 12   5   7  1   
 13   5  31  1   
 14   5  32  1   
 15   6   8  1   
 16   6  33  1   
 17   6  34  1   
 18   7   9  1   
 19   7  35  1   
 20   8  10  2   
 21   8  11  1   
 22   9  12  1   
 23   9  36  1   
 24   9  37  1   
 25  10  13  1   
 26  11  14  2   
 27  11  38  1   
 28  12  15  ar  
 29  12  16  ar  
 30  13  14  1   
 31  13  39  1   
 32  14  17  1   
 33  15  18  ar  
 34  15  19  1   
 35  16  20  ar  
 36  16  40  1   
 37  17  41  1   
 38  17  42  1   
 39  17  43  1   
 40  18  21  1   
 41  18  22  ar  
 42  19  23  2   
 43  19  44  1   
 44  20  22  ar  
 45  20  45  1   
 46  21  23  1   
 47  21  24  1   
 48  22  46  1   
 49  23  47  1   
 50  24  25  1   
 51  24  48  1   
 52  24  49  1   
 53  25  50  1   
 54  25  51  1   
 55  25  52  1   
@<TRIPOS>SUBSTRUCTURE
  1 ****  15 GROUP 4 **** **** 0

# MOE 2024.06 (io_trps.svl 2023.06)
