@<TRIPOS>MOLECULE
NONAME
49 52 1 0 0 
SMALL
USER_CHARGES


@<TRIPOS>ATOM
  1 O       -0.1730     1.2890    -1.2130 O.2   1 <1>  -0.5700 
  2 C        0.0670     2.2850    -0.5720 C.2   1 <1>   0.5690 
  3 N        1.3600     2.6600    -0.2960 N.am  1 <1>  -0.6600 
  4 C       -1.1330     3.1200    -0.1340 C.3   1 <1>  -0.0990 
  5 C        1.7180     3.9420     0.5040 C.3   1 <1>   0.1400 
  6 C        2.5180     1.8860    -0.9850 C.3   1 <1>   0.1400 
  7 C       -1.8080     3.8310    -1.3290 C.3   1 <1>  -0.1600 
  8 C        3.2340     3.9150     0.9030 C.3   1 <1>  -0.0800 
  9 C        3.8540     2.2380    -0.2600 C.3   1 <1>  -0.0800 
 10 C       -2.3970     5.2130    -0.9770 C.3   1 <1>   0.0960 
 11 C        3.6910     3.7440    -0.5640 C.3   1 <1>   0.2200 
 12 C        4.7140     3.8030     1.3690 C.3   1 <1>  -0.1600 
 13 C        5.1530     2.5390     0.5590 C.3   1 <1>  -0.1600 
 14 N       -1.3180     6.1850    -0.7010 N.pl3 1 <1>   0.3140 
 15 N        4.8730     4.4880    -1.1850 N.am  1 <1>  -0.7300 
 16 N       -0.9620     6.5550     0.5340 N.2   1 <1>  -0.4180 
 17 C       -0.4260     6.6510    -1.5760 C.2   1 <1>  -0.3020 
 18 C        5.1630     5.7430    -1.6310 C.2   1 <1>   0.5690 
 19 N        0.1300     7.2340     0.4580 N.2   1 <1>  -0.2270 
 20 C        0.4880     7.2870    -0.8290 C.2   1 <1>   0.0460 
 21 O        6.2820     5.9320    -2.0320 O.2   1 <1>  -0.5700 
 22 C        4.2300     6.9540    -1.6860 C.3   1 <1>  -0.0990 
 23 C        1.8130     7.8680    -1.2840 C.3   1 <1>   0.0210 
 24 C        2.8100     6.7110    -1.1880 C.3   1 <1>  -0.1600 
 25 H       -1.8450     2.4580     0.3250 H     1 <1>   0.0800 
 26 H       -0.8540     3.8270     0.6180 H     1 <1>   0.0800 
 27 H        1.4450     4.8080    -0.0660 H     1 <1>   0.0800 
 28 H        1.1110     3.9620     1.3950 H     1 <1>   0.0800 
 29 H        2.3010     0.8310    -0.9130 H     1 <1>   0.0800 
 30 H        2.5520     2.1200    -2.0370 H     1 <1>   0.0800 
 31 H       -2.5930     3.1950    -1.7010 H     1 <1>   0.0800 
 32 H       -1.1000     3.9490    -2.1320 H     1 <1>   0.0800 
 33 H        2.9480     4.0700     1.9280 H     1 <1>   0.0800 
 34 H        4.0030     1.1890    -0.0700 H     1 <1>   0.0800 
 35 H       -3.0310     5.1420    -0.1120 H     1 <1>   0.0800 
 36 H       -2.9800     5.5850    -1.8000 H     1 <1>   0.0800 
 37 H        2.9500     3.9890    -1.3090 H     1 <1>   0.0800 
 38 H        5.3090     4.6850     1.1960 H     1 <1>   0.0800 
 39 H        4.7920     3.5760     2.4220 H     1 <1>   0.0800 
 40 H        5.3600     1.7480     1.2640 H     1 <1>   0.0800 
 41 H        6.0480     2.6700    -0.0270 H     1 <1>   0.0800 
 42 H        5.6890     3.8810    -1.2560 H     1 <1>   0.3700 
 43 H       -0.4690     6.4700    -2.6330 H     1 <1>   0.1500 
 44 H        4.6790     7.7390    -1.1040 H     1 <1>   0.0800 
 45 H        4.1940     7.2880    -2.7070 H     1 <1>   0.0800 
 46 H        1.7320     8.2120    -2.2990 H     1 <1>   0.0800 
 47 H        2.1010     8.6890    -0.6510 H     1 <1>   0.0800 
 48 H        2.3990     5.9090    -1.7710 H     1 <1>   0.0800 
 49 H        2.8750     6.4230    -0.1550 H     1 <1>   0.0800 
@<TRIPOS>BOND
  1   1   2  2   
  2   2   3  am  
  3   2   4  1   
  4   3   5  1   
  5   3   6  1   
  6   4   7  1   
  7   4  25  1   
  8   4  26  1   
  9   5   8  1   
 10   5  27  1   
 11   5  28  1   
 12   6   9  1   
 13   6  29  1   
 14   6  30  1   
 15   7  10  1   
 16   7  31  1   
 17   7  32  1   
 18   8  11  1   
 19   8  12  1   
 20   8  33  1   
 21   9  11  1   
 22   9  13  1   
 23   9  34  1   
 24  10  14  1   
 25  10  35  1   
 26  10  36  1   
 27  11  15  1   
 28  11  37  1   
 29  12  13  1   
 30  12  38  1   
 31  12  39  1   
 32  13  40  1   
 33  13  41  1   
 34  14  16  1   
 35  14  17  1   
 36  15  18  am  
 37  15  42  1   
 38  16  19  2   
 39  17  20  2   
 40  17  43  1   
 41  18  21  2   
 42  18  22  1   
 43  19  20  1   
 44  20  23  1   
 45  22  24  1   
 46  22  44  1   
 47  22  45  1   
 48  23  24  1   
 49  23  46  1   
 50  23  47  1   
 51  24  48  1   
 52  24  49  1   
@<TRIPOS>SUBSTRUCTURE
  1 ****   5 GROUP 4 **** **** 0

# MOE 2024.06 (io_trps.svl 2023.06)
