@<TRIPOS>MOLECULE
NONAME
51 54 1 0 0 
SMALL
USER_CHARGES


@<TRIPOS>ATOM
  1 O        0.0720     1.1910    -0.1690 O.2   1 <1>  -0.5700 
  2 C       -0.0670     2.3520    -0.4570 C.2   1 <1>   0.5690 
  3 N       -0.9150     3.1410     0.2340 N.am  1 <1>  -0.7300 
  4 C        0.6910     2.9490    -1.6420 C.3   1 <1>   0.1810 
  5 C       -1.2270     4.5460    -0.1330 C.3   1 <1>   0.3640 
  6 O        0.8030     4.3510    -1.5480 O.3   1 <1>  -0.5600 
  7 C       -2.7350     4.6450    -0.3570 C.ar  1 <1>  -0.1440 
  8 C       -0.4350     5.0420    -1.3780 C.3   1 <1>   0.2610 
  9 C       -3.4490     5.6990     0.1980 C.ar  1 <1>  -0.1500 
 10 C       -3.4180     3.6990    -1.1130 C.ar  1 <1>  -0.1500 
 11 C       -0.1780     6.5490    -1.2660 C.2   1 <1>   0.5690 
 12 C       -4.8150     5.8040     0.0050 C.ar  1 <1>  -0.1500 
 13 C       -4.7840     3.8030    -1.3060 C.ar  1 <1>  -0.1500 
 14 O       -1.1060     7.3010    -1.0740 O.2   1 <1>  -0.5700 
 15 N        1.1030     6.9980    -1.3740 N.am  1 <1>  -0.5790 
 16 C       -5.4840     4.8560    -0.7460 C.ar  1 <1>  -0.1500 
 17 C        1.5610     8.3970    -1.3690 C.3   1 <1>   0.0540 
 18 C        1.3430     9.1530    -2.6400 C.3   1 <1>  -0.2000 
 19 C        2.7180     8.6800    -2.2750 C.3   1 <1>  -0.2000 
 20 C        1.4130     9.0510     0.0210 C.3   1 <1>   0.0780 
 21 C        1.9410    10.4790     0.1120 C.ar  1 <1>  -0.1430 
 22 C        3.2570    10.7230     0.4740 C.ar  1 <1>  -0.1500 
 23 C        1.1060    11.5520    -0.1570 C.ar  1 <1>  -0.1500 
 24 C        3.7310    12.0210     0.5610 C.ar  1 <1>  -0.1500 
 25 C        1.5800    12.8490    -0.0710 C.ar  1 <1>  -0.1500 
 26 C        2.8960    13.0910     0.2870 C.ar  1 <1>  -0.1430 
 27 C        3.4150    14.5140     0.3820 C.3   1 <1>  -0.0970 
 28 H       -1.4740     2.7230     0.9790 H     1 <1>   0.3700 
 29 H        0.1850     2.7040    -2.5580 H     1 <1>   0.0800 
 30 H        1.6850     2.5400    -1.6710 H     1 <1>   0.0800 
 31 H       -0.9610     5.1660     0.7060 H     1 <1>   0.0800 
 32 H       -1.0220     4.8730    -2.2620 H     1 <1>   0.0800 
 33 H       -2.9450     6.4530     0.7780 H     1 <1>   0.1500 
 34 H       -2.8940     2.8690    -1.5560 H     1 <1>   0.1500 
 35 H       -5.3560     6.6280     0.4380 H     1 <1>   0.1500 
 36 H       -5.3040     3.0640    -1.8910 H     1 <1>   0.1500 
 37 H        1.8250     6.2910    -1.5420 H     1 <1>   0.3700 
 38 H       -6.5470     4.9390    -0.8960 H     1 <1>   0.1500 
 39 H        0.8060     8.6660    -3.4350 H     1 <1>   0.1000 
 40 H        1.1560    10.2110    -2.6100 H     1 <1>   0.1000 
 41 H        3.4380     9.4360    -2.0170 H     1 <1>   0.1000 
 42 H        3.1510     7.8830    -2.8510 H     1 <1>   0.1000 
 43 H        0.3730     9.0550     0.2910 H     1 <1>   0.0800 
 44 H        1.9320     8.4470     0.7420 H     1 <1>   0.0800 
 45 H        3.9190     9.9040     0.6900 H     1 <1>   0.1500 
 46 H        0.0810    11.3790    -0.4370 H     1 <1>   0.1500 
 47 H        4.7540    12.1930     0.8430 H     1 <1>   0.1500 
 48 H        0.9180    13.6700    -0.2830 H     1 <1>   0.1500 
 49 H        4.4660    14.5460     0.1580 H     1 <1>   0.0800 
 50 H        3.2580    14.8910     1.3760 H     1 <1>   0.0800 
 51 H        2.9000    15.1480    -0.3170 H     1 <1>   0.0800 
@<TRIPOS>BOND
  1   1   2  2   
  2   2   3  am  
  3   2   4  1   
  4   3   5  1   
  5   3  28  1   
  6   4   6  1   
  7   4  29  1   
  8   4  30  1   
  9   5   7  1   
 10   5   8  1   
 11   5  31  1   
 12   6   8  1   
 13   7   9  ar  
 14   7  10  ar  
 15   8  11  1   
 16   8  32  1   
 17   9  12  ar  
 18   9  33  1   
 19  10  13  ar  
 20  10  34  1   
 21  11  14  2   
 22  11  15  am  
 23  12  16  ar  
 24  12  35  1   
 25  13  16  ar  
 26  13  36  1   
 27  15  17  1   
 28  15  37  1   
 29  16  38  1   
 30  17  18  1   
 31  17  19  1   
 32  17  20  1   
 33  18  19  1   
 34  18  39  1   
 35  18  40  1   
 36  19  41  1   
 37  19  42  1   
 38  20  21  1   
 39  20  43  1   
 40  20  44  1   
 41  21  22  ar  
 42  21  23  ar  
 43  22  24  ar  
 44  22  45  1   
 45  23  25  ar  
 46  23  46  1   
 47  24  26  ar  
 48  24  47  1   
 49  25  26  ar  
 50  25  48  1   
 51  26  27  1   
 52  27  49  1   
 53  27  50  1   
 54  27  51  1   
@<TRIPOS>SUBSTRUCTURE
  1 ****  11 GROUP 4 **** **** 0

# MOE 2024.06 (io_trps.svl 2023.06)
