@<TRIPOS>MOLECULE
NONAME
53 55 1 0 0 
SMALL
USER_CHARGES


@<TRIPOS>ATOM
  1 O        0.4420    -0.2960    -1.1230 O.3   1 <1>  -0.5600 
  2 C        1.6790    -0.9560    -1.2420 C.3   1 <1>   0.2000 
  3 C        0.4790     1.0860    -1.3130 C.3   1 <1>   0.1200 
  4 C        2.7330    -0.3550    -0.2710 C.3   1 <1>   0.5660 
  5 C        1.4660    -2.4490    -0.9420 C.3   1 <1>   0.1200 
  6 C        1.3810     1.7350    -0.2490 C.3   1 <1>   0.3430 
  7 N        2.7600     1.1440    -0.2570 N.4   1 <1>  -0.9590 
  8 C        4.1390    -0.8250    -0.6170 C.ar  1 <1>  -0.1430 
  9 O        1.3150    -2.6460     0.4290 O.3   1 <1>  -0.6800 
 10 C        3.5980     1.6500     0.8600 C.3   1 <1>   0.5240 
 11 C        4.8550    -1.5490     0.3250 C.ar  1 <1>  -0.1500 
 12 C        4.7290    -0.5380    -1.8440 C.ar  1 <1>  -0.1500 
 13 C        3.8870     3.1030     0.5880 C.2   1 <1>  -0.1810 
 14 C        6.1460    -1.9720     0.0630 C.ar  1 <1>   0.0830 
 15 C        6.0240    -0.9500    -2.1080 C.ar  1 <1>  -0.1500 
 16 C        4.8160     3.6400    -0.2200 C.2   1 <1>  -0.0400 
 17 C        3.2350     4.2180     1.1200 C.2   1 <1>   0.1080 
 18 O        6.7640    -2.6920     1.0290 O.3   1 <1>  -0.3620 
 19 C        6.7480    -1.6470    -1.1570 C.ar  1 <1>   0.0830 
 20 O        4.6800     4.9360    -0.1750 O.3   1 <1>  -0.0190 
 21 C        5.9030     3.0470    -1.0950 C.3   1 <1>  -0.0600 
 22 N        3.7240     5.2960     0.6290 N.2   1 <1>  -0.4100 
 23 C        2.1160     4.2280     2.1430 C.3   1 <1>  -0.0590 
 24 C        7.0780    -4.0330     0.7160 C.3   1 <1>   0.0400 
 25 O        8.0210    -1.9830    -1.4750 O.3   1 <1>  -0.3630 
 26 C        9.0520    -1.4370    -0.6790 C.3   1 <1>   0.0400 
 27 H        1.9990    -0.8530    -2.2630 H     1 <1>   0.0800 
 28 H        0.8290     1.2960    -2.3100 H     1 <1>   0.0800 
 29 H       -0.5280     1.4550    -1.2190 H     1 <1>   0.0800 
 30 H        2.4880    -0.7030     0.7190 H     1 <1>   0.0800 
 31 H        2.3170    -3.0260    -1.2650 H     1 <1>   0.0800 
 32 H        0.5850    -2.8080    -1.4460 H     1 <1>   0.0800 
 33 H        0.9230     1.5840     0.7150 H     1 <1>   0.0800 
 34 H        1.4350     2.7960    -0.4300 H     1 <1>   0.0800 
 35 H        3.2320     1.4380    -1.1160 H     1 <1>   0.4500 
 36 H        0.9460    -3.5380     0.6100 H     1 <1>   0.4000 
 37 H        3.0940     1.5310     1.8050 H     1 <1>   0.0800 
 38 H        4.5330     1.1130     0.8990 H     1 <1>   0.0800 
 39 H        4.4230    -1.8100     1.2770 H     1 <1>   0.1500 
 40 H        4.2020     0.0020    -2.6120 H     1 <1>   0.1500 
 41 H        6.4880    -0.7320    -3.0550 H     1 <1>   0.1500 
 42 H        5.9430     1.9790    -0.9960 H     1 <1>   0.0800 
 43 H        6.8570     3.4520    -0.8050 H     1 <1>   0.0800 
 44 H        5.7260     3.3020    -2.1250 H     1 <1>   0.0800 
 45 H        2.2230     3.4180     2.8390 H     1 <1>   0.0800 
 46 H        1.1630     4.1630     1.6520 H     1 <1>   0.0800 
 47 H        2.1470     5.1520     2.6950 H     1 <1>   0.0800 
 48 H        7.4810    -4.4980     1.5980 H     1 <1>   0.0800 
 49 H        7.8070    -4.0580    -0.0740 H     1 <1>   0.0800 
 50 H        6.1800    -4.5400     0.4110 H     1 <1>   0.0800 
 51 H        9.9940    -1.6970    -1.1270 H     1 <1>   0.0800 
 52 H        8.9970    -1.8470     0.3130 H     1 <1>   0.0800 
 53 H        8.9420    -0.3680    -0.6490 H     1 <1>   0.0800 
@<TRIPOS>BOND
  1   1   2  1   
  2   1   3  1   
  3   2   4  1   
  4   2   5  1   
  5   2  27  1   
  6   3   6  1   
  7   3  28  1   
  8   3  29  1   
  9   4   7  1   
 10   4   8  1   
 11   4  30  1   
 12   5   9  1   
 13   5  31  1   
 14   5  32  1   
 15   6   7  1   
 16   6  33  1   
 17   6  34  1   
 18   7  10  1   
 19   7  35  1   
 20   8  11  ar  
 21   8  12  ar  
 22   9  36  1   
 23  10  13  1   
 24  10  37  1   
 25  10  38  1   
 26  11  14  ar  
 27  11  39  1   
 28  12  15  ar  
 29  12  40  1   
 30  13  16  2   
 31  13  17  1   
 32  14  18  1   
 33  14  19  ar  
 34  15  19  ar  
 35  15  41  1   
 36  16  20  1   
 37  16  21  1   
 38  17  22  2   
 39  17  23  1   
 40  18  24  1   
 41  19  25  1   
 42  20  22  1   
 43  21  42  1   
 44  21  43  1   
 45  21  44  1   
 46  23  45  1   
 47  23  46  1   
 48  23  47  1   
 49  24  48  1   
 50  24  49  1   
 51  24  50  1   
 52  25  26  1   
 53  26  51  1   
 54  26  52  1   
 55  26  53  1   
@<TRIPOS>SUBSTRUCTURE
  1 ****   8 GROUP 4 **** **** 0

# MOE 2024.06 (io_trps.svl 2023.06)
