@<TRIPOS>MOLECULE
NONAME
49 51 1 0 0 
SMALL
USER_CHARGES


@<TRIPOS>ATOM
  1 F       -0.1660    -0.6220    -1.3820 F     1 <1>  -0.1900 
  2 C       -0.7420    -1.7270    -0.9800 C.ar  1 <1>   0.1900 
  3 C       -0.0060    -2.8140    -0.4940 C.ar  1 <1>   0.0820 
  4 C       -2.1200    -1.7650    -1.0580 C.ar  1 <1>  -0.1500 
  5 O        1.3500    -2.8970    -0.3700 O.3   1 <1>  -0.3630 
  6 C       -0.7110    -3.9370    -0.0910 C.ar  1 <1>  -0.1500 
  7 C       -2.7910    -2.9010    -0.6450 C.ar  1 <1>  -0.1500 
  8 C        2.2240    -1.8740    -0.7900 C.3   1 <1>   0.0400 
  9 C       -2.1050    -4.0150    -0.1550 C.ar  1 <1>   0.0530 
 10 C       -2.7980    -5.2070     0.2770 C.2   1 <1>   0.0870 
 11 O       -2.2280    -6.0360     1.1200 O.3   1 <1>  -0.0190 
 12 C       -4.0180    -5.7250    -0.0090 C.2   1 <1>  -0.2330 
 13 N       -2.9850    -7.0610     1.4170 N.2   1 <1>  -0.4100 
 14 C       -4.0720    -6.8940     0.7500 C.2   1 <1>   0.3720 
 15 C       -5.0430    -5.2480    -0.8740 C.2   1 <1>   1.0330 
 16 N       -5.1340    -7.8000     0.8200 N.pl3 1 <1>  -0.8210 
 17 O       -5.8750    -4.4200    -0.4630 O.co2 1 <1>  -0.9000 
 18 O       -5.1130    -5.6350    -2.0530 O.co2 1 <1>  -0.9000 
 19 C       -5.3790    -8.5180    -0.4540 C.3   1 <1>   0.2090 
 20 C       -6.3850    -7.2100     1.3580 C.3   1 <1>   0.2090 
 21 C       -6.3430    -9.6800    -0.1990 C.3   1 <1>  -0.1600 
 22 C       -7.3730    -8.3380     1.6670 C.3   1 <1>  -0.1600 
 23 C       -7.6690    -9.1880     0.4170 C.3   1 <1>  -0.0800 
 24 C       -8.6150   -10.3480     0.7780 C.3   1 <1>  -0.1600 
 25 C       -9.0730   -11.1460    -0.4440 C.3   1 <1>   0.1200 
 26 O      -10.0020   -12.0860    -0.0160 O.3   1 <1>  -0.5600 
 27 C      -10.5070   -12.8850    -1.0350 C.3   1 <1>   0.0400 
 28 H       -2.6650    -0.9190    -1.4350 H     1 <1>   0.1500 
 29 H       -0.1570    -4.7800     0.2810 H     1 <1>   0.1500 
 30 H       -3.8660    -2.9180    -0.7020 H     1 <1>   0.1500 
 31 H        3.2330    -2.2010    -0.6130 H     1 <1>   0.0800 
 32 H        2.0240    -0.9860    -0.2170 H     1 <1>   0.0800 
 33 H        2.0780    -1.6970    -1.8410 H     1 <1>   0.0800 
 34 H       -4.4440    -8.8880    -0.8410 H     1 <1>   0.0800 
 35 H       -5.8050    -7.8480    -1.1810 H     1 <1>   0.0800 
 36 H       -6.8180    -6.5360     0.6370 H     1 <1>   0.0800 
 37 H       -6.1630    -6.6540     2.2520 H     1 <1>   0.0800 
 38 H       -5.8640   -10.3790     0.4640 H     1 <1>   0.0800 
 39 H       -6.5250   -10.1740    -1.1350 H     1 <1>   0.0800 
 40 H       -8.2840    -7.9060     2.0390 H     1 <1>   0.0800 
 41 H       -6.9530    -8.9530     2.4430 H     1 <1>   0.0800 
 42 H       -8.1590    -8.5530    -0.3030 H     1 <1>   0.0800 
 43 H       -9.4890    -9.9450     1.2600 H     1 <1>   0.0800 
 44 H       -8.1250   -11.0120     1.4670 H     1 <1>   0.0800 
 45 H       -8.2450   -11.6640    -0.8970 H     1 <1>   0.0800 
 46 H       -9.5430   -10.4980    -1.1640 H     1 <1>   0.0800 
 47 H      -11.2130   -13.5710    -0.6020 H     1 <1>   0.0800 
 48 H       -9.7010   -13.4330    -1.4900 H     1 <1>   0.0800 
 49 H      -11.0030   -12.2640    -1.7610 H     1 <1>   0.0800 
@<TRIPOS>BOND
  1   1   2  1   
  2   2   3  ar  
  3   2   4  ar  
  4   3   5  1   
  5   3   6  ar  
  6   4   7  ar  
  7   4  28  1   
  8   5   8  1   
  9   6   9  ar  
 10   6  29  1   
 11   7   9  ar  
 12   7  30  1   
 13   8  31  1   
 14   8  32  1   
 15   8  33  1   
 16   9  10  1   
 17  10  11  1   
 18  10  12  2   
 19  11  13  1   
 20  12  14  1   
 21  12  15  1   
 22  13  14  2   
 23  14  16  1   
 24  15  17  ar  
 25  15  18  ar  
 26  16  19  1   
 27  16  20  1   
 28  19  21  1   
 29  19  34  1   
 30  19  35  1   
 31  20  22  1   
 32  20  36  1   
 33  20  37  1   
 34  21  23  1   
 35  21  38  1   
 36  21  39  1   
 37  22  23  1   
 38  22  40  1   
 39  22  41  1   
 40  23  24  1   
 41  23  42  1   
 42  24  25  1   
 43  24  43  1   
 44  24  44  1   
 45  25  26  1   
 46  25  45  1   
 47  25  46  1   
 48  26  27  1   
 49  27  47  1   
 50  27  48  1   
 51  27  49  1   
@<TRIPOS>SUBSTRUCTURE
  1 ****  12 GROUP 4 **** **** 0

# MOE 2024.06 (io_trps.svl 2023.06)
