@<TRIPOS>MOLECULE
NONAME
49 52 1 0 0 
SMALL
USER_CHARGES


@<TRIPOS>ATOM
  1 O        0.7100     1.9840    -2.0590 O.2   1 <1>  -0.5700 
  2 C        0.1650     3.0350    -1.8090 C.2   1 <1>   0.5690 
  3 N       -0.4430     3.3090    -0.6140 N.am  1 <1>  -0.5090 
  4 C        0.1600     4.1190    -2.8790 C.3   1 <1>   0.1810 
  5 C       -1.1320     4.6220    -0.3900 C.3   1 <1>   0.3640 
  6 C       -0.2570     2.4450     0.5780 C.3   1 <1>   0.0490 
  7 O        0.3020     5.3890    -2.2970 O.3   1 <1>  -0.5600 
  8 C       -2.6490     4.4350    -0.4340 C.ar  1 <1>  -0.1440 
  9 C       -0.7340     5.7480    -1.3920 C.3   1 <1>   0.2610 
 10 C       -0.7070     1.0200     0.5040 C.3   1 <1>  -0.2000 
 11 C       -1.4340     1.9830     1.3840 C.3   1 <1>  -0.2000 
 12 C       -3.4500     5.1710     0.4300 C.ar  1 <1>   0.1600 
 13 C       -3.2630     3.5590    -1.3120 C.ar  1 <1>  -0.1500 
 14 C       -0.3470     7.0100    -0.6130 C.2   1 <1>   0.5690 
 15 N       -4.7700     5.1030     0.4860 N.ar  1 <1>  -0.6200 
 16 C       -4.6380     3.4760    -1.2650 C.ar  1 <1>  -0.1500 
 17 O       -1.0730     7.4040     0.2690 O.2   1 <1>  -0.5700 
 18 N        0.8100     7.6520    -0.9130 N.am  1 <1>  -0.7300 
 19 C       -5.3330     4.2580    -0.3600 C.ar  1 <1>   0.1600 
 20 C        1.3610     8.8180    -0.2030 C.3   1 <1>   0.2840 
 21 C        2.8340     8.5620     0.0730 C.ar  1 <1>  -0.1440 
 22 C        3.2890     7.8030     1.1410 C.ar  1 <1>  -0.1440 
 23 C        3.8000     9.0910    -0.7600 C.ar  1 <1>  -0.1500 
 24 C        4.6580     7.6300     1.3010 C.ar  1 <1>   0.1600 
 25 C        2.3260     7.1590     2.1310 C.3   1 <1>  -0.0970 
 26 C        5.1380     8.8520    -0.5020 C.ar  1 <1>   0.1600 
 27 N        5.5910     8.1340     0.5100 N.ar  1 <1>  -0.6200 
 28 H       -0.7560     4.0890    -3.4400 H     1 <1>   0.0800 
 29 H        0.9890     3.9680    -3.5460 H     1 <1>   0.0800 
 30 H       -0.8690     4.9430     0.6040 H     1 <1>   0.0800 
 31 H        0.6700     2.6480     1.0890 H     1 <1>   0.1000 
 32 H       -1.5910     6.0010    -1.9900 H     1 <1>   0.0800 
 33 H       -1.1750     0.6790    -0.4020 H     1 <1>   0.1000 
 34 H       -0.0940     0.2640     0.9620 H     1 <1>   0.1000 
 35 H       -1.3240     1.8720     2.4480 H     1 <1>   0.1000 
 36 H       -2.4400     2.2380     1.1030 H     1 <1>   0.1000 
 37 H       -2.9850     5.8620     1.1150 H     1 <1>   0.1500 
 38 H       -2.7070     2.9500    -2.0040 H     1 <1>   0.1500 
 39 H       -5.1690     2.8110    -1.9210 H     1 <1>   0.1500 
 40 H        1.4240     7.2280    -1.6170 H     1 <1>   0.3700 
 41 H       -6.4070     4.1850    -0.3310 H     1 <1>   0.1500 
 42 H        1.2450     9.6930    -0.8190 H     1 <1>   0.0800 
 43 H        0.8260     8.9860     0.7160 H     1 <1>   0.0800 
 44 H        3.5270     9.6880    -1.6110 H     1 <1>   0.1500 
 45 H        5.0110     7.0410     2.1300 H     1 <1>   0.1500 
 46 H        1.6550     6.4960     1.6160 H     1 <1>   0.0800 
 47 H        1.7510     7.9150     2.6340 H     1 <1>   0.0800 
 48 H        2.8580     6.5900     2.8720 H     1 <1>   0.0800 
 49 H        5.8760     9.2750    -1.1630 H     1 <1>   0.1500 
@<TRIPOS>BOND
  1   1   2  2   
  2   2   3  am  
  3   2   4  1   
  4   3   5  1   
  5   3   6  1   
  6   4   7  1   
  7   4  28  1   
  8   4  29  1   
  9   5   8  1   
 10   5   9  1   
 11   5  30  1   
 12   6  10  1   
 13   6  11  1   
 14   6  31  1   
 15   7   9  1   
 16   8  12  ar  
 17   8  13  ar  
 18   9  14  1   
 19   9  32  1   
 20  10  11  1   
 21  10  33  1   
 22  10  34  1   
 23  11  35  1   
 24  11  36  1   
 25  12  15  ar  
 26  12  37  1   
 27  13  16  ar  
 28  13  38  1   
 29  14  17  2   
 30  14  18  am  
 31  15  19  ar  
 32  16  19  ar  
 33  16  39  1   
 34  18  20  1   
 35  18  40  1   
 36  19  41  1   
 37  20  21  1   
 38  20  42  1   
 39  20  43  1   
 40  21  22  ar  
 41  21  23  ar  
 42  22  24  ar  
 43  22  25  1   
 44  23  26  ar  
 45  23  44  1   
 46  24  27  ar  
 47  24  45  1   
 48  25  46  1   
 49  25  47  1   
 50  25  48  1   
 51  26  27  ar  
 52  26  49  1   
@<TRIPOS>SUBSTRUCTURE
  1 ****   9 GROUP 4 **** **** 0

# MOE 2024.06 (io_trps.svl 2023.06)
