@<TRIPOS>MOLECULE
NONAME
48 49 1 0 0 
SMALL
USER_CHARGES


@<TRIPOS>ATOM
  1 S        2.9030     2.2450    -1.1830 S.o2  1 <1>   1.3330 
  2 O        3.8320     1.1510    -1.3560 O.2   1 <1>  -0.6500 
  3 O        2.6900     3.1630    -2.2790 O.2   1 <1>  -0.6500 
  4 N        3.4020     3.1210     0.1790 N.am  1 <1>  -0.8490 
  5 C        1.3080     1.5400    -0.7260 C.3   1 <1>  -0.0550 
  6 C        4.2900     4.2400    -0.1570 C.3   1 <1>   0.1160 
  7 C        4.0140     2.3040     1.2290 C.3   1 <1>   0.1160 
  8 C        0.1340     2.4680    -0.3160 C.3   1 <1>  -0.0800 
  9 C       -0.1370     3.6350    -1.2760 C.3   1 <1>   0.2000 
 10 C        0.3030     3.1210     1.0640 C.3   1 <1>   0.1400 
 11 O       -1.5050     3.8580    -1.2780 O.3   1 <1>  -0.6800 
 12 C        0.5330     4.8510    -0.6340 C.3   1 <1>   0.1400 
 13 N        0.5180     4.5640     0.8220 N.am  1 <1>  -0.6600 
 14 C        0.9970     5.3950     1.8010 C.2   1 <1>   0.5690 
 15 O        1.0220     5.0430     2.9590 O.2   1 <1>  -0.5700 
 16 C        1.4820     6.8100     1.4710 C.3   1 <1>   0.1810 
 17 O        2.5780     6.7900     0.5940 O.3   1 <1>  -0.5600 
 18 C        3.1570     8.0270     0.3400 C.3   1 <1>   0.2630 
 19 C        4.3820     7.7880    -0.5270 C.ar  1 <1>  -0.1440 
 20 C        5.6570     7.9190     0.0020 C.ar  1 <1>  -0.1500 
 21 C        4.2330     7.4220    -1.8560 C.ar  1 <1>  -0.1500 
 22 C        6.7700     7.6890    -0.7890 C.ar  1 <1>  -0.1500 
 23 C        5.3440     7.1900    -2.6480 C.ar  1 <1>  -0.1500 
 24 C        6.6130     7.3240    -2.1150 C.ar  1 <1>  -0.1500 
 25 H        0.9710     0.9650    -1.5670 H     1 <1>   0.0800 
 26 H        1.4670     0.8400     0.0700 H     1 <1>   0.0800 
 27 H        4.5170     4.8160     0.7230 H     1 <1>   0.0800 
 28 H        3.8110     4.8960    -0.8630 H     1 <1>   0.0800 
 29 H        5.2060     3.8800    -0.5940 H     1 <1>   0.0800 
 30 H        4.2020     2.9090     2.1000 H     1 <1>   0.0800 
 31 H        4.9440     1.8830     0.8840 H     1 <1>   0.0800 
 32 H        3.3530     1.5030     1.5100 H     1 <1>   0.0800 
 33 H       -0.7340     1.8320    -0.2780 H     1 <1>   0.0800 
 34 H        0.1760     3.4600    -2.2910 H     1 <1>   0.0800 
 35 H        1.1330     2.7080     1.6110 H     1 <1>   0.0800 
 36 H       -0.5920     2.9990     1.6500 H     1 <1>   0.0800 
 37 H       -1.7740     4.1640    -0.3890 H     1 <1>   0.4000 
 38 H        0.0100     5.7620    -0.8670 H     1 <1>   0.0800 
 39 H        1.5510     4.9380    -0.9650 H     1 <1>   0.0800 
 40 H        1.7830     7.2930     2.3840 H     1 <1>   0.0800 
 41 H        0.6850     7.3650     1.0140 H     1 <1>   0.0800 
 42 H        2.4430     8.6460    -0.1750 H     1 <1>   0.0800 
 43 H        3.4340     8.4830     1.2750 H     1 <1>   0.0800 
 44 H        5.7910     8.1950     1.0330 H     1 <1>   0.1500 
 45 H        3.2480     7.3070    -2.2750 H     1 <1>   0.1500 
 46 H        7.7570     7.7920    -0.3740 H     1 <1>   0.1500 
 47 H        5.2180     6.9010    -3.6770 H     1 <1>   0.1500 
 48 H        7.4770     7.1430    -2.7310 H     1 <1>   0.1500 
@<TRIPOS>BOND
  1   1   2  2   
  2   1   3  2   
  3   1   4  am  
  4   1   5  1   
  5   4   6  1   
  6   4   7  1   
  7   5   8  1   
  8   5  25  1   
  9   5  26  1   
 10   6  27  1   
 11   6  28  1   
 12   6  29  1   
 13   7  30  1   
 14   7  31  1   
 15   7  32  1   
 16   8   9  1   
 17   8  10  1   
 18   8  33  1   
 19   9  11  1   
 20   9  12  1   
 21   9  34  1   
 22  10  13  1   
 23  10  35  1   
 24  10  36  1   
 25  11  37  1   
 26  12  13  1   
 27  12  38  1   
 28  12  39  1   
 29  13  14  am  
 30  14  15  2   
 31  14  16  1   
 32  16  17  1   
 33  16  40  1   
 34  16  41  1   
 35  17  18  1   
 36  18  19  1   
 37  18  42  1   
 38  18  43  1   
 39  19  20  ar  
 40  19  21  ar  
 41  20  22  ar  
 42  20  44  1   
 43  21  23  ar  
 44  21  45  1   
 45  22  24  ar  
 46  22  46  1   
 47  23  24  ar  
 48  23  47  1   
 49  24  48  1   
@<TRIPOS>SUBSTRUCTURE
  1 ****   6 GROUP 4 **** **** 0

# MOE 2024.06 (io_trps.svl 2023.06)
