@<TRIPOS>MOLECULE
NONAME
54 55 1 0 0 
SMALL
USER_CHARGES


@<TRIPOS>ATOM
  1 S        1.6140     1.3330    -2.2300 S.o2  1 <1>   1.3330 
  2 O        1.6740    -0.0090    -2.7650 O.2   1 <1>  -0.6500 
  3 O        1.5160     2.4600    -3.1290 O.2   1 <1>  -0.6500 
  4 N        0.2830     1.4130    -1.1770 N.am  1 <1>  -0.8490 
  5 C        3.0310     1.5640    -1.1540 C.3   1 <1>  -0.0550 
  6 C       -0.8710     0.6660    -1.6880 C.3   1 <1>   0.1160 
  7 C       -0.1210     2.7870    -0.8560 C.3   1 <1>   0.1160 
  8 C        3.2720     0.4090    -0.1560 C.3   1 <1>  -0.0800 
  9 C        4.5810     0.4960     0.6170 C.3   1 <1>   0.2200 
 10 C        2.2260     0.2800     0.9590 C.3   1 <1>   0.1200 
 11 N        4.8350     1.8850     1.0720 N.am  1 <1>  -0.7300 
 12 C        4.2440    -0.3600     1.8280 C.3   1 <1>   0.1200 
 13 O        2.9200    -0.0430     2.1300 O.3   1 <1>  -0.5600 
 14 C        5.6550     2.7830     0.4540 C.2   1 <1>   0.5440 
 15 O        6.1940     2.4460    -0.5810 O.2   1 <1>  -0.5700 
 16 C        5.8410     4.1200     0.9900 C.ar  1 <1>   0.0860 
 17 C        6.1510     5.1840     0.1460 C.ar  1 <1>  -0.1500 
 18 C        5.7150     4.3960     2.3530 C.ar  1 <1>  -0.1500 
 19 C        6.3180     6.4800     0.6100 C.ar  1 <1>   0.1170 
 20 C        5.8810     5.6800     2.8390 C.ar  1 <1>  -0.1500 
 21 N        6.6330     7.4870    -0.3150 N.am  1 <1>  -0.5470 
 22 C        6.1800     6.7150     1.9740 C.ar  1 <1>  -0.1500 
 23 C        6.4860     8.8470    -0.2500 C.2   1 <1>   0.5690 
 24 O        5.9880     9.4180     0.6900 O.2   1 <1>  -0.5700 
 25 C        6.9740     9.6710    -1.4470 C.3   1 <1>  -0.0190 
 26 C        8.1170    10.6190    -1.0480 C.3   1 <1>  -0.2400 
 27 C        5.8290    10.4700    -2.0900 C.3   1 <1>  -0.2400 
 28 H        3.9040     1.6530    -1.7710 H     1 <1>   0.0800 
 29 H        2.9230     2.4880    -0.6220 H     1 <1>   0.0800 
 30 H       -1.6930     0.7270    -0.9960 H     1 <1>   0.0800 
 31 H       -0.6130    -0.3720    -1.8130 H     1 <1>   0.0800 
 32 H       -1.1790     1.0620    -2.6420 H     1 <1>   0.0800 
 33 H       -0.9050     2.7790    -0.1180 H     1 <1>   0.0800 
 34 H       -0.4760     3.2920    -1.7400 H     1 <1>   0.0800 
 35 H        0.7140     3.3370    -0.4570 H     1 <1>   0.0800 
 36 H        3.2780    -0.5170    -0.7050 H     1 <1>   0.0800 
 37 H        5.4220     0.1140     0.0620 H     1 <1>   0.0800 
 38 H        1.5130    -0.4990     0.7470 H     1 <1>   0.0800 
 39 H        1.7090     1.2070     1.1350 H     1 <1>   0.0800 
 40 H        4.2740     2.1600     1.8810 H     1 <1>   0.3700 
 41 H        4.8730    -0.1530     2.6760 H     1 <1>   0.0800 
 42 H        4.2880    -1.4070     1.5830 H     1 <1>   0.0800 
 43 H        6.2580     4.9850    -0.9050 H     1 <1>   0.1500 
 44 H        5.4930     3.6020     3.0430 H     1 <1>   0.1500 
 45 H        5.7810     5.8790     3.8930 H     1 <1>   0.1500 
 46 H        7.0060     7.1440    -1.1970 H     1 <1>   0.3700 
 47 H        6.3110     7.7060     2.3680 H     1 <1>   0.1500 
 48 H        7.3570     8.9940    -2.1910 H     1 <1>   0.0800 
 49 H        7.7720    11.3280    -0.3140 H     1 <1>   0.0800 
 50 H        8.4800    11.1580    -1.9050 H     1 <1>   0.0800 
 51 H        8.9320    10.0600    -0.6220 H     1 <1>   0.0800 
 52 H        5.4260    11.1770    -1.3840 H     1 <1>   0.0800 
 53 H        5.0380     9.8070    -2.3930 H     1 <1>   0.0800 
 54 H        6.1780    11.0060    -2.9540 H     1 <1>   0.0800 
@<TRIPOS>BOND
  1   1   2  2   
  2   1   3  2   
  3   1   4  am  
  4   1   5  1   
  5   4   6  1   
  6   4   7  1   
  7   5   8  1   
  8   5  28  1   
  9   5  29  1   
 10   6  30  1   
 11   6  31  1   
 12   6  32  1   
 13   7  33  1   
 14   7  34  1   
 15   7  35  1   
 16   8   9  1   
 17   8  10  1   
 18   8  36  1   
 19   9  11  1   
 20   9  12  1   
 21   9  37  1   
 22  10  13  1   
 23  10  38  1   
 24  10  39  1   
 25  11  14  am  
 26  11  40  1   
 27  12  13  1   
 28  12  41  1   
 29  12  42  1   
 30  14  15  2   
 31  14  16  1   
 32  16  17  ar  
 33  16  18  ar  
 34  17  19  ar  
 35  17  43  1   
 36  18  20  ar  
 37  18  44  1   
 38  19  21  1   
 39  19  22  ar  
 40  20  22  ar  
 41  20  45  1   
 42  21  23  am  
 43  21  46  1   
 44  22  47  1   
 45  23  24  2   
 46  23  25  1   
 47  25  26  1   
 48  25  27  1   
 49  25  48  1   
 50  26  49  1   
 51  26  50  1   
 52  26  51  1   
 53  27  52  1   
 54  27  53  1   
 55  27  54  1   
@<TRIPOS>SUBSTRUCTURE
  1 ****  16 GROUP 4 **** **** 0

# MOE 2024.06 (io_trps.svl 2023.06)
