@<TRIPOS>MOLECULE
NONAME
50 52 1 0 0 
SMALL
USER_CHARGES


@<TRIPOS>ATOM
  1 O       -0.9130     0.0910    -0.0800 O.co2 1 <1>  -0.9000 
  2 C       -1.1250     1.0870     0.6210 C.2   1 <1>   0.9060 
  3 O       -1.6900     1.0300     1.7190 O.co2 1 <1>  -0.9000 
  4 C       -0.7230     2.4810     0.1510 C.3   1 <1>  -0.1060 
  5 C       -2.0790     2.6440    -0.7030 C.3   1 <1>   0.2000 
  6 C       -0.3440     3.9440    -0.2610 C.3   1 <1>   0.3430 
  7 C        0.6650     2.3340     0.9380 C.3   1 <1>  -0.0170 
  8 O       -2.6690     1.5350    -1.2990 O.3   1 <1>  -0.6800 
  9 C       -3.1420     3.3590     0.1290 C.3   1 <1>  -0.1600 
 10 N       -1.2650     4.9560     0.4070 N.4   1 <1>  -0.9590 
 11 C        1.8950     2.4030     0.0260 C.ar  1 <1>  -0.1440 
 12 C       -2.4560     4.3350     1.0790 C.3   1 <1>   0.3430 
 13 C       -0.5130     5.8210     1.3480 C.3   1 <1>   0.5230 
 14 C        2.9440     3.2650     0.3130 C.ar  1 <1>  -0.1500 
 15 C        1.9650     1.6030    -1.1040 C.ar  1 <1>  -0.1500 
 16 C        0.4320     6.6810     0.5360 C.2   1 <1>  -0.0400 
 17 C        4.0370     3.3440    -0.5330 C.ar  1 <1>  -0.1500 
 18 C        3.0570     1.6800    -1.9500 C.ar  1 <1>  -0.1500 
 19 O       -0.0710     7.3900    -0.4560 O.3   1 <1>  -0.2800 
 20 C        1.7670     6.8610     0.6180 C.2   1 <1>  -0.1500 
 21 C        4.0920     2.5540    -1.6670 C.ar  1 <1>  -0.1500 
 22 C        0.9230     8.0370    -1.0290 C.2   1 <1>  -0.0400 
 23 C        2.0910     7.7520    -0.4110 C.2   1 <1>  -0.1810 
 24 C        0.6000     8.9330    -2.2070 C.3   1 <1>  -0.0600 
 25 C        3.5000     8.2380    -0.6950 C.3   1 <1>  -0.0590 
 26 H       -1.9380     3.2550    -1.5800 H     1 <1>   0.0800 
 27 H       -0.3810     4.0560    -1.3320 H     1 <1>   0.0800 
 28 H        0.6640     4.2260    -0.0150 H     1 <1>   0.0800 
 29 H        0.7300     3.0890     1.7030 H     1 <1>   0.0800 
 30 H        0.8280     1.4250     1.5060 H     1 <1>   0.0800 
 31 H       -2.1830     0.7120    -0.9830 H     1 <1>   0.4000 
 32 H       -3.8280     3.8770    -0.5150 H     1 <1>   0.0800 
 33 H       -3.6930     2.6440     0.7170 H     1 <1>   0.0800 
 34 H       -1.5820     5.5980    -0.3330 H     1 <1>   0.4500 
 35 H       -2.1250     3.7750     1.9410 H     1 <1>   0.0800 
 36 H       -3.1540     5.0880     1.4080 H     1 <1>   0.0800 
 37 H       -1.1930     6.4630     1.8820 H     1 <1>   0.0800 
 38 H        0.0350     5.2240     2.0570 H     1 <1>   0.0800 
 39 H        2.9220     3.8750     1.1970 H     1 <1>   0.1500 
 40 H        1.1700     0.9080    -1.3280 H     1 <1>   0.1500 
 41 H        4.8470     4.0140    -0.3080 H     1 <1>   0.1500 
 42 H        3.0990     1.0550    -2.8240 H     1 <1>   0.1500 
 43 H        2.4770     6.4340     1.3050 H     1 <1>   0.1500 
 44 H        4.9410     2.6120    -2.3260 H     1 <1>   0.1500 
 45 H        1.4870     9.4070    -2.5820 H     1 <1>   0.0800 
 46 H       -0.0950     9.6950    -1.9030 H     1 <1>   0.0800 
 47 H        0.1580     8.3530    -2.9960 H     1 <1>   0.0800 
 48 H        3.8920     8.7500     0.1660 H     1 <1>   0.0800 
 49 H        3.5120     8.9150    -1.5290 H     1 <1>   0.0800 
 50 H        4.1370     7.4020    -0.9230 H     1 <1>   0.0800 
@<TRIPOS>BOND
  1   1   2  ar  
  2   2   3  ar  
  3   2   4  1   
  4   4   5  1   
  5   4   6  1   
  6   4   7  1   
  7   5   8  1   
  8   5   9  1   
  9   5  26  1   
 10   6  10  1   
 11   6  27  1   
 12   6  28  1   
 13   7  11  1   
 14   7  29  1   
 15   7  30  1   
 16   8  31  1   
 17   9  12  1   
 18   9  32  1   
 19   9  33  1   
 20  10  12  1   
 21  10  13  1   
 22  10  34  1   
 23  11  14  ar  
 24  11  15  ar  
 25  12  35  1   
 26  12  36  1   
 27  13  16  1   
 28  13  37  1   
 29  13  38  1   
 30  14  17  ar  
 31  14  39  1   
 32  15  18  ar  
 33  15  40  1   
 34  16  19  1   
 35  16  20  2   
 36  17  21  ar  
 37  17  41  1   
 38  18  21  ar  
 39  18  42  1   
 40  19  22  1   
 41  20  23  1   
 42  20  43  1   
 43  21  44  1   
 44  22  23  2   
 45  22  24  1   
 46  23  25  1   
 47  24  45  1   
 48  24  46  1   
 49  24  47  1   
 50  25  48  1   
 51  25  49  1   
 52  25  50  1   
@<TRIPOS>SUBSTRUCTURE
  1 ****   6 GROUP 4 **** **** 0

# MOE 2024.06 (io_trps.svl 2023.06)
