@<TRIPOS>MOLECULE
NONAME
54 57 1 0 0 
SMALL
USER_CHARGES


@<TRIPOS>ATOM
  1 O       -0.8020     0.5360     0.0520 O.3   1 <1>  -0.3630 
  2 C       -1.1390    -0.6920     0.5210 C.ar  1 <1>   0.0820 
  3 C       -1.7750     1.5240    -0.2090 C.3   1 <1>   0.0400 
  4 C       -0.1110    -1.6020     0.7340 C.ar  1 <1>  -0.1440 
  5 C       -2.4530    -1.0770     0.7780 C.ar  1 <1>  -0.1500 
  6 C       -0.4010    -2.8550     1.2350 C.ar  1 <1>  -0.1500 
  7 C        1.3370    -1.3130     0.3580 C.3   1 <1>   0.2390 
  8 C       -2.7370    -2.3640     1.2050 C.ar  1 <1>  -0.1500 
  9 C       -1.7080    -3.2710     1.4120 C.ar  1 <1>  -0.1440 
 10 N        1.7210    -2.1370    -0.8230 N.pl3 1 <1>   0.3140 
 11 C       -1.9740    -4.7280     1.7400 C.3   1 <1>   0.4870 
 12 N        1.7150    -3.5010    -0.8370 N.2   1 <1>  -0.7070 
 13 C        2.1300    -1.6510    -2.0120 C.2   1 <1>  -0.3020 
 14 N       -1.1650    -5.5590     0.7960 N.4   1 <1>  -0.9590 
 15 C        2.1320    -3.8190    -2.0260 C.2   1 <1>   0.1390 
 16 C        2.4030    -2.7050    -2.8080 C.2   1 <1>  -0.1500 
 17 C       -1.3740    -5.2420    -0.6480 C.3   1 <1>   0.3430 
 18 C       -1.3070    -7.0300     0.9530 C.3   1 <1>   0.3430 
 19 C       -0.8310    -6.4690    -1.3760 C.3   1 <1>   0.2000 
 20 C       -1.0930    -7.6490    -0.4380 C.3   1 <1>  -0.0800 
 21 O       -1.4490    -6.6770    -2.6000 O.3   1 <1>  -0.6800 
 22 C        0.0510    -8.6810    -0.4840 C.3   1 <1>  -0.0170 
 23 C       -0.2530    -9.9180     0.3500 C.ar  1 <1>   0.1670 
 24 N       -0.3560    -9.7390     1.6590 N.ar  1 <1>  -0.6200 
 25 C       -0.4040   -11.1570    -0.2720 C.ar  1 <1>   0.1600 
 26 C       -0.6020   -10.8740     2.2970 C.ar  1 <1>   0.1600 
 27 N       -0.6640   -12.2850     0.3650 N.ar  1 <1>  -0.6200 
 28 C       -0.7520   -12.1060     1.6710 C.ar  1 <1>   0.1600 
 29 H       -1.2710     2.4020    -0.5720 H     1 <1>   0.0800 
 30 H       -2.2950     1.7540     0.7040 H     1 <1>   0.0800 
 31 H       -2.4540     1.1580    -0.9590 H     1 <1>   0.0800 
 32 H       -3.2690    -0.3930     0.6360 H     1 <1>   0.1500 
 33 H        0.4200    -3.5230     1.4350 H     1 <1>   0.1500 
 34 H        1.9870    -1.5690     1.1730 H     1 <1>   0.0800 
 35 H        1.4820    -0.2760     0.1210 H     1 <1>   0.0800 
 36 H       -3.7650    -2.6480     1.3600 H     1 <1>   0.1500 
 37 H       -3.0230    -4.9450     1.6210 H     1 <1>   0.0800 
 38 H       -1.6890    -4.9320     2.7590 H     1 <1>   0.0800 
 39 H        2.2040    -0.5990    -2.2250 H     1 <1>   0.1500 
 40 H       -0.1790    -5.3170     0.9730 H     1 <1>   0.4500 
 41 H        2.2550    -4.8330    -2.3690 H     1 <1>   0.1500 
 42 H        2.7550    -2.7110    -3.8250 H     1 <1>   0.1500 
 43 H       -2.4240    -5.1270    -0.8540 H     1 <1>   0.0800 
 44 H       -0.8390    -4.3490    -0.9360 H     1 <1>   0.0800 
 45 H       -0.5820    -7.4000     1.6600 H     1 <1>   0.0800 
 46 H       -2.2940    -7.2810     1.3070 H     1 <1>   0.0800 
 47 H        0.2220    -6.3310    -1.5560 H     1 <1>   0.0800 
 48 H       -2.0100    -8.1410    -0.7120 H     1 <1>   0.0800 
 49 H       -2.3970    -6.9020    -2.5170 H     1 <1>   0.4000 
 50 H        0.9640    -8.2400    -0.1240 H     1 <1>   0.0800 
 51 H        0.2170    -8.9720    -1.5070 H     1 <1>   0.0800 
 52 H       -0.3060   -11.2230    -1.3410 H     1 <1>   0.1500 
 53 H       -0.6890   -10.8330     3.3690 H     1 <1>   0.1500 
 54 H       -0.9520   -12.9740     2.2740 H     1 <1>   0.1500 
@<TRIPOS>BOND
  1   1   2  1   
  2   1   3  1   
  3   2   4  ar  
  4   2   5  ar  
  5   3  29  1   
  6   3  30  1   
  7   3  31  1   
  8   4   6  ar  
  9   4   7  1   
 10   5   8  ar  
 11   5  32  1   
 12   6   9  ar  
 13   6  33  1   
 14   7  10  1   
 15   7  34  1   
 16   7  35  1   
 17   8   9  ar  
 18   8  36  1   
 19   9  11  1   
 20  10  12  1   
 21  10  13  1   
 22  11  14  1   
 23  11  37  1   
 24  11  38  1   
 25  12  15  2   
 26  13  16  2   
 27  13  39  1   
 28  14  17  1   
 29  14  18  1   
 30  14  40  1   
 31  15  16  1   
 32  15  41  1   
 33  16  42  1   
 34  17  19  1   
 35  17  43  1   
 36  17  44  1   
 37  18  20  1   
 38  18  45  1   
 39  18  46  1   
 40  19  20  1   
 41  19  21  1   
 42  19  47  1   
 43  20  22  1   
 44  20  48  1   
 45  21  49  1   
 46  22  23  1   
 47  22  50  1   
 48  22  51  1   
 49  23  24  ar  
 50  23  25  ar  
 51  24  26  ar  
 52  25  27  ar  
 53  25  52  1   
 54  26  28  ar  
 55  26  53  1   
 56  27  28  ar  
 57  28  54  1   
@<TRIPOS>SUBSTRUCTURE
  1 ****  14 GROUP 4 **** **** 0

# MOE 2024.06 (io_trps.svl 2023.06)
