@<TRIPOS>MOLECULE
NONAME
51 53 1 0 0 
SMALL
USER_CHARGES


@<TRIPOS>ATOM
  1 F        4.1750    -6.1510     0.8490 F     1 <1>  -0.3400 
  2 C        3.1490    -5.5780     1.4760 C.3   1 <1>   1.1640 
  3 F        3.2070    -6.0180     2.7320 F     1 <1>  -0.3400 
  4 F        3.4380    -4.2810     1.5410 F     1 <1>  -0.3400 
  5 C        1.7720    -5.8400     0.7980 C.ar  1 <1>   0.1660 
  6 N        1.6840    -5.8010    -0.5380 N.ar  1 <1>  -0.6200 
  7 C        0.6610    -6.1010     1.5990 C.ar  1 <1>  -0.1500 
  8 C        0.4990    -6.0730    -1.0630 C.ar  1 <1>   0.1600 
  9 C       -0.5660    -6.3710     1.0310 C.ar  1 <1>  -0.1500 
 10 C       -0.6530    -6.3920    -0.3530 C.ar  1 <1>   0.0860 
 11 C       -1.8610    -6.7510    -1.0640 C.2   1 <1>   0.5440 
 12 O       -2.3460    -5.9270    -1.8150 O.2   1 <1>  -0.5700 
 13 N       -2.4790    -7.9850    -0.9400 N.am  1 <1>  -0.6600 
 14 C       -1.8770    -9.1570    -0.1900 C.3   1 <1>   0.3640 
 15 C       -3.8690    -8.1590    -1.4650 C.3   1 <1>   0.1400 
 16 C       -0.4020    -9.2990    -0.5820 C.ar  1 <1>  -0.1430 
 17 C       -2.5830   -10.5350    -0.3990 C.3   1 <1>   0.2000 
 18 C       -4.1560    -9.6030    -1.8680 C.3   1 <1>   0.1200 
 19 C        0.5800    -9.2920     0.3980 C.ar  1 <1>  -0.1500 
 20 C       -0.0220    -9.3930    -1.9130 C.ar  1 <1>  -0.1500 
 21 O       -3.9290   -10.4270    -0.7730 O.3   1 <1>  -0.5600 
 22 C       -2.5760   -11.4110     0.8660 C.3   1 <1>   0.1200 
 23 C        1.9270    -9.3280     0.0790 C.ar  1 <1>   0.0830 
 24 C        1.3180    -9.4440    -2.2530 C.ar  1 <1>  -0.1500 
 25 O       -1.3110   -11.5020     1.4370 O.3   1 <1>  -0.6800 
 26 O        2.7690    -9.2750     1.1510 O.3   1 <1>  -0.3630 
 27 C        2.2980    -9.3880    -1.2730 C.ar  1 <1>   0.0830 
 28 C        4.1140    -9.6870     1.0630 C.3   1 <1>   0.0400 
 29 O        3.5880    -9.3730    -1.6830 O.3   1 <1>  -0.3630 
 30 C        4.0410    -8.1390    -2.1950 C.3   1 <1>   0.0400 
 31 H        0.7470    -6.1030     2.6720 H     1 <1>   0.1500 
 32 H        0.4260    -6.0560    -2.1370 H     1 <1>   0.1500 
 33 H       -1.4320    -6.5740     1.6360 H     1 <1>   0.1500 
 34 H       -1.9350    -8.9240     0.8590 H     1 <1>   0.0800 
 35 H       -4.5710    -7.8580    -0.7080 H     1 <1>   0.0800 
 36 H       -4.0250    -7.5300    -2.3250 H     1 <1>   0.0800 
 37 H       -2.0870   -11.0740    -1.1870 H     1 <1>   0.0800 
 38 H       -3.5330    -9.9120    -2.6890 H     1 <1>   0.0800 
 39 H       -5.1880    -9.7090    -2.1520 H     1 <1>   0.0800 
 40 H        0.3090    -9.2430     1.4380 H     1 <1>   0.1500 
 41 H       -0.7660    -9.4090    -2.6900 H     1 <1>   0.1500 
 42 H       -2.9100   -12.4070     0.6320 H     1 <1>   0.0800 
 43 H       -3.2300   -10.9850     1.6070 H     1 <1>   0.0800 
 44 H        1.6100    -9.5160    -3.2850 H     1 <1>   0.1500 
 45 H       -0.6720   -11.9290     0.8290 H     1 <1>   0.4000 
 46 H        4.4980    -9.7910     2.0610 H     1 <1>   0.0800 
 47 H        4.6740    -8.9370     0.5350 H     1 <1>   0.0800 
 48 H        4.1600   -10.6310     0.5500 H     1 <1>   0.0800 
 49 H        5.0940    -8.2220    -2.3930 H     1 <1>   0.0800 
 50 H        3.8630    -7.3720    -1.4630 H     1 <1>   0.0800 
 51 H        3.5100    -7.9170    -3.1030 H     1 <1>   0.0800 
@<TRIPOS>BOND
  1   1   2  1   
  2   2   3  1   
  3   2   4  1   
  4   2   5  1   
  5   5   6  ar  
  6   5   7  ar  
  7   6   8  ar  
  8   7   9  ar  
  9   7  31  1   
 10   8  10  ar  
 11   8  32  1   
 12   9  10  ar  
 13   9  33  1   
 14  10  11  1   
 15  11  12  2   
 16  11  13  am  
 17  13  14  1   
 18  13  15  1   
 19  14  16  1   
 20  14  17  1   
 21  14  34  1   
 22  15  18  1   
 23  15  35  1   
 24  15  36  1   
 25  16  19  ar  
 26  16  20  ar  
 27  17  21  1   
 28  17  22  1   
 29  17  37  1   
 30  18  21  1   
 31  18  38  1   
 32  18  39  1   
 33  19  23  ar  
 34  19  40  1   
 35  20  24  ar  
 36  20  41  1   
 37  22  25  1   
 38  22  42  1   
 39  22  43  1   
 40  23  26  1   
 41  23  27  ar  
 42  24  27  ar  
 43  24  44  1   
 44  25  45  1   
 45  26  28  1   
 46  27  29  1   
 47  28  46  1   
 48  28  47  1   
 49  28  48  1   
 50  29  30  1   
 51  30  49  1   
 52  30  50  1   
 53  30  51  1   
@<TRIPOS>SUBSTRUCTURE
  1 ****  19 GROUP 4 **** **** 0

# MOE 2024.06 (io_trps.svl 2023.06)
