@<TRIPOS>MOLECULE
NONAME
48 51 1 0 0 
SMALL
USER_CHARGES


@<TRIPOS>ATOM
  1 N       -0.6900    -0.6520     0.5250 N.2   1 <1>  -0.7070 
  2 N       -1.7910    -0.1940    -0.1230 N.pl3 1 <1>   0.5930 
  3 C       -0.5540    -1.8910     0.1930 C.2   1 <1>   0.1080 
  4 C       -2.2640     1.1490    -0.0300 C.ar  1 <1>  -0.0230 
  5 C       -2.3270    -1.2080    -0.8510 C.2   1 <1>  -0.3020 
  6 C       -1.5650    -2.3090    -0.6660 C.2   1 <1>  -0.1810 
  7 C        0.6040    -2.7130     0.7210 C.3   1 <1>  -0.0590 
  8 C       -1.3740     2.1970     0.1940 C.ar  1 <1>  -0.1500 
  9 C       -3.6190     1.4500    -0.1590 C.ar  1 <1>  -0.1500 
 10 C       -1.7480    -3.6950    -1.2440 C.3   1 <1>   0.5240 
 11 C       -1.8190     3.5040     0.2780 C.ar  1 <1>  -0.1500 
 12 C       -4.0660     2.7570    -0.0770 C.ar  1 <1>  -0.1500 
 13 N       -2.2890    -4.5720    -0.1740 N.4   1 <1>  -0.9590 
 14 C       -3.1660     3.7860     0.1410 C.ar  1 <1>  -0.1500 
 15 C       -2.2540    -6.0090    -0.6040 C.3   1 <1>   0.3430 
 16 C       -3.6590    -4.1440     0.2350 C.3   1 <1>   0.3430 
 17 C       -2.7730    -6.9660     0.4850 C.3   1 <1>   0.1000 
 18 C       -4.1620    -5.0360     1.3720 C.3   1 <1>  -0.1600 
 19 C       -2.8280    -8.3710    -0.0930 C.2   1 <1>   0.0060 
 20 C       -4.1600    -6.5230     0.9800 C.3   1 <1>  -0.1600 
 21 N       -2.6270    -8.6270    -1.3460 N.2   1 <1>  -0.5650 
 22 N       -3.0880    -9.4750     0.6460 N.pl3 1 <1>   0.0330 
 23 C       -2.7630    -9.9640    -1.4320 C.2   1 <1>   0.0770 
 24 C       -3.0440   -10.4980    -0.2240 C.2   1 <1>  -0.3020 
 25 H       -3.2050    -1.0640    -1.4530 H     1 <1>   0.1500 
 26 H        1.4850    -2.0970     0.7590 H     1 <1>   0.0800 
 27 H        0.8080    -3.5560     0.0900 H     1 <1>   0.0800 
 28 H        0.3870    -3.0490     1.7190 H     1 <1>   0.0800 
 29 H       -0.3230     1.9880     0.3060 H     1 <1>   0.1500 
 30 H       -4.3390     0.6690    -0.3210 H     1 <1>   0.1500 
 31 H       -0.7970    -4.0660    -1.5920 H     1 <1>   0.0800 
 32 H       -2.4290    -3.6590    -2.0790 H     1 <1>   0.0800 
 33 H       -1.1170     4.3010     0.4510 H     1 <1>   0.1500 
 34 H       -5.1140     2.9790    -0.1800 H     1 <1>   0.1500 
 35 H       -1.6770    -4.4450     0.6410 H     1 <1>   0.4500 
 36 H       -3.5130     4.8030     0.2050 H     1 <1>   0.1500 
 37 H       -1.2500    -6.3000    -0.8670 H     1 <1>   0.0800 
 38 H       -2.8690    -6.1370    -1.4810 H     1 <1>   0.0800 
 39 H       -4.3320    -4.2190    -0.6040 H     1 <1>   0.0800 
 40 H       -3.6430    -3.1170     0.5670 H     1 <1>   0.0800 
 41 H       -2.0750    -6.9630     1.3030 H     1 <1>   0.0800 
 42 H       -5.1660    -4.7400     1.6270 H     1 <1>   0.0800 
 43 H       -3.5530    -4.8800     2.2460 H     1 <1>   0.0800 
 44 H       -4.4580    -7.1200     1.8250 H     1 <1>   0.0800 
 45 H       -4.8820    -6.6850     0.1960 H     1 <1>   0.0800 
 46 H       -3.2800    -9.5330     1.6520 H     1 <1>   0.2700 
 47 H       -2.6510   -10.4830    -2.3710 H     1 <1>   0.1500 
 48 H       -3.2110   -11.5240     0.0520 H     1 <1>   0.1500 
@<TRIPOS>BOND
  1   1   2  1   
  2   1   3  2   
  3   2   4  1   
  4   2   5  1   
  5   3   6  1   
  6   3   7  1   
  7   4   8  ar  
  8   4   9  ar  
  9   5   6  2   
 10   5  25  1   
 11   6  10  1   
 12   7  26  1   
 13   7  27  1   
 14   7  28  1   
 15   8  11  ar  
 16   8  29  1   
 17   9  12  ar  
 18   9  30  1   
 19  10  13  1   
 20  10  31  1   
 21  10  32  1   
 22  11  14  ar  
 23  11  33  1   
 24  12  14  ar  
 25  12  34  1   
 26  13  15  1   
 27  13  16  1   
 28  13  35  1   
 29  14  36  1   
 30  15  17  1   
 31  15  37  1   
 32  15  38  1   
 33  16  18  1   
 34  16  39  1   
 35  16  40  1   
 36  17  19  1   
 37  17  20  1   
 38  17  41  1   
 39  18  20  1   
 40  18  42  1   
 41  18  43  1   
 42  19  21  2   
 43  19  22  1   
 44  20  44  1   
 45  20  45  1   
 46  21  23  1   
 47  22  24  1   
 48  22  46  1   
 49  23  24  2   
 50  23  47  1   
 51  24  48  1   
@<TRIPOS>SUBSTRUCTURE
  1 ****  13 GROUP 4 **** **** 0

# MOE 2024.06 (io_trps.svl 2023.06)
