@<TRIPOS>MOLECULE
NONAME
51 54 1 0 0 
SMALL
USER_CHARGES


@<TRIPOS>ATOM
  1 O       -0.6200    -0.9160    -1.4470 O.3   1 <1>  -0.8290 
  2 C       -0.5360    -2.1240    -1.1270 C.ar  1 <1>   0.1390 
  3 N       -1.0260    -3.0700    -1.9640 N.ar  1 <1>  -0.3100 
  4 C        0.0600    -2.4570     0.0860 C.ar  1 <1>  -0.1500 
  5 N       -0.9550    -4.3380    -1.6360 N.ar  1 <1>  -0.3100 
  6 C        0.1270    -3.7780     0.4210 C.ar  1 <1>  -0.1500 
  7 C       -0.4030    -4.6880    -0.4790 C.ar  1 <1>   0.1670 
  8 C       -0.3860    -6.1720    -0.1520 C.3   1 <1>  -0.0160 
  9 C       -1.8140    -6.6790     0.1040 C.3   1 <1>  -0.0990 
 10 C       -1.8910    -8.1330     0.5440 C.2   1 <1>   0.5690 
 11 O       -0.8770    -8.7890     0.6070 O.2   1 <1>  -0.5700 
 12 N       -3.1060    -8.6660     0.8720 N.am  1 <1>  -0.6600 
 13 C       -4.4150    -7.9810     0.7640 C.3   1 <1>   0.1400 
 14 C       -3.2850   -10.0760     1.2660 C.3   1 <1>   0.1400 
 15 C       -5.4670    -9.0990     0.7510 C.3   1 <1>  -0.0800 
 16 C       -4.7010   -10.4420     0.8180 C.3   1 <1>  -0.0800 
 17 C       -6.5100    -8.9830    -0.3890 C.3   1 <1>   0.4240 
 18 C       -4.6980   -11.2050    -0.5180 C.3   1 <1>  -0.1600 
 19 O       -5.8710    -8.6620    -1.5740 O.3   1 <1>  -0.6800 
 20 C       -7.5350    -7.8780    -0.0570 C.ar  1 <1>  -0.1430 
 21 C       -7.1440   -10.3630    -0.6410 C.3   1 <1>  -0.1600 
 22 C       -6.1230   -11.4470    -1.0580 C.3   1 <1>  -0.1600 
 23 C       -7.4390    -6.6040    -0.6130 C.ar  1 <1>  -0.1500 
 24 C       -8.5750    -8.1190     0.8370 C.ar  1 <1>  -0.1500 
 25 C       -8.3500    -5.6120    -0.2950 C.ar  1 <1>  -0.1500 
 26 C       -9.4900    -7.1290     1.1560 C.ar  1 <1>  -0.1500 
 27 C       -9.3790    -5.8740     0.5900 C.ar  1 <1>  -0.1500 
 28 H        0.4340    -1.6630     0.7020 H     1 <1>   0.1500 
 29 H        0.5700    -4.0930     1.3450 H     1 <1>   0.1500 
 30 H        0.0490    -6.7080    -0.9770 H     1 <1>   0.0800 
 31 H        0.2230    -6.3490     0.7160 H     1 <1>   0.0800 
 32 H       -2.3840    -6.5660    -0.8000 H     1 <1>   0.0800 
 33 H       -2.2660    -6.0690     0.8630 H     1 <1>   0.0800 
 34 H       -4.5610    -7.3430     1.6190 H     1 <1>   0.0800 
 35 H       -4.4470    -7.3760    -0.1250 H     1 <1>   0.0800 
 36 H       -2.5380   -10.7050     0.8100 H     1 <1>   0.0800 
 37 H       -3.2000   -10.1480     2.3370 H     1 <1>   0.0800 
 38 H       -6.0070    -9.0160     1.6770 H     1 <1>   0.0800 
 39 H       -5.1480   -11.0810     1.5600 H     1 <1>   0.0800 
 40 H       -4.1260   -10.6440    -1.2390 H     1 <1>   0.0800 
 41 H       -4.2000   -12.1510    -0.3960 H     1 <1>   0.0800 
 42 H       -5.2640    -9.3930    -1.7860 H     1 <1>   0.4000 
 43 H       -7.6150   -10.6930     0.2660 H     1 <1>   0.0800 
 44 H       -7.9180   -10.2730    -1.3830 H     1 <1>   0.0800 
 45 H       -6.4790   -12.4010    -0.7070 H     1 <1>   0.0800 
 46 H       -6.0790   -11.5040    -2.1330 H     1 <1>   0.0800 
 47 H       -6.6490    -6.3660    -1.3040 H     1 <1>   0.1500 
 48 H       -8.6890    -9.0790     1.3050 H     1 <1>   0.1500 
 49 H       -8.2530    -4.6360    -0.7390 H     1 <1>   0.1500 
 50 H      -10.2890    -7.3370     1.8450 H     1 <1>   0.1500 
 51 H      -10.0890    -5.1040     0.8360 H     1 <1>   0.1500 
@<TRIPOS>BOND
  1   1   2  1   
  2   2   3  ar  
  3   2   4  ar  
  4   3   5  ar  
  5   4   6  ar  
  6   4  28  1   
  7   5   7  ar  
  8   6   7  ar  
  9   6  29  1   
 10   7   8  1   
 11   8   9  1   
 12   8  30  1   
 13   8  31  1   
 14   9  10  1   
 15   9  32  1   
 16   9  33  1   
 17  10  11  2   
 18  10  12  am  
 19  12  13  1   
 20  12  14  1   
 21  13  15  1   
 22  13  34  1   
 23  13  35  1   
 24  14  16  1   
 25  14  36  1   
 26  14  37  1   
 27  15  16  1   
 28  15  17  1   
 29  15  38  1   
 30  16  18  1   
 31  16  39  1   
 32  17  19  1   
 33  17  20  1   
 34  17  21  1   
 35  18  22  1   
 36  18  40  1   
 37  18  41  1   
 38  19  42  1   
 39  20  23  ar  
 40  20  24  ar  
 41  21  22  1   
 42  21  43  1   
 43  21  44  1   
 44  22  45  1   
 45  22  46  1   
 46  23  25  ar  
 47  23  47  1   
 48  24  26  ar  
 49  24  48  1   
 50  25  27  ar  
 51  25  49  1   
 52  26  27  ar  
 53  26  50  1   
 54  27  51  1   
@<TRIPOS>SUBSTRUCTURE
  1 ****  13 GROUP 4 **** **** 0

# MOE 2024.06 (io_trps.svl 2023.06)
