@<TRIPOS>MOLECULE
NONAME
42 43 1 0 0 
SMALL
USER_CHARGES


@<TRIPOS>ATOM
  1 CL      -0.4620    -0.7370     1.9920 Cl    1 <1>  -0.1770 
  2 C       -0.4860    -2.4010     1.4670 C.ar  1 <1>   0.1770 
  3 C        0.0880    -2.7380     0.2560 C.ar  1 <1>  -0.1500 
  4 C       -1.0790    -3.3570     2.2690 C.ar  1 <1>  -0.1500 
  5 C        0.0680    -4.0590    -0.1590 C.ar  1 <1>  -0.1500 
  6 C       -1.0960    -4.6760     1.8490 C.ar  1 <1>  -0.1500 
  7 C       -0.5230    -5.0320     0.6360 C.ar  1 <1>  -0.1430 
  8 C       -0.5490    -6.4820     0.1790 C.3   1 <1>  -0.0160 
  9 C       -1.8950    -6.8100    -0.4840 C.3   1 <1>  -0.0990 
 10 C       -2.0100    -8.2550    -0.9530 C.2   1 <1>   0.5690 
 11 O       -0.9910    -8.8900    -1.0940 O.2   1 <1>  -0.5700 
 12 N       -3.2370    -8.8100    -1.2160 N.am  1 <1>  -0.6600 
 13 C       -3.3450   -10.2370    -1.6590 C.3   1 <1>   0.3210 
 14 C       -4.5380    -8.0630    -1.1260 C.3   1 <1>   0.1400 
 15 C       -4.0780   -11.0780    -0.6210 C.2   1 <1>   0.0460 
 16 C       -5.2640    -8.2320     0.2240 C.3   1 <1>   0.1200 
 17 N       -5.3610   -11.4490    -0.8150 N.2   1 <1>  -0.5650 
 18 C       -3.6170   -11.5380     0.5660 C.2   1 <1>  -0.3320 
 19 O       -4.3570    -8.4080     1.2580 O.3   1 <1>  -0.6800 
 20 C       -5.6520   -12.1230     0.2490 C.2   1 <1>   0.0360 
 21 N       -4.6350   -12.2130     1.1290 N.pl3 1 <1>   0.0330 
 22 C       -2.2580   -11.3870     1.2300 C.3   1 <1>  -0.0600 
 23 H        0.5430    -1.9760    -0.3510 H     1 <1>   0.1500 
 24 H       -1.5190    -3.0700     3.2070 H     1 <1>   0.1500 
 25 H        0.5130    -4.3270    -1.1010 H     1 <1>   0.1500 
 26 H       -1.5580    -5.4260     2.4690 H     1 <1>   0.1500 
 27 H       -0.3970    -7.1310     1.0230 H     1 <1>   0.0800 
 28 H        0.2530    -6.6600    -0.5170 H     1 <1>   0.0800 
 29 H       -2.0350    -6.1670    -1.3330 H     1 <1>   0.0800 
 30 H       -2.6720    -6.6050     0.2270 H     1 <1>   0.0800 
 31 H       -2.3710   -10.6630    -1.8190 H     1 <1>   0.0800 
 32 H       -3.8750   -10.2830    -2.5940 H     1 <1>   0.0800 
 33 H       -5.1950    -8.3940    -1.9130 H     1 <1>   0.0800 
 34 H       -4.3690    -7.0150    -1.2940 H     1 <1>   0.0800 
 35 H       -5.9060    -9.0950     0.1980 H     1 <1>   0.0800 
 36 H       -5.8670    -7.3680     0.4420 H     1 <1>   0.0800 
 37 H       -3.8050    -9.1880     1.0270 H     1 <1>   0.4000 
 38 H       -6.6100   -12.5780     0.4340 H     1 <1>   0.1500 
 39 H       -4.6430   -12.6950     2.0330 H     1 <1>   0.2700 
 40 H       -1.5800   -10.8500     0.5910 H     1 <1>   0.0800 
 41 H       -1.8330   -12.3550     1.4310 H     1 <1>   0.0800 
 42 H       -2.3520   -10.8470     2.1550 H     1 <1>   0.0800 
@<TRIPOS>BOND
  1   1   2  1   
  2   2   3  ar  
  3   2   4  ar  
  4   3   5  ar  
  5   3  23  1   
  6   4   6  ar  
  7   4  24  1   
  8   5   7  ar  
  9   5  25  1   
 10   6   7  ar  
 11   6  26  1   
 12   7   8  1   
 13   8   9  1   
 14   8  27  1   
 15   8  28  1   
 16   9  10  1   
 17   9  29  1   
 18   9  30  1   
 19  10  11  2   
 20  10  12  am  
 21  12  13  1   
 22  12  14  1   
 23  13  15  1   
 24  13  31  1   
 25  13  32  1   
 26  14  16  1   
 27  14  33  1   
 28  14  34  1   
 29  15  17  1   
 30  15  18  2   
 31  16  19  1   
 32  16  35  1   
 33  16  36  1   
 34  17  20  2   
 35  18  21  1   
 36  18  22  1   
 37  19  37  1   
 38  20  21  1   
 39  20  38  1   
 40  21  39  1   
 41  22  40  1   
 42  22  41  1   
 43  22  42  1   
@<TRIPOS>SUBSTRUCTURE
  1 ****   9 GROUP 4 **** **** 0

# MOE 2024.06 (io_trps.svl 2023.06)
