@<TRIPOS>MOLECULE
NONAME
49 52 1 0 0 
SMALL
USER_CHARGES


@<TRIPOS>ATOM
  1 O       -0.5330     0.4040     0.1670 O.2   1 <1>  -0.5700 
  2 C       -1.5710     1.0370     0.2230 C.2   1 <1>   0.7030 
  3 N       -2.7690     0.3630     0.2010 N.am  1 <1>  -0.6600 
  4 C       -1.5010     2.4850     0.3080 C.2   1 <1>   0.2770 
  5 C       -3.9170     0.7260    -0.6800 C.3   1 <1>   0.1400 
  6 C       -2.8800    -1.0730     0.5790 C.3   1 <1>   0.1400 
  7 N       -0.3930     3.2480    -0.0210 N.pl3 1 <1>  -0.7000 
  8 C       -2.4380     3.3660     0.7360 C.2   1 <1>   0.2000 
  9 C       -4.8570    -0.4830    -0.6620 C.3   1 <1>   0.2000 
 10 C       -3.9290    -1.6620    -0.3660 C.3   1 <1>  -0.0800 
 11 C       -0.6590     4.5410     0.1990 C.cat 1 <1>   0.7910 
 12 N       -1.9280     4.6440     0.6610 N.pl3 1 <1>  -0.6290 
 13 O       -5.7510    -0.3320     0.4020 O.3   1 <1>  -0.5600 
 14 C       -4.6380    -2.9060     0.2010 C.3   1 <1>   0.0200 
 15 C        0.1490     5.6870     0.0260 C.2   1 <1>  -0.1290 
 16 C       -2.4570     5.8760     0.9770 C.2   1 <1>   0.2290 
 17 C       -7.0150     0.1400     0.0530 C.3   1 <1>   0.0400 
 18 C       -3.7160    -4.1060     0.3420 C.2   1 <1>  -0.0400 
 19 C       -0.3770     6.9140     0.3370 C.2   1 <1>  -0.1500 
 20 C        1.5760     5.5570    -0.4950 C.3   1 <1>  -0.1020 
 21 C       -1.7000     6.9990     0.8190 C.2   1 <1>  -0.1500 
 22 O       -4.1680    -5.1750     0.9420 O.3   1 <1>  -0.0190 
 23 C       -2.4520    -4.3570    -0.0370 C.2   1 <1>  -0.1500 
 24 N       -3.2770    -6.1220     0.9900 N.2   1 <1>  -0.4100 
 25 C       -2.2320    -5.6570     0.4080 C.2   1 <1>   0.1080 
 26 C       -0.9420    -6.4270     0.2350 C.3   1 <1>  -0.0590 
 27 H       -4.4280     1.6060    -0.3330 H     1 <1>   0.0800 
 28 H       -3.5560     0.8840    -1.6820 H     1 <1>   0.0800 
 29 H       -1.9370    -1.5860     0.4920 H     1 <1>   0.0800 
 30 H       -3.2230    -1.1360     1.5980 H     1 <1>   0.0800 
 31 H        0.4980     2.8510    -0.3320 H     1 <1>   0.4500 
 32 H       -3.4300     3.1550     1.1000 H     1 <1>   0.1500 
 33 H       -5.3990    -0.6130    -1.5850 H     1 <1>   0.0800 
 34 H       -3.4360    -1.9330    -1.2840 H     1 <1>   0.0800 
 35 H       -5.4520    -3.1800    -0.4450 H     1 <1>   0.0800 
 36 H       -5.0530    -2.6810     1.1680 H     1 <1>   0.0800 
 37 H       -3.4700     5.9190     1.3470 H     1 <1>   0.1500 
 38 H       -7.5940     0.2440     0.9540 H     1 <1>   0.0800 
 39 H       -7.4920    -0.5720    -0.5990 H     1 <1>   0.0800 
 40 H       -6.9230     1.0960    -0.4320 H     1 <1>   0.0800 
 41 H        0.1920     7.8240     0.2250 H     1 <1>   0.1500 
 42 H        2.1650     4.9490     0.1700 H     1 <1>   0.0800 
 43 H        2.0470     6.5230    -0.5670 H     1 <1>   0.0800 
 44 H        1.5800     5.1100    -1.4740 H     1 <1>   0.0800 
 45 H       -2.0980     7.9710     1.0600 H     1 <1>   0.1500 
 46 H       -1.7420    -3.7430    -0.5580 H     1 <1>   0.1500 
 47 H       -0.6840    -6.4780    -0.8070 H     1 <1>   0.0800 
 48 H       -1.0570    -7.4260     0.6150 H     1 <1>   0.0800 
 49 H       -0.1510    -5.9380     0.7740 H     1 <1>   0.0800 
@<TRIPOS>BOND
  1   1   2  2   
  2   2   3  am  
  3   2   4  1   
  4   3   5  1   
  5   3   6  1   
  6   4   7  1   
  7   4   8  2   
  8   5   9  1   
  9   5  27  1   
 10   5  28  1   
 11   6  10  1   
 12   6  29  1   
 13   6  30  1   
 14   7  11  ar  
 15   7  31  1   
 16   8  12  1   
 17   8  32  1   
 18   9  10  1   
 19   9  13  1   
 20   9  33  1   
 21  10  14  1   
 22  10  34  1   
 23  11  12  ar  
 24  11  15  1   
 25  12  16  1   
 26  13  17  1   
 27  14  18  1   
 28  14  35  1   
 29  14  36  1   
 30  15  19  2   
 31  15  20  1   
 32  16  21  2   
 33  16  37  1   
 34  17  38  1   
 35  17  39  1   
 36  17  40  1   
 37  18  22  1   
 38  18  23  2   
 39  19  21  1   
 40  19  41  1   
 41  20  42  1   
 42  20  43  1   
 43  20  44  1   
 44  21  45  1   
 45  22  24  1   
 46  23  25  1   
 47  23  46  1   
 48  24  25  2   
 49  25  26  1   
 50  26  47  1   
 51  26  48  1   
 52  26  49  1   
@<TRIPOS>SUBSTRUCTURE
  1 ****   3 GROUP 4 **** **** 0

# MOE 2024.06 (io_trps.svl 2023.06)
