@<TRIPOS>MOLECULE
NONAME
52 54 1 0 0 
SMALL
USER_CHARGES


@<TRIPOS>ATOM
  1 O        0.7920    -0.6980    -0.0460 O.3   1 <1>  -0.5600 
  2 C        0.1480    -1.9230     0.2120 C.3   1 <1>   0.2800 
  3 C        0.1910     0.4720     0.4390 C.3   1 <1>   0.1200 
  4 C       -1.3190    -1.8640    -0.2690 C.3   1 <1>  -0.1600 
  5 C        0.3260    -2.2920     1.7000 C.3   1 <1>  -0.1600 
  6 C        0.9090    -2.9770    -0.6170 C.3   1 <1>  -0.1600 
  7 C       -1.2040     0.6340    -0.1650 C.3   1 <1>  -0.1600 
  8 C       -2.0700    -0.5900     0.1260 C.3   1 <1>   0.2800 
  9 C        1.7950    -2.3190     2.1410 C.3   1 <1>   0.3430 
 10 C        2.2700    -3.3830    -0.0370 C.3   1 <1>   0.3430 
 11 O       -2.3190    -0.6310     1.4760 O.3   1 <1>  -0.6800 
 12 C       -3.4320    -0.5010    -0.5600 C.3   1 <1>  -0.2400 
 13 N        2.7020    -2.3750     0.9630 N.4   1 <1>  -0.9590 
 14 C        4.1430    -2.4430     1.3180 C.3   1 <1>   0.4860 
 15 C        4.9710    -2.3250     0.0510 C.ar  1 <1>  -0.1440 
 16 C        5.7000    -3.4000    -0.4550 C.ar  1 <1>  -0.1440 
 17 C        4.9870    -1.1080    -0.6170 C.ar  1 <1>  -0.1500 
 18 C        6.4260    -3.2320    -1.6250 C.ar  1 <1>  -0.1500 
 19 C        5.7470    -4.7670     0.2240 C.3   1 <1>  -0.0170 
 20 C        5.7130    -0.9550    -1.7830 C.ar  1 <1>  -0.1500 
 21 C        6.4330    -2.0190    -2.2880 C.ar  1 <1>  -0.1500 
 22 C        6.7760    -4.7750     1.3570 C.3   1 <1>  -0.2400 
 23 H        0.8130     1.3030     0.1540 H     1 <1>   0.0800 
 24 H        0.1440     0.4310     1.5130 H     1 <1>   0.0800 
 25 H       -1.8610    -2.7250     0.0790 H     1 <1>   0.0800 
 26 H       -1.3140    -1.9140    -1.3430 H     1 <1>   0.0800 
 27 H       -0.0980    -3.2660     1.8660 H     1 <1>   0.0800 
 28 H       -0.2140    -1.6250     2.3440 H     1 <1>   0.0800 
 29 H        1.0470    -2.6080    -1.6180 H     1 <1>   0.0800 
 30 H        0.3160    -3.8700    -0.6980 H     1 <1>   0.0800 
 31 H       -1.1000     0.7580    -1.2280 H     1 <1>   0.0800 
 32 H       -1.6720     1.5220     0.2200 H     1 <1>   0.0800 
 33 H        1.9620    -3.1670     2.7860 H     1 <1>   0.0800 
 34 H        2.0050    -1.4220     2.7020 H     1 <1>   0.0800 
 35 H        2.9880    -3.4510    -0.8400 H     1 <1>   0.0800 
 36 H        2.1950    -4.3490     0.4330 H     1 <1>   0.0800 
 37 H       -2.9770     0.0530     1.7040 H     1 <1>   0.4000 
 38 H       -3.3060    -0.4780    -1.6270 H     1 <1>   0.0800 
 39 H       -3.9500     0.3950    -0.2680 H     1 <1>   0.0800 
 40 H       -4.0340    -1.3570    -0.3120 H     1 <1>   0.0800 
 41 H        2.5420    -1.4780     0.4670 H     1 <1>   0.4500 
 42 H        4.3570    -3.3690     1.8230 H     1 <1>   0.0800 
 43 H        4.3970    -1.6310     1.9800 H     1 <1>   0.0800 
 44 H        4.4370    -0.2610    -0.2410 H     1 <1>   0.1500 
 45 H        7.0010    -4.0480    -2.0310 H     1 <1>   0.1500 
 46 H        6.0220    -5.5190    -0.4970 H     1 <1>   0.0800 
 47 H        4.7790    -5.0410     0.6020 H     1 <1>   0.0800 
 48 H        5.7210    -0.0090    -2.2980 H     1 <1>   0.1500 
 49 H        7.0010    -1.9040    -3.1950 H     1 <1>   0.1500 
 50 H        7.7520    -4.5420     0.9660 H     1 <1>   0.0800 
 51 H        6.8170    -5.7480     1.8130 H     1 <1>   0.0800 
 52 H        6.5310    -4.0490     2.1100 H     1 <1>   0.0800 
@<TRIPOS>BOND
  1   1   2  1   
  2   1   3  1   
  3   2   4  1   
  4   2   5  1   
  5   2   6  1   
  6   3   7  1   
  7   3  23  1   
  8   3  24  1   
  9   4   8  1   
 10   4  25  1   
 11   4  26  1   
 12   5   9  1   
 13   5  27  1   
 14   5  28  1   
 15   6  10  1   
 16   6  29  1   
 17   6  30  1   
 18   7   8  1   
 19   7  31  1   
 20   7  32  1   
 21   8  11  1   
 22   8  12  1   
 23   9  13  1   
 24   9  33  1   
 25   9  34  1   
 26  10  13  1   
 27  10  35  1   
 28  10  36  1   
 29  11  37  1   
 30  12  38  1   
 31  12  39  1   
 32  12  40  1   
 33  13  14  1   
 34  13  41  1   
 35  14  15  1   
 36  14  42  1   
 37  14  43  1   
 38  15  16  ar  
 39  15  17  ar  
 40  16  18  ar  
 41  16  19  1   
 42  17  20  ar  
 43  17  44  1   
 44  18  21  ar  
 45  18  45  1   
 46  19  22  1   
 47  19  46  1   
 48  19  47  1   
 49  20  21  ar  
 50  20  48  1   
 51  21  49  1   
 52  22  50  1   
 53  22  51  1   
 54  22  52  1   
@<TRIPOS>SUBSTRUCTURE
  1 ****  13 GROUP 4 **** **** 0

# MOE 2024.06 (io_trps.svl 2023.06)
