@<TRIPOS>MOLECULE
NONAME
44 46 1 0 0 
SMALL
USER_CHARGES


@<TRIPOS>ATOM
  1 O        0.2820    -2.2050     2.4210 O.2   1 <1>  -0.5700 
  2 C       -0.4910    -2.5760     1.5550 C.2   1 <1>   0.6900 
  3 N       -1.3830    -3.5770     1.6690 N.am  1 <1>  -0.5390 
  4 N       -0.5940    -2.0510     0.3160 N.am  1 <1>  -0.5390 
  5 C       -2.0830    -3.7030     0.4600 C.2   1 <1>   0.1230 
  6 C       -1.5760    -2.7480    -0.3590 C.2   1 <1>  -0.0410 
  7 C       -3.1190    -4.6850     0.2300 C.2   1 <1>   0.6160 
  8 O       -3.4470    -5.4920     1.0870 O.2   1 <1>  -0.5700 
  9 N       -3.7990    -4.7560    -0.9620 N.am  1 <1>  -0.6600 
 10 C       -5.2030    -4.2340    -0.9800 C.3   1 <1>   0.1400 
 11 C       -3.6450    -6.0140    -1.7630 C.3   1 <1>   0.1400 
 12 C       -6.2240    -5.2830    -0.4530 C.3   1 <1>   0.4230 
 13 C       -4.7870    -7.0290    -1.5000 C.3   1 <1>   0.3430 
 14 N       -5.5970    -6.6490    -0.2890 N.4   1 <1>  -0.9590 
 15 C       -7.4790    -5.3570    -1.3540 C.3   1 <1>   0.1200 
 16 C       -6.6220    -7.6430     0.1650 C.3   1 <1>   0.4230 
 17 O       -8.3730    -6.3230    -0.8770 O.3   1 <1>  -0.5600 
 18 C       -7.8570    -7.6230    -0.7660 C.3   1 <1>   0.1200 
 19 C       -5.9950    -9.0390     0.3090 C.3   1 <1>  -0.1600 
 20 C       -6.8880   -10.0020     1.1070 C.3   1 <1>  -0.1600 
 21 C       -6.1930   -11.3520     1.3020 C.3   1 <1>  -0.2400 
 22 H       -1.4880    -4.1420     2.5120 H     1 <1>   0.3700 
 23 H        0.0000    -1.2780     0.0130 H     1 <1>   0.3700 
 24 H       -1.8460    -2.5200    -1.3770 H     1 <1>   0.1500 
 25 H       -5.2690    -3.3470    -0.3710 H     1 <1>   0.0800 
 26 H       -5.4520    -3.9440    -1.9860 H     1 <1>   0.0800 
 27 H       -3.6090    -5.7740    -2.8120 H     1 <1>   0.0800 
 28 H       -2.7060    -6.4800    -1.5130 H     1 <1>   0.0800 
 29 H       -6.5550    -4.9460     0.5150 H     1 <1>   0.0800 
 30 H       -4.3500    -8.0050    -1.3660 H     1 <1>   0.0800 
 31 H       -5.4270    -7.0750    -2.3650 H     1 <1>   0.0800 
 32 H       -4.8960    -6.5160     0.4710 H     1 <1>   0.4500 
 33 H       -7.2220    -5.6010    -2.3700 H     1 <1>   0.0800 
 34 H       -7.9950    -4.4130    -1.3490 H     1 <1>   0.0800 
 35 H       -6.9630    -7.3450     1.1440 H     1 <1>   0.0800 
 36 H       -8.6400    -8.2400    -0.3610 H     1 <1>   0.0800 
 37 H       -7.6140    -7.9850    -1.7490 H     1 <1>   0.0800 
 38 H       -5.8100    -9.4680    -0.6600 H     1 <1>   0.0800 
 39 H       -5.0580    -8.9470     0.8320 H     1 <1>   0.0800 
 40 H       -7.1090    -9.5830     2.0760 H     1 <1>   0.0800 
 41 H       -7.8210   -10.1690     0.5950 H     1 <1>   0.0800 
 42 H       -5.2710   -11.2330     1.8440 H     1 <1>   0.0800 
 43 H       -5.9810   -11.8140     0.3540 H     1 <1>   0.0800 
 44 H       -6.8290   -12.0150     1.8640 H     1 <1>   0.0800 
@<TRIPOS>BOND
  1   1   2  2   
  2   2   3  am  
  3   2   4  am  
  4   3   5  1   
  5   3  22  1   
  6   4   6  1   
  7   4  23  1   
  8   5   6  2   
  9   5   7  1   
 10   6  24  1   
 11   7   8  2   
 12   7   9  am  
 13   9  10  1   
 14   9  11  1   
 15  10  12  1   
 16  10  25  1   
 17  10  26  1   
 18  11  13  1   
 19  11  27  1   
 20  11  28  1   
 21  12  14  1   
 22  12  15  1   
 23  12  29  1   
 24  13  14  1   
 25  13  30  1   
 26  13  31  1   
 27  14  16  1   
 28  14  32  1   
 29  15  17  1   
 30  15  33  1   
 31  15  34  1   
 32  16  18  1   
 33  16  19  1   
 34  16  35  1   
 35  17  18  1   
 36  18  36  1   
 37  18  37  1   
 38  19  20  1   
 39  19  38  1   
 40  19  39  1   
 41  20  21  1   
 42  20  40  1   
 43  20  41  1   
 44  21  42  1   
 45  21  43  1   
 46  21  44  1   
@<TRIPOS>SUBSTRUCTURE
  1 ****   8 GROUP 4 **** **** 0

# MOE 2024.06 (io_trps.svl 2023.06)
