@<TRIPOS>MOLECULE
NONAME
52 55 1 0 0 
SMALL
USER_CHARGES


@<TRIPOS>ATOM
  1 F        1.0560     0.7860    -0.0180 F     1 <1>  -0.1900 
  2 C        1.7020    -0.3480     0.0340 C.ar  1 <1>   0.1900 
  3 C        1.3380    -1.3670    -0.8220 C.ar  1 <1>  -0.1500 
  4 C        2.7320    -0.4860     0.9410 C.ar  1 <1>  -0.1500 
  5 C        2.0250    -2.5730    -0.7870 C.ar  1 <1>  -0.1440 
  6 C        3.4080    -1.6910     0.9870 C.ar  1 <1>  -0.1500 
  7 C        3.0660    -2.7470     0.1390 C.ar  1 <1>  -0.0230 
  8 C        1.5870    -3.6450    -1.7820 C.3   1 <1>   0.2540 
  9 N        3.7850    -3.9690     0.2720 N.pl3 1 <1>   0.5930 
 10 N        0.4910    -4.4450    -1.2150 N.3   1 <1>  -0.8100 
 11 N        4.4810    -4.5740    -0.7260 N.2   1 <1>  -0.7070 
 12 C        3.9530    -4.6680     1.4230 C.2   1 <1>  -0.3020 
 13 C        0.9490    -5.4610    -0.2400 C.3   1 <1>   0.1100 
 14 C       -0.4470    -4.9570    -2.2160 C.3   1 <1>   0.1100 
 15 C        5.0720    -5.5900    -0.1820 C.2   1 <1>   0.1390 
 16 C        4.7760    -5.7060     1.1700 C.2   1 <1>  -0.1500 
 17 C        0.0710    -6.7380    -0.2000 C.3   1 <1>   0.4230 
 18 C       -1.7030    -5.4970    -1.5120 C.3   1 <1>  -0.1600 
 19 N        0.3650    -7.6370     0.9650 N.4   1 <1>  -0.9590 
 20 C       -1.4270    -6.3840    -0.2530 C.3   1 <1>  -0.1060 
 21 C       -0.3790    -8.9200     0.8940 C.3   1 <1>   0.3430 
 22 C        1.8040    -7.8120     1.2930 C.3   1 <1>   0.2630 
 23 C       -1.8270    -5.6520     1.0470 C.2   1 <1>   0.9060 
 24 C       -2.2320    -7.7030    -0.3670 C.3   1 <1>  -0.1600 
 25 C       -1.8840    -8.6690     0.7760 C.3   1 <1>  -0.1600 
 26 O       -1.0880    -5.7310     2.0460 O.co2 1 <1>  -0.9000 
 27 O       -2.9360    -5.1210     1.1180 O.co2 1 <1>  -0.9000 
 28 H        0.5210    -1.2150    -1.5040 H     1 <1>   0.1500 
 29 H        2.9890     0.3300     1.5920 H     1 <1>   0.1500 
 30 H        4.2130    -1.8100     1.6920 H     1 <1>   0.1500 
 31 H        2.4020    -4.2770    -2.0860 H     1 <1>   0.0800 
 32 H        1.2380    -3.1450    -2.6690 H     1 <1>   0.0800 
 33 H        3.4810    -4.3660     2.3410 H     1 <1>   0.1500 
 34 H        1.9480    -5.7650    -0.4930 H     1 <1>   0.0800 
 35 H        0.9590    -4.9990     0.7330 H     1 <1>   0.0800 
 36 H       -0.7410    -4.1620    -2.8810 H     1 <1>   0.0800 
 37 H        0.0240    -5.7290    -2.8000 H     1 <1>   0.0800 
 38 H        5.7200    -6.2600    -0.7250 H     1 <1>   0.1500 
 39 H        5.1480    -6.4620     1.8390 H     1 <1>   0.1500 
 40 H        0.2970    -7.2860    -1.0980 H     1 <1>   0.0800 
 41 H       -2.3030    -4.6490    -1.2290 H     1 <1>   0.0800 
 42 H       -2.2830    -6.0360    -2.2390 H     1 <1>   0.0800 
 43 H       -0.0850    -7.0720     1.7380 H     1 <1>   0.4500 
 44 H       -0.0430    -9.4820     0.0380 H     1 <1>   0.0800 
 45 H       -0.1880    -9.5010     1.7810 H     1 <1>   0.0800 
 46 H        2.3180    -8.2900     0.4760 H     1 <1>   0.0800 
 47 H        1.9090    -8.4180     2.1780 H     1 <1>   0.0800 
 48 H        2.2590    -6.8540     1.4830 H     1 <1>   0.0800 
 49 H       -3.2870    -7.4770    -0.3330 H     1 <1>   0.0800 
 50 H       -2.0260    -8.1800    -1.3090 H     1 <1>   0.0800 
 51 H       -2.3880    -9.6060     0.6180 H     1 <1>   0.0800 
 52 H       -2.2460    -8.2710     1.7100 H     1 <1>   0.0800 
@<TRIPOS>BOND
  1   1   2  1   
  2   2   3  ar  
  3   2   4  ar  
  4   3   5  ar  
  5   3  28  1   
  6   4   6  ar  
  7   4  29  1   
  8   5   7  ar  
  9   5   8  1   
 10   6   7  ar  
 11   6  30  1   
 12   7   9  1   
 13   8  10  1   
 14   8  31  1   
 15   8  32  1   
 16   9  11  1   
 17   9  12  1   
 18  10  13  1   
 19  10  14  1   
 20  11  15  2   
 21  12  16  2   
 22  12  33  1   
 23  13  17  1   
 24  13  34  1   
 25  13  35  1   
 26  14  18  1   
 27  14  36  1   
 28  14  37  1   
 29  15  16  1   
 30  15  38  1   
 31  16  39  1   
 32  17  19  1   
 33  17  20  1   
 34  17  40  1   
 35  18  20  1   
 36  18  41  1   
 37  18  42  1   
 38  19  21  1   
 39  19  22  1   
 40  19  43  1   
 41  20  23  1   
 42  20  24  1   
 43  21  25  1   
 44  21  44  1   
 45  21  45  1   
 46  22  46  1   
 47  22  47  1   
 48  22  48  1   
 49  23  26  ar  
 50  23  27  ar  
 51  24  25  1   
 52  24  49  1   
 53  24  50  1   
 54  25  51  1   
 55  25  52  1   
@<TRIPOS>SUBSTRUCTURE
  1 ****  13 GROUP 4 **** **** 0

# MOE 2024.06 (io_trps.svl 2023.06)
