@<TRIPOS>MOLECULE
NONAME
60 63 1 0 0 
SMALL
USER_CHARGES


@<TRIPOS>ATOM
  1 O       -0.8850     0.4930     2.0510 O.2   1 <1>  -0.5700 
  2 C       -1.6280     1.1350     1.3350 C.2   1 <1>   0.5440 
  3 N       -2.4630     0.4610     0.4740 N.am  1 <1>  -0.6600 
  4 C       -1.6030     2.5840     1.3920 C.ar  1 <1>   0.0860 
  5 C       -3.2080     1.0730    -0.6580 C.3   1 <1>   0.1400 
  6 C       -2.4260    -1.0170     0.3160 C.3   1 <1>   0.1400 
  7 C       -0.4220     3.2790     1.1620 C.ar  1 <1>  -0.1500 
  8 C       -2.7440     3.3280     1.6810 C.ar  1 <1>  -0.1500 
  9 C       -4.0470    -0.0740    -1.2190 C.3   1 <1>   0.2000 
 10 C       -3.1590    -1.3010    -1.0000 C.3   1 <1>  -0.0800 
 11 C       -0.3620     4.6640     1.1900 C.ar  1 <1>   0.1170 
 12 C       -2.7050     4.7100     1.7160 C.ar  1 <1>  -0.1500 
 13 O       -5.1910    -0.1840    -0.4420 O.3   1 <1>  -0.6800 
 14 C       -3.8830    -2.6590    -1.0290 C.3   1 <1>   0.0210 
 15 N        0.8730     5.2790     0.9530 N.am  1 <1>  -0.5470 
 16 C       -1.5220     5.3880     1.4730 C.ar  1 <1>  -0.1430 
 17 C       -2.9030    -3.7950    -0.8070 C.2   1 <1>   0.1080 
 18 C        1.2230     6.0850    -0.0930 C.2   1 <1>   0.5690 
 19 C       -1.5250     6.9110     1.5270 C.3   1 <1>  -0.0970 
 20 N       -1.9410    -4.0640    -1.6340 N.2   1 <1>  -0.7070 
 21 C       -2.9120    -4.6530     0.2870 C.2   1 <1>  -0.1500 
 22 O        0.4570     6.3650    -0.9830 O.2   1 <1>  -0.5700 
 23 C        2.6490     6.6350    -0.1220 C.3   1 <1>  -0.0190 
 24 N       -1.3030    -5.1130    -1.0830 N.pl3 1 <1>   0.3000 
 25 C       -1.8720    -5.4880     0.0830 C.2   1 <1>  -0.3320 
 26 C        2.7290     8.1630    -0.1650 C.3   1 <1>  -0.1600 
 27 C        3.4590     6.2060    -1.3470 C.3   1 <1>  -0.1600 
 28 C       -1.3790    -6.6370     0.9420 C.3   1 <1>  -0.0600 
 29 C        4.1360     8.4700    -0.6810 C.3   1 <1>  -0.1600 
 30 C        4.5980     7.2240    -1.4480 C.3   1 <1>  -0.1600 
 31 H       -3.8260     1.8960    -0.3470 H     1 <1>   0.0800 
 32 H       -2.5030     1.4100    -1.3990 H     1 <1>   0.0800 
 33 H       -1.4110    -1.3780     0.2820 H     1 <1>   0.0800 
 34 H       -2.9340    -1.4710     1.1500 H     1 <1>   0.0800 
 35 H        0.4690     2.7160     0.9490 H     1 <1>   0.1500 
 36 H       -3.6670     2.8150     1.8820 H     1 <1>   0.1500 
 37 H       -4.3370     0.0710    -2.2460 H     1 <1>   0.0800 
 38 H       -2.4160    -1.3080    -1.7780 H     1 <1>   0.0800 
 39 H       -3.6050     5.2570     1.9360 H     1 <1>   0.1500 
 40 H       -4.9210    -0.1840     0.4990 H     1 <1>   0.4000 
 41 H       -4.3560    -2.7940    -1.9850 H     1 <1>   0.0800 
 42 H       -4.6450    -2.7010    -0.2720 H     1 <1>   0.0800 
 43 H        1.6200     5.0170     1.5930 H     1 <1>   0.3700 
 44 H       -2.4010     7.2780     2.0300 H     1 <1>   0.0800 
 45 H       -1.5150     7.3090     0.5270 H     1 <1>   0.0800 
 46 H       -0.6600     7.2710     2.0520 H     1 <1>   0.0800 
 47 H       -3.6090    -4.6310     1.1060 H     1 <1>   0.1500 
 48 H        3.1750     6.3030     0.7560 H     1 <1>   0.0800 
 49 H       -0.4860    -5.5490    -1.5250 H     1 <1>   0.2700 
 50 H        2.0060     8.5400    -0.8690 H     1 <1>   0.0800 
 51 H        2.5430     8.6060     0.7980 H     1 <1>   0.0800 
 52 H        3.8230     5.1970    -1.2590 H     1 <1>   0.0800 
 53 H        2.8420     6.2810    -2.2270 H     1 <1>   0.0800 
 54 H       -1.9970    -6.7350     1.8170 H     1 <1>   0.0800 
 55 H       -0.3660    -6.4580     1.2570 H     1 <1>   0.0800 
 56 H       -1.4190    -7.5590     0.3900 H     1 <1>   0.0800 
 57 H        4.1290     9.3410    -1.3150 H     1 <1>   0.0800 
 58 H        4.8000     8.6500     0.1480 H     1 <1>   0.0800 
 59 H        5.4890     6.8280    -0.9900 H     1 <1>   0.0800 
 60 H        4.8120     7.4550    -2.4780 H     1 <1>   0.0800 
@<TRIPOS>BOND
  1   1   2  2   
  2   2   3  am  
  3   2   4  1   
  4   3   5  1   
  5   3   6  1   
  6   4   7  ar  
  7   4   8  ar  
  8   5   9  1   
  9   5  31  1   
 10   5  32  1   
 11   6  10  1   
 12   6  33  1   
 13   6  34  1   
 14   7  11  ar  
 15   7  35  1   
 16   8  12  ar  
 17   8  36  1   
 18   9  10  1   
 19   9  13  1   
 20   9  37  1   
 21  10  14  1   
 22  10  38  1   
 23  11  15  1   
 24  11  16  ar  
 25  12  16  ar  
 26  12  39  1   
 27  13  40  1   
 28  14  17  1   
 29  14  41  1   
 30  14  42  1   
 31  15  18  am  
 32  15  43  1   
 33  16  19  1   
 34  17  20  2   
 35  17  21  1   
 36  18  22  2   
 37  18  23  1   
 38  19  44  1   
 39  19  45  1   
 40  19  46  1   
 41  20  24  1   
 42  21  25  2   
 43  21  47  1   
 44  23  26  1   
 45  23  27  1   
 46  23  48  1   
 47  24  25  1   
 48  24  49  1   
 49  25  28  1   
 50  26  29  1   
 51  26  50  1   
 52  26  51  1   
 53  27  30  1   
 54  27  52  1   
 55  27  53  1   
 56  28  54  1   
 57  28  55  1   
 58  28  56  1   
 59  29  30  1   
 60  29  57  1   
 61  29  58  1   
 62  30  59  1   
 63  30  60  1   
@<TRIPOS>SUBSTRUCTURE
  1 ****   2 GROUP 4 **** **** 0

# MOE 2024.06 (io_trps.svl 2023.06)
