@<TRIPOS>MOLECULE
NONAME
57 58 1 0 0 
SMALL
USER_CHARGES


@<TRIPOS>ATOM
  1 S        0.1990     2.9080     0.6140 S.o2  1 <1>   1.3330 
  2 O       -0.1570     4.3040     0.6940 O.2   1 <1>  -0.6500 
  3 O        0.9940     2.4720    -0.5160 O.2   1 <1>  -0.6500 
  4 N       -1.1950     1.9560     0.7270 N.am  1 <1>  -0.8490 
  5 C        1.1340     2.4900     2.0910 C.3   1 <1>  -0.0550 
  6 C       -1.7650     1.6340    -0.5860 C.3   1 <1>   0.1160 
  7 C       -2.2350     2.5420     1.5830 C.3   1 <1>   0.1160 
  8 C        2.5360     3.1410     2.2300 C.3   1 <1>  -0.0800 
  9 C        2.5130     4.6720     2.1900 C.3   1 <1>   0.2000 
 10 C        3.5030     2.7700     1.1030 C.3   1 <1>   0.3430 
 11 O        3.5120     5.1360     3.0370 O.3   1 <1>  -0.6800 
 12 C        2.8420     5.0610     0.7400 C.3   1 <1>   0.3430 
 13 N        3.3340     3.8120     0.0570 N.4   1 <1>  -0.9590 
 14 C        4.5310     3.9870    -0.8340 C.3   1 <1>   0.3430 
 15 C        4.3080     4.9790    -1.9870 C.3   1 <1>   0.1200 
 16 O        4.1910     6.2820    -1.4620 O.3   1 <1>  -0.3630 
 17 C        3.4890     7.2020    -2.1700 C.ar  1 <1>   0.0820 
 18 C        2.5320     7.9760    -1.5140 C.ar  1 <1>   0.0820 
 19 C        3.7160     7.3870    -3.5280 C.ar  1 <1>  -0.1500 
 20 O        2.3140     7.7910    -0.1860 O.3   1 <1>  -0.3630 
 21 C        1.7910     8.9070    -2.2270 C.ar  1 <1>  -0.1500 
 22 C        2.9810     8.3280    -4.2300 C.ar  1 <1>  -0.1500 
 23 C        2.5070     8.8850     0.6840 C.3   1 <1>   0.2000 
 24 C        2.0190     9.0840    -3.5820 C.ar  1 <1>  -0.1500 
 25 C        4.0070     9.0510     0.9330 C.3   1 <1>  -0.2400 
 26 C        1.7580     8.5750     1.9780 C.3   1 <1>  -0.2400 
 27 H        0.5520     2.7650     2.9490 H     1 <1>   0.0800 
 28 H        1.2500     1.4230     2.1250 H     1 <1>   0.0800 
 29 H       -2.6310     1.0030    -0.4720 H     1 <1>   0.0800 
 30 H       -1.0430     1.1030    -1.1840 H     1 <1>   0.0800 
 31 H       -2.0500     2.5340    -1.1040 H     1 <1>   0.0800 
 32 H       -3.0620     1.8590     1.6800 H     1 <1>   0.0800 
 33 H       -2.5940     3.4670     1.1610 H     1 <1>   0.0800 
 34 H       -1.8440     2.7400     2.5660 H     1 <1>   0.0800 
 35 H        2.9400     2.8000     3.1690 H     1 <1>   0.0800 
 36 H        1.5810     5.0980     2.5240 H     1 <1>   0.0800 
 37 H        3.3020     1.7850     0.7110 H     1 <1>   0.0800 
 38 H        4.5120     2.8010     1.4810 H     1 <1>   0.0800 
 39 H        4.4110     4.9920     2.6830 H     1 <1>   0.4000 
 40 H        3.5820     5.8440     0.7280 H     1 <1>   0.0800 
 41 H        1.9550     5.4210     0.2430 H     1 <1>   0.0800 
 42 H        2.5440     3.4870    -0.5420 H     1 <1>   0.4500 
 43 H        5.3760     4.3200    -0.2540 H     1 <1>   0.0800 
 44 H        4.7840     3.0310    -1.2620 H     1 <1>   0.0800 
 45 H        3.4110     4.7330    -2.5310 H     1 <1>   0.0800 
 46 H        5.1490     4.9700    -2.6570 H     1 <1>   0.0800 
 47 H        4.4650     6.8150    -4.0420 H     1 <1>   0.1500 
 48 H        1.0340     9.4880    -1.7330 H     1 <1>   0.1500 
 49 H        3.1570     8.4740    -5.2830 H     1 <1>   0.1500 
 50 H        2.0990     9.7730     0.2330 H     1 <1>   0.0800 
 51 H        1.4450     9.8100    -4.1330 H     1 <1>   0.1500 
 52 H        4.4200     8.1530     1.3550 H     1 <1>   0.0800 
 53 H        4.1760     9.8620     1.6170 H     1 <1>   0.0800 
 54 H        4.5130     9.2790     0.0120 H     1 <1>   0.0800 
 55 H        2.1690     7.7050     2.4560 H     1 <1>   0.0800 
 56 H        0.7160     8.4140     1.7690 H     1 <1>   0.0800 
 57 H        1.8420     9.4060     2.6550 H     1 <1>   0.0800 
@<TRIPOS>BOND
  1   1   2  2   
  2   1   3  2   
  3   1   4  am  
  4   1   5  1   
  5   4   6  1   
  6   4   7  1   
  7   5   8  1   
  8   5  27  1   
  9   5  28  1   
 10   6  29  1   
 11   6  30  1   
 12   6  31  1   
 13   7  32  1   
 14   7  33  1   
 15   7  34  1   
 16   8   9  1   
 17   8  10  1   
 18   8  35  1   
 19   9  11  1   
 20   9  12  1   
 21   9  36  1   
 22  10  13  1   
 23  10  37  1   
 24  10  38  1   
 25  11  39  1   
 26  12  13  1   
 27  12  40  1   
 28  12  41  1   
 29  13  14  1   
 30  13  42  1   
 31  14  15  1   
 32  14  43  1   
 33  14  44  1   
 34  15  16  1   
 35  15  45  1   
 36  15  46  1   
 37  16  17  1   
 38  17  18  ar  
 39  17  19  ar  
 40  18  20  1   
 41  18  21  ar  
 42  19  22  ar  
 43  19  47  1   
 44  20  23  1   
 45  21  24  ar  
 46  21  48  1   
 47  22  24  ar  
 48  22  49  1   
 49  23  25  1   
 50  23  26  1   
 51  23  50  1   
 52  24  51  1   
 53  25  52  1   
 54  25  53  1   
 55  25  54  1   
 56  26  55  1   
 57  26  56  1   
 58  26  57  1   
@<TRIPOS>SUBSTRUCTURE
  1 ****  12 GROUP 4 **** **** 0

# MOE 2024.06 (io_trps.svl 2023.06)
