@<TRIPOS>MOLECULE
NONAME
41 42 1 0 0 
SMALL
USER_CHARGES


@<TRIPOS>ATOM
  1 CL      -0.7250    -0.1910    -1.4340 Cl    1 <1>  -0.1770 
  2 C       -1.5730     0.9270    -0.3790 C.ar  1 <1>   0.1770 
  3 C       -1.1580     2.2630    -0.3030 C.ar  1 <1>   0.4100 
  4 C       -2.6390     0.4790     0.3550 C.ar  1 <1>  -0.1500 
  5 N       -1.7660     3.1560     0.4740 N.ar  1 <1>  -0.6200 
  6 N       -0.0830     2.7170    -1.0490 N.pl3 1 <1>  -0.8690 
  7 C       -3.2870     1.4000     1.1730 C.ar  1 <1>  -0.1790 
  8 C       -2.7970     2.7030     1.1780 C.ar  1 <1>   0.1600 
  9 C        0.1210     4.1500    -1.3460 C.3   1 <1>   0.2090 
 10 C       -4.4250     1.0470     1.9910 C.2   1 <1>   0.9790 
 11 C        0.9530     4.7790    -0.2200 C.3   1 <1>  -0.0800 
 12 O       -4.8730    -0.1120     1.9810 O.co2 1 <1>  -0.9000 
 13 O       -4.9680     1.9010     2.7120 O.co2 1 <1>  -0.9000 
 14 C        1.1130     6.2880    -0.3790 C.3   1 <1>   0.3430 
 15 C        2.3740     4.2200    -0.1120 C.3   1 <1>  -0.1600 
 16 N        2.5810     6.5600    -0.3290 N.4   1 <1>  -0.9590 
 17 C        3.2000     5.3980     0.3620 C.3   1 <1>   0.3430 
 18 C        2.8850     7.8810     0.3140 C.3   1 <1>   0.3430 
 19 C        4.3690     8.2570     0.2310 C.3   1 <1>   0.1200 
 20 O        4.5090     9.5090     0.8100 O.3   1 <1>  -0.5600 
 21 C        5.8100    10.0090     0.8040 C.3   1 <1>   0.0400 
 22 H       -2.9750    -0.5430     0.3120 H     1 <1>   0.1500 
 23 H        0.2230     2.0610    -1.7750 H     1 <1>   0.4000 
 24 H       -3.3020     3.4150     1.8130 H     1 <1>   0.1500 
 25 H       -0.8380     4.6380    -1.4180 H     1 <1>   0.0800 
 26 H        0.6210     4.2500    -2.2930 H     1 <1>   0.0800 
 27 H        0.4370     4.6180     0.7120 H     1 <1>   0.0800 
 28 H        0.6080     6.7830     0.4360 H     1 <1>   0.0800 
 29 H        0.6930     6.6300    -1.3110 H     1 <1>   0.0800 
 30 H        2.7350     3.8910    -1.0710 H     1 <1>   0.0800 
 31 H        2.4230     3.3930     0.5760 H     1 <1>   0.0800 
 32 H        2.9250     6.5680    -1.2980 H     1 <1>   0.4500 
 33 H        4.2430     5.2840     0.1110 H     1 <1>   0.0800 
 34 H        3.0940     5.5050     1.4300 H     1 <1>   0.0800 
 35 H        2.5930     7.8550     1.3510 H     1 <1>   0.0800 
 36 H        2.3180     8.6560    -0.1760 H     1 <1>   0.0800 
 37 H        4.6920     8.3200    -0.7940 H     1 <1>   0.0800 
 38 H        4.9780     7.5610     0.7810 H     1 <1>   0.0800 
 39 H        5.8000    10.9770     1.2740 H     1 <1>   0.0800 
 40 H        6.1530    10.1080    -0.2120 H     1 <1>   0.0800 
 41 H        6.4530     9.3480     1.3590 H     1 <1>   0.0800 
@<TRIPOS>BOND
  1   1   2  1   
  2   2   3  ar  
  3   2   4  ar  
  4   3   5  ar  
  5   3   6  1   
  6   4   7  ar  
  7   4  22  1   
  8   5   8  ar  
  9   6   9  1   
 10   6  23  1   
 11   7   8  ar  
 12   7  10  1   
 13   8  24  1   
 14   9  11  1   
 15   9  25  1   
 16   9  26  1   
 17  10  12  ar  
 18  10  13  ar  
 19  11  14  1   
 20  11  15  1   
 21  11  27  1   
 22  14  16  1   
 23  14  28  1   
 24  14  29  1   
 25  15  17  1   
 26  15  30  1   
 27  15  31  1   
 28  16  17  1   
 29  16  18  1   
 30  16  32  1   
 31  17  33  1   
 32  17  34  1   
 33  18  19  1   
 34  18  35  1   
 35  18  36  1   
 36  19  20  1   
 37  19  37  1   
 38  19  38  1   
 39  20  21  1   
 40  21  39  1   
 41  21  40  1   
 42  21  41  1   
@<TRIPOS>SUBSTRUCTURE
  1 ****  11 GROUP 4 **** **** 0

# MOE 2024.06 (io_trps.svl 2023.06)
