@<TRIPOS>MOLECULE
NONAME
49 51 1 0 0 
SMALL
USER_CHARGES


@<TRIPOS>ATOM
  1 S       -1.1540     2.6040    -0.1610 S.3   1 <1>  -0.4600 
  2 C       -2.0920     1.1760     0.4570 C.3   1 <1>   0.2140 
  3 C        0.5450     1.9830    -0.2550 C.3   1 <1>   0.0700 
  4 C       -1.8040    -0.0220    -0.4370 C.ar  1 <1>  -0.1440 
  5 C        1.4410     3.1470    -0.6720 C.3   1 <1>  -0.1600 
  6 C       -1.1460    -1.1470     0.0360 C.ar  1 <1>   0.1900 
  7 C       -2.1940    -0.0130    -1.7690 C.ar  1 <1>  -0.1500 
  8 C        2.8890     2.6880    -0.8170 C.3   1 <1>   0.2090 
  9 F       -0.7560    -1.1900     1.2830 F     1 <1>  -0.1900 
 10 C       -0.8730    -2.2420    -0.7630 C.ar  1 <1>  -0.1500 
 11 C       -1.9280    -1.1000    -2.5880 C.ar  1 <1>  -0.1500 
 12 N        3.7140     3.8510    -1.1980 N.pl3 1 <1>  -0.8690 
 13 C       -1.2690    -2.2130    -2.0890 C.ar  1 <1>  -0.1500 
 14 C        4.6860     4.3300    -0.3610 C.ar  1 <1>   0.4100 
 15 N        4.5960     5.6240    -0.1450 N.ar  1 <1>  -0.6200 
 16 C        5.6800     3.5220     0.2100 C.ar  1 <1>   0.1600 
 17 C        5.5370     6.1010     0.6900 C.ar  1 <1>   0.3960 
 18 N        6.6120     3.9500     1.0360 N.ar  1 <1>  -0.6200 
 19 C        5.5900     7.5210     1.0530 C.2   1 <1>   0.5440 
 20 C        6.5000     5.2550     1.2530 C.ar  1 <1>   0.1600 
 21 O        6.0440     7.8300     2.1430 O.2   1 <1>  -0.5700 
 22 N        5.1870     8.5570     0.2270 N.am  1 <1>  -0.6600 
 23 C        4.6890     8.4260    -1.1630 C.3   1 <1>   0.1400 
 24 C        5.3580     9.9810     0.5890 C.3   1 <1>   0.1400 
 25 C        4.4430     9.8550    -1.6370 C.3   1 <1>  -0.1600 
 26 C        5.3160    10.7250    -0.7400 C.3   1 <1>  -0.1600 
 27 H       -3.1330     1.4430     0.4270 H     1 <1>   0.0800 
 28 H       -1.7890     1.0150     1.4770 H     1 <1>   0.0800 
 29 H        0.5590     1.1910    -0.9840 H     1 <1>   0.0800 
 30 H        0.8050     1.6020     0.7180 H     1 <1>   0.0800 
 31 H        1.3830     3.9200     0.0750 H     1 <1>   0.0800 
 32 H        1.0920     3.5370    -1.6120 H     1 <1>   0.0800 
 33 H       -2.7040     0.8460    -2.1740 H     1 <1>   0.1500 
 34 H        2.9640     1.9350    -1.5840 H     1 <1>   0.0800 
 35 H        3.2350     2.2710     0.1140 H     1 <1>   0.0800 
 36 H       -0.3620    -3.0950    -0.3540 H     1 <1>   0.1500 
 37 H       -2.2360    -1.0790    -3.6190 H     1 <1>   0.1500 
 38 H        3.1450     4.6230    -1.5550 H     1 <1>   0.4000 
 39 H       -1.0670    -3.0530    -2.7320 H     1 <1>   0.1500 
 40 H        5.6830     2.4790    -0.0470 H     1 <1>   0.1500 
 41 H        7.2210     5.6900     1.9230 H     1 <1>   0.1500 
 42 H        3.7780     7.8520    -1.1920 H     1 <1>   0.0800 
 43 H        5.4410     7.9480    -1.7670 H     1 <1>   0.0800 
 44 H        6.2890    10.1440     1.1060 H     1 <1>   0.0800 
 45 H        4.5380    10.2810     1.2190 H     1 <1>   0.0800 
 46 H        3.4060    10.0970    -1.4820 H     1 <1>   0.0800 
 47 H        4.6770     9.9750    -2.6800 H     1 <1>   0.0800 
 48 H        6.3140    10.7790    -1.1390 H     1 <1>   0.0800 
 49 H        4.9280    11.7220    -0.6280 H     1 <1>   0.0800 
@<TRIPOS>BOND
  1   1   2  1   
  2   1   3  1   
  3   2   4  1   
  4   2  27  1   
  5   2  28  1   
  6   3   5  1   
  7   3  29  1   
  8   3  30  1   
  9   4   6  ar  
 10   4   7  ar  
 11   5   8  1   
 12   5  31  1   
 13   5  32  1   
 14   6   9  1   
 15   6  10  ar  
 16   7  11  ar  
 17   7  33  1   
 18   8  12  1   
 19   8  34  1   
 20   8  35  1   
 21  10  13  ar  
 22  10  36  1   
 23  11  13  ar  
 24  11  37  1   
 25  12  14  1   
 26  12  38  1   
 27  13  39  1   
 28  14  15  ar  
 29  14  16  ar  
 30  15  17  ar  
 31  16  18  ar  
 32  16  40  1   
 33  17  19  1   
 34  17  20  ar  
 35  18  20  ar  
 36  19  21  2   
 37  19  22  am  
 38  20  41  1   
 39  22  23  1   
 40  22  24  1   
 41  23  25  1   
 42  23  42  1   
 43  23  43  1   
 44  24  26  1   
 45  24  44  1   
 46  24  45  1   
 47  25  26  1   
 48  25  46  1   
 49  25  47  1   
 50  26  48  1   
 51  26  49  1   
@<TRIPOS>SUBSTRUCTURE
  1 ****   8 GROUP 4 **** **** 0

# MOE 2024.06 (io_trps.svl 2023.06)
