@<TRIPOS>MOLECULE
NONAME
52 55 1 0 0 
SMALL
USER_CHARGES


@<TRIPOS>ATOM
  1 O       -2.2840     0.5170    -2.3530 O.2   1 <1>  -0.5700 
  2 C       -2.0960     0.9710    -1.2390 C.2   1 <1>   0.5440 
  3 N       -2.3010     0.1060    -0.1850 N.am  1 <1>  -0.6600 
  4 C       -1.7840     2.3790    -1.0720 C.ar  1 <1>   0.0860 
  5 C       -3.0190     0.5220     1.0510 C.3   1 <1>   0.1400 
  6 C       -2.2450    -1.3680    -0.3850 C.3   1 <1>   0.1400 
  7 C       -0.8780     2.8660    -0.1140 C.ar  1 <1>   0.0830 
  8 C       -2.4020     3.3140    -1.9070 C.ar  1 <1>  -0.1500 
  9 C       -4.4520    -0.0630     1.0690 C.3   1 <1>   0.4230 
 10 C       -3.6710    -1.9390    -0.4130 C.3   1 <1>   0.3430 
 11 O       -0.2470     1.9700     0.6850 O.3   1 <1>  -0.3630 
 12 C       -0.6360     4.2330     0.0040 C.ar  1 <1>  -0.1500 
 13 C       -2.1570     4.6670    -1.7900 C.ar  1 <1>  -0.1500 
 14 N       -4.4640    -1.5660     0.8240 N.4   1 <1>  -0.9590 
 15 C       -5.3490     0.6690     0.0430 C.3   1 <1>   0.1200 
 16 C        0.9400     2.2850     1.3850 C.3   1 <1>   0.0400 
 17 C       -1.2750     5.1380    -0.8330 C.ar  1 <1>   0.0830 
 18 C       -5.8840    -2.0540     0.7700 C.3   1 <1>   0.5180 
 19 O       -6.6440     0.1400     0.0690 O.3   1 <1>  -0.5600 
 20 O       -1.0920     6.4770    -0.7820 O.3   1 <1>  -0.3630 
 21 C       -5.8940    -3.5750     0.5130 C.3   1 <1>  -0.1950 
 22 C       -6.7260    -1.2260    -0.2330 C.3   1 <1>   0.1200 
 23 C       -0.1750     7.0770     0.1060 C.3   1 <1>   0.0400 
 24 C       -5.8880    -4.2160    -0.8450 C.3   1 <1>  -0.2000 
 25 C       -7.1070    -4.3100     0.0270 C.3   1 <1>  -0.2000 
 26 H       -2.4700     0.1760     1.9100 H     1 <1>   0.0800 
 27 H       -3.0680     1.5960     1.1140 H     1 <1>   0.0800 
 28 H       -1.7460    -1.6010    -1.3110 H     1 <1>   0.0800 
 29 H       -1.6770    -1.8190     0.4100 H     1 <1>   0.0800 
 30 H       -3.0830     2.9680    -2.6660 H     1 <1>   0.1500 
 31 H       -4.8690     0.1360     2.0420 H     1 <1>   0.0800 
 32 H       -3.6120    -3.0110    -0.5050 H     1 <1>   0.0800 
 33 H       -4.1630    -1.5590    -1.2930 H     1 <1>   0.0800 
 34 H        0.0450     4.5960     0.7450 H     1 <1>   0.1500 
 35 H       -2.6430     5.3710    -2.4430 H     1 <1>   0.1500 
 36 H       -4.0150    -2.0200     1.6240 H     1 <1>   0.4500 
 37 H       -4.9580     0.5840    -0.9570 H     1 <1>   0.0800 
 38 H       -5.4210     1.7140     0.2900 H     1 <1>   0.0800 
 39 H        1.3350     1.3750     1.7990 H     1 <1>   0.0800 
 40 H        0.7100     2.9750     2.1770 H     1 <1>   0.0800 
 41 H        1.6500     2.7090     0.6970 H     1 <1>   0.0800 
 42 H       -6.3310    -1.8990     1.7380 H     1 <1>   0.0800 
 43 H       -5.3590    -4.0890     1.2940 H     1 <1>   0.1000 
 44 H       -7.7620    -1.5050    -0.1640 H     1 <1>   0.0800 
 45 H       -6.3980    -1.3750    -1.2460 H     1 <1>   0.0800 
 46 H       -0.1980     8.1400    -0.0590 H     1 <1>   0.0800 
 47 H        0.8100     6.6970    -0.0990 H     1 <1>   0.0800 
 48 H       -0.4730     6.8600     1.1160 H     1 <1>   0.0800 
 49 H       -5.9770    -3.6340    -1.7480 H     1 <1>   0.1000 
 50 H       -5.3160    -5.1160    -1.0030 H     1 <1>   0.1000 
 51 H       -7.3450    -5.2670     0.4640 H     1 <1>   0.1000 
 52 H       -7.9940    -3.7910    -0.2950 H     1 <1>   0.1000 
@<TRIPOS>BOND
  1   1   2  2   
  2   2   3  am  
  3   2   4  1   
  4   3   5  1   
  5   3   6  1   
  6   4   7  ar  
  7   4   8  ar  
  8   5   9  1   
  9   5  26  1   
 10   5  27  1   
 11   6  10  1   
 12   6  28  1   
 13   6  29  1   
 14   7  11  1   
 15   7  12  ar  
 16   8  13  ar  
 17   8  30  1   
 18   9  14  1   
 19   9  15  1   
 20   9  31  1   
 21  10  14  1   
 22  10  32  1   
 23  10  33  1   
 24  11  16  1   
 25  12  17  ar  
 26  12  34  1   
 27  13  17  ar  
 28  13  35  1   
 29  14  18  1   
 30  14  36  1   
 31  15  19  1   
 32  15  37  1   
 33  15  38  1   
 34  16  39  1   
 35  16  40  1   
 36  16  41  1   
 37  17  20  1   
 38  18  21  1   
 39  18  22  1   
 40  18  42  1   
 41  19  22  1   
 42  20  23  1   
 43  21  24  1   
 44  21  25  1   
 45  21  43  1   
 46  22  44  1   
 47  22  45  1   
 48  23  46  1   
 49  23  47  1   
 50  23  48  1   
 51  24  25  1   
 52  24  49  1   
 53  24  50  1   
 54  25  51  1   
 55  25  52  1   
@<TRIPOS>SUBSTRUCTURE
  1 ****   3 GROUP 4 **** **** 0

# MOE 2024.06 (io_trps.svl 2023.06)
