@<TRIPOS>MOLECULE
Untitled Document
61 64 1 0 0 
SMALL
USER_CHARGES


@<TRIPOS>ATOM
  1 O       -3.3280     2.4830    -0.4150 O.3   1 <1>  -0.6800 
  2 C       -4.6240     2.9930    -0.4250 C.3   1 <1>   0.2000 
  3 C       -4.6210     4.3860     0.2540 C.3   1 <1>  -0.0800 
  4 C       -5.5640     2.0080     0.3130 C.3   1 <1>   0.3430 
  5 C       -6.0760     4.8860     0.4070 C.3   1 <1>  -0.1600 
  6 C       -3.7630     5.4410    -0.4840 C.3   1 <1>   0.3300 
  7 N       -6.9440     2.5700     0.4870 N.4   1 <1>  -0.9060 
  8 C       -6.9620     3.8920     1.1700 C.3   1 <1>   0.3430 
  9 N       -2.3360     5.0590    -0.4330 N.pl3 1 <1>  -0.7940 
 10 C       -1.2420     5.8330    -0.4720 C.cat 1 <1>   0.7390 
 11 N       -0.0560     5.2130    -0.3630 N.pl3 1 <1>  -0.6000 
 12 C       -1.2510     7.2280    -0.6200 C.2   1 <1>  -0.1800 
 13 C        1.1490     5.9360    -0.3940 C.2   1 <1>   0.1440 
 14 C       -0.0970     7.9890    -0.6540 C.2   1 <1>   0.0690 
 15 N        1.1310     7.3010    -0.5380 N.pl3 1 <1>   0.6010 
 16 C        2.4480     5.5610    -0.3050 C.2   1 <1>  -0.1810 
 17 N       -0.0950     9.3500    -0.7950 N.pl3 1 <1>  -0.8690 
 18 N        2.4000     7.7940    -0.5410 N.2   1 <1>  -0.7070 
 19 C        3.1630     6.7540    -0.4030 C.2   1 <1>   0.1390 
 20 C        3.0710     4.1840    -0.1360 C.3   1 <1>   0.1010 
 21 C       -1.2090    10.3210    -0.8380 C.3   1 <1>   0.3530 
 22 C        2.7110     3.2780    -1.3160 C.3   1 <1>  -0.2400 
 23 C        2.6370     3.5540     1.1910 C.3   1 <1>  -0.2400 
 24 C       -0.7040    11.6480    -0.3010 C.ar  1 <1>  -0.1440 
 25 C       -0.6030    12.7550    -1.1310 C.ar  1 <1>  -0.1500 
 26 C       -0.3380    11.7640     1.0320 C.ar  1 <1>  -0.1500 
 27 C       -0.1460    13.9630    -0.6330 C.ar  1 <1>  -0.1500 
 28 C        0.1190    12.9720     1.5310 C.ar  1 <1>  -0.1500 
 29 C        0.2140    14.0720     0.6980 C.ar  1 <1>  -0.1500 
 30 H       -3.2570     1.6490    -0.9360 H     1 <1>   0.4000 
 31 H       -4.9290     3.0800    -1.4550 H     1 <1>   0.0800 
 32 H       -4.2220     4.2780     1.2500 H     1 <1>   0.0800 
 33 H       -5.1450     1.8010     1.2850 H     1 <1>   0.0800 
 34 H       -5.6170     1.0830    -0.2380 H     1 <1>   0.0800 
 35 H       -6.5140     5.0810    -0.5580 H     1 <1>   0.0800 
 36 H       -6.0800     5.8160     0.9510 H     1 <1>   0.0800 
 37 H       -3.8950     6.4030    -0.0160 H     1 <1>   0.0800 
 38 H       -4.0760     5.5190    -1.5130 H     1 <1>   0.0800 
 39 H       -7.4150     2.6490    -0.4250 H     1 <1>   0.4500 
 40 H       -7.5110     1.9050     1.0350 H     1 <1>   0.4500 
 41 H       -7.9730     4.2690     1.2220 H     1 <1>   0.0800 
 42 H       -6.5950     3.7850     2.1800 H     1 <1>   0.0800 
 43 H       -2.2390     4.0330    -0.3790 H     1 <1>   0.4500 
 44 H        0.0040     4.2020    -0.2460 H     1 <1>   0.4500 
 45 H       -2.1940     7.7220    -0.7180 H     1 <1>   0.1500 
 46 H        0.8210     9.8340    -0.8050 H     1 <1>   0.4000 
 47 H        4.2400     6.8210    -0.3690 H     1 <1>   0.1500 
 48 H        4.1430     4.2960    -0.1170 H     1 <1>   0.0800 
 49 H       -1.5460    10.4340    -1.8540 H     1 <1>   0.0800 
 50 H       -2.0280     9.9780    -0.2320 H     1 <1>   0.0800 
 51 H        1.6540     3.0970    -1.3650 H     1 <1>   0.0800 
 52 H        3.2160     2.3320    -1.2230 H     1 <1>   0.0800 
 53 H        3.0250     3.7350    -2.2380 H     1 <1>   0.0800 
 54 H        1.5770     3.3850     1.2170 H     1 <1>   0.0800 
 55 H        2.9030     4.2010     2.0080 H     1 <1>   0.0800 
 56 H        3.1370     2.6120     1.3330 H     1 <1>   0.0800 
 57 H       -0.8760    12.6860    -2.1700 H     1 <1>   0.1500 
 58 H       -0.4020    10.9120     1.6860 H     1 <1>   0.1500 
 59 H       -0.0700    14.8190    -1.2820 H     1 <1>   0.1500 
 60 H        0.4030    13.0530     2.5650 H     1 <1>   0.1500 
 61 H        0.5700    15.0110     1.0850 H     1 <1>   0.1500 
@<TRIPOS>BOND
  1   1   2  1   
  2   1  30  1   
  3   2   3  1   
  4   2   4  1   
  5   2  31  1   
  6   3   5  1   
  7   3   6  1   
  8   3  32  1   
  9   4   7  1   
 10   4  33  1   
 11   4  34  1   
 12   5   8  1   
 13   5  35  1   
 14   5  36  1   
 15   6   9  1   
 16   6  37  1   
 17   6  38  1   
 18   7   8  1   
 19   7  39  1   
 20   7  40  1   
 21   8  41  1   
 22   8  42  1   
 23   9  10  ar  
 24   9  43  1   
 25  10  11  ar  
 26  10  12  1   
 27  11  13  1   
 28  11  44  1   
 29  12  14  2   
 30  12  45  1   
 31  13  15  1   
 32  13  16  2   
 33  14  15  1   
 34  14  17  1   
 35  15  18  1   
 36  16  19  1   
 37  16  20  1   
 38  17  21  1   
 39  17  46  1   
 40  18  19  2   
 41  19  47  1   
 42  20  22  1   
 43  20  23  1   
 44  20  48  1   
 45  21  24  1   
 46  21  49  1   
 47  21  50  1   
 48  22  51  1   
 49  22  52  1   
 50  22  53  1   
 51  23  54  1   
 52  23  55  1   
 53  23  56  1   
 54  24  25  ar  
 55  24  26  ar  
 56  25  27  ar  
 57  25  57  1   
 58  26  28  ar  
 59  26  58  1   
 60  27  29  ar  
 61  27  59  1   
 62  28  29  ar  
 63  28  60  1   
 64  29  61  1   
@<TRIPOS>SUBSTRUCTURE
  1 ****  12 GROUP 4 **** **** 0

# MOE 2024.06 (io_trps.svl 2023.06)
