@<TRIPOS>MOLECULE
NONAME
38 38 1 0 0 
SMALL
USER_CHARGES


@<TRIPOS>ATOM
  1 O        0.2620     0.1970    -2.6810 O.2   1 <1>  -0.5700 
  2 C        0.5700    -0.3460    -1.6460 C.2   1 <1>   0.5690 
  3 N        1.2240     0.2650    -0.6140 N.am  1 <1>  -0.4940 
  4 C        0.2230    -1.8210    -1.4660 C.3   1 <1>   0.1810 
  5 C        1.7830     1.5520    -0.4110 C.2   1 <1>  -0.0880 
  6 O        0.7170    -2.3170    -0.2420 O.3   1 <1>  -0.5600 
  7 N        1.4850     2.7250    -1.0390 N.pl3 1 <1>   0.3140 
  8 C        2.7500     1.8440     0.4930 C.2   1 <1>  -0.1810 
  9 C        0.4440    -3.6630    -0.0290 C.3   1 <1>   0.1200 
 10 N        2.2380     3.7420    -0.5640 N.2   1 <1>  -0.7070 
 11 C        0.4540     3.0050    -2.0460 C.3   1 <1>   0.0160 
 12 C        2.9890     3.2060     0.3420 C.2   1 <1>   0.1080 
 13 C        3.4370     0.8980     1.4640 C.3   1 <1>   0.0210 
 14 C        1.0410    -4.0490     1.3230 C.3   1 <1>  -0.1600 
 15 C        3.9970     4.0200     1.1220 C.3   1 <1>  -0.0590 
 16 C        4.6430     0.2340     0.7980 C.3   1 <1>  -0.2400 
 17 C        0.7880    -5.5260     1.6430 C.3   1 <1>  -0.2400 
 18 H        1.4270    -0.4090     0.1310 H     1 <1>   0.3700 
 19 H        0.6610    -2.3850    -2.2700 H     1 <1>   0.0800 
 20 H       -0.8450    -1.9360    -1.4810 H     1 <1>   0.0800 
 21 H        0.8940    -4.2400    -0.8200 H     1 <1>   0.0800 
 22 H       -0.6230    -3.8070    -0.0270 H     1 <1>   0.0800 
 23 H       -0.4510     2.4960    -1.7770 H     1 <1>   0.0800 
 24 H        0.8000     2.6630    -3.0030 H     1 <1>   0.0800 
 25 H        0.2760     4.0630    -2.0840 H     1 <1>   0.0800 
 26 H        2.7420     0.1420     1.7830 H     1 <1>   0.0800 
 27 H        3.7530     1.4390     2.3380 H     1 <1>   0.0800 
 28 H        0.5990    -3.4400     2.0920 H     1 <1>   0.0800 
 29 H        2.1020    -3.8670     1.3060 H     1 <1>   0.0800 
 30 H        4.9310     3.4950     1.1800 H     1 <1>   0.0800 
 31 H        3.6240     4.2030     2.1120 H     1 <1>   0.0800 
 32 H        4.1590     4.9630     0.6310 H     1 <1>   0.0800 
 33 H        4.3260    -0.3230    -0.0660 H     1 <1>   0.0800 
 34 H        5.1270    -0.4360     1.4860 H     1 <1>   0.0800 
 35 H        5.3500     0.9810     0.4830 H     1 <1>   0.0800 
 36 H       -0.2680    -5.7280     1.6820 H     1 <1>   0.0800 
 37 H        1.2170    -5.7730     2.5990 H     1 <1>   0.0800 
 38 H        1.2360    -6.1570     0.8950 H     1 <1>   0.0800 
@<TRIPOS>BOND
  1   1   2  2   
  2   2   3  am  
  3   2   4  1   
  4   3   5  1   
  5   3  18  1   
  6   4   6  1   
  7   4  19  1   
  8   4  20  1   
  9   5   7  1   
 10   5   8  2   
 11   6   9  1   
 12   7  10  1   
 13   7  11  1   
 14   8  12  1   
 15   8  13  1   
 16   9  14  1   
 17   9  21  1   
 18   9  22  1   
 19  10  12  2   
 20  11  23  1   
 21  11  24  1   
 22  11  25  1   
 23  12  15  1   
 24  13  16  1   
 25  13  26  1   
 26  13  27  1   
 27  14  17  1   
 28  14  28  1   
 29  14  29  1   
 30  15  30  1   
 31  15  31  1   
 32  15  32  1   
 33  16  33  1   
 34  16  34  1   
 35  16  35  1   
 36  17  36  1   
 37  17  37  1   
 38  17  38  1   
@<TRIPOS>SUBSTRUCTURE
  1 ****   3 GROUP 4 **** **** 0

# MOE 2024.06 (io_trps.svl 2023.06)
