@<TRIPOS>MOLECULE
NONAME
42 42 1 0 0 
SMALL
USER_CHARGES


@<TRIPOS>ATOM
  1 O       -0.7160    -1.5610     1.5710 O.2   1 <1>  -0.5700 
  2 C       -0.1700    -1.4180     0.4940 C.2   1 <1>   0.7800 
  3 O        1.0790    -1.8090     0.3030 O.3   1 <1>  -0.4300 
  4 N       -0.7910    -0.8780    -0.5700 N.am  1 <1>  -0.7300 
  5 C        1.8040    -2.3930     1.3610 C.3   1 <1>   0.2630 
  6 C       -2.2210    -0.4570    -0.5850 C.3   1 <1>   0.2810 
  7 C        3.1950    -2.7400     0.8590 C.ar  1 <1>  -0.1440 
  8 C       -3.1530    -1.6880    -0.6620 C.2   1 <1>   0.5690 
  9 C       -2.4570     0.6120    -1.6880 C.3   1 <1>  -0.0800 
 10 C        3.5060    -4.0400     0.4870 C.ar  1 <1>  -0.1500 
 11 C        4.1690    -1.7560     0.7680 C.ar  1 <1>  -0.1500 
 12 O       -3.7370    -1.9640    -1.6860 O.2   1 <1>  -0.5700 
 13 N       -3.2690    -2.4660     0.4490 N.am  1 <1>  -0.7300 
 14 C       -1.4200     1.7510    -1.6490 C.3   1 <1>  -0.2400 
 15 C       -3.8580     1.2390    -1.5660 C.3   1 <1>  -0.2400 
 16 C        4.7770    -4.3530     0.0360 C.ar  1 <1>  -0.1500 
 17 C        5.4390    -2.0680     0.3170 C.ar  1 <1>  -0.1500 
 18 C       -4.1000    -3.6750     0.5720 C.3   1 <1>   0.1400 
 19 C        5.7440    -3.3670    -0.0490 C.ar  1 <1>  -0.1500 
 20 C       -4.7980    -3.6460     1.9260 C.3   1 <1>  -0.2400 
 21 H       -0.3230    -0.9350    -1.4730 H     1 <1>   0.3700 
 22 H        1.2800    -3.2750     1.6880 H     1 <1>   0.0800 
 23 H        1.8570    -1.6870     2.1710 H     1 <1>   0.0800 
 24 H       -2.4230     0.0160     0.3600 H     1 <1>   0.0800 
 25 H       -2.3950     0.1250    -2.6470 H     1 <1>   0.0800 
 26 H        2.7600    -4.8130     0.5450 H     1 <1>   0.1500 
 27 H        3.9380    -0.7420     1.0460 H     1 <1>   0.1500 
 28 H       -2.6200    -2.2840     1.2280 H     1 <1>   0.3700 
 29 H       -1.4150     2.2250    -0.6840 H     1 <1>   0.0800 
 30 H       -1.6510     2.4930    -2.3940 H     1 <1>   0.0800 
 31 H       -0.4300     1.3830    -1.8550 H     1 <1>   0.0800 
 32 H       -3.9750     1.7330    -0.6180 H     1 <1>   0.0800 
 33 H       -4.6250     0.4900    -1.6590 H     1 <1>   0.0800 
 34 H       -4.0130     1.9610    -2.3490 H     1 <1>   0.0800 
 35 H        5.0130    -5.3630    -0.2510 H     1 <1>   0.1500 
 36 H        6.1900    -1.3000     0.2490 H     1 <1>   0.1500 
 37 H       -3.4730    -4.5480     0.4920 H     1 <1>   0.0800 
 38 H       -4.8290    -3.7030    -0.2210 H     1 <1>   0.0800 
 39 H        6.7320    -3.6100    -0.4000 H     1 <1>   0.1500 
 40 H       -4.0750    -3.6390     2.7220 H     1 <1>   0.0800 
 41 H       -5.4150    -4.5200     2.0320 H     1 <1>   0.0800 
 42 H       -5.4250    -2.7760     2.0000 H     1 <1>   0.0800 
@<TRIPOS>BOND
  1   1   2  2   
  2   2   3  1   
  3   2   4  am  
  4   3   5  1   
  5   4   6  1   
  6   4  21  1   
  7   5   7  1   
  8   5  22  1   
  9   5  23  1   
 10   6   8  1   
 11   6   9  1   
 12   6  24  1   
 13   7  10  ar  
 14   7  11  ar  
 15   8  12  2   
 16   8  13  am  
 17   9  14  1   
 18   9  15  1   
 19   9  25  1   
 20  10  16  ar  
 21  10  26  1   
 22  11  17  ar  
 23  11  27  1   
 24  13  18  1   
 25  13  28  1   
 26  14  29  1   
 27  14  30  1   
 28  14  31  1   
 29  15  32  1   
 30  15  33  1   
 31  15  34  1   
 32  16  19  ar  
 33  16  35  1   
 34  17  19  ar  
 35  17  36  1   
 36  18  20  1   
 37  18  37  1   
 38  18  38  1   
 39  19  39  1   
 40  20  40  1   
 41  20  41  1   
 42  20  42  1   
@<TRIPOS>SUBSTRUCTURE
  1 ****   2 GROUP 4 **** **** 0

# MOE 2024.06 (io_trps.svl 2023.06)
