@<TRIPOS>MOLECULE
NONAME
49 50 1 0 0 
SMALL
USER_CHARGES


@<TRIPOS>ATOM
  1 O        0.2980     1.5490    -2.7420 O.co2 1 <1>  -0.9000 
  2 C       -0.5710     1.6520    -1.8680 C.2   1 <1>   0.9060 
  3 O       -1.6440     1.0350    -1.9670 O.co2 1 <1>  -0.9000 
  4 C       -0.3390     2.5250    -0.6270 C.3   1 <1>  -0.1060 
  5 C       -1.6100     3.3720    -0.3910 C.3   1 <1>   0.2000 
  6 C        0.8290     3.5170    -0.9010 C.3   1 <1>   0.1100 
  7 C       -0.0720     1.5720     0.5820 C.3   1 <1>  -0.0170 
  8 O       -2.6900     2.5520    -0.1210 O.3   1 <1>  -0.6800 
  9 C       -1.4800     4.3850     0.7580 C.3   1 <1>  -0.1600 
 10 N        0.7040     4.8480    -0.2420 N.3   1 <1>  -0.8100 
 11 C        1.3590     1.0560     0.7230 C.ar  1 <1>  -0.1440 
 12 C       -0.0280     4.7980     1.0240 C.3   1 <1>   0.1100 
 13 C        2.0490     5.4760    -0.0830 C.3   1 <1>   0.1710 
 14 C        2.1580     1.4840     1.7730 C.ar  1 <1>  -0.1500 
 15 C        1.8770     0.1560    -0.1950 C.ar  1 <1>  -0.1500 
 16 C        2.0000     6.9890     0.1530 C.2   1 <1>   0.5690 
 17 C        3.4560     1.0190     1.9040 C.ar  1 <1>  -0.1500 
 18 C        3.1730    -0.3100    -0.0680 C.ar  1 <1>  -0.1500 
 19 O        2.8990     7.5280     0.7560 O.2   1 <1>  -0.5700 
 20 N        0.9160     7.6510    -0.3350 N.am  1 <1>  -0.7300 
 21 C        3.9650     0.1200     0.9830 C.ar  1 <1>  -0.1500 
 22 C        0.5390     9.0660    -0.2200 C.3   1 <1>   0.2200 
 23 C        1.6090     9.9490    -0.8560 C.3   1 <1>  -0.2400 
 24 C        0.3030     9.4140     1.2470 C.3   1 <1>  -0.2400 
 25 H       -1.8320     3.9010    -1.3030 H     1 <1>   0.0800 
 26 H        0.8720     3.7140    -1.9600 H     1 <1>   0.0800 
 27 H        1.7680     3.0590    -0.6490 H     1 <1>   0.0800 
 28 H       -0.3490     2.0510     1.5000 H     1 <1>   0.0800 
 29 H       -0.7260     0.7190     0.5000 H     1 <1>   0.0800 
 30 H       -2.6240     1.8120    -0.7950 H     1 <1>   0.4000 
 31 H       -2.0490     5.2600     0.5020 H     1 <1>   0.0800 
 32 H       -1.8880     3.9790     1.6650 H     1 <1>   0.0800 
 33 H        0.4510     4.0970     1.6840 H     1 <1>   0.0800 
 34 H       -0.0200     5.7620     1.5030 H     1 <1>   0.0800 
 35 H        2.5750     5.0090     0.7300 H     1 <1>   0.0800 
 36 H        2.6190     5.3170    -0.9800 H     1 <1>   0.0800 
 37 H        1.7730     2.1820     2.4930 H     1 <1>   0.1500 
 38 H        1.2710    -0.1800    -1.0220 H     1 <1>   0.1500 
 39 H        4.0680     1.3570     2.7200 H     1 <1>   0.1500 
 40 H        3.5590    -1.0040    -0.7930 H     1 <1>   0.1500 
 41 H        0.2100     7.0250    -0.7420 H     1 <1>   0.3700 
 42 H        4.9720    -0.2420     1.0800 H     1 <1>   0.1500 
 43 H       -0.3840     9.2070    -0.7590 H     1 <1>   0.0800 
 44 H        2.5360     9.8730    -0.3160 H     1 <1>   0.0800 
 45 H        1.2930    10.9760    -0.8390 H     1 <1>   0.0800 
 46 H        1.7700     9.6570    -1.8770 H     1 <1>   0.0800 
 47 H        1.2140     9.3160     1.8100 H     1 <1>   0.0800 
 48 H       -0.4440     8.7650     1.6660 H     1 <1>   0.0800 
 49 H       -0.0400    10.4290     1.3310 H     1 <1>   0.0800 
@<TRIPOS>BOND
  1   1   2  ar  
  2   2   3  ar  
  3   2   4  1   
  4   4   5  1   
  5   4   6  1   
  6   4   7  1   
  7   5   8  1   
  8   5   9  1   
  9   5  25  1   
 10   6  10  1   
 11   6  26  1   
 12   6  27  1   
 13   7  11  1   
 14   7  28  1   
 15   7  29  1   
 16   8  30  1   
 17   9  12  1   
 18   9  31  1   
 19   9  32  1   
 20  10  12  1   
 21  10  13  1   
 22  11  14  ar  
 23  11  15  ar  
 24  12  33  1   
 25  12  34  1   
 26  13  16  1   
 27  13  35  1   
 28  13  36  1   
 29  14  17  ar  
 30  14  37  1   
 31  15  18  ar  
 32  15  38  1   
 33  16  19  2   
 34  16  20  am  
 35  17  21  ar  
 36  17  39  1   
 37  18  21  ar  
 38  18  40  1   
 39  20  22  1   
 40  20  41  1   
 41  21  42  1   
 42  22  23  1   
 43  22  24  1   
 44  22  43  1   
 45  23  44  1   
 46  23  45  1   
 47  23  46  1   
 48  24  47  1   
 49  24  48  1   
 50  24  49  1   
@<TRIPOS>SUBSTRUCTURE
  1 ****   6 GROUP 4 **** **** 0

# MOE 2024.06 (io_trps.svl 2023.06)
