@<TRIPOS>MOLECULE
NONAME
46 48 1 0 0 
SMALL
USER_CHARGES


@<TRIPOS>ATOM
  1 F       -1.0530     1.6800    -1.5870 F     1 <1>  -0.1900 
  2 C       -0.9370     2.6140    -0.6810 C.ar  1 <1>   0.1900 
  3 C       -1.7840     2.5900     0.4150 C.ar  1 <1>  -0.1440 
  4 C        0.0180     3.5950    -0.8640 C.ar  1 <1>  -0.1500 
  5 C       -1.6580     3.5980     1.3610 C.ar  1 <1>  -0.1500 
  6 C       -2.8140     1.4900     0.5620 C.3   1 <1>   0.4870 
  7 C        0.1310     4.5940     0.0880 C.ar  1 <1>  -0.1500 
  8 C       -0.7050     4.5930     1.1940 C.ar  1 <1>  -0.1500 
  9 N       -4.1460     2.0180     0.1700 N.4   1 <1>  -0.9590 
 10 C       -5.2730     1.1260     0.5310 C.3   1 <1>   0.3430 
 11 C       -4.2100     2.4590    -1.2540 C.3   1 <1>   0.3430 
 12 C       -6.6000     1.8850     0.4040 C.3   1 <1>  -0.1600 
 13 C       -5.6160     2.9610    -1.6140 C.3   1 <1>  -0.1600 
 14 C       -6.5080     3.2100    -0.3840 C.3   1 <1>   0.2800 
 15 O       -5.8520     4.1230     0.4710 O.3   1 <1>  -0.5600 
 16 C       -7.9140     3.7340    -0.7740 C.3   1 <1>  -0.1600 
 17 C       -5.9880     5.4880     0.1770 C.3   1 <1>   0.1200 
 18 C       -8.4510     4.7810     0.2050 C.3   1 <1>   0.2800 
 19 C       -7.4510     5.9360     0.3250 C.3   1 <1>  -0.1600 
 20 O       -8.5430     4.1960     1.4400 O.3   1 <1>  -0.6800 
 21 C       -9.8540     5.2590    -0.1590 C.3   1 <1>  -0.2400 
 22 H        0.6590     3.5770    -1.7280 H     1 <1>   0.1500 
 23 H       -2.2880     3.6230     2.2340 H     1 <1>   0.1500 
 24 H       -2.8340     1.1620     1.5880 H     1 <1>   0.0800 
 25 H       -2.5500     0.6480    -0.0590 H     1 <1>   0.0800 
 26 H        0.8690     5.3700    -0.0300 H     1 <1>   0.1500 
 27 H       -0.6080     5.3730     1.9310 H     1 <1>   0.1500 
 28 H       -4.3170     2.8910     0.7030 H     1 <1>   0.4500 
 29 H       -5.1620     0.7720     1.5440 H     1 <1>   0.0800 
 30 H       -5.2800     0.2720    -0.1280 H     1 <1>   0.0800 
 31 H       -3.9330     1.6490    -1.9100 H     1 <1>   0.0800 
 32 H       -3.5060     3.2630    -1.4030 H     1 <1>   0.0800 
 33 H       -6.9970     2.0710     1.3860 H     1 <1>   0.0800 
 34 H       -7.2960     1.2250    -0.0810 H     1 <1>   0.0800 
 35 H       -6.0860     2.2230    -2.2380 H     1 <1>   0.0800 
 36 H       -5.5310     3.8500    -2.2110 H     1 <1>   0.0800 
 37 H       -8.6170     2.9260    -0.8650 H     1 <1>   0.0800 
 38 H       -7.8630     4.1920    -1.7450 H     1 <1>   0.0800 
 39 H       -5.6400     5.6600    -0.8260 H     1 <1>   0.0800 
 40 H       -5.3600     6.0400     0.8550 H     1 <1>   0.0800 
 41 H       -7.6450     6.6570    -0.4490 H     1 <1>   0.0800 
 42 H       -7.5920     6.4500     1.2600 H     1 <1>   0.0800 
 43 H       -7.6340     4.0980     1.7840 H     1 <1>   0.4000 
 44 H       -9.8540     5.7210    -1.1290 H     1 <1>   0.0800 
 45 H      -10.1990     5.9790     0.5610 H     1 <1>   0.0800 
 46 H      -10.5380     4.4290    -0.1780 H     1 <1>   0.0800 
@<TRIPOS>BOND
  1   1   2  1   
  2   2   3  ar  
  3   2   4  ar  
  4   3   5  ar  
  5   3   6  1   
  6   4   7  ar  
  7   4  22  1   
  8   5   8  ar  
  9   5  23  1   
 10   6   9  1   
 11   6  24  1   
 12   6  25  1   
 13   7   8  ar  
 14   7  26  1   
 15   8  27  1   
 16   9  10  1   
 17   9  11  1   
 18   9  28  1   
 19  10  12  1   
 20  10  29  1   
 21  10  30  1   
 22  11  13  1   
 23  11  31  1   
 24  11  32  1   
 25  12  14  1   
 26  12  33  1   
 27  12  34  1   
 28  13  14  1   
 29  13  35  1   
 30  13  36  1   
 31  14  15  1   
 32  14  16  1   
 33  15  17  1   
 34  16  18  1   
 35  16  37  1   
 36  16  38  1   
 37  17  19  1   
 38  17  39  1   
 39  17  40  1   
 40  18  19  1   
 41  18  20  1   
 42  18  21  1   
 43  19  41  1   
 44  19  42  1   
 45  20  43  1   
 46  21  44  1   
 47  21  45  1   
 48  21  46  1   
@<TRIPOS>SUBSTRUCTURE
  1 ****   9 GROUP 4 **** **** 0

# MOE 2024.06 (io_trps.svl 2023.06)
