@<TRIPOS>MOLECULE
NONAME
52 54 1 0 0 
SMALL
USER_CHARGES


@<TRIPOS>ATOM
  1 O        1.2920     0.6570    -1.1930 O.2   1 <1>  -0.5700 
  2 C        1.7930    -0.4030    -1.4860 C.2   1 <1>   0.5690 
  3 N        3.0810    -0.4400    -1.9840 N.am  1 <1>  -0.6600 
  4 C        0.9380    -1.6630    -1.2330 C.3   1 <1>   0.2610 
  5 C        3.9290    -1.6710    -2.0960 C.3   1 <1>   0.1400 
  6 C        3.7670     0.8190    -2.3960 C.3   1 <1>   0.1400 
  7 O        1.6520    -2.6570    -0.5080 O.3   1 <1>  -0.3630 
  8 C        0.4280    -2.3080    -2.5280 C.3   1 <1>  -0.2400 
  9 C        4.7020    -1.9530    -0.7890 C.3   1 <1>   0.3430 
 10 C        4.6660     1.3540    -1.2740 C.3   1 <1>  -0.1600 
 11 C        1.8760    -2.5580     0.8260 C.ar  1 <1>   0.0820 
 12 N        4.9260    -0.7170     0.0270 N.4   1 <1>  -0.9590 
 13 C        5.6660     0.3390    -0.7190 C.3   1 <1>   0.3430 
 14 C        2.4320    -3.6700     1.4400 C.ar  1 <1>  -0.1500 
 15 C        1.5890    -1.4270     1.5860 C.ar  1 <1>  -0.1500 
 16 C        5.5040    -1.0100     1.3720 C.3   1 <1>   0.5230 
 17 C        2.7050    -3.6610     2.7950 C.ar  1 <1>  -0.1500 
 18 C        1.8600    -1.4220     2.9430 C.ar  1 <1>  -0.1500 
 19 C        5.2960     0.1530     2.3340 C.2   1 <1>  -0.0400 
 20 C        2.4170    -2.5370     3.5480 C.ar  1 <1>  -0.1500 
 21 O        5.6840     1.3700     1.9960 O.3   1 <1>  -0.2800 
 22 C        4.7570     0.1660     3.5730 C.2   1 <1>  -0.1500 
 23 C        5.3940     2.1800     2.9930 C.2   1 <1>  -0.0400 
 24 C        4.8180     1.4970     4.0030 C.2   1 <1>  -0.1500 
 25 C        5.7290     3.6500     2.8640 C.3   1 <1>  -0.0600 
 26 H        0.0810    -1.3880    -0.6440 H     1 <1>   0.0800 
 27 H        4.6330    -1.5470    -2.9010 H     1 <1>   0.0800 
 28 H        3.3310    -2.5280    -2.3470 H     1 <1>   0.0800 
 29 H        3.0340     1.5680    -2.6490 H     1 <1>   0.0800 
 30 H        4.3500     0.6370    -3.2830 H     1 <1>   0.0800 
 31 H        1.2400    -2.6120    -3.1600 H     1 <1>   0.0800 
 32 H       -0.1720    -1.5970    -3.0680 H     1 <1>   0.0800 
 33 H       -0.1860    -3.1590    -2.2960 H     1 <1>   0.0800 
 34 H        5.6420    -2.4220    -1.0260 H     1 <1>   0.0800 
 35 H        4.1310    -2.6580    -0.2100 H     1 <1>   0.0800 
 36 H        4.0560     1.7410    -0.4760 H     1 <1>   0.0800 
 37 H        5.2190     2.1880    -1.6670 H     1 <1>   0.0800 
 38 H        3.9900    -0.3140     0.1990 H     1 <1>   0.4500 
 39 H        6.3490     0.8500    -0.0610 H     1 <1>   0.0800 
 40 H        6.2420    -0.0950    -1.5200 H     1 <1>   0.0800 
 41 H        2.6350    -4.5510     0.8560 H     1 <1>   0.1500 
 42 H        1.1480    -0.5460     1.1570 H     1 <1>   0.1500 
 43 H        6.5580    -1.2120     1.2820 H     1 <1>   0.0800 
 44 H        5.0250    -1.8810     1.7900 H     1 <1>   0.0800 
 45 H        3.1260    -4.5320     3.2690 H     1 <1>   0.1500 
 46 H        1.6280    -0.5500     3.5320 H     1 <1>   0.1500 
 47 H        2.6130    -2.5330     4.6080 H     1 <1>   0.1500 
 48 H        4.3570    -0.6440     4.1560 H     1 <1>   0.1500 
 49 H        4.4680     1.8650     4.9520 H     1 <1>   0.1500 
 50 H        5.2090     4.0710     2.0230 H     1 <1>   0.0800 
 51 H        6.7870     3.7720     2.7180 H     1 <1>   0.0800 
 52 H        5.4370     4.1770     3.7540 H     1 <1>   0.0800 
@<TRIPOS>BOND
  1   1   2  2   
  2   2   3  am  
  3   2   4  1   
  4   3   5  1   
  5   3   6  1   
  6   4   7  1   
  7   4   8  1   
  8   4  26  1   
  9   5   9  1   
 10   5  27  1   
 11   5  28  1   
 12   6  10  1   
 13   6  29  1   
 14   6  30  1   
 15   7  11  1   
 16   8  31  1   
 17   8  32  1   
 18   8  33  1   
 19   9  12  1   
 20   9  34  1   
 21   9  35  1   
 22  10  13  1   
 23  10  36  1   
 24  10  37  1   
 25  11  14  ar  
 26  11  15  ar  
 27  12  13  1   
 28  12  16  1   
 29  12  38  1   
 30  13  39  1   
 31  13  40  1   
 32  14  17  ar  
 33  14  41  1   
 34  15  18  ar  
 35  15  42  1   
 36  16  19  1   
 37  16  43  1   
 38  16  44  1   
 39  17  20  ar  
 40  17  45  1   
 41  18  20  ar  
 42  18  46  1   
 43  19  21  1   
 44  19  22  2   
 45  20  47  1   
 46  21  23  1   
 47  22  24  1   
 48  22  48  1   
 49  23  24  2   
 50  23  25  1   
 51  24  49  1   
 52  25  50  1   
 53  25  51  1   
 54  25  52  1   
@<TRIPOS>SUBSTRUCTURE
  1 ****  12 GROUP 4 **** **** 0

# MOE 2024.06 (io_trps.svl 2023.06)
