@<TRIPOS>MOLECULE
NONAME
50 52 1 0 0 
SMALL
USER_CHARGES


@<TRIPOS>ATOM
  1 S        0.9440     0.1840     0.9470 S.o2  1 <1>   1.3330 
  2 O        1.1210     0.8710     2.2070 O.2   1 <1>  -0.6500 
  3 O        1.0000    -1.2600     0.9090 O.2   1 <1>  -0.6500 
  4 N       -0.5470     0.6580     0.2900 N.am  1 <1>  -0.8490 
  5 C        2.1320     0.8460    -0.2180 C.3   1 <1>  -0.0550 
  6 C       -1.0100    -0.2100    -0.7970 C.3   1 <1>   0.1160 
  7 C       -1.5900     0.7770     1.3140 C.3   1 <1>   0.1160 
  8 C        3.5920     0.6530     0.2260 C.3   1 <1>  -0.0800 
  9 C        4.5780     1.2020    -0.7820 C.3   1 <1>   0.2200 
 10 C        4.0370    -0.8040     0.3510 C.3   1 <1>   0.1200 
 11 N        4.7660     2.6550    -0.5990 N.am  1 <1>  -0.7300 
 12 C        5.8310     0.3930    -0.4830 C.3   1 <1>   0.1200 
 13 O        5.3860    -0.8450    -0.0120 O.3   1 <1>  -0.5600 
 14 C        4.1620     3.6350    -1.3190 C.2   1 <1>   0.7160 
 15 O        3.3710     3.2830    -2.1730 O.2   1 <1>  -0.5700 
 16 C        4.4310     5.0410    -1.0740 C.2   1 <1>  -0.0860 
 17 C        5.4600     5.6280    -0.2700 C.2   1 <1>  -0.0860 
 18 C        3.7500     6.1160    -1.5780 C.2   1 <1>  -0.0400 
 19 C        6.5390     5.1100     0.5300 C.2   1 <1>   0.5950 
 20 C        5.2690     6.9650    -0.3880 C.2   1 <1>  -0.0400 
 21 O        4.2660     7.2440    -1.1650 O.3   1 <1>  -0.2800 
 22 C        2.5450     6.2390    -2.4930 C.3   1 <1>  -0.0600 
 23 O        6.7230     3.9480     0.7890 O.2   1 <1>  -0.5700 
 24 C        7.5350     6.1240     1.0860 C.3   1 <1>  -0.0990 
 25 C        6.0780     8.0640     0.2680 C.3   1 <1>   0.0200 
 26 C        6.8840     7.4790     1.4410 C.3   1 <1>  -0.1600 
 27 H        1.9880     0.3870    -1.1770 H     1 <1>   0.0800 
 28 H        1.9480     1.8970    -0.3320 H     1 <1>   0.0800 
 29 H       -1.9140     0.1860    -1.2280 H     1 <1>   0.0800 
 30 H       -1.2030    -1.2050    -0.4290 H     1 <1>   0.0800 
 31 H       -0.2640    -0.2670    -1.5710 H     1 <1>   0.0800 
 32 H       -2.5160     1.0960     0.8690 H     1 <1>   0.0800 
 33 H       -1.3010     1.5090     2.0490 H     1 <1>   0.0800 
 34 H       -1.7380    -0.1700     1.8070 H     1 <1>   0.0800 
 35 H        3.7460     1.1270     1.1810 H     1 <1>   0.0800 
 36 H        4.2580     0.9860    -1.7890 H     1 <1>   0.0800 
 37 H        3.5000    -1.4430    -0.3290 H     1 <1>   0.0800 
 38 H        3.9320    -1.1760     1.3560 H     1 <1>   0.0800 
 39 H        5.4630     2.9300     0.1060 H     1 <1>   0.3700 
 40 H        6.4120     0.8490     0.3000 H     1 <1>   0.0800 
 41 H        6.4340     0.2380    -1.3600 H     1 <1>   0.0800 
 42 H        2.1140     5.2860    -2.7290 H     1 <1>   0.0800 
 43 H        2.8370     6.7190    -3.4090 H     1 <1>   0.0800 
 44 H        1.7930     6.8390    -2.0150 H     1 <1>   0.0800 
 45 H        7.9990     5.7110     1.9640 H     1 <1>   0.0800 
 46 H        8.3020     6.2740     0.3480 H     1 <1>   0.0800 
 47 H        6.7380     8.4940    -0.4660 H     1 <1>   0.0800 
 48 H        5.4200     8.8360     0.6260 H     1 <1>   0.0800 
 49 H        6.2150     7.3280     2.2710 H     1 <1>   0.0800 
 50 H        7.6370     8.1820     1.7520 H     1 <1>   0.0800 
@<TRIPOS>BOND
  1   1   2  2   
  2   1   3  2   
  3   1   4  am  
  4   1   5  1   
  5   4   6  1   
  6   4   7  1   
  7   5   8  1   
  8   5  27  1   
  9   5  28  1   
 10   6  29  1   
 11   6  30  1   
 12   6  31  1   
 13   7  32  1   
 14   7  33  1   
 15   7  34  1   
 16   8   9  1   
 17   8  10  1   
 18   8  35  1   
 19   9  11  1   
 20   9  12  1   
 21   9  36  1   
 22  10  13  1   
 23  10  37  1   
 24  10  38  1   
 25  11  14  am  
 26  11  39  1   
 27  12  13  1   
 28  12  40  1   
 29  12  41  1   
 30  14  15  2   
 31  14  16  1   
 32  16  17  1   
 33  16  18  2   
 34  17  19  1   
 35  17  20  2   
 36  18  21  1   
 37  18  22  1   
 38  19  23  2   
 39  19  24  1   
 40  20  21  1   
 41  20  25  1   
 42  22  42  1   
 43  22  43  1   
 44  22  44  1   
 45  24  26  1   
 46  24  45  1   
 47  24  46  1   
 48  25  26  1   
 49  25  47  1   
 50  25  48  1   
 51  26  49  1   
 52  26  50  1   
@<TRIPOS>SUBSTRUCTURE
  1 ****  11 GROUP 4 **** **** 0

# MOE 2024.06 (io_trps.svl 2023.06)
