@<TRIPOS>MOLECULE
NONAME
53 56 1 0 0 
SMALL
USER_CHARGES


@<TRIPOS>ATOM
  1 O       -3.5450     1.3530    -1.8840 O.2   1 <1>  -0.5700 
  2 C       -2.7550     2.0490    -1.3080 C.2   1 <1>   0.6590 
  3 O       -2.9570     2.5480    -0.1060 O.3   1 <1>  -0.4300 
  4 C       -1.4000     2.4240    -1.8380 C.3   1 <1>  -0.0990 
  5 C       -1.8390     3.2460     0.3850 C.3   1 <1>   0.2800 
  6 C       -0.9720     3.5260    -0.8600 C.3   1 <1>  -0.0190 
  7 C       -1.1680     2.3480     1.4270 C.3   1 <1>  -0.1600 
  8 C       -2.3350     4.4290     1.2200 C.3   1 <1>  -0.1600 
  9 C       -1.2280     4.9250    -1.4080 C.2   1 <1>   0.5690 
 10 C       -2.0050     2.5020     2.7010 C.3   1 <1>  -0.1600 
 11 C       -2.7690     3.8250     2.5590 C.3   1 <1>  -0.1600 
 12 O       -2.1630     5.1160    -2.1460 O.2   1 <1>  -0.5700 
 13 N       -0.3630     5.9060    -1.0180 N.am  1 <1>  -0.4940 
 14 C       -0.2840     7.2990    -1.2250 C.2   1 <1>  -0.0880 
 15 N       -1.2500     8.1790    -1.6050 N.pl3 1 <1>   0.3140 
 16 C        0.8500     8.0240    -1.0070 C.2   1 <1>  -0.0540 
 17 N       -0.7780     9.4440    -1.6140 N.2   1 <1>  -0.7070 
 18 C       -2.6660     7.9390    -1.9110 C.3   1 <1>   0.0160 
 19 C        2.1550     7.5350    -0.6110 C.ar  1 <1>   0.0540 
 20 C        0.4600     9.3440    -1.2600 C.2   1 <1>   0.1080 
 21 C        2.3630     6.6800     0.4840 C.ar  1 <1>   0.0820 
 22 C        3.2730     7.8960    -1.3600 C.ar  1 <1>  -0.1500 
 23 C        1.3420    10.5660    -1.1350 C.3   1 <1>  -0.0590 
 24 O        1.3430     6.2510     1.2660 O.3   1 <1>  -0.3630 
 25 C        3.6290     6.2150     0.7970 C.ar  1 <1>  -0.1500 
 26 C        4.5390     7.4390    -1.0430 C.ar  1 <1>  -0.1500 
 27 C        0.7710     7.2080     2.1340 C.3   1 <1>   0.0400 
 28 C        4.7200     6.5960     0.0380 C.ar  1 <1>  -0.1500 
 29 H       -1.4620     2.7550    -2.8590 H     1 <1>   0.0800 
 30 H       -0.7550     1.5690    -1.7670 H     1 <1>   0.0800 
 31 H        0.0740     3.4360    -0.6310 H     1 <1>   0.0800 
 32 H       -0.1760     2.7150     1.6270 H     1 <1>   0.0800 
 33 H       -1.1010     1.3230     1.1060 H     1 <1>   0.0800 
 34 H       -3.1350     4.9600     0.7340 H     1 <1>   0.0800 
 35 H       -1.5210     5.1070     1.4030 H     1 <1>   0.0800 
 36 H       -1.3800     2.4980     3.5780 H     1 <1>   0.0800 
 37 H       -2.7100     1.6900     2.7730 H     1 <1>   0.0800 
 38 H       -3.8270     3.6240     2.5370 H     1 <1>   0.0800 
 39 H       -2.5600     4.4960     3.3750 H     1 <1>   0.0800 
 40 H        0.4040     5.5870    -0.4150 H     1 <1>   0.3700 
 41 H       -3.0890     7.2950    -1.1640 H     1 <1>   0.0800 
 42 H       -2.7430     7.4800    -2.8780 H     1 <1>   0.0800 
 43 H       -3.1910     8.8760    -1.9170 H     1 <1>   0.0800 
 44 H        3.1440     8.5380    -2.2140 H     1 <1>   0.1500 
 45 H        2.0890    10.4160    -0.3780 H     1 <1>   0.0800 
 46 H        0.7430    11.4170    -0.8650 H     1 <1>   0.0800 
 47 H        1.8190    10.7650    -2.0760 H     1 <1>   0.0800 
 48 H        3.7590     5.5560     1.6370 H     1 <1>   0.1500 
 49 H        5.3850     7.7360    -1.6390 H     1 <1>   0.1500 
 50 H        0.0770     6.7040     2.7820 H     1 <1>   0.0800 
 51 H        0.2540     7.9530     1.5560 H     1 <1>   0.0800 
 52 H        1.5530     7.6640     2.7150 H     1 <1>   0.0800 
 53 H        5.7050     6.2370     0.2860 H     1 <1>   0.1500 
@<TRIPOS>BOND
  1   1   2  2   
  2   2   3  1   
  3   2   4  1   
  4   3   5  1   
  5   4   6  1   
  6   4  29  1   
  7   4  30  1   
  8   5   6  1   
  9   5   7  1   
 10   5   8  1   
 11   6   9  1   
 12   6  31  1   
 13   7  10  1   
 14   7  32  1   
 15   7  33  1   
 16   8  11  1   
 17   8  34  1   
 18   8  35  1   
 19   9  12  2   
 20   9  13  am  
 21  10  11  1   
 22  10  36  1   
 23  10  37  1   
 24  11  38  1   
 25  11  39  1   
 26  13  14  1   
 27  13  40  1   
 28  14  15  1   
 29  14  16  2   
 30  15  17  1   
 31  15  18  1   
 32  16  19  1   
 33  16  20  1   
 34  17  20  2   
 35  18  41  1   
 36  18  42  1   
 37  18  43  1   
 38  19  21  ar  
 39  19  22  ar  
 40  20  23  1   
 41  21  24  1   
 42  21  25  ar  
 43  22  26  ar  
 44  22  44  1   
 45  23  45  1   
 46  23  46  1   
 47  23  47  1   
 48  24  27  1   
 49  25  28  ar  
 50  25  48  1   
 51  26  28  ar  
 52  26  49  1   
 53  27  50  1   
 54  27  51  1   
 55  27  52  1   
 56  28  53  1   
@<TRIPOS>SUBSTRUCTURE
  1 ****  13 GROUP 4 **** **** 0

# MOE 2024.06 (io_trps.svl 2023.06)
