@<TRIPOS>MOLECULE
NONAME
48 51 1 0 0 
SMALL
USER_CHARGES


@<TRIPOS>ATOM
  1 O       -1.4630    -1.6740     0.0850 O.2   1 <1>  -0.5700 
  2 C       -0.3340    -2.0160    -0.1920 C.2   1 <1>   0.7800 
  3 O        0.2390    -1.6870    -1.3390 O.3   1 <1>  -0.4300 
  4 N        0.4700    -2.7900     0.5660 N.am  1 <1>  -0.6600 
  5 C        1.5250    -2.2690    -1.4460 C.3   1 <1>   0.1200 
  6 C        1.7090    -3.0820    -0.1580 C.3   1 <1>   0.1400 
  7 C        0.0710    -3.5520     1.7890 C.3   1 <1>   0.2010 
  8 C       -0.0820    -5.0560     1.5340 C.2   1 <1>   0.5690 
  9 O        0.8380    -5.7610     1.8810 O.2   1 <1>  -0.5700 
 10 N       -1.1930    -5.5810     0.9180 N.am  1 <1>  -0.6600 
 11 C       -2.3640    -4.7850     0.4240 C.3   1 <1>   0.1400 
 12 C       -1.2750    -7.0330     0.5660 C.3   1 <1>   0.1400 
 13 C       -3.7040    -5.4520     0.7850 C.3   1 <1>   0.1900 
 14 C       -2.6450    -7.6280     0.9270 C.3   1 <1>   0.1100 
 15 N       -3.7460    -6.8570     0.3110 N.3   1 <1>  -0.8100 
 16 C       -4.8770    -4.6420     0.1960 C.3   1 <1>   0.1200 
 17 C       -5.0720    -7.4510     0.6050 C.3   1 <1>   0.3330 
 18 O       -6.0980    -5.2440     0.5190 O.3   1 <1>  -0.5600 
 19 C       -5.1920    -8.8530     0.0090 C.ar  1 <1>  -0.1440 
 20 C       -6.2040    -6.5620     0.0490 C.3   1 <1>   0.1200 
 21 C       -4.8100    -9.1040    -1.3020 C.ar  1 <1>  -0.1500 
 22 C       -5.6920    -9.8950     0.7760 C.ar  1 <1>  -0.1500 
 23 C       -4.9260   -10.3740    -1.8390 C.ar  1 <1>  -0.1500 
 24 C       -5.8090   -11.1670     0.2410 C.ar  1 <1>  -0.1500 
 25 C       -5.4260   -11.4070    -1.0670 C.ar  1 <1>  -0.1500 
 26 H        1.5520    -2.8950    -2.3200 H     1 <1>   0.0800 
 27 H        2.2540    -1.4830    -1.5260 H     1 <1>   0.0800 
 28 H        2.5680    -2.7500     0.3990 H     1 <1>   0.0800 
 29 H        1.7930    -4.1350    -0.3710 H     1 <1>   0.0800 
 30 H        0.8260    -3.4120     2.5400 H     1 <1>   0.0800 
 31 H       -0.8470    -3.1560     2.1820 H     1 <1>   0.0800 
 32 H       -2.3630    -3.8020     0.8510 H     1 <1>   0.0800 
 33 H       -2.2930    -4.6840    -0.6450 H     1 <1>   0.0800 
 34 H       -1.1150    -7.1460    -0.4920 H     1 <1>   0.0800 
 35 H       -0.5080    -7.5890     1.0770 H     1 <1>   0.0800 
 36 H       -3.8020    -5.4330     1.8570 H     1 <1>   0.0800 
 37 H       -2.7550    -7.6400     1.9980 H     1 <1>   0.0800 
 38 H       -2.6720    -8.6460     0.5780 H     1 <1>   0.0800 
 39 H       -4.7960    -4.5800    -0.8760 H     1 <1>   0.0800 
 40 H       -4.8860    -3.6460     0.6020 H     1 <1>   0.0800 
 41 H       -5.1970    -7.5130     1.6730 H     1 <1>   0.0800 
 42 H       -7.1590    -6.9460     0.3600 H     1 <1>   0.0800 
 43 H       -6.1730    -6.5460    -1.0260 H     1 <1>   0.0800 
 44 H       -4.4140    -8.3030    -1.9040 H     1 <1>   0.1500 
 45 H       -5.9940    -9.7240     1.7940 H     1 <1>   0.1500 
 46 H       -4.6260   -10.5570    -2.8560 H     1 <1>   0.1500 
 47 H       -6.1980   -11.9700     0.8420 H     1 <1>   0.1500 
 48 H       -5.5170   -12.3950    -1.4830 H     1 <1>   0.1500 
@<TRIPOS>BOND
  1   1   2  2   
  2   2   3  1   
  3   2   4  am  
  4   3   5  1   
  5   4   6  1   
  6   4   7  1   
  7   5   6  1   
  8   5  26  1   
  9   5  27  1   
 10   6  28  1   
 11   6  29  1   
 12   7   8  1   
 13   7  30  1   
 14   7  31  1   
 15   8   9  2   
 16   8  10  am  
 17  10  11  1   
 18  10  12  1   
 19  11  13  1   
 20  11  32  1   
 21  11  33  1   
 22  12  14  1   
 23  12  34  1   
 24  12  35  1   
 25  13  15  1   
 26  13  16  1   
 27  13  36  1   
 28  14  15  1   
 29  14  37  1   
 30  14  38  1   
 31  15  17  1   
 32  16  18  1   
 33  16  39  1   
 34  16  40  1   
 35  17  19  1   
 36  17  20  1   
 37  17  41  1   
 38  18  20  1   
 39  19  21  ar  
 40  19  22  ar  
 41  20  42  1   
 42  20  43  1   
 43  21  23  ar  
 44  21  44  1   
 45  22  24  ar  
 46  22  45  1   
 47  23  25  ar  
 48  23  46  1   
 49  24  25  ar  
 50  24  47  1   
 51  25  48  1   
@<TRIPOS>SUBSTRUCTURE
  1 ****  11 GROUP 4 **** **** 0

# MOE 2024.06 (io_trps.svl 2023.06)
