@<TRIPOS>MOLECULE
NONAME
45 47 1 0 0 
SMALL
USER_CHARGES


@<TRIPOS>ATOM
  1 O       -0.8130     0.4800     0.9860 O.2   1 <1>  -0.5700 
  2 C       -1.7580     0.6140     0.2540 C.2   1 <1>   0.4230 
  3 C       -3.0100    -0.0520     0.4840 C.ar  1 <1>   0.0860 
  4 C       -1.5450     1.4730    -0.9770 C.3   1 <1>  -0.1790 
  5 C       -4.2800     0.5010     0.3430 C.ar  1 <1>   0.1660 
  6 C       -2.9990    -1.3770     0.8850 C.ar  1 <1>   0.1600 
  7 N       -5.3720    -0.1990     0.5130 N.ar  1 <1>  -0.6200 
  8 C       -4.5080     1.9660     0.0100 C.3   1 <1>  -0.0960 
  9 N       -4.0780    -2.0940     1.0690 N.ar  1 <1>  -0.6200 
 10 C       -5.2410    -1.4790     0.8610 C.ar  1 <1>   0.7200 
 11 N       -6.3830    -2.2170     1.0280 N.pl3 1 <1>  -0.8380 
 12 C       -6.3260    -3.6970     1.2290 C.3   1 <1>   0.3530 
 13 C       -7.7410    -1.6170     1.1310 C.3   1 <1>   0.2090 
 14 C       -7.6010    -4.4260     0.7940 C.ar  1 <1>  -0.1430 
 15 C       -8.6530    -2.2520     0.0850 C.3   1 <1>  -0.0170 
 16 C       -8.6960    -3.7620     0.2570 C.ar  1 <1>  -0.1430 
 17 C       -7.6580    -5.8020     0.9410 C.ar  1 <1>  -0.1500 
 18 C       -9.8250    -4.4740    -0.1190 C.ar  1 <1>  -0.1500 
 19 C       -8.7760    -6.5270     0.5650 C.ar  1 <1>   0.0820 
 20 C       -9.8900    -5.8570     0.0350 C.ar  1 <1>   0.0820 
 21 O       -8.6800    -7.8740     0.7590 O.3   1 <1>  -0.3630 
 22 O      -11.0130    -6.5590    -0.3000 O.3   1 <1>  -0.3630 
 23 C       -9.2860    -8.7790    -0.1370 C.3   1 <1>   0.0400 
 24 C      -12.2150    -5.9200    -0.6670 C.3   1 <1>   0.0400 
 25 H       -2.2700     1.2440    -1.7350 H     1 <1>   0.0800 
 26 H       -0.5650     1.2830    -1.3760 H     1 <1>   0.0800 
 27 H       -1.6090     2.5120    -0.7130 H     1 <1>   0.0800 
 28 H       -2.0470    -1.8550     1.0510 H     1 <1>   0.1500 
 29 H       -3.7570     2.5860     0.4620 H     1 <1>   0.0800 
 30 H       -5.4640     2.2840     0.3880 H     1 <1>   0.0800 
 31 H       -4.5040     2.1070    -1.0550 H     1 <1>   0.0800 
 32 H       -6.1470    -3.8930     2.2720 H     1 <1>   0.0800 
 33 H       -5.5030    -4.1060     0.6680 H     1 <1>   0.0800 
 34 H       -7.7190    -0.5520     0.9870 H     1 <1>   0.0800 
 35 H       -8.1330    -1.8100     2.1150 H     1 <1>   0.0800 
 36 H       -8.2860    -2.0100    -0.8960 H     1 <1>   0.0800 
 37 H       -9.6400    -1.8390     0.1870 H     1 <1>   0.0800 
 38 H       -6.8220    -6.3370     1.3540 H     1 <1>   0.1500 
 39 H      -10.6490    -3.9270    -0.5330 H     1 <1>   0.1500 
 40 H       -8.7900    -9.7270    -0.0420 H     1 <1>   0.0800 
 41 H       -9.1810    -8.4050    -1.1400 H     1 <1>   0.0800 
 42 H      -10.3230    -8.8840     0.1250 H     1 <1>   0.0800 
 43 H      -12.9660    -6.6760    -0.8070 H     1 <1>   0.0800 
 44 H      -12.0600    -5.3850    -1.5870 H     1 <1>   0.0800 
 45 H      -12.5120    -5.2540     0.1240 H     1 <1>   0.0800 
@<TRIPOS>BOND
  1   1   2  2   
  2   2   3  1   
  3   2   4  1   
  4   3   5  ar  
  5   3   6  ar  
  6   4  25  1   
  7   4  26  1   
  8   4  27  1   
  9   5   7  ar  
 10   5   8  1   
 11   6   9  ar  
 12   6  28  1   
 13   7  10  ar  
 14   8  29  1   
 15   8  30  1   
 16   8  31  1   
 17   9  10  ar  
 18  10  11  1   
 19  11  12  1   
 20  11  13  1   
 21  12  14  1   
 22  12  32  1   
 23  12  33  1   
 24  13  15  1   
 25  13  34  1   
 26  13  35  1   
 27  14  16  ar  
 28  14  17  ar  
 29  15  16  1   
 30  15  36  1   
 31  15  37  1   
 32  16  18  ar  
 33  17  19  ar  
 34  17  38  1   
 35  18  20  ar  
 36  18  39  1   
 37  19  20  ar  
 38  19  21  1   
 39  20  22  1   
 40  21  23  1   
 41  22  24  1   
 42  23  40  1   
 43  23  41  1   
 44  23  42  1   
 45  24  43  1   
 46  24  44  1   
 47  24  45  1   
@<TRIPOS>SUBSTRUCTURE
  1 ****  11 GROUP 4 **** **** 0

# MOE 2024.06 (io_trps.svl 2023.06)
