@<TRIPOS>MOLECULE
NONAME
56 59 1 0 0 
SMALL
USER_CHARGES


@<TRIPOS>ATOM
  1 O       -4.6040     1.7950     0.4870 O.3   1 <1>  -0.3630 
  2 C       -3.9070     2.9530     0.4170 C.ar  1 <1>   0.0830 
  3 C       -4.9550     1.2160     1.7250 C.3   1 <1>   0.0400 
  4 C       -3.4770     3.3460    -0.8390 C.ar  1 <1>  -0.1500 
  5 C       -3.6120     3.7500     1.5190 C.ar  1 <1>  -0.1500 
  6 C       -2.7780     4.5260    -1.0030 C.ar  1 <1>  -0.1500 
  7 C       -2.9100     4.9280     1.3500 C.ar  1 <1>  -0.1500 
  8 C       -2.4930     5.3410     0.0880 C.ar  1 <1>   0.0530 
  9 C       -1.8220     6.5950    -0.0960 C.2   1 <1>  -0.2050 
 10 N       -0.5790     6.8760     0.3660 N.pl3 1 <1>   0.3000 
 11 C       -2.2400     7.7270    -0.7260 C.2   1 <1>  -0.1810 
 12 N       -0.2020     8.1320     0.0680 N.2   1 <1>  -0.7070 
 13 C       -1.1980     8.6310    -0.5930 C.2   1 <1>   0.1390 
 14 C       -3.5540     7.9990    -1.4290 C.3   1 <1>   0.5240 
 15 N       -4.6660     7.4260    -0.6270 N.4   1 <1>  -0.9590 
 16 C       -5.9870     7.5310    -1.3210 C.3   1 <1>   0.3430 
 17 C       -4.7460     8.0470     0.7190 C.3   1 <1>   0.3430 
 18 C       -7.0510     6.5320    -0.7160 C.3   1 <1>   0.0000 
 19 C       -5.9780     7.5090     1.4400 C.3   1 <1>  -0.1600 
 20 C       -8.1750     5.5440    -0.1580 C.3   1 <1>   0.2000 
 21 C       -7.2270     7.5230     0.5340 C.3   1 <1>  -0.1600 
 22 C       -6.7860     5.5610    -1.9480 C.3   1 <1>  -0.1600 
 23 O       -9.4170     6.1670    -0.3580 O.3   1 <1>  -0.5600 
 24 C       -8.2620     4.1730    -0.8210 C.3   1 <1>  -0.1600 
 25 C       -6.9970     4.1040    -1.5920 C.3   1 <1>  -0.1600 
 26 C      -10.4560     5.7320     0.4680 C.3   1 <1>   0.0400 
 27 H       -5.4440     0.2790     1.5280 H     1 <1>   0.0800 
 28 H       -5.6260     1.8760     2.2440 H     1 <1>   0.0800 
 29 H       -4.0600     1.0450     2.2970 H     1 <1>   0.0800 
 30 H       -3.6930     2.7140    -1.6830 H     1 <1>   0.1500 
 31 H       -3.9210     3.4630     2.5080 H     1 <1>   0.1500 
 32 H       -2.4420     4.8130    -1.9840 H     1 <1>   0.1500 
 33 H       -2.6830     5.5370     2.2080 H     1 <1>   0.1500 
 34 H        0.0320     6.2250     0.8770 H     1 <1>   0.2700 
 35 H       -1.1860     9.6390    -0.9790 H     1 <1>   0.1500 
 36 H       -3.5320     7.5460    -2.4060 H     1 <1>   0.0800 
 37 H       -3.6920     9.0620    -1.5460 H     1 <1>   0.0800 
 38 H       -4.4490     6.4270    -0.4910 H     1 <1>   0.4500 
 39 H       -6.3380     8.5470    -1.2500 H     1 <1>   0.0800 
 40 H       -5.8470     7.3960    -2.3810 H     1 <1>   0.0800 
 41 H       -3.8570     7.8320     1.2910 H     1 <1>   0.0800 
 42 H       -4.8360     9.1170     0.6190 H     1 <1>   0.0800 
 43 H       -5.7830     6.5050     1.7760 H     1 <1>   0.0800 
 44 H       -6.1560     8.1120     2.3140 H     1 <1>   0.0800 
 45 H       -8.0370     5.3480     0.8940 H     1 <1>   0.0800 
 46 H       -7.4500     8.5330     0.2250 H     1 <1>   0.0800 
 47 H       -8.0490     7.3410     1.2090 H     1 <1>   0.0800 
 48 H       -7.4760     5.8180    -2.7380 H     1 <1>   0.0800 
 49 H       -5.7940     5.5500    -2.3780 H     1 <1>   0.0800 
 50 H       -8.3260     3.3760    -0.1020 H     1 <1>   0.0800 
 51 H       -9.0960     4.1220    -1.5020 H     1 <1>   0.0800 
 52 H       -6.2030     3.7480    -0.9600 H     1 <1>   0.0800 
 53 H       -7.0840     3.4710    -2.4590 H     1 <1>   0.0800 
 54 H      -11.3350     6.3030     0.2250 H     1 <1>   0.0800 
 55 H      -10.1890     5.9010     1.4970 H     1 <1>   0.0800 
 56 H      -10.6480     4.6880     0.2930 H     1 <1>   0.0800 
@<TRIPOS>BOND
  1   1   2  1   
  2   1   3  1   
  3   2   4  ar  
  4   2   5  ar  
  5   3  27  1   
  6   3  28  1   
  7   3  29  1   
  8   4   6  ar  
  9   4  30  1   
 10   5   7  ar  
 11   5  31  1   
 12   6   8  ar  
 13   6  32  1   
 14   7   8  ar  
 15   7  33  1   
 16   8   9  1   
 17   9  10  1   
 18   9  11  2   
 19  10  12  1   
 20  10  34  1   
 21  11  13  1   
 22  11  14  1   
 23  12  13  2   
 24  13  35  1   
 25  14  15  1   
 26  14  36  1   
 27  14  37  1   
 28  15  16  1   
 29  15  17  1   
 30  15  38  1   
 31  16  18  1   
 32  16  39  1   
 33  16  40  1   
 34  17  19  1   
 35  17  41  1   
 36  17  42  1   
 37  18  20  1   
 38  18  21  1   
 39  18  22  1   
 40  19  21  1   
 41  19  43  1   
 42  19  44  1   
 43  20  23  1   
 44  20  24  1   
 45  20  45  1   
 46  21  46  1   
 47  21  47  1   
 48  22  25  1   
 49  22  48  1   
 50  22  49  1   
 51  23  26  1   
 52  24  25  1   
 53  24  50  1   
 54  24  51  1   
 55  25  52  1   
 56  25  53  1   
 57  26  54  1   
 58  26  55  1   
 59  26  56  1   
@<TRIPOS>SUBSTRUCTURE
  1 ****  15 GROUP 4 **** **** 0

# MOE 2024.06 (io_trps.svl 2023.06)
