@<TRIPOS>MOLECULE
NONAME
50 52 1 0 0 
SMALL
USER_CHARGES


@<TRIPOS>ATOM
  1 O       -3.4580     1.2790    -1.3470 O.2   1 <1>  -0.5700 
  2 C       -2.6440     1.0330    -0.4870 C.2   1 <1>   0.5690 
  3 N       -2.2060    -0.2400    -0.3040 N.am  1 <1>  -0.7300 
  4 C       -2.1170     2.1760     0.4190 C.3   1 <1>   0.0610 
  5 C       -2.6820    -1.4060    -1.0770 C.3   1 <1>   0.2200 
  6 C       -1.3730     3.2360    -0.4320 C.3   1 <1>  -0.1600 
  7 C       -3.3130     2.8680     1.1050 C.3   1 <1>  -0.2400 
  8 C       -1.1880     1.6640     1.5470 C.3   1 <1>  -0.2400 
  9 C       -3.8610    -2.0270    -0.3520 C.3   1 <1>  -0.0800 
 10 C       -1.6520    -2.5280    -1.0230 C.3   1 <1>   0.1200 
 11 C       -0.1530     2.7100    -1.2060 C.3   1 <1>  -0.2400 
 12 C       -3.1730    -2.9510     0.6580 C.3   1 <1>   0.1200 
 13 C       -4.7790    -2.7950    -1.3230 C.3   1 <1>  -0.0170 
 14 O       -1.8940    -3.2270     0.1620 O.3   1 <1>  -0.5600 
 15 C       -6.0330    -3.3030    -0.6200 C.ar  1 <1>  -0.1440 
 16 C       -7.1050    -2.4450    -0.2740 C.ar  1 <1>   0.0000 
 17 C       -6.1540    -4.6240    -0.3010 C.ar  1 <1>  -0.1500 
 18 C       -8.2150    -3.0180     0.3930 C.ar  1 <1>   0.3100 
 19 C       -7.1420    -1.0580    -0.5500 C.ar  1 <1>  -0.1500 
 20 C       -7.3000    -5.0890     0.3550 C.ar  1 <1>   0.1600 
 21 N       -8.2970    -4.3370     0.7000 N.ar  1 <1>  -0.6200 
 22 C       -9.2890    -2.1900     0.7590 C.ar  1 <1>  -0.1500 
 23 C       -8.2060    -0.2800    -0.1820 C.ar  1 <1>  -0.1500 
 24 C       -9.2940    -0.8500     0.4820 C.ar  1 <1>  -0.1500 
 25 H       -1.5780    -0.4590     0.4700 H     1 <1>   0.3700 
 26 H       -2.9110    -1.1090    -2.0870 H     1 <1>   0.0800 
 27 H       -2.0660     3.6470    -1.1470 H     1 <1>   0.0800 
 28 H       -1.0560     4.0470     0.2020 H     1 <1>   0.0800 
 29 H       -2.9810     3.6670     1.7440 H     1 <1>   0.0800 
 30 H       -3.8660     2.1600     1.6960 H     1 <1>   0.0800 
 31 H       -3.9800     3.2790     0.3670 H     1 <1>   0.0800 
 32 H       -0.8270     2.4880     2.1370 H     1 <1>   0.0800 
 33 H       -0.3380     1.1430     1.1470 H     1 <1>   0.0800 
 34 H       -1.7210     0.9950     2.1990 H     1 <1>   0.0800 
 35 H       -4.4380    -1.2770     0.1580 H     1 <1>   0.0800 
 36 H       -0.6400    -2.1640    -1.0300 H     1 <1>   0.0800 
 37 H       -1.7970    -3.2140    -1.8400 H     1 <1>   0.0800 
 38 H       -0.4320     1.9010    -1.8570 H     1 <1>   0.0800 
 39 H        0.6180     2.3730    -0.5370 H     1 <1>   0.0800 
 40 H        0.2560     3.4990    -1.8120 H     1 <1>   0.0800 
 41 H       -3.6990    -3.8780     0.8080 H     1 <1>   0.0800 
 42 H       -3.0520    -2.4530     1.6040 H     1 <1>   0.0800 
 43 H       -4.2430    -3.6240    -1.7510 H     1 <1>   0.0800 
 44 H       -5.0700    -2.1560    -2.1380 H     1 <1>   0.0800 
 45 H       -5.3840    -5.3350    -0.5380 H     1 <1>   0.1500 
 46 H       -6.3190    -0.5930    -1.0630 H     1 <1>   0.1500 
 47 H       -7.3540    -6.1390     0.5890 H     1 <1>   0.1500 
 48 H      -10.1160    -2.6520     1.2660 H     1 <1>   0.1500 
 49 H       -8.2170     0.7750    -0.3980 H     1 <1>   0.1500 
 50 H      -10.1250    -0.2280     0.7680 H     1 <1>   0.1500 
@<TRIPOS>BOND
  1   1   2  2   
  2   2   3  am  
  3   2   4  1   
  4   3   5  1   
  5   3  25  1   
  6   4   6  1   
  7   4   7  1   
  8   4   8  1   
  9   5   9  1   
 10   5  10  1   
 11   5  26  1   
 12   6  11  1   
 13   6  27  1   
 14   6  28  1   
 15   7  29  1   
 16   7  30  1   
 17   7  31  1   
 18   8  32  1   
 19   8  33  1   
 20   8  34  1   
 21   9  12  1   
 22   9  13  1   
 23   9  35  1   
 24  10  14  1   
 25  10  36  1   
 26  10  37  1   
 27  11  38  1   
 28  11  39  1   
 29  11  40  1   
 30  12  14  1   
 31  12  41  1   
 32  12  42  1   
 33  13  15  1   
 34  13  43  1   
 35  13  44  1   
 36  15  16  ar  
 37  15  17  ar  
 38  16  18  ar  
 39  16  19  ar  
 40  17  20  ar  
 41  17  45  1   
 42  18  21  ar  
 43  18  22  ar  
 44  19  23  ar  
 45  19  46  1   
 46  20  21  ar  
 47  20  47  1   
 48  22  24  ar  
 49  22  48  1   
 50  23  24  ar  
 51  23  49  1   
 52  24  50  1   
@<TRIPOS>SUBSTRUCTURE
  1 ****   9 GROUP 4 **** **** 0

# MOE 2024.06 (io_trps.svl 2023.06)
