@<TRIPOS>MOLECULE
NONAME
47 49 1 0 0 
SMALL
USER_CHARGES


@<TRIPOS>ATOM
  1 CL      -2.1480    -0.3560     0.4850 Cl    1 <1>  -0.1770 
  2 C       -1.5270    -1.9840     0.3920 C.ar  1 <1>   0.1770 
  3 C       -1.9970    -2.8300    -0.5940 C.ar  1 <1>  -0.1500 
  4 C       -0.5760    -2.3990     1.3050 C.ar  1 <1>  -0.1500 
  5 C       -1.5100    -4.1270    -0.6740 C.ar  1 <1>  -0.1440 
  6 C       -0.0870    -3.6910     1.2250 C.ar  1 <1>  -0.1500 
  7 C       -0.5520    -4.5480     0.2390 C.ar  1 <1>  -0.1500 
  8 C       -2.0160    -5.0820    -1.7520 C.3   1 <1>   0.0450 
  9 C       -2.4550    -6.4340    -1.2000 C.2   1 <1>   0.5690 
 10 O       -1.8330    -7.4070    -1.5590 O.2   1 <1>  -0.5700 
 11 N       -3.5270    -6.5590    -0.3520 N.am  1 <1>  -0.6600 
 12 C       -3.8860    -7.8760     0.2550 C.3   1 <1>   0.1400 
 13 C       -4.5000    -5.4810    -0.0120 C.3   1 <1>   0.1400 
 14 C       -5.2610    -8.3240    -0.2920 C.3   1 <1>   0.4230 
 15 C       -5.8870    -5.8980    -0.5240 C.3   1 <1>  -0.1600 
 16 N       -5.6980    -9.6870     0.1640 N.4   1 <1>  -0.9590 
 17 C       -6.3380    -7.2710     0.0550 C.3   1 <1>  -0.1060 
 18 C       -6.9580   -10.1180    -0.4930 C.3   1 <1>   0.3430 
 19 C       -4.6480   -10.7400     0.1310 C.3   1 <1>   0.2630 
 20 C       -6.4800    -7.1910     1.5880 C.2   1 <1>   0.9060 
 21 C       -7.6810    -7.6740    -0.5970 C.3   1 <1>  -0.1600 
 22 C       -8.0780    -9.1110    -0.2210 C.3   1 <1>  -0.1600 
 23 O       -6.2670    -8.2090     2.2660 O.co2 1 <1>  -0.9000 
 24 O       -6.7980    -6.1240     2.1100 O.co2 1 <1>  -0.9000 
 25 H       -2.7340    -2.4650    -1.2850 H     1 <1>   0.1500 
 26 H       -0.2280    -1.7210     2.0630 H     1 <1>   0.1500 
 27 H        0.6540    -4.0330     1.9280 H     1 <1>   0.1500 
 28 H       -0.1620    -5.5510     0.1880 H     1 <1>   0.1500 
 29 H       -1.2230    -5.2440    -2.4590 H     1 <1>   0.0800 
 30 H       -2.8360    -4.6480    -2.2900 H     1 <1>   0.0800 
 31 H       -3.1350    -8.6020     0.0110 H     1 <1>   0.0800 
 32 H       -3.9170    -7.7720     1.3260 H     1 <1>   0.0800 
 33 H       -4.5230    -5.3420     1.0570 H     1 <1>   0.0800 
 34 H       -4.2220    -4.5420    -0.4550 H     1 <1>   0.0800 
 35 H       -5.1650    -8.3540    -1.3630 H     1 <1>   0.0800 
 36 H       -6.5970    -5.1390    -0.2420 H     1 <1>   0.0800 
 37 H       -5.8620    -5.9310    -1.5990 H     1 <1>   0.0800 
 38 H       -5.9480    -9.4830     1.1710 H     1 <1>   0.4500 
 39 H       -6.8000   -10.2020    -1.5550 H     1 <1>   0.0800 
 40 H       -7.2550   -11.0830    -0.1150 H     1 <1>   0.0800 
 41 H       -4.2930   -10.8830    -0.8760 H     1 <1>   0.0800 
 42 H       -5.0460   -11.6710     0.5000 H     1 <1>   0.0800 
 43 H       -3.8180   -10.4570     0.7580 H     1 <1>   0.0800 
 44 H       -8.4520    -6.9940    -0.2740 H     1 <1>   0.0800 
 45 H       -7.6050    -7.6000    -1.6680 H     1 <1>   0.0800 
 46 H       -8.9540    -9.3960    -0.7760 H     1 <1>   0.0800 
 47 H       -8.3390    -9.1530     0.8240 H     1 <1>   0.0800 
@<TRIPOS>BOND
  1   1   2  1   
  2   2   3  ar  
  3   2   4  ar  
  4   3   5  ar  
  5   3  25  1   
  6   4   6  ar  
  7   4  26  1   
  8   5   7  ar  
  9   5   8  1   
 10   6   7  ar  
 11   6  27  1   
 12   7  28  1   
 13   8   9  1   
 14   8  29  1   
 15   8  30  1   
 16   9  10  2   
 17   9  11  am  
 18  11  12  1   
 19  11  13  1   
 20  12  14  1   
 21  12  31  1   
 22  12  32  1   
 23  13  15  1   
 24  13  33  1   
 25  13  34  1   
 26  14  16  1   
 27  14  17  1   
 28  14  35  1   
 29  15  17  1   
 30  15  36  1   
 31  15  37  1   
 32  16  18  1   
 33  16  19  1   
 34  16  38  1   
 35  17  20  1   
 36  17  21  1   
 37  18  22  1   
 38  18  39  1   
 39  18  40  1   
 40  19  41  1   
 41  19  42  1   
 42  19  43  1   
 43  20  23  ar  
 44  20  24  ar  
 45  21  22  1   
 46  21  44  1   
 47  21  45  1   
 48  22  46  1   
 49  22  47  1   
@<TRIPOS>SUBSTRUCTURE
  1 ****  11 GROUP 4 **** **** 0

# MOE 2024.06 (io_trps.svl 2023.06)
