@<TRIPOS>MOLECULE
NONAME
34 35 1 0 0 
SMALL
USER_CHARGES


@<TRIPOS>ATOM
  1 O       -0.2760    -0.1000     0.8740 O.2   1 <1>  -0.5700 
  2 C       -0.8170    -1.1560     0.6160 C.2   1 <1>   0.7800 
  3 O       -0.1210    -2.2290     0.2330 O.3   1 <1>  -0.4300 
  4 N       -2.1610    -1.3060     0.7000 N.am  1 <1>  -0.6600 
  5 C        1.2780    -2.3220     0.0700 C.3   1 <1>   0.2800 
  6 C       -3.0820    -0.1640     0.9900 C.3   1 <1>   0.3200 
  7 C       -2.8960    -2.5330     0.2600 C.3   1 <1>   0.3210 
  8 C        1.9860    -2.0780     1.4080 C.3   1 <1>  -0.2400 
  9 C        1.5320    -3.7620    -0.3780 C.3   1 <1>  -0.2400 
 10 C        1.7500    -1.3610    -1.0270 C.3   1 <1>  -0.2400 
 11 C       -4.4040    -0.8000     0.6780 C.2   1 <1>  -0.0400 
 12 C       -4.3310    -2.0680     0.2850 C.2   1 <1>  -0.1810 
 13 O       -5.6380    -0.3540     0.7120 O.3   1 <1>  -0.2800 
 14 C       -5.6530    -2.4670     0.0470 C.2   1 <1>  -0.1810 
 15 C       -6.3980    -1.3670     0.3250 C.2   1 <1>  -0.0100 
 16 C       -6.0840    -3.8420    -0.4240 C.3   1 <1>   0.3010 
 17 O       -7.3890    -4.0530    -0.0270 O.3   1 <1>  -0.6800 
 18 H       -2.8800     0.6690     0.3400 H     1 <1>   0.0800 
 19 H       -3.0180     0.1270     2.0240 H     1 <1>   0.0800 
 20 H       -2.7320    -3.3370     0.9560 H     1 <1>   0.0800 
 21 H       -2.5940    -2.8190    -0.7320 H     1 <1>   0.0800 
 22 H        1.5810    -2.7190     2.1700 H     1 <1>   0.0800 
 23 H        1.8870    -1.0540     1.7180 H     1 <1>   0.0800 
 24 H        3.0360    -2.2860     1.3110 H     1 <1>   0.0800 
 25 H        1.1850    -4.4530     0.3700 H     1 <1>   0.0800 
 26 H        2.5840    -3.9270    -0.5270 H     1 <1>   0.0800 
 27 H        1.0240    -3.9610    -1.3040 H     1 <1>   0.0800 
 28 H        1.6530    -0.3380    -0.7150 H     1 <1>   0.0800 
 29 H        1.1830    -1.5130    -1.9270 H     1 <1>   0.0800 
 30 H        2.7880    -1.5350    -1.2450 H     1 <1>   0.0800 
 31 H       -7.4630    -1.2220     0.2700 H     1 <1>   0.1500 
 32 H       -5.4720    -4.6070     0.0220 H     1 <1>   0.0800 
 33 H       -6.0370    -3.9180    -1.4970 H     1 <1>   0.0800 
 34 H       -7.4790    -3.7940     0.9100 H     1 <1>   0.4000 
@<TRIPOS>BOND
  1   1   2  2   
  2   2   3  1   
  3   2   4  am  
  4   3   5  1   
  5   4   6  1   
  6   4   7  1   
  7   5   8  1   
  8   5   9  1   
  9   5  10  1   
 10   6  11  1   
 11   6  18  1   
 12   6  19  1   
 13   7  12  1   
 14   7  20  1   
 15   7  21  1   
 16   8  22  1   
 17   8  23  1   
 18   8  24  1   
 19   9  25  1   
 20   9  26  1   
 21   9  27  1   
 22  10  28  1   
 23  10  29  1   
 24  10  30  1   
 25  11  12  2   
 26  11  13  1   
 27  12  14  1   
 28  13  15  1   
 29  14  15  2   
 30  14  16  1   
 31  15  31  1   
 32  16  17  1   
 33  16  32  1   
 34  16  33  1   
 35  17  34  1   
@<TRIPOS>SUBSTRUCTURE
  1 ****   7 GROUP 4 **** **** 0

# MOE 2024.06 (io_trps.svl 2023.06)
