@<TRIPOS>MOLECULE
NONAME
45 47 1 0 0 
SMALL
USER_CHARGES


@<TRIPOS>ATOM
  1 O        0.5410    -0.0590    -0.8640 O.2   1 <1>  -0.5700 
  2 C        1.6250     0.0840    -0.3460 C.2   1 <1>   0.7150 
  3 N        2.1420    -0.9780     0.3210 N.am  1 <1>  -0.7300 
  4 C        2.3340     1.3290    -0.3850 C.2   1 <1>  -0.2370 
  5 C        3.1960    -0.8360     1.3590 C.3   1 <1>   0.1400 
  6 N        3.6860     1.4330    -0.3640 N.pl3 1 <1>   0.3140 
  7 C        1.8790     2.6070    -0.4250 C.2   1 <1>  -0.1500 
  8 C        4.5860    -0.6600     0.7180 C.3   1 <1>   0.2000 
  9 N        4.1030     2.7020    -0.3600 N.2   1 <1>  -0.7070 
 10 C        4.6430     0.3100    -0.4760 C.3   1 <1>   0.0960 
 11 C        2.9990     3.4350    -0.3990 C.2   1 <1>   0.2030 
 12 O        4.9980    -1.9040     0.2610 O.3   1 <1>  -0.6800 
 13 C        2.9520     4.8900    -0.4160 C.2   1 <1>   0.7160 
 14 O        1.8970     5.5000    -0.4240 O.2   1 <1>  -0.5700 
 15 N        4.1240     5.5940    -0.4190 N.am  1 <1>  -0.7300 
 16 C        4.2790     7.0680    -0.4640 C.3   1 <1>   0.1400 
 17 C        4.8580     7.5740     0.8550 C.3   1 <1>  -0.0170 
 18 C        5.1250     9.0600     0.7610 C.ar  1 <1>   0.4770 
 19 N        6.2480     9.4090     0.1550 N.ar  1 <1>  -0.6200 
 20 N        4.2080     9.8580     1.2850 N.ar  1 <1>  -0.6200 
 21 C        6.4730    10.7000     0.0720 C.ar  1 <1>   0.1670 
 22 C        4.4500    11.1440     1.1910 C.ar  1 <1>   0.1670 
 23 C        5.5880    11.6200     0.5830 C.ar  1 <1>  -0.1500 
 24 C        7.7520    11.1310    -0.6140 C.3   1 <1>  -0.0970 
 25 C        3.4190    12.0810     1.7820 C.3   1 <1>  -0.0970 
 26 H        1.5000    -1.7700     0.4090 H     1 <1>   0.3700 
 27 H        3.1980    -1.6950     2.0080 H     1 <1>   0.0800 
 28 H        2.9750     0.0270     1.9640 H     1 <1>   0.0800 
 29 H        0.8570     2.9450    -0.4620 H     1 <1>   0.1500 
 30 H        5.2920    -0.3500     1.4690 H     1 <1>   0.0800 
 31 H        5.6350     0.7140    -0.5620 H     1 <1>   0.0800 
 32 H        4.4100    -0.2130    -1.3850 H     1 <1>   0.0800 
 33 H        4.2990    -2.3010    -0.2970 H     1 <1>   0.4000 
 34 H        4.9750     5.0260    -0.4240 H     1 <1>   0.3700 
 35 H        3.3250     7.5370    -0.6390 H     1 <1>   0.0800 
 36 H        4.9360     7.3290    -1.2760 H     1 <1>   0.0800 
 37 H        5.7810     7.0700     1.0700 H     1 <1>   0.0800 
 38 H        4.1630     7.3820     1.6520 H     1 <1>   0.0800 
 39 H        5.7790    12.6730     0.5110 H     1 <1>   0.1500 
 40 H        8.5950    10.7170    -0.0920 H     1 <1>   0.0800 
 41 H        7.8420    12.2010    -0.6280 H     1 <1>   0.0800 
 42 H        7.7580    10.7660    -1.6240 H     1 <1>   0.0800 
 43 H        3.3080    11.8760     2.8310 H     1 <1>   0.0800 
 44 H        2.4720    11.9230     1.2980 H     1 <1>   0.0800 
 45 H        3.7090    13.1070     1.6550 H     1 <1>   0.0800 
@<TRIPOS>BOND
  1   1   2  2   
  2   2   3  am  
  3   2   4  1   
  4   3   5  1   
  5   3  26  1   
  6   4   6  1   
  7   4   7  2   
  8   5   8  1   
  9   5  27  1   
 10   5  28  1   
 11   6   9  1   
 12   6  10  1   
 13   7  11  1   
 14   7  29  1   
 15   8  10  1   
 16   8  12  1   
 17   8  30  1   
 18   9  11  2   
 19  10  31  1   
 20  10  32  1   
 21  11  13  1   
 22  12  33  1   
 23  13  14  2   
 24  13  15  am  
 25  15  16  1   
 26  15  34  1   
 27  16  17  1   
 28  16  35  1   
 29  16  36  1   
 30  17  18  1   
 31  17  37  1   
 32  17  38  1   
 33  18  19  ar  
 34  18  20  ar  
 35  19  21  ar  
 36  20  22  ar  
 37  21  23  ar  
 38  21  24  1   
 39  22  23  ar  
 40  22  25  1   
 41  23  39  1   
 42  24  40  1   
 43  24  41  1   
 44  24  42  1   
 45  25  43  1   
 46  25  44  1   
 47  25  45  1   
@<TRIPOS>SUBSTRUCTURE
  1 ****  15 GROUP 4 **** **** 0

# MOE 2024.06 (io_trps.svl 2023.06)
