@<TRIPOS>MOLECULE
NONAME
51 54 1 0 0 
SMALL
USER_CHARGES


@<TRIPOS>ATOM
  1 O        4.6680    -1.3920    -1.0340 O.2   1 <1>  -0.5700 
  2 C        3.4960    -1.3840    -0.7020 C.2   1 <1>   0.5440 
  3 N        2.6920    -0.4370    -1.2970 N.am  1 <1>  -0.6600 
  4 C        3.0160    -2.2650     0.3450 C.ar  1 <1>   0.0860 
  5 C        3.0200     0.1090    -2.6590 C.3   1 <1>   0.1400 
  6 C        1.7720     0.4000    -0.4840 C.3   1 <1>   0.1400 
  7 C        1.7590    -2.8750     0.2590 C.ar  1 <1>  -0.1500 
  8 C        3.8000    -2.5250     1.4770 C.ar  1 <1>  -0.1500 
  9 C        4.2030     1.1050    -2.6450 C.3   1 <1>   0.3430 
 10 C        2.5670     1.4790     0.2650 C.3   1 <1>  -0.1600 
 11 C        1.3170    -3.6920     1.2800 C.ar  1 <1>  -0.1430 
 12 C        3.3520    -3.3460     2.4980 C.ar  1 <1>  -0.1500 
 13 N        4.5190     1.5680    -1.2600 N.4   1 <1>  -0.9590 
 14 C        3.4430     2.3720    -0.6200 C.3   1 <1>   0.3430 
 15 C        2.1010    -3.9200     2.3790 C.ar  1 <1>   0.0820 
 16 C        0.0360    -4.4580     1.4420 C.3   1 <1>  -0.0170 
 17 C        5.8820     2.1410    -1.1260 C.3   1 <1>   0.4860 
 18 O        1.5250    -4.7330     3.2730 O.3   1 <1>  -0.3630 
 19 C        0.2480    -5.1430     2.8050 C.3   1 <1>   0.1200 
 20 C        6.3490     1.8900     0.2880 C.ar  1 <1>  -0.1430 
 21 C        6.9740     0.6780     0.5750 C.ar  1 <1>   0.4100 
 22 C        6.1890     2.8180     1.2960 C.ar  1 <1>  -0.1500 
 23 N        7.4080     0.3280     1.7650 N.ar  1 <1>  -0.6200 
 24 N        7.1960    -0.2600    -0.3790 N.pl3 1 <1>  -0.9000 
 25 C        6.6510     2.4620     2.5470 C.ar  1 <1>  -0.1500 
 26 C        7.2420     1.2230     2.7240 C.ar  1 <1>   0.1600 
 27 H        2.1510     0.5900    -3.0730 H     1 <1>   0.0800 
 28 H        3.2680    -0.7100    -3.3140 H     1 <1>   0.0800 
 29 H        1.2460    -0.2140     0.2280 H     1 <1>   0.0800 
 30 H        1.0340     0.8550    -1.1240 H     1 <1>   0.0800 
 31 H        1.1400    -2.7090    -0.6040 H     1 <1>   0.1500 
 32 H        4.7760    -2.0760     1.5570 H     1 <1>   0.1500 
 33 H        3.9910     1.9410    -3.2900 H     1 <1>   0.0800 
 34 H        5.0630     0.5920    -3.0440 H     1 <1>   0.0800 
 35 H        3.1740     1.0200     1.0260 H     1 <1>   0.0800 
 36 H        1.8610     2.1090     0.7770 H     1 <1>   0.0800 
 37 H        3.9510    -3.5470     3.3690 H     1 <1>   0.1500 
 38 H        4.5630     0.6720    -0.7390 H     1 <1>   0.4500 
 39 H        3.8830     3.1370    -0.0020 H     1 <1>   0.0800 
 40 H        2.8410     2.8550    -1.3730 H     1 <1>   0.0800 
 41 H       -0.0870    -5.1860     0.6610 H     1 <1>   0.0800 
 42 H       -0.8140    -3.8010     1.4700 H     1 <1>   0.0800 
 43 H        5.8770     3.1950    -1.3460 H     1 <1>   0.0800 
 44 H        6.5600     1.6490    -1.8050 H     1 <1>   0.0800 
 45 H        0.2540    -6.2150     2.7130 H     1 <1>   0.0800 
 46 H       -0.4880    -4.8330     3.5250 H     1 <1>   0.0800 
 47 H        5.7350     3.7810     1.1370 H     1 <1>   0.1500 
 48 H        7.9290    -0.8990    -0.0560 H     1 <1>   0.4000 
 49 H        6.3780    -0.8490    -0.6020 H     1 <1>   0.4000 
 50 H        6.5600     3.1380     3.3800 H     1 <1>   0.1500 
 51 H        7.5980     0.9550     3.7050 H     1 <1>   0.1500 
@<TRIPOS>BOND
  1   1   2  2   
  2   2   3  am  
  3   2   4  1   
  4   3   5  1   
  5   3   6  1   
  6   4   7  ar  
  7   4   8  ar  
  8   5   9  1   
  9   5  27  1   
 10   5  28  1   
 11   6  10  1   
 12   6  29  1   
 13   6  30  1   
 14   7  11  ar  
 15   7  31  1   
 16   8  12  ar  
 17   8  32  1   
 18   9  13  1   
 19   9  33  1   
 20   9  34  1   
 21  10  14  1   
 22  10  35  1   
 23  10  36  1   
 24  11  15  ar  
 25  11  16  1   
 26  12  15  ar  
 27  12  37  1   
 28  13  14  1   
 29  13  17  1   
 30  13  38  1   
 31  14  39  1   
 32  14  40  1   
 33  15  18  1   
 34  16  19  1   
 35  16  41  1   
 36  16  42  1   
 37  17  20  1   
 38  17  43  1   
 39  17  44  1   
 40  18  19  1   
 41  19  45  1   
 42  19  46  1   
 43  20  21  ar  
 44  20  22  ar  
 45  21  23  ar  
 46  21  24  1   
 47  22  25  ar  
 48  22  47  1   
 49  23  26  ar  
 50  24  48  1   
 51  24  49  1   
 52  25  26  ar  
 53  25  50  1   
 54  26  51  1   
@<TRIPOS>SUBSTRUCTURE
  1 ****   2 GROUP 4 **** **** 0

# MOE 2024.06 (io_trps.svl 2023.06)
