@<TRIPOS>MOLECULE
NONAME
47 48 1 0 0 
SMALL
USER_CHARGES


@<TRIPOS>ATOM
  1 F       -2.5990    -0.0300    -2.0800 F     1 <1>  -0.3400 
  2 C       -2.3040     0.2160    -0.8110 C.3   1 <1>   1.1640 
  3 F       -0.9900     0.4030    -0.7650 F     1 <1>  -0.3400 
  4 F       -2.5490    -0.9030    -0.1400 F     1 <1>  -0.3400 
  5 C       -3.0620     1.4430    -0.2750 C.ar  1 <1>  -0.1440 
  6 C       -2.8810     2.6850    -0.8730 C.ar  1 <1>  -0.1500 
  7 C       -3.9330     1.3530     0.8030 C.ar  1 <1>  -0.1500 
  8 C       -3.5440     3.8150    -0.4140 C.ar  1 <1>  -0.1440 
  9 C       -4.6050     2.4720     1.2590 C.ar  1 <1>  -0.1500 
 10 C       -4.4250     3.7060     0.6580 C.ar  1 <1>  -0.1430 
 11 C       -3.2830     5.1450    -1.1000 C.3   1 <1>   0.4870 
 12 C       -5.2190     4.8910     1.1990 C.3   1 <1>  -0.0970 
 13 N       -2.3740     5.9490    -0.2410 N.4   1 <1>  -0.9590 
 14 C       -2.3250     7.3800    -0.6970 C.3   1 <1>   0.3430 
 15 C       -1.0120     5.3430    -0.1560 C.3   1 <1>   0.3430 
 16 C       -1.4320     8.2580     0.1960 C.3   1 <1>   0.2000 
 17 C       -0.1420     6.1610     0.8020 C.3   1 <1>  -0.1600 
 18 O       -1.3090     9.4780    -0.4550 O.3   1 <1>  -0.5600 
 19 C       -0.0390     7.6350     0.3770 C.3   1 <1>  -0.1600 
 20 C       -0.9140    10.5590     0.3340 C.3   1 <1>   0.1200 
 21 C       -0.9240    11.8050    -0.5480 C.3   1 <1>  -0.1600 
 22 C       -0.5030    13.0500     0.2410 C.3   1 <1>  -0.2400 
 23 H       -2.2090     2.7590    -1.7140 H     1 <1>   0.1500 
 24 H       -4.1030     0.4100     1.2980 H     1 <1>   0.1500 
 25 H       -5.2790     2.3650     2.0930 H     1 <1>   0.1500 
 26 H       -4.2180     5.6610    -1.2390 H     1 <1>   0.0800 
 27 H       -2.8380     4.9830    -2.0680 H     1 <1>   0.0800 
 28 H       -5.6590     5.4580     0.3990 H     1 <1>   0.0800 
 29 H       -4.5890     5.5300     1.7900 H     1 <1>   0.0800 
 30 H       -6.0230     4.5490     1.8280 H     1 <1>   0.0800 
 31 H       -2.7750     5.9080     0.7040 H     1 <1>   0.4500 
 32 H       -3.3180     7.7980    -0.7060 H     1 <1>   0.0800 
 33 H       -1.9310     7.4190    -1.6990 H     1 <1>   0.0800 
 34 H       -0.5550     5.3300    -1.1330 H     1 <1>   0.0800 
 35 H       -1.0800     4.3280     0.2020 H     1 <1>   0.0800 
 36 H       -1.9170     8.4160     1.1450 H     1 <1>   0.0800 
 37 H        0.8450     5.7320     0.8250 H     1 <1>   0.0800 
 38 H       -0.5440     6.0900     1.7980 H     1 <1>   0.0800 
 39 H        0.5140     8.1770     1.1240 H     1 <1>   0.0800 
 40 H        0.4990     7.6970    -0.5540 H     1 <1>   0.0800 
 41 H        0.0770    10.3790     0.7130 H     1 <1>   0.0800 
 42 H       -1.6080    10.6720     1.1500 H     1 <1>   0.0800 
 43 H       -1.9140    11.9550    -0.9420 H     1 <1>   0.0800 
 44 H       -0.2450    11.6630    -1.3710 H     1 <1>   0.0800 
 45 H       -1.1790    13.2250     1.0600 H     1 <1>   0.0800 
 46 H       -0.5170    13.9130    -0.4020 H     1 <1>   0.0800 
 47 H        0.4930    12.9320     0.6300 H     1 <1>   0.0800 
@<TRIPOS>BOND
  1   1   2  1   
  2   2   3  1   
  3   2   4  1   
  4   2   5  1   
  5   5   6  ar  
  6   5   7  ar  
  7   6   8  ar  
  8   6  23  1   
  9   7   9  ar  
 10   7  24  1   
 11   8  10  ar  
 12   8  11  1   
 13   9  10  ar  
 14   9  25  1   
 15  10  12  1   
 16  11  13  1   
 17  11  26  1   
 18  11  27  1   
 19  12  28  1   
 20  12  29  1   
 21  12  30  1   
 22  13  14  1   
 23  13  15  1   
 24  13  31  1   
 25  14  16  1   
 26  14  32  1   
 27  14  33  1   
 28  15  17  1   
 29  15  34  1   
 30  15  35  1   
 31  16  18  1   
 32  16  19  1   
 33  16  36  1   
 34  17  19  1   
 35  17  37  1   
 36  17  38  1   
 37  18  20  1   
 38  19  39  1   
 39  19  40  1   
 40  20  21  1   
 41  20  41  1   
 42  20  42  1   
 43  21  22  1   
 44  21  43  1   
 45  21  44  1   
 46  22  45  1   
 47  22  46  1   
 48  22  47  1   
@<TRIPOS>SUBSTRUCTURE
  1 ****  13 GROUP 4 **** **** 0

# MOE 2024.06 (io_trps.svl 2023.06)
