@<TRIPOS>MOLECULE
NONAME
43 44 1 0 0 
SMALL
USER_CHARGES


@<TRIPOS>ATOM
  1 O       -0.8580    -0.1650    -1.6570 O.2   1 <1>  -0.5700 
  2 C       -1.3690     0.4570    -0.7460 C.2   1 <1>   0.5440 
  3 N       -1.9250    -0.2310     0.3150 N.am  1 <1>  -0.6600 
  4 C       -1.3850     1.8950    -0.8060 C.ar  1 <1>   0.0860 
  5 C       -1.9740    -1.7190     0.2870 C.3   1 <1>   0.3200 
  6 C       -2.4290     0.4370     1.5600 C.3   1 <1>   0.1400 
  7 C       -0.5010     2.6560    -0.0500 C.ar  1 <1>   0.1600 
  8 C       -2.2860     2.5840    -1.6090 C.ar  1 <1>  -0.1500 
  9 C       -3.2490    -2.1530    -0.4040 C.2   1 <1>  -0.3320 
 10 C       -3.7810     1.1410     1.3650 C.3   1 <1>   0.1200 
 11 N       -0.4710     3.9740     0.0140 N.ar  1 <1>  -0.6200 
 12 C       -2.2600     3.9570    -1.5670 C.ar  1 <1>  -0.1500 
 13 N       -4.3670    -2.5760     0.2170 N.pl3 1 <1>   0.0330 
 14 C       -3.5110    -2.1970    -1.7280 C.2   1 <1>   0.0770 
 15 O       -4.7250     0.2430     0.9010 O.3   1 <1>  -0.6800 
 16 C       -1.3550     4.6240    -0.7410 C.ar  1 <1>   0.4100 
 17 C       -5.2450    -2.8360    -0.7750 C.2   1 <1>   0.0060 
 18 N       -4.7670    -2.6250    -1.9560 N.2   1 <1>  -0.5650 
 19 N       -1.3470     6.0030    -0.6780 N.pl3 1 <1>  -0.8380 
 20 C       -6.6550    -3.3170    -0.5120 C.3   1 <1>  -0.0600 
 21 C       -2.6080     6.7830    -0.5650 C.3   1 <1>   0.1290 
 22 C       -0.1110     6.7360    -0.2880 C.3   1 <1>   0.1290 
 23 H       -1.9240    -2.1190     1.2840 H     1 <1>   0.0800 
 24 H       -1.1280    -2.1020    -0.2580 H     1 <1>   0.0800 
 25 H       -1.7070     1.1630     1.8910 H     1 <1>   0.0800 
 26 H       -2.5300    -0.2850     2.3510 H     1 <1>   0.0800 
 27 H        0.2240     2.1300     0.5460 H     1 <1>   0.1500 
 28 H       -2.9740     2.0460    -2.2380 H     1 <1>   0.1500 
 29 H       -3.7040     1.9480     0.6590 H     1 <1>   0.0800 
 30 H       -4.1360     1.5380     2.3010 H     1 <1>   0.0800 
 31 H       -2.9280     4.5330    -2.1770 H     1 <1>   0.1500 
 32 H       -4.5490    -2.6400     1.2220 H     1 <1>   0.2700 
 33 H       -2.8500    -1.9300    -2.5370 H     1 <1>   0.1500 
 34 H       -4.3780    -0.2100     0.0950 H     1 <1>   0.4000 
 35 H       -6.6350    -4.2570     0.0060 H     1 <1>   0.0800 
 36 H       -7.1720    -3.4480    -1.4460 H     1 <1>   0.0800 
 37 H       -7.1860    -2.5930     0.0770 H     1 <1>   0.0800 
 38 H       -3.4570     6.1260    -0.5020 H     1 <1>   0.0800 
 39 H       -2.7170     7.4190    -1.4260 H     1 <1>   0.0800 
 40 H       -2.5830     7.3910     0.3230 H     1 <1>   0.0800 
 41 H        0.7600     6.1860    -0.6020 H     1 <1>   0.0800 
 42 H       -0.0800     6.8530     0.7820 H     1 <1>   0.0800 
 43 H       -0.0920     7.7040    -0.7560 H     1 <1>   0.0800 
@<TRIPOS>BOND
  1   1   2  2   
  2   2   3  am  
  3   2   4  1   
  4   3   5  1   
  5   3   6  1   
  6   4   7  ar  
  7   4   8  ar  
  8   5   9  1   
  9   5  23  1   
 10   5  24  1   
 11   6  10  1   
 12   6  25  1   
 13   6  26  1   
 14   7  11  ar  
 15   7  27  1   
 16   8  12  ar  
 17   8  28  1   
 18   9  13  1   
 19   9  14  2   
 20  10  15  1   
 21  10  29  1   
 22  10  30  1   
 23  11  16  ar  
 24  12  16  ar  
 25  12  31  1   
 26  13  17  1   
 27  13  32  1   
 28  14  18  1   
 29  14  33  1   
 30  15  34  1   
 31  16  19  1   
 32  17  18  2   
 33  17  20  1   
 34  19  21  1   
 35  19  22  1   
 36  20  35  1   
 37  20  36  1   
 38  20  37  1   
 39  21  38  1   
 40  21  39  1   
 41  21  40  1   
 42  22  41  1   
 43  22  42  1   
 44  22  43  1   
@<TRIPOS>SUBSTRUCTURE
  1 ****   2 GROUP 4 **** **** 0

# MOE 2024.06 (io_trps.svl 2023.06)
