@<TRIPOS>MOLECULE
NONAME
53 55 1 0 0 
SMALL
USER_CHARGES


@<TRIPOS>ATOM
  1 S       -3.6400    -0.4770     2.1030 S.3   1 <1>  -0.0800 
  2 C       -2.5940    -1.2430     0.9160 C.2   1 <1>  -0.1400 
  3 C       -3.2760     1.1170     1.4680 C.2   1 <1>  -0.1100 
  4 C       -2.0330    -0.3110     0.1190 C.2   1 <1>  -0.1500 
  5 C       -2.4980    -2.7580     0.9720 C.3   1 <1>   0.3800 
  6 C       -2.4210     1.0310     0.4340 C.2   1 <1>  -0.1500 
  7 O       -1.4480    -3.1540     0.1650 O.3   1 <1>  -0.6800 
  8 C       -3.7940    -3.4510     0.4890 C.3   1 <1>  -0.0800 
  9 C       -3.6950    -4.9880     0.5900 C.3   1 <1>  -0.1600 
 10 C       -4.1880    -3.0370    -0.9460 C.3   1 <1>  -0.1600 
 11 C       -4.9430    -5.6790     0.0470 C.3   1 <1>   0.3430 
 12 C       -5.4210    -3.7860    -1.4440 C.3   1 <1>   0.3430 
 13 N       -5.1750    -5.2520    -1.3650 N.4   1 <1>  -0.9590 
 14 C       -6.3180    -6.0060    -1.9760 C.3   1 <1>   0.3430 
 15 C       -5.9810    -7.4780    -2.2360 C.3   1 <1>   0.1200 
 16 O       -7.1940    -8.1830    -2.3460 O.3   1 <1>  -0.3630 
 17 C       -7.4660    -9.1150    -1.3960 C.ar  1 <1>   0.0830 
 18 C       -7.5560    -8.8130    -0.0310 C.ar  1 <1>   0.0830 
 19 C       -7.6640   -10.4130    -1.8330 C.ar  1 <1>  -0.1500 
 20 O       -7.4130    -7.5230     0.3920 O.3   1 <1>  -0.3630 
 21 C       -7.8050    -9.8430     0.8710 C.ar  1 <1>  -0.1500 
 22 C       -7.9230   -11.4230    -0.9250 C.ar  1 <1>  -0.1500 
 23 C       -8.2000    -7.0800     1.4810 C.3   1 <1>   0.0400 
 24 C       -7.9910   -11.1440     0.4300 C.ar  1 <1>  -0.1430 
 25 C       -8.2650   -12.2580     1.4250 C.3   1 <1>  -0.0970 
 26 H       -3.7450     1.9600     1.9440 H     1 <1>   0.1500 
 27 H       -1.3540    -0.5040    -0.6940 H     1 <1>   0.1500 
 28 H       -2.2640    -3.0630     1.9790 H     1 <1>   0.0800 
 29 H       -2.0380     1.8630    -0.1310 H     1 <1>   0.1500 
 30 H       -0.6610    -2.6230     0.3980 H     1 <1>   0.4000 
 31 H       -4.5830    -3.1340     1.1480 H     1 <1>   0.0800 
 32 H       -3.5610    -5.2710     1.6200 H     1 <1>   0.0800 
 33 H       -2.8370    -5.3460     0.0470 H     1 <1>   0.0800 
 34 H       -3.3720    -3.2140    -1.6250 H     1 <1>   0.0800 
 35 H       -4.3990    -1.9810    -0.9720 H     1 <1>   0.0800 
 36 H       -5.7970    -5.4190     0.6510 H     1 <1>   0.0800 
 37 H       -4.8120    -6.7480     0.1010 H     1 <1>   0.0800 
 38 H       -5.6270    -3.4980    -2.4630 H     1 <1>   0.0800 
 39 H       -6.2730    -3.5240    -0.8370 H     1 <1>   0.0800 
 40 H       -4.3150    -5.4450    -1.8960 H     1 <1>   0.4500 
 41 H       -6.5960    -5.5530    -2.9130 H     1 <1>   0.0800 
 42 H       -7.1670    -5.9570    -1.3140 H     1 <1>   0.0800 
 43 H       -5.4020    -7.9130    -1.4410 H     1 <1>   0.0800 
 44 H       -5.4550    -7.5900    -3.1660 H     1 <1>   0.0800 
 45 H       -7.6130   -10.6320    -2.8840 H     1 <1>   0.1500 
 46 H       -7.8550    -9.6480     1.9250 H     1 <1>   0.1500 
 47 H       -8.0710   -12.4290    -1.2790 H     1 <1>   0.1500 
 48 H       -8.1760    -6.0060     1.5040 H     1 <1>   0.0800 
 49 H       -7.7920    -7.4720     2.3960 H     1 <1>   0.0800 
 50 H       -9.2130    -7.4180     1.3430 H     1 <1>   0.0800 
 51 H       -8.8060   -11.8810     2.2740 H     1 <1>   0.0800 
 52 H       -7.3360   -12.6800     1.7640 H     1 <1>   0.0800 
 53 H       -8.8520   -13.0350     0.9680 H     1 <1>   0.0800 
@<TRIPOS>BOND
  1   1   2  1   
  2   1   3  1   
  3   2   4  2   
  4   2   5  1   
  5   3   6  2   
  6   3  26  1   
  7   4   6  1   
  8   4  27  1   
  9   5   7  1   
 10   5   8  1   
 11   5  28  1   
 12   6  29  1   
 13   7  30  1   
 14   8   9  1   
 15   8  10  1   
 16   8  31  1   
 17   9  11  1   
 18   9  32  1   
 19   9  33  1   
 20  10  12  1   
 21  10  34  1   
 22  10  35  1   
 23  11  13  1   
 24  11  36  1   
 25  11  37  1   
 26  12  13  1   
 27  12  38  1   
 28  12  39  1   
 29  13  14  1   
 30  13  40  1   
 31  14  15  1   
 32  14  41  1   
 33  14  42  1   
 34  15  16  1   
 35  15  43  1   
 36  15  44  1   
 37  16  17  1   
 38  17  18  ar  
 39  17  19  ar  
 40  18  20  1   
 41  18  21  ar  
 42  19  22  ar  
 43  19  45  1   
 44  20  23  1   
 45  21  24  ar  
 46  21  46  1   
 47  22  24  ar  
 48  22  47  1   
 49  23  48  1   
 50  23  49  1   
 51  23  50  1   
 52  24  25  1   
 53  25  51  1   
 54  25  52  1   
 55  25  53  1   
@<TRIPOS>SUBSTRUCTURE
  1 ****  11 GROUP 4 **** **** 0

# MOE 2024.06 (io_trps.svl 2023.06)
