@<TRIPOS>MOLECULE
NONAME
50 52 1 0 0 
SMALL
USER_CHARGES


@<TRIPOS>ATOM
  1 O       -0.2640     0.5650     0.0850 O.3   1 <1>  -0.5600 
  2 C       -0.2520     1.8500     0.6290 C.3   1 <1>   0.2000 
  3 C       -1.4560     0.1860    -0.5340 C.3   1 <1>   0.2640 
  4 C        1.2060     2.3280     0.7050 C.3   1 <1>   0.2090 
  5 C       -0.8920     1.8190     2.0280 C.3   1 <1>  -0.1600 
  6 C       -1.2980    -1.2070    -1.1180 C.ar  1 <1>  -0.1440 
  7 N        1.2720     3.6570     1.3770 N.pl3 1 <1>  -0.8380 
  8 C       -0.7210     3.1760     2.7370 C.3   1 <1>  -0.1600 
  9 C       -0.1180    -1.5870    -1.7420 C.ar  1 <1>   0.1600 
 10 C       -2.3340    -2.1190    -1.0520 C.ar  1 <1>  -0.1500 
 11 C        2.3770     4.4340     1.1170 C.ar  1 <1>   0.4100 
 12 C        0.7430     3.6320     2.7630 C.3   1 <1>   0.2090 
 13 N        0.1030    -2.7690    -2.2980 N.ar  1 <1>  -0.6200 
 14 C       -2.1200    -3.3560    -1.6200 C.ar  1 <1>  -0.1500 
 15 N        3.3880     4.3180     1.9550 N.ar  1 <1>  -0.6200 
 16 C        2.4310     5.2900     0.0220 C.ar  1 <1>  -0.1430 
 17 C       -0.9020    -3.6250    -2.2220 C.ar  1 <1>   0.1600 
 18 C        4.4470     5.0480     1.6840 C.ar  1 <1>   0.4770 
 19 C        3.5990     5.9940    -0.1440 C.ar  1 <1>   0.1600 
 20 C        1.2250     5.4100    -0.9150 C.3   1 <1>  -0.0170 
 21 N        4.6230     5.8840     0.6790 N.ar  1 <1>  -0.6200 
 22 C        5.6110     4.9190     2.6360 C.3   1 <1>  -0.0970 
 23 C        1.3060     6.5450    -1.9470 C.3   1 <1>  -0.1600 
 24 C        0.0300     6.6200    -2.7920 C.3   1 <1>  -0.2400 
 25 H       -0.7910     2.5160    -0.0240 H     1 <1>   0.0800 
 26 H       -1.6760     0.8880    -1.3190 H     1 <1>   0.0800 
 27 H       -2.2440     0.1970     0.1970 H     1 <1>   0.0800 
 28 H        1.6160     2.4000    -0.2870 H     1 <1>   0.0800 
 29 H        1.7890     1.6210     1.2690 H     1 <1>   0.0800 
 30 H       -0.4110     1.0550     2.6140 H     1 <1>   0.0800 
 31 H       -1.9400     1.5920     1.9580 H     1 <1>   0.0800 
 32 H       -1.0840     3.1040     3.7460 H     1 <1>   0.0800 
 33 H       -1.3020     3.9270     2.2310 H     1 <1>   0.0800 
 34 H        0.6910    -0.8780    -1.7840 H     1 <1>   0.1500 
 35 H       -3.2720    -1.8830    -0.5790 H     1 <1>   0.1500 
 36 H        0.8180     4.6160     3.1950 H     1 <1>   0.0800 
 37 H        1.3350     2.9550     3.3570 H     1 <1>   0.0800 
 38 H       -2.8870    -4.1090    -1.5990 H     1 <1>   0.1500 
 39 H       -0.7470    -4.5950    -2.6630 H     1 <1>   0.1500 
 40 H        3.7220     6.6740    -0.9660 H     1 <1>   0.1500 
 41 H        0.3470     5.5590    -0.3110 H     1 <1>   0.0800 
 42 H        1.1040     4.4760    -1.4340 H     1 <1>   0.0800 
 43 H        5.4020     4.1850     3.3920 H     1 <1>   0.0800 
 44 H        5.7920     5.8660     3.1070 H     1 <1>   0.0800 
 45 H        6.4870     4.6210     2.0910 H     1 <1>   0.0800 
 46 H        2.1450     6.3830    -2.6010 H     1 <1>   0.0800 
 47 H        1.4450     7.4840    -1.4380 H     1 <1>   0.0800 
 48 H       -0.1250     5.6980    -3.3250 H     1 <1>   0.0800 
 49 H        0.1110     7.4190    -3.5090 H     1 <1>   0.0800 
 50 H       -0.8260     6.8090    -2.1680 H     1 <1>   0.0800 
@<TRIPOS>BOND
  1   1   2  1   
  2   1   3  1   
  3   2   4  1   
  4   2   5  1   
  5   2  25  1   
  6   3   6  1   
  7   3  26  1   
  8   3  27  1   
  9   4   7  1   
 10   4  28  1   
 11   4  29  1   
 12   5   8  1   
 13   5  30  1   
 14   5  31  1   
 15   6   9  ar  
 16   6  10  ar  
 17   7  11  1   
 18   7  12  1   
 19   8  12  1   
 20   8  32  1   
 21   8  33  1   
 22   9  13  ar  
 23   9  34  1   
 24  10  14  ar  
 25  10  35  1   
 26  11  15  ar  
 27  11  16  ar  
 28  12  36  1   
 29  12  37  1   
 30  13  17  ar  
 31  14  17  ar  
 32  14  38  1   
 33  15  18  ar  
 34  16  19  ar  
 35  16  20  1   
 36  17  39  1   
 37  18  21  ar  
 38  18  22  1   
 39  19  21  ar  
 40  19  40  1   
 41  20  23  1   
 42  20  41  1   
 43  20  42  1   
 44  22  43  1   
 45  22  44  1   
 46  22  45  1   
 47  23  24  1   
 48  23  46  1   
 49  23  47  1   
 50  24  48  1   
 51  24  49  1   
 52  24  50  1   
@<TRIPOS>SUBSTRUCTURE
  1 ****   4 GROUP 4 **** **** 0

# MOE 2024.06 (io_trps.svl 2023.06)
