@<TRIPOS>MOLECULE
NONAME
52 55 1 0 0 
SMALL
USER_CHARGES


@<TRIPOS>ATOM
  1 S       -0.2940     0.0210     1.9540 S.3   1 <1>  -0.1570 
  2 C        0.5030    -0.9080     0.6400 C.ar  1 <1>   0.1020 
  3 C       -1.4110    -1.2060     2.6340 C.2   1 <1>   0.1960 
  4 C        1.7330    -1.4960     0.8670 C.ar  1 <1>  -0.1500 
  5 C       -0.1620    -1.0720    -0.5620 C.ar  1 <1>  -0.1500 
  6 O       -1.2090    -2.4450     2.2560 O.3   1 <1>  -0.2800 
  7 C       -2.4640    -1.1010     3.4680 C.2   1 <1>  -0.1500 
  8 C        2.2990    -2.2800    -0.1260 C.ar  1 <1>  -0.1500 
  9 C        0.4100    -1.8570    -1.5480 C.ar  1 <1>  -0.1500 
 10 C       -2.1420    -3.1860     2.8180 C.2   1 <1>  -0.0400 
 11 C       -2.9510    -2.4150     3.5860 C.2   1 <1>  -0.1500 
 12 C        1.6370    -2.4680    -1.3310 C.ar  1 <1>  -0.1430 
 13 C       -2.1360    -4.6770     2.5120 C.3   1 <1>   0.5230 
 14 C        2.2540    -3.3220    -2.4240 C.3   1 <1>  -0.0960 
 15 N       -2.0830    -4.8980     1.0310 N.4   1 <1>  -0.9590 
 16 C       -0.7520    -4.5440     0.4240 C.3   1 <1>   0.3430 
 17 C       -2.3890    -6.3050     0.6300 C.3   1 <1>   0.3430 
 18 C       -0.5710    -5.4950    -0.7600 C.3   1 <1>   0.2000 
 19 C       -1.2410    -6.7790    -0.2720 C.3   1 <1>  -0.0800 
 20 O       -1.2350    -4.9970    -1.8770 O.3   1 <1>  -0.6800 
 21 C       -1.6750    -7.7680    -1.3730 C.3   1 <1>   0.0200 
 22 C       -2.2930    -9.0110    -0.7620 C.2   1 <1>  -0.0400 
 23 O       -3.4130    -8.9190    -0.0950 O.3   1 <1>  -0.0190 
 24 C       -1.9110   -10.2960    -0.7460 C.2   1 <1>  -0.1500 
 25 N       -3.7890   -10.0650     0.3830 N.2   1 <1>  -0.4100 
 26 C       -2.9090   -10.9190     0.0000 C.2   1 <1>   0.1080 
 27 C       -2.9590   -12.3960     0.3200 C.3   1 <1>  -0.0590 
 28 H        2.2370    -1.3450     1.8050 H     1 <1>   0.1500 
 29 H       -1.1110    -0.5920    -0.7210 H     1 <1>   0.1500 
 30 H       -2.8630    -0.2200     3.9400 H     1 <1>   0.1500 
 31 H        3.2600    -2.7340     0.0420 H     1 <1>   0.1500 
 32 H       -0.0980    -1.9880    -2.4890 H     1 <1>   0.1500 
 33 H       -3.8030    -2.6960     4.1830 H     1 <1>   0.1500 
 34 H       -3.0290    -5.1210     2.9220 H     1 <1>   0.0800 
 35 H       -1.2810    -5.1350     2.9820 H     1 <1>   0.0800 
 36 H        2.9700    -4.0120    -2.0140 H     1 <1>   0.0800 
 37 H        2.7550    -2.6910    -3.1360 H     1 <1>   0.0800 
 38 H        1.4930    -3.8840    -2.9370 H     1 <1>   0.0800 
 39 H       -2.7780    -4.2590     0.6250 H     1 <1>   0.4500 
 40 H       -0.7050    -3.5140     0.1110 H     1 <1>   0.0800 
 41 H        0.0330    -4.7230     1.1390 H     1 <1>   0.0800 
 42 H       -2.4780    -6.9550     1.4870 H     1 <1>   0.0800 
 43 H       -3.3180    -6.3350     0.0840 H     1 <1>   0.0800 
 44 H        0.4660    -5.6280    -1.0190 H     1 <1>   0.0800 
 45 H       -0.5370    -7.2900     0.3620 H     1 <1>   0.0800 
 46 H       -2.1860    -4.8450    -1.7230 H     1 <1>   0.4000 
 47 H       -0.8190    -8.0520    -1.9600 H     1 <1>   0.0800 
 48 H       -2.3940    -7.3200    -2.0380 H     1 <1>   0.0800 
 49 H       -1.0530   -10.7720    -1.1850 H     1 <1>   0.1500 
 50 H       -2.9790   -12.9670    -0.5900 H     1 <1>   0.0800 
 51 H       -3.8430   -12.6200     0.8900 H     1 <1>   0.0800 
 52 H       -2.0950   -12.6770     0.8950 H     1 <1>   0.0800 
@<TRIPOS>BOND
  1   1   2  1   
  2   1   3  1   
  3   2   4  ar  
  4   2   5  ar  
  5   3   6  1   
  6   3   7  2   
  7   4   8  ar  
  8   4  28  1   
  9   5   9  ar  
 10   5  29  1   
 11   6  10  1   
 12   7  11  1   
 13   7  30  1   
 14   8  12  ar  
 15   8  31  1   
 16   9  12  ar  
 17   9  32  1   
 18  10  11  2   
 19  10  13  1   
 20  11  33  1   
 21  12  14  1   
 22  13  15  1   
 23  13  34  1   
 24  13  35  1   
 25  14  36  1   
 26  14  37  1   
 27  14  38  1   
 28  15  16  1   
 29  15  17  1   
 30  15  39  1   
 31  16  18  1   
 32  16  40  1   
 33  16  41  1   
 34  17  19  1   
 35  17  42  1   
 36  17  43  1   
 37  18  19  1   
 38  18  20  1   
 39  18  44  1   
 40  19  21  1   
 41  19  45  1   
 42  20  46  1   
 43  21  22  1   
 44  21  47  1   
 45  21  48  1   
 46  22  23  1   
 47  22  24  2   
 48  23  25  1   
 49  24  26  1   
 50  24  49  1   
 51  25  26  2   
 52  26  27  1   
 53  27  50  1   
 54  27  51  1   
 55  27  52  1   
@<TRIPOS>SUBSTRUCTURE
  1 ****  16 GROUP 4 **** **** 0

# MOE 2024.06 (io_trps.svl 2023.06)
