@<TRIPOS>MOLECULE
NONAME
39 41 1 0 0 
SMALL
USER_CHARGES


@<TRIPOS>ATOM
  1 F       -2.9270     0.4390    -1.8560 F     1 <1>  -0.1900 
  2 C       -2.8180     0.9550    -0.6620 C.ar  1 <1>   0.1900 
  3 C       -2.7640     0.1250     0.4460 C.ar  1 <1>   0.0860 
  4 C       -2.7620     2.3310    -0.5400 C.ar  1 <1>   0.1600 
  5 C       -2.8440    -1.3140     0.3750 C.2   1 <1>   0.5440 
  6 C       -2.6230     0.7980     1.6520 C.ar  1 <1>  -0.1500 
  7 N       -2.6500     2.9650     0.6190 N.ar  1 <1>  -0.6200 
  8 O       -1.8600    -1.9610     0.6780 O.2   1 <1>  -0.5700 
  9 N       -4.0060    -1.9760     0.0240 N.am  1 <1>  -0.6600 
 10 C       -2.5740     2.1810     1.6860 C.ar  1 <1>   0.1600 
 11 C       -5.3220    -1.2760    -0.0800 C.3   1 <1>   0.2200 
 12 C       -3.9800    -3.4620    -0.1540 C.3   1 <1>   0.0600 
 13 C       -6.4300    -1.9010     0.7650 C.3   1 <1>  -0.1600 
 14 C       -5.8880    -1.2590    -1.4970 C.3   1 <1>  -0.1600 
 15 C       -7.7270    -1.3760     0.1380 C.3   1 <1>  -0.0800 
 16 C       -7.3840    -0.9770    -1.3090 C.3   1 <1>  -0.0800 
 17 C       -8.2680    -0.1100     0.8190 C.3   1 <1>  -0.1600 
 18 C       -7.7470     0.5090    -1.4480 C.3   1 <1>  -0.1600 
 19 C       -8.7430     0.7670    -0.3290 C.3   1 <1>   0.2000 
 20 O       -8.7130     2.0930     0.0400 O.3   1 <1>  -0.6800 
 21 H       -2.8110     2.9300    -1.4330 H     1 <1>   0.1500 
 22 H       -2.5500     0.2320     2.5640 H     1 <1>   0.1500 
 23 H       -2.4660     2.6720     2.6390 H     1 <1>   0.1500 
 24 H       -5.2230    -0.2540     0.2420 H     1 <1>   0.0800 
 25 H       -4.7250    -3.7810    -0.8580 H     1 <1>   0.0800 
 26 H       -4.1580    -3.9400     0.7930 H     1 <1>   0.0800 
 27 H       -3.0160    -3.7750    -0.5190 H     1 <1>   0.0800 
 28 H       -6.4240    -2.9710     0.6700 H     1 <1>   0.0800 
 29 H       -6.3360    -1.6380     1.8040 H     1 <1>   0.0800 
 30 H       -5.4060    -0.5220    -2.1140 H     1 <1>   0.0800 
 31 H       -5.7750    -2.2230    -1.9570 H     1 <1>   0.0800 
 32 H       -8.4870    -2.1400     0.1420 H     1 <1>   0.0800 
 33 H       -7.9690    -1.5590    -2.0030 H     1 <1>   0.0800 
 34 H       -7.4810     0.3900     1.3560 H     1 <1>   0.0800 
 35 H       -9.0740    -0.3400     1.4920 H     1 <1>   0.0800 
 36 H       -8.1810     0.7180    -2.4100 H     1 <1>   0.0800 
 37 H       -6.8740     1.1210    -1.3060 H     1 <1>   0.0800 
 38 H       -9.7450     0.5060    -0.6290 H     1 <1>   0.0800 
 39 H       -7.8110     2.3470     0.3060 H     1 <1>   0.4000 
@<TRIPOS>BOND
  1   1   2  1   
  2   2   3  ar  
  3   2   4  ar  
  4   3   5  1   
  5   3   6  ar  
  6   4   7  ar  
  7   4  21  1   
  8   5   8  2   
  9   5   9  am  
 10   6  10  ar  
 11   6  22  1   
 12   7  10  ar  
 13   9  11  1   
 14   9  12  1   
 15  10  23  1   
 16  11  13  1   
 17  11  14  1   
 18  11  24  1   
 19  12  25  1   
 20  12  26  1   
 21  12  27  1   
 22  13  15  1   
 23  13  28  1   
 24  13  29  1   
 25  14  16  1   
 26  14  30  1   
 27  14  31  1   
 28  15  16  1   
 29  15  17  1   
 30  15  32  1   
 31  16  18  1   
 32  16  33  1   
 33  17  19  1   
 34  17  34  1   
 35  17  35  1   
 36  18  19  1   
 37  18  36  1   
 38  18  37  1   
 39  19  20  1   
 40  19  38  1   
 41  20  39  1   
@<TRIPOS>SUBSTRUCTURE
  1 ****  11 GROUP 4 **** **** 0

# MOE 2024.06 (io_trps.svl 2023.06)
