@<TRIPOS>MOLECULE
NONAME
44 46 1 0 0 
SMALL
USER_CHARGES


@<TRIPOS>ATOM
  1 O       -0.0970    -1.5330    -0.8090 O.3   1 <1>  -0.6800 
  2 C        1.0440    -2.2330    -1.1330 C.3   1 <1>   0.2000 
  3 C        1.7060    -2.7660     0.1320 C.3   1 <1>  -0.1600 
  4 C        2.0680    -1.2840    -1.7400 C.3   1 <1>  -0.1600 
  5 C        3.2010    -2.8430    -0.2140 C.3   1 <1>  -0.0800 
  6 C        3.4240    -1.9290    -1.4240 C.3   1 <1>  -0.0800 
  7 C        4.1540    -2.3530     0.8880 C.3   1 <1>  -0.1600 
  8 C        4.5410    -0.9430    -1.0440 C.3   1 <1>  -0.1600 
  9 C        5.2270    -1.5040     0.2010 C.3   1 <1>   0.4230 
 10 N        6.4470    -2.2870    -0.1630 N.4   1 <1>  -0.9590 
 11 C        7.3110    -2.5400     1.0310 C.3   1 <1>   0.4860 
 12 C        6.2550    -3.5100    -0.9980 C.3   1 <1>   0.2630 
 13 C        8.0020    -1.2380     1.4290 C.ar  1 <1>   0.1670 
 14 N        8.3790    -0.4500     0.4270 N.ar  1 <1>  -0.6200 
 15 C        8.1910    -0.9380     2.7690 C.ar  1 <1>  -0.1500 
 16 C        8.9770     0.6800     0.7720 C.ar  1 <1>   0.1670 
 17 C        8.8100     0.2430     3.1150 C.ar  1 <1>  -0.1500 
 18 C        9.2100     1.0630     2.0830 C.ar  1 <1>  -0.1500 
 19 C        9.4180     1.5750    -0.3680 C.3   1 <1>  -0.0970 
 20 H       -0.7680    -2.1300    -0.4270 H     1 <1>   0.4000 
 21 H        0.7980    -3.0270    -1.8190 H     1 <1>   0.0800 
 22 H        1.5360    -2.0710     0.9360 H     1 <1>   0.0800 
 23 H        1.3150    -3.7310     0.4020 H     1 <1>   0.0800 
 24 H        1.9160    -1.1700    -2.7980 H     1 <1>   0.0800 
 25 H        1.9780    -0.3240    -1.2610 H     1 <1>   0.0800 
 26 H        3.4440    -3.8540    -0.4950 H     1 <1>   0.0800 
 27 H        3.7270    -2.5310    -2.2650 H     1 <1>   0.0800 
 28 H        4.5540    -3.1640     1.4680 H     1 <1>   0.0800 
 29 H        3.6210    -1.7000     1.5570 H     1 <1>   0.0800 
 30 H        4.1100     0.0030    -0.7700 H     1 <1>   0.0800 
 31 H        5.2260    -0.7690    -1.8550 H     1 <1>   0.0800 
 32 H        5.5180    -0.6860     0.8420 H     1 <1>   0.0800 
 33 H        7.0370    -1.6110    -0.6850 H     1 <1>   0.4500 
 34 H        6.7280    -2.9240     1.8510 H     1 <1>   0.0800 
 35 H        8.0730    -3.2580     0.7810 H     1 <1>   0.0800 
 36 H        5.6720    -4.2410    -0.4630 H     1 <1>   0.0800 
 37 H        7.2090    -3.9420    -1.2520 H     1 <1>   0.0800 
 38 H        5.7420    -3.2590    -1.9110 H     1 <1>   0.0800 
 39 H        7.8660    -1.6100     3.5440 H     1 <1>   0.1500 
 40 H        8.9790     0.5160     4.1440 H     1 <1>   0.1500 
 41 H        9.7010     1.9950     2.3000 H     1 <1>   0.1500 
 42 H        9.9020     2.4610    -0.0010 H     1 <1>   0.0800 
 43 H        8.5650     1.8660    -0.9530 H     1 <1>   0.0800 
 44 H       10.1070     1.0440    -0.9990 H     1 <1>   0.0800 
@<TRIPOS>BOND
  1   1   2  1   
  2   1  20  1   
  3   2   3  1   
  4   2   4  1   
  5   2  21  1   
  6   3   5  1   
  7   3  22  1   
  8   3  23  1   
  9   4   6  1   
 10   4  24  1   
 11   4  25  1   
 12   5   6  1   
 13   5   7  1   
 14   5  26  1   
 15   6   8  1   
 16   6  27  1   
 17   7   9  1   
 18   7  28  1   
 19   7  29  1   
 20   8   9  1   
 21   8  30  1   
 22   8  31  1   
 23   9  10  1   
 24   9  32  1   
 25  10  11  1   
 26  10  12  1   
 27  10  33  1   
 28  11  13  1   
 29  11  34  1   
 30  11  35  1   
 31  12  36  1   
 32  12  37  1   
 33  12  38  1   
 34  13  14  ar  
 35  13  15  ar  
 36  14  16  ar  
 37  15  17  ar  
 38  15  39  1   
 39  16  18  ar  
 40  16  19  1   
 41  17  18  ar  
 42  17  40  1   
 43  18  41  1   
 44  19  42  1   
 45  19  43  1   
 46  19  44  1   
@<TRIPOS>SUBSTRUCTURE
  1 ****   9 GROUP 4 **** **** 0

# MOE 2024.06 (io_trps.svl 2023.06)
