@<TRIPOS>MOLECULE
NONAME
57 60 1 0 0 
SMALL
USER_CHARGES


@<TRIPOS>ATOM
  1 O        2.0540    -0.4240    -0.7490 O.co2 1 <1>  -0.9000 
  2 C        1.8970     0.4370    -1.6240 C.2   1 <1>   0.9060 
  3 O        0.8350     1.0600    -1.7420 O.co2 1 <1>  -0.9000 
  4 C        3.0280     0.7270    -2.5810 C.3   1 <1>  -0.0850 
  5 C        4.0950     1.6260    -1.9870 C.2   1 <1>   0.1080 
  6 N        5.0600     2.1350    -2.6960 N.2   1 <1>  -0.7070 
  7 C        4.1790     2.0050    -0.6520 C.2   1 <1>  -0.1500 
  8 N        5.7790     2.8570    -1.8240 N.pl3 1 <1>   0.3000 
  9 C        5.2690     2.7970    -0.5740 C.2   1 <1>  -0.3320 
 10 C        5.8140     3.4820     0.6610 C.3   1 <1>   0.1000 
 11 C        5.8690     5.0000     0.4720 C.3   1 <1>  -0.1600 
 12 C        7.1940     2.9280     1.0280 C.3   1 <1>  -0.1600 
 13 C        6.4530     5.6820     1.7060 C.3   1 <1>   0.3430 
 14 C        7.7580     3.6400     2.2560 C.3   1 <1>   0.3430 
 15 N        7.8010     5.1080     2.0040 N.4   1 <1>  -0.9590 
 16 C        8.4750     5.8450     3.1080 C.3   1 <1>   0.4860 
 17 C        8.7440     7.2540     2.6200 C.ar  1 <1>  -0.1430 
 18 C        9.6370     7.4650     1.5800 C.ar  1 <1>  -0.1500 
 19 C        8.0930     8.3390     3.1880 C.ar  1 <1>  -0.1500 
 20 C        9.8630     8.7380     1.0880 C.ar  1 <1>   0.0820 
 21 C        8.3240     9.6170     2.7070 C.ar  1 <1>  -0.1500 
 22 O       10.7320     8.8270     0.0530 O.3   1 <1>  -0.3630 
 23 C        9.2030     9.8200     1.6580 C.ar  1 <1>  -0.1500 
 24 C       11.0620    10.0570    -0.5660 C.3   1 <1>   0.2000 
 25 C        9.9640    10.4380    -1.5590 C.3   1 <1>  -0.1600 
 26 C       12.2730     9.8130    -1.4580 C.3   1 <1>  -0.1600 
 27 C       10.2450     9.6180    -2.8230 C.3   1 <1>  -0.1600 
 28 C       11.7170     9.1930    -2.7430 C.3   1 <1>  -0.1600 
 29 H        2.6190     1.1930    -3.4540 H     1 <1>   0.0800 
 30 H        3.4720    -0.2060    -2.8640 H     1 <1>   0.0800 
 31 H        3.4900     1.6980     0.1190 H     1 <1>   0.1500 
 32 H        6.6080     3.3760    -2.1280 H     1 <1>   0.2700 
 33 H        5.1370     3.2660     1.4720 H     1 <1>   0.0800 
 34 H        4.8710     5.3680     0.3030 H     1 <1>   0.0800 
 35 H        6.4570     5.2550    -0.3910 H     1 <1>   0.0800 
 36 H        7.8750     3.0340     0.2020 H     1 <1>   0.0800 
 37 H        7.1030     1.8760     1.2380 H     1 <1>   0.0800 
 38 H        5.7950     5.5310     2.5470 H     1 <1>   0.0800 
 39 H        6.5310     6.7430     1.5220 H     1 <1>   0.0800 
 40 H        8.7490     3.2670     2.4620 H     1 <1>   0.0800 
 41 H        7.1320     3.4320     3.1090 H     1 <1>   0.0800 
 42 H        8.3780     5.2770     1.1700 H     1 <1>   0.4500 
 43 H        9.4120     5.3730     3.3570 H     1 <1>   0.0800 
 44 H        7.8520     5.8650     3.9860 H     1 <1>   0.0800 
 45 H       10.1790     6.6540     1.1270 H     1 <1>   0.1500 
 46 H        7.4030     8.2100     4.0060 H     1 <1>   0.1500 
 47 H        7.8190    10.4590     3.1510 H     1 <1>   0.1500 
 48 H        9.3590    10.8220     1.3030 H     1 <1>   0.1500 
 49 H       11.2590    10.7990     0.1880 H     1 <1>   0.0800 
 50 H       10.0650    11.4830    -1.7940 H     1 <1>   0.0800 
 51 H        8.9750    10.2660    -1.1720 H     1 <1>   0.0800 
 52 H       13.0080     9.1890    -0.9800 H     1 <1>   0.0800 
 53 H       12.7230    10.7610    -1.6930 H     1 <1>   0.0800 
 54 H       10.0510    10.1990    -3.7080 H     1 <1>   0.0800 
 55 H        9.6190     8.7420    -2.8370 H     1 <1>   0.0800 
 56 H       11.7760     8.1190    -2.6790 H     1 <1>   0.0800 
 57 H       12.2730     9.5210    -3.6050 H     1 <1>   0.0800 
@<TRIPOS>BOND
  1   1   2  ar  
  2   2   3  ar  
  3   2   4  1   
  4   4   5  1   
  5   4  29  1   
  6   4  30  1   
  7   5   6  2   
  8   5   7  1   
  9   6   8  1   
 10   7   9  2   
 11   7  31  1   
 12   8   9  1   
 13   8  32  1   
 14   9  10  1   
 15  10  11  1   
 16  10  12  1   
 17  10  33  1   
 18  11  13  1   
 19  11  34  1   
 20  11  35  1   
 21  12  14  1   
 22  12  36  1   
 23  12  37  1   
 24  13  15  1   
 25  13  38  1   
 26  13  39  1   
 27  14  15  1   
 28  14  40  1   
 29  14  41  1   
 30  15  16  1   
 31  15  42  1   
 32  16  17  1   
 33  16  43  1   
 34  16  44  1   
 35  17  18  ar  
 36  17  19  ar  
 37  18  20  ar  
 38  18  45  1   
 39  19  21  ar  
 40  19  46  1   
 41  20  22  1   
 42  20  23  ar  
 43  21  23  ar  
 44  21  47  1   
 45  22  24  1   
 46  23  48  1   
 47  24  25  1   
 48  24  26  1   
 49  24  49  1   
 50  25  27  1   
 51  25  50  1   
 52  25  51  1   
 53  26  28  1   
 54  26  52  1   
 55  26  53  1   
 56  27  28  1   
 57  27  54  1   
 58  27  55  1   
 59  28  56  1   
 60  28  57  1   
@<TRIPOS>SUBSTRUCTURE
  1 ****  11 GROUP 4 **** **** 0

# MOE 2024.06 (io_trps.svl 2023.06)
