@<TRIPOS>MOLECULE
NONAME
53 55 1 0 0 
SMALL
USER_CHARGES


@<TRIPOS>ATOM
  1 O       -0.8730     0.6740    -1.8530 O.2   1 <1>  -0.5700 
  2 C       -0.5730     1.6640    -1.2370 C.2   1 <1>   0.5690 
  3 N       -1.5080     2.3550    -0.5450 N.am  1 <1>  -0.7300 
  4 C        0.8760     2.1720    -1.2620 C.3   1 <1>   0.1810 
  5 C       -1.1810     3.5310     0.2920 C.3   1 <1>   0.3640 
  6 O        1.1640     3.1350    -0.2670 O.3   1 <1>  -0.5600 
  7 C       -2.2760     4.5850     0.1610 C.ar  1 <1>  -0.1440 
  8 C        0.1760     4.1410    -0.1190 C.3   1 <1>   0.2610 
  9 C       -2.7620     4.9720    -1.0790 C.ar  1 <1>  -0.1500 
 10 C       -2.7730     5.2050     1.2950 C.ar  1 <1>  -0.1500 
 11 C        0.5810     5.2150     0.9040 C.2   1 <1>   0.5690 
 12 C       -3.7120     5.9710    -1.2050 C.ar  1 <1>   0.0830 
 13 C       -3.7360     6.1930     1.1920 C.ar  1 <1>  -0.1500 
 14 O        0.4960     4.9450     2.0830 O.2   1 <1>  -0.5700 
 15 N        0.9760     6.4670     0.4970 N.am  1 <1>  -0.6600 
 16 O       -4.0590     6.2570    -2.4920 O.3   1 <1>  -0.3620 
 17 C       -4.2220     6.5920    -0.0510 C.ar  1 <1>   0.0830 
 18 C        1.1130     7.5900     1.4800 C.3   1 <1>   0.1400 
 19 C        1.1680     6.8760    -0.9280 C.3   1 <1>   0.1400 
 20 C       -4.5110     7.5380    -2.8720 C.3   1 <1>   0.0400 
 21 O       -5.1820     7.5570    -0.1590 O.3   1 <1>  -0.3630 
 22 C        0.4630     8.9020     0.9580 C.3   1 <1>   0.2800 
 23 C        1.6720     8.3250    -1.0440 C.3   1 <1>   0.1200 
 24 C       -5.7280     8.2080     0.9680 C.3   1 <1>   0.0400 
 25 O        0.8220     9.2080    -0.3650 O.3   1 <1>  -0.5600 
 26 C       -1.0650     8.7930     0.9610 C.3   1 <1>  -0.2400 
 27 C        0.9040    10.0950     1.8050 C.3   1 <1>  -0.2400 
 28 H       -2.4700     2.0140    -0.5270 H     1 <1>   0.3700 
 29 H        1.0780     2.6110    -2.2220 H     1 <1>   0.0800 
 30 H        1.5440     1.3430    -1.1150 H     1 <1>   0.0800 
 31 H       -1.1220     3.2040     1.3160 H     1 <1>   0.0800 
 32 H        0.0500     4.5990    -1.0800 H     1 <1>   0.0800 
 33 H       -2.3990     4.5030    -1.9770 H     1 <1>   0.1500 
 34 H       -2.4040     4.9290     2.2700 H     1 <1>   0.1500 
 35 H       -4.0900     6.6390     2.1020 H     1 <1>   0.1500 
 36 H        0.6590     7.3250     2.4190 H     1 <1>   0.0800 
 37 H        2.1580     7.7570     1.6690 H     1 <1>   0.0800 
 38 H        1.8770     6.2150    -1.3970 H     1 <1>   0.0800 
 39 H        0.2300     6.8030    -1.4510 H     1 <1>   0.0800 
 40 H       -4.4130     7.6250    -3.9390 H     1 <1>   0.0800 
 41 H       -3.9080     8.2830    -2.3830 H     1 <1>   0.0800 
 42 H       -5.5440     7.6380    -2.5930 H     1 <1>   0.0800 
 43 H        1.7010     8.6290    -2.0750 H     1 <1>   0.0800 
 44 H        2.6620     8.4190    -0.6310 H     1 <1>   0.0800 
 45 H       -6.4570     8.9180     0.6210 H     1 <1>   0.0800 
 46 H       -4.9410     8.7200     1.4920 H     1 <1>   0.0800 
 47 H       -6.2030     7.4770     1.5980 H     1 <1>   0.0800 
 48 H       -1.4240     8.6020     1.9550 H     1 <1>   0.0800 
 49 H       -1.3830     7.9850     0.3280 H     1 <1>   0.0800 
 50 H       -1.5050     9.7080     0.6060 H     1 <1>   0.0800 
 51 H        0.6120     9.9530     2.8290 H     1 <1>   0.0800 
 52 H        0.4470    10.9980     1.4410 H     1 <1>   0.0800 
 53 H        1.9720    10.2040     1.7650 H     1 <1>   0.0800 
@<TRIPOS>BOND
  1   1   2  2   
  2   2   3  am  
  3   2   4  1   
  4   3   5  1   
  5   3  28  1   
  6   4   6  1   
  7   4  29  1   
  8   4  30  1   
  9   5   7  1   
 10   5   8  1   
 11   5  31  1   
 12   6   8  1   
 13   7   9  ar  
 14   7  10  ar  
 15   8  11  1   
 16   8  32  1   
 17   9  12  ar  
 18   9  33  1   
 19  10  13  ar  
 20  10  34  1   
 21  11  14  2   
 22  11  15  am  
 23  12  16  1   
 24  12  17  ar  
 25  13  17  ar  
 26  13  35  1   
 27  15  18  1   
 28  15  19  1   
 29  16  20  1   
 30  17  21  1   
 31  18  22  1   
 32  18  36  1   
 33  18  37  1   
 34  19  23  1   
 35  19  38  1   
 36  19  39  1   
 37  20  40  1   
 38  20  41  1   
 39  20  42  1   
 40  21  24  1   
 41  22  25  1   
 42  22  26  1   
 43  22  27  1   
 44  23  25  1   
 45  23  43  1   
 46  23  44  1   
 47  24  45  1   
 48  24  46  1   
 49  24  47  1   
 50  26  48  1   
 51  26  49  1   
 52  26  50  1   
 53  27  51  1   
 54  27  52  1   
 55  27  53  1   
@<TRIPOS>SUBSTRUCTURE
  1 ****   7 GROUP 4 **** **** 0

# MOE 2024.06 (io_trps.svl 2023.06)
