@<TRIPOS>MOLECULE
NONAME
55 59 1 0 0 
SMALL
USER_CHARGES


@<TRIPOS>ATOM
  1 O        0.1530    -1.1480    -2.1680 O.2   1 <1>  -0.5700 
  2 C        0.8800    -1.6360    -1.3360 C.2   1 <1>   0.5690 
  3 N        0.4590    -1.9930    -0.0840 N.am  1 <1>  -0.6600 
  4 C        2.3380    -1.8690    -1.6770 C.3   1 <1>  -0.0990 
  5 C        1.4100    -2.6030     0.8790 C.3   1 <1>   0.1400 
  6 C       -0.9330    -1.7720     0.3900 C.3   1 <1>   0.0600 
  7 C        2.7880    -3.2710    -1.2210 C.3   1 <1>  -0.0800 
  8 C        2.2480    -3.6810     0.1690 C.3   1 <1>  -0.0800 
  9 C        4.3110    -3.4260    -1.1490 C.3   1 <1>  -0.1600 
 10 C        3.4720    -4.1210     0.9860 C.3   1 <1>  -0.1600 
 11 C        4.5250    -4.4730    -0.0570 C.3   1 <1>   0.2200 
 12 N        5.8910    -4.5490     0.5370 N.am  1 <1>  -0.6600 
 13 C        6.9570    -3.8030     0.0830 C.2   1 <1>   0.5440 
 14 C        6.1820    -5.8600     1.1790 C.3   1 <1>   0.0600 
 15 O        7.8680    -4.3880    -0.4750 O.2   1 <1>  -0.5700 
 16 C        7.0300    -2.3660     0.2780 C.ar  1 <1>   0.0860 
 17 C        6.4430    -1.7400     1.3770 C.ar  1 <1>  -0.1500 
 18 C        7.6950    -1.5450    -0.6310 C.ar  1 <1>  -0.1500 
 19 C        6.5070    -0.3710     1.5500 C.ar  1 <1>  -0.1500 
 20 C        7.7590    -0.1750    -0.4590 C.ar  1 <1>  -0.1500 
 21 C        7.1660     0.4540     0.6370 C.ar  1 <1>   0.0540 
 22 C        7.2340     1.8930     0.8270 C.2   1 <1>   0.4620 
 23 N        6.7000     2.5460     1.7990 N.2   1 <1>  -0.4100 
 24 N        7.8800     2.7020    -0.0170 N.2   1 <1>  -0.5650 
 25 O        6.9770     3.8000     1.6320 O.3   1 <1>  -0.0190 
 26 C        7.6850     3.8280     0.5340 C.2   1 <1>   0.3930 
 27 C        8.1880     5.1740     0.0330 C.3   1 <1>  -0.0150 
 28 C        9.4440     5.2920    -0.7780 C.3   1 <1>  -0.2000 
 29 C        9.4110     5.7970     0.6340 C.3   1 <1>  -0.2000 
 30 H        2.4840    -1.7600    -2.7360 H     1 <1>   0.0800 
 31 H        2.9100    -1.1070    -1.1800 H     1 <1>   0.0800 
 32 H        2.0490    -1.8260     1.2630 H     1 <1>   0.0800 
 33 H        0.8750    -3.0420     1.7040 H     1 <1>   0.0800 
 34 H       -0.9270    -1.1360     1.2580 H     1 <1>   0.0800 
 35 H       -1.3870    -2.7150     0.6390 H     1 <1>   0.0800 
 36 H       -1.5220    -1.2990    -0.3780 H     1 <1>   0.0800 
 37 H        2.4080    -3.9850    -1.9340 H     1 <1>   0.0800 
 38 H        1.6140    -4.5410     0.0300 H     1 <1>   0.0800 
 39 H        4.7350    -2.4850    -0.8590 H     1 <1>   0.0800 
 40 H        4.7270    -3.7410    -2.0900 H     1 <1>   0.0800 
 41 H        3.2420    -4.9600     1.6180 H     1 <1>   0.0800 
 42 H        3.8290    -3.3030     1.5850 H     1 <1>   0.0800 
 43 H        4.2810    -5.4350    -0.4790 H     1 <1>   0.0800 
 44 H        5.4860    -6.0460     1.9770 H     1 <1>   0.0800 
 45 H        7.1800    -5.8590     1.5840 H     1 <1>   0.0800 
 46 H        6.1110    -6.6480     0.4480 H     1 <1>   0.0800 
 47 H        5.9370    -2.3440     2.1090 H     1 <1>   0.1500 
 48 H        8.1690    -1.9990    -1.4850 H     1 <1>   0.1500 
 49 H        6.0400     0.0710     2.4140 H     1 <1>   0.1500 
 50 H        8.2830     0.4190    -1.1880 H     1 <1>   0.1500 
 51 H        7.3750     5.8290    -0.2250 H     1 <1>   0.1000 
 52 H       10.0020     4.3980    -0.9960 H     1 <1>   0.1000 
 53 H        9.4680     6.0010    -1.5860 H     1 <1>   0.1000 
 54 H        9.4170     6.8590     0.8080 H     1 <1>   0.1000 
 55 H        9.9550     5.2520     1.3870 H     1 <1>   0.1000 
@<TRIPOS>BOND
  1   1   2  2   
  2   2   3  am  
  3   2   4  1   
  4   3   5  1   
  5   3   6  1   
  6   4   7  1   
  7   4  30  1   
  8   4  31  1   
  9   5   8  1   
 10   5  32  1   
 11   5  33  1   
 12   6  34  1   
 13   6  35  1   
 14   6  36  1   
 15   7   8  1   
 16   7   9  1   
 17   7  37  1   
 18   8  10  1   
 19   8  38  1   
 20   9  11  1   
 21   9  39  1   
 22   9  40  1   
 23  10  11  1   
 24  10  41  1   
 25  10  42  1   
 26  11  12  1   
 27  11  43  1   
 28  12  13  am  
 29  12  14  1   
 30  13  15  2   
 31  13  16  1   
 32  14  44  1   
 33  14  45  1   
 34  14  46  1   
 35  16  17  ar  
 36  16  18  ar  
 37  17  19  ar  
 38  17  47  1   
 39  18  20  ar  
 40  18  48  1   
 41  19  21  ar  
 42  19  49  1   
 43  20  21  ar  
 44  20  50  1   
 45  21  22  1   
 46  22  23  2   
 47  22  24  1   
 48  23  25  1   
 49  24  26  2   
 50  25  26  1   
 51  26  27  1   
 52  27  28  1   
 53  27  29  1   
 54  27  51  1   
 55  28  29  1   
 56  28  52  1   
 57  28  53  1   
 58  29  54  1   
 59  29  55  1   
@<TRIPOS>SUBSTRUCTURE
  1 ****  19 GROUP 4 **** **** 0

# MOE 2024.06 (io_trps.svl 2023.06)
