@<TRIPOS>MOLECULE
NONAME
48 51 1 0 0 
SMALL
USER_CHARGES


@<TRIPOS>ATOM
  1 O       -2.1080     2.4760    -1.8300 O.2   1 <1>  -0.5700 
  2 C       -2.2760     1.8550    -0.7950 C.2   1 <1>   0.5440 
  3 N       -3.1970     0.8400    -0.7700 N.am  1 <1>  -0.6600 
  4 C       -1.4430     2.1330     0.3500 C.ar  1 <1>   0.0860 
  5 C       -4.1020     0.5220    -1.9080 C.3   1 <1>   0.1400 
  6 C       -3.0800    -0.3480     0.1070 C.3   1 <1>   0.1400 
  7 C       -0.1740     1.5410     0.4820 C.ar  1 <1>   0.0530 
  8 C       -1.9050     2.9820     1.3530 C.ar  1 <1>  -0.1500 
  9 C       -4.5400    -0.9380    -1.7020 C.3   1 <1>   0.2000 
 10 C       -3.4400    -1.5160    -0.8100 C.3   1 <1>  -0.0800 
 11 C        0.3650     0.6470    -0.5160 C.2   1 <1>   0.1330 
 12 C        0.5700     1.8180     1.6280 C.ar  1 <1>  -0.1500 
 13 C       -1.1470     3.2480     2.4760 C.ar  1 <1>  -0.1500 
 14 O       -5.7500    -0.9870    -1.0000 O.3   1 <1>  -0.5600 
 15 C       -3.8040    -2.7960    -0.0390 C.3   1 <1>   0.0200 
 16 N        1.0190    -0.4550    -0.2760 N.2   1 <1>  -0.3380 
 17 N        0.2580     0.8270    -1.8390 N.pl3 1 <1>   0.0330 
 18 C        0.0970     2.6600     2.6140 C.ar  1 <1>  -0.1500 
 19 C       -6.8950    -0.8610    -1.7820 C.3   1 <1>   0.0400 
 20 C       -2.6000    -3.3780     0.6830 C.2   1 <1>  -0.0400 
 21 N        1.3310    -1.0060    -1.4470 N.2   1 <1>  -0.3380 
 22 C        0.8700    -0.2260    -2.3630 C.2   1 <1>   0.0360 
 23 O       -2.7770    -4.2870     1.6050 O.3   1 <1>  -0.0190 
 24 C       -1.2800    -3.1540     0.5810 C.2   1 <1>  -0.1500 
 25 N       -1.6490    -4.6750     2.1300 N.2   1 <1>  -0.4100 
 26 C       -0.7300    -4.0050     1.5310 C.2   1 <1>   0.1080 
 27 C        0.7500    -4.1240     1.8170 C.3   1 <1>  -0.0590 
 28 H       -4.9400     1.1950    -1.9220 H     1 <1>   0.0800 
 29 H       -3.5540     0.6120    -2.8290 H     1 <1>   0.0800 
 30 H       -2.0920    -0.4600     0.5160 H     1 <1>   0.0800 
 31 H       -3.7960    -0.2640     0.9090 H     1 <1>   0.0800 
 32 H       -2.8760     3.4360     1.2450 H     1 <1>   0.1500 
 33 H       -4.6400    -1.4810    -2.6260 H     1 <1>   0.0800 
 34 H       -2.5900    -1.7200    -1.4360 H     1 <1>   0.0800 
 35 H        1.5380     1.3590     1.7430 H     1 <1>   0.1500 
 36 H       -1.5200     3.9070     3.2420 H     1 <1>   0.1500 
 37 H       -4.1890    -3.5350    -0.7190 H     1 <1>   0.0800 
 38 H       -4.5730    -2.5810     0.6820 H     1 <1>   0.0800 
 39 H       -0.2440     1.5930    -2.3040 H     1 <1>   0.2700 
 40 H        0.6930     2.8590     3.4890 H     1 <1>   0.1500 
 41 H       -7.7500    -0.9070    -1.1310 H     1 <1>   0.0800 
 42 H       -6.9360    -1.6730    -2.4870 H     1 <1>   0.0800 
 43 H       -6.8840     0.0850    -2.2930 H     1 <1>   0.0800 
 44 H        0.9580    -0.3960    -3.4210 H     1 <1>   0.1500 
 45 H       -0.7260    -2.4920    -0.0590 H     1 <1>   0.1500 
 46 H        1.2480    -3.2030     1.5720 H     1 <1>   0.0800 
 47 H        1.1680    -4.9180     1.2270 H     1 <1>   0.0800 
 48 H        0.9040    -4.3400     2.8580 H     1 <1>   0.0800 
@<TRIPOS>BOND
  1   1   2  2   
  2   2   3  am  
  3   2   4  1   
  4   3   5  1   
  5   3   6  1   
  6   4   7  ar  
  7   4   8  ar  
  8   5   9  1   
  9   5  28  1   
 10   5  29  1   
 11   6  10  1   
 12   6  30  1   
 13   6  31  1   
 14   7  11  1   
 15   7  12  ar  
 16   8  13  ar  
 17   8  32  1   
 18   9  10  1   
 19   9  14  1   
 20   9  33  1   
 21  10  15  1   
 22  10  34  1   
 23  11  16  2   
 24  11  17  1   
 25  12  18  ar  
 26  12  35  1   
 27  13  18  ar  
 28  13  36  1   
 29  14  19  1   
 30  15  20  1   
 31  15  37  1   
 32  15  38  1   
 33  16  21  1   
 34  17  22  1   
 35  17  39  1   
 36  18  40  1   
 37  19  41  1   
 38  19  42  1   
 39  19  43  1   
 40  20  23  1   
 41  20  24  2   
 42  21  22  2   
 43  22  44  1   
 44  23  25  1   
 45  24  26  1   
 46  24  45  1   
 47  25  26  2   
 48  26  27  1   
 49  27  46  1   
 50  27  47  1   
 51  27  48  1   
@<TRIPOS>SUBSTRUCTURE
  1 ****   6 GROUP 4 **** **** 0

# MOE 2024.06 (io_trps.svl 2023.06)
