@<TRIPOS>MOLECULE
NONAME
48 50 1 0 0 
SMALL
USER_CHARGES


@<TRIPOS>ATOM
  1 O       -0.7040     1.1060    -0.0320 O.2   1 <1>  -0.5700 
  2 C       -0.4090     2.2710     0.0330 C.2   1 <1>   0.5690 
  3 N       -1.2850     3.1810     0.5120 N.am  1 <1>  -0.7300 
  4 C        0.9620     2.7480    -0.4580 C.3   1 <1>   0.1810 
  5 C       -1.0000     4.6310     0.6100 C.3   1 <1>   0.3640 
  6 O        1.3060     4.0330     0.0250 O.3   1 <1>  -0.5600 
  7 C       -2.2120     5.3960     0.0880 C.ar  1 <1>  -0.1440 
  8 C        0.2950     5.0180    -0.1510 C.3   1 <1>   0.2610 
  9 C       -2.7490     5.1170    -1.1620 C.ar  1 <1>  -0.1500 
 10 C       -2.7930     6.3890     0.8650 C.ar  1 <1>  -0.1500 
 11 C        0.8100     6.3820     0.3310 C.2   1 <1>   0.5690 
 12 C       -3.8430     5.8240    -1.6300 C.ar  1 <1>  -0.1500 
 13 C       -3.8880     7.0950     0.3970 C.ar  1 <1>  -0.1500 
 14 O        0.2230     7.3990     0.0450 O.2   1 <1>  -0.5700 
 15 N        1.9590     6.4380     1.0610 N.am  1 <1>  -0.7300 
 16 C       -4.4130     6.8140    -0.8510 C.ar  1 <1>  -0.1500 
 17 C        2.5030     7.5880     1.8460 C.3   1 <1>   0.1400 
 18 C        3.1630     8.6700     0.9630 C.3   1 <1>   0.3430 
 19 N        2.1790     9.3270     0.0540 N.4   1 <1>  -0.9590 
 20 C        2.8100     9.9080    -1.1780 C.3   1 <1>   0.3430 
 21 C        1.3100    10.3390     0.7450 C.3   1 <1>   0.3430 
 22 C        1.7640    10.6070    -2.0690 C.3   1 <1>   0.1200 
 23 C        0.3360    11.0050    -0.2450 C.3   1 <1>   0.1200 
 24 O        1.0420    11.5460    -1.3250 O.3   1 <1>  -0.5600 
 25 H       -2.2140     2.8660     0.7980 H     1 <1>   0.3700 
 26 H        0.9660     2.7740    -1.5330 H     1 <1>   0.0800 
 27 H        1.7160     2.0570    -0.1270 H     1 <1>   0.0800 
 28 H       -0.8630     4.8660     1.6520 H     1 <1>   0.0800 
 29 H        0.0870     5.0910    -1.2030 H     1 <1>   0.0800 
 30 H       -2.3250     4.3450    -1.7810 H     1 <1>   0.1500 
 31 H       -2.4010     6.6240     1.8390 H     1 <1>   0.1500 
 32 H       -4.2540     5.6010    -2.6000 H     1 <1>   0.1500 
 33 H       -4.3350     7.8630     1.0050 H     1 <1>   0.1500 
 34 H        2.4220     5.5280     1.2070 H     1 <1>   0.3700 
 35 H       -5.2650     7.3620    -1.2140 H     1 <1>   0.1500 
 36 H        1.7120     8.0260     2.4300 H     1 <1>   0.0800 
 37 H        3.2390     7.2090     2.5340 H     1 <1>   0.0800 
 38 H        3.9370     8.1980     0.3810 H     1 <1>   0.0800 
 39 H        3.6280     9.4130     1.5890 H     1 <1>   0.0800 
 40 H        1.5190     8.5780    -0.2460 H     1 <1>   0.4500 
 41 H        3.5560    10.6340    -0.8980 H     1 <1>   0.0800 
 42 H        3.2960     9.1310    -1.7440 H     1 <1>   0.0800 
 43 H        0.7400     9.8610     1.5250 H     1 <1>   0.0800 
 44 H        1.9200    11.1060     1.1920 H     1 <1>   0.0800 
 45 H        1.0760     9.8950    -2.4910 H     1 <1>   0.0800 
 46 H        2.2510    11.1310    -2.8730 H     1 <1>   0.0800 
 47 H       -0.1940    11.8080     0.2360 H     1 <1>   0.0800 
 48 H       -0.3820    10.2930    -0.6180 H     1 <1>   0.0800 
@<TRIPOS>BOND
  1   1   2  2   
  2   2   3  am  
  3   2   4  1   
  4   3   5  1   
  5   3  25  1   
  6   4   6  1   
  7   4  26  1   
  8   4  27  1   
  9   5   7  1   
 10   5   8  1   
 11   5  28  1   
 12   6   8  1   
 13   7   9  ar  
 14   7  10  ar  
 15   8  11  1   
 16   8  29  1   
 17   9  12  ar  
 18   9  30  1   
 19  10  13  ar  
 20  10  31  1   
 21  11  14  2   
 22  11  15  am  
 23  12  16  ar  
 24  12  32  1   
 25  13  16  ar  
 26  13  33  1   
 27  15  17  1   
 28  15  34  1   
 29  16  35  1   
 30  17  18  1   
 31  17  36  1   
 32  17  37  1   
 33  18  19  1   
 34  18  38  1   
 35  18  39  1   
 36  19  20  1   
 37  19  21  1   
 38  19  40  1   
 39  20  22  1   
 40  20  41  1   
 41  20  42  1   
 42  21  23  1   
 43  21  43  1   
 44  21  44  1   
 45  22  24  1   
 46  22  45  1   
 47  22  46  1   
 48  23  24  1   
 49  23  47  1   
 50  23  48  1   
@<TRIPOS>SUBSTRUCTURE
  1 ****  14 GROUP 4 **** **** 0

# MOE 2024.06 (io_trps.svl 2023.06)
