@<TRIPOS>MOLECULE
NONAME
58 60 1 0 0 
SMALL
USER_CHARGES


@<TRIPOS>ATOM
  1 O       -1.1730    -2.1420    -1.6590 O.3   1 <1>  -0.6800 
  2 C       -2.4620    -2.4600    -1.2640 C.3   1 <1>   0.1200 
  3 C       -2.4100    -3.7750    -0.4790 C.3   1 <1>   0.1100 
  4 N       -3.7500    -4.1960    -0.0050 N.3   1 <1>  -0.8100 
  5 C       -3.7310    -5.6320     0.3640 C.3   1 <1>   0.1100 
  6 C       -4.2060    -3.3920     1.1560 C.3   1 <1>   0.1100 
  7 C       -5.1090    -6.1200     0.8740 C.3   1 <1>   0.3430 
  8 C       -5.5820    -3.8680     1.6850 C.3   1 <1>   0.3430 
  9 N       -6.1220    -5.0000     0.8450 N.4   1 <1>  -0.9590 
 10 C       -7.5400    -5.3980     1.1100 C.3   1 <1>   0.4230 
 11 C       -7.9730    -6.4990     0.1340 C.3   1 <1>  -0.1600 
 12 C       -8.4710    -4.1860     0.9590 C.3   1 <1>  -0.1600 
 13 C       -9.4510    -6.8510     0.2870 C.3   1 <1>   0.3430 
 14 C       -9.9410    -4.5770     1.1120 C.3   1 <1>   0.3430 
 15 N      -10.3050    -5.6340     0.1310 N.4   1 <1>  -0.9590 
 16 C      -11.7670    -5.9720     0.3030 C.3   1 <1>   0.3430 
 17 C      -12.3700    -6.8000    -0.8430 C.3   1 <1>  -0.0170 
 18 C      -11.9370    -8.2550    -0.8220 C.ar  1 <1>   0.1670 
 19 N      -11.7490    -8.7940     0.3740 N.ar  1 <1>  -0.6200 
 20 C      -11.7560    -8.9340    -2.0170 C.ar  1 <1>  -0.1500 
 21 C      -11.3940   -10.0700     0.3880 C.ar  1 <1>   0.1670 
 22 C      -11.3640   -10.2550    -1.9920 C.ar  1 <1>  -0.1500 
 23 C      -11.1860   -10.8280    -0.7520 C.ar  1 <1>  -0.1500 
 24 C      -11.2240   -10.6990     1.7560 C.3   1 <1>  -0.0970 
 25 H       -1.1650    -1.3340    -2.2110 H     1 <1>   0.4000 
 26 H       -3.0680    -2.5730    -2.1470 H     1 <1>   0.0800 
 27 H       -2.8300    -1.6530    -0.6580 H     1 <1>   0.0800 
 28 H       -1.7360    -3.6710     0.3550 H     1 <1>   0.0800 
 29 H       -2.0140    -4.5270    -1.1410 H     1 <1>   0.0800 
 30 H       -2.9870    -5.8070     1.1240 H     1 <1>   0.0800 
 31 H       -3.4530    -6.2170    -0.4970 H     1 <1>   0.0800 
 32 H       -4.2870    -2.3570     0.8710 H     1 <1>   0.0800 
 33 H       -3.4810    -3.4500     1.9520 H     1 <1>   0.0800 
 34 H       -5.0020    -6.5010     1.8760 H     1 <1>   0.0800 
 35 H       -5.4250    -6.9330     0.2440 H     1 <1>   0.0800 
 36 H       -6.2540    -3.0270     1.6640 H     1 <1>   0.0800 
 37 H       -5.4790    -4.1810     2.7110 H     1 <1>   0.0800 
 38 H       -6.0170    -4.6350    -0.1170 H     1 <1>   0.4500 
 39 H       -7.6180    -5.7760     2.1180 H     1 <1>   0.0800 
 40 H       -7.4200    -7.4010     0.3200 H     1 <1>   0.0800 
 41 H       -7.7930    -6.1950    -0.8830 H     1 <1>   0.0800 
 42 H       -8.3310    -3.7190     0.0000 H     1 <1>   0.0800 
 43 H       -8.2600    -3.4600     1.7230 H     1 <1>   0.0800 
 44 H       -9.6300    -7.3000     1.2510 H     1 <1>   0.0800 
 45 H       -9.7060    -7.5820    -0.4630 H     1 <1>   0.0800 
 46 H      -10.5610    -3.7070     0.9590 H     1 <1>   0.0800 
 47 H      -10.1180    -4.9380     2.1140 H     1 <1>   0.0800 
 48 H      -10.1880    -5.2680    -0.8240 H     1 <1>   0.4500 
 49 H      -12.3300    -5.0550     0.3700 H     1 <1>   0.0800 
 50 H      -11.9120    -6.5060     1.2300 H     1 <1>   0.0800 
 51 H      -12.1500    -6.3440    -1.7900 H     1 <1>   0.0800 
 52 H      -13.4380    -6.7940    -0.7230 H     1 <1>   0.0800 
 53 H      -11.9260    -8.4500    -2.9620 H     1 <1>   0.1500 
 54 H      -11.2150   -10.8180    -2.8980 H     1 <1>   0.1500 
 55 H      -10.8940   -11.8600    -0.6780 H     1 <1>   0.1500 
 56 H      -10.4650   -10.1770     2.3080 H     1 <1>   0.0800 
 57 H      -10.9440   -11.7330     1.6750 H     1 <1>   0.0800 
 58 H      -12.1510   -10.6360     2.2960 H     1 <1>   0.0800 
@<TRIPOS>BOND
  1   1   2  1   
  2   1  25  1   
  3   2   3  1   
  4   2  26  1   
  5   2  27  1   
  6   3   4  1   
  7   3  28  1   
  8   3  29  1   
  9   4   5  1   
 10   4   6  1   
 11   5   7  1   
 12   5  30  1   
 13   5  31  1   
 14   6   8  1   
 15   6  32  1   
 16   6  33  1   
 17   7   9  1   
 18   7  34  1   
 19   7  35  1   
 20   8   9  1   
 21   8  36  1   
 22   8  37  1   
 23   9  10  1   
 24   9  38  1   
 25  10  11  1   
 26  10  12  1   
 27  10  39  1   
 28  11  13  1   
 29  11  40  1   
 30  11  41  1   
 31  12  14  1   
 32  12  42  1   
 33  12  43  1   
 34  13  15  1   
 35  13  44  1   
 36  13  45  1   
 37  14  15  1   
 38  14  46  1   
 39  14  47  1   
 40  15  16  1   
 41  15  48  1   
 42  16  17  1   
 43  16  49  1   
 44  16  50  1   
 45  17  18  1   
 46  17  51  1   
 47  17  52  1   
 48  18  19  ar  
 49  18  20  ar  
 50  19  21  ar  
 51  20  22  ar  
 52  20  53  1   
 53  21  23  ar  
 54  21  24  1   
 55  22  23  ar  
 56  22  54  1   
 57  23  55  1   
 58  24  56  1   
 59  24  57  1   
 60  24  58  1   
@<TRIPOS>SUBSTRUCTURE
  1 ****  11 GROUP 4 **** **** 0

# MOE 2024.06 (io_trps.svl 2023.06)
