@<TRIPOS>MOLECULE
NONAME
49 52 1 0 0 
SMALL
USER_CHARGES


@<TRIPOS>ATOM
  1 O       -0.2770     0.1000     0.3070 O.2   1 <1>  -0.5700 
  2 C       -1.4610    -0.1670     0.1970 C.2   1 <1>   0.7800 
  3 O       -1.9540    -1.3880     0.4070 O.3   1 <1>  -0.2330 
  4 N       -2.4560     0.7110    -0.1250 N.am  1 <1>  -0.4770 
  5 C       -3.2880    -1.3030     0.2270 C.ar  1 <1>   0.0820 
  6 C       -3.6310    -0.0100    -0.1030 C.ar  1 <1>   0.1170 
  7 C       -2.2690     2.1390    -0.4480 C.3   1 <1>   0.1400 
  8 C       -4.2350    -2.3040     0.3390 C.ar  1 <1>  -0.1500 
  9 C       -4.9570     0.3250    -0.3320 C.ar  1 <1>  -0.1500 
 10 C       -2.1530     2.9490     0.8410 C.3   1 <1>  -0.0990 
 11 C       -5.5610    -1.9700     0.1080 C.ar  1 <1>  -0.1500 
 12 C       -5.9240    -0.6650    -0.2260 C.ar  1 <1>  -0.1440 
 13 C       -1.5480     4.2980     0.5320 C.2   1 <1>   0.5690 
 14 C       -7.3870    -0.3410    -0.4690 C.3   1 <1>  -0.0960 
 15 O       -2.2960     5.2170     0.3090 O.2   1 <1>  -0.5700 
 16 N       -0.1910     4.4490     0.4860 N.am  1 <1>  -0.6600 
 17 C        0.4650     5.7470     0.1660 C.3   1 <1>   0.1400 
 18 C        0.8410     3.4060     0.7160 C.3   1 <1>   0.1400 
 19 C        1.9160     5.5940     0.6370 C.3   1 <1>   0.4240 
 20 C        2.1710     4.1010     0.4210 C.3   1 <1>  -0.1600 
 21 O        1.9400     5.8110     2.0030 O.3   1 <1>  -0.6800 
 22 C        2.9040     6.5620    -0.0280 C.ar  1 <1>  -0.1440 
 23 C        2.5560     7.8990    -0.1850 C.ar  1 <1>  -0.1500 
 24 C        4.1540     6.1500    -0.4770 C.ar  1 <1>  -0.1500 
 25 C        3.4190     8.7930    -0.7940 C.ar  1 <1>  -0.1500 
 26 C        5.0200     7.0420    -1.0870 C.ar  1 <1>  -0.1500 
 27 C        4.6520     8.3650    -1.2490 C.ar  1 <1>  -0.1500 
 28 H       -3.0920     2.4970    -1.0420 H     1 <1>   0.0800 
 29 H       -1.3680     2.2400    -1.0290 H     1 <1>   0.0800 
 30 H       -3.9410    -3.3050     0.5970 H     1 <1>   0.1500 
 31 H       -5.2180     1.3360    -0.5870 H     1 <1>   0.1500 
 32 H       -1.5400     2.4400     1.5600 H     1 <1>   0.0800 
 33 H       -3.1290     3.0900     1.2680 H     1 <1>   0.0800 
 34 H       -6.3180    -2.7310     0.1870 H     1 <1>   0.1500 
 35 H       -7.5190     0.7010    -0.7000 H     1 <1>   0.0800 
 36 H       -7.9650    -0.5720     0.4080 H     1 <1>   0.0800 
 37 H       -7.7590    -0.9240    -1.2930 H     1 <1>   0.0800 
 38 H       -0.0300     6.5710     0.6510 H     1 <1>   0.0800 
 39 H        0.4410     5.8940    -0.8990 H     1 <1>   0.0800 
 40 H        0.6940     2.5590     0.0660 H     1 <1>   0.0800 
 41 H        0.8060     3.0830     1.7420 H     1 <1>   0.0800 
 42 H        2.4150     3.9270    -0.6110 H     1 <1>   0.0800 
 43 H        2.9730     3.7280     1.0330 H     1 <1>   0.0800 
 44 H        1.1610     5.3680     2.3890 H     1 <1>   0.4000 
 45 H        1.6090     8.2600     0.1740 H     1 <1>   0.1500 
 46 H        4.4770     5.1320    -0.3560 H     1 <1>   0.1500 
 47 H        3.1320     9.8240    -0.9100 H     1 <1>   0.1500 
 48 H        5.9820     6.7070    -1.4320 H     1 <1>   0.1500 
 49 H        5.3250     9.0580    -1.7230 H     1 <1>   0.1500 
@<TRIPOS>BOND
  1   1   2  2   
  2   2   3  1   
  3   2   4  am  
  4   3   5  1   
  5   4   6  1   
  6   4   7  1   
  7   5   6  ar  
  8   5   8  ar  
  9   6   9  ar  
 10   7  10  1   
 11   7  28  1   
 12   7  29  1   
 13   8  11  ar  
 14   8  30  1   
 15   9  12  ar  
 16   9  31  1   
 17  10  13  1   
 18  10  32  1   
 19  10  33  1   
 20  11  12  ar  
 21  11  34  1   
 22  12  14  1   
 23  13  15  2   
 24  13  16  am  
 25  14  35  1   
 26  14  36  1   
 27  14  37  1   
 28  16  17  1   
 29  16  18  1   
 30  17  19  1   
 31  17  38  1   
 32  17  39  1   
 33  18  20  1   
 34  18  40  1   
 35  18  41  1   
 36  19  20  1   
 37  19  21  1   
 38  19  22  1   
 39  20  42  1   
 40  20  43  1   
 41  21  44  1   
 42  22  23  ar  
 43  22  24  ar  
 44  23  25  ar  
 45  23  45  1   
 46  24  26  ar  
 47  24  46  1   
 48  25  27  ar  
 49  25  47  1   
 50  26  27  ar  
 51  26  48  1   
 52  27  49  1   
@<TRIPOS>SUBSTRUCTURE
  1 ****  16 GROUP 4 **** **** 0

# MOE 2024.06 (io_trps.svl 2023.06)
