@<TRIPOS>MOLECULE
NONAME
50 52 1 0 0 
SMALL
USER_CHARGES


@<TRIPOS>ATOM
  1 CL      -0.1110    -0.1890     0.9060 Cl    1 <1>  -0.1770 
  2 C        1.4410    -0.7480     0.3350 C.ar  1 <1>   0.1770 
  3 C        2.5950    -0.2370     0.9000 C.ar  1 <1>  -0.1500 
  4 C        1.4900    -1.6890    -0.6760 C.ar  1 <1>  -0.1500 
  5 C        3.8360    -0.6720     0.4540 C.ar  1 <1>  -0.1440 
  6 C        2.7230    -2.1310    -1.1210 C.ar  1 <1>  -0.1500 
  7 C        3.8880    -1.6380    -0.5500 C.ar  1 <1>   0.0830 
  8 C        5.1000    -0.0820     1.0620 C.3   1 <1>   0.3530 
  9 O        5.0700    -2.1030    -1.0080 O.3   1 <1>  -0.3630 
 10 N        5.0460     1.3900     0.9570 N.pl3 1 <1>  -0.8690 
 11 C        5.6910    -3.1420    -0.2820 C.3   1 <1>   0.2000 
 12 C        6.1290     2.1620     1.2960 C.ar  1 <1>   0.4100 
 13 C        7.1950    -3.0240    -0.5160 C.3   1 <1>  -0.2400 
 14 C        5.1550    -4.4860    -0.7780 C.3   1 <1>  -0.2400 
 15 N        7.0660     1.5990     2.0470 N.ar  1 <1>  -0.6200 
 16 C        6.1970     3.4720     0.8470 C.ar  1 <1>  -0.1500 
 17 C        8.0880     2.3720     2.3670 C.ar  1 <1>   0.1600 
 18 C        7.2760     4.2770     1.1580 C.ar  1 <1>   0.0860 
 19 C        8.2390     3.6820     1.9620 C.ar  1 <1>  -0.1500 
 20 C        7.3790     5.6430     0.6820 C.2   1 <1>   0.5440 
 21 O        6.4210     6.3860     0.7800 O.2   1 <1>  -0.5700 
 22 N        8.5340     6.1230     0.1080 N.am  1 <1>  -0.6600 
 23 C        8.6530     7.5220    -0.3610 C.3   1 <1>   0.1400 
 24 C        9.6070     5.2810    -0.4680 C.3   1 <1>   0.1400 
 25 C        9.9830     7.5780    -1.1030 C.3   1 <1>  -0.1600 
 26 C       10.2290     6.1430    -1.5610 C.3   1 <1>  -0.1600 
 27 H        2.5210     0.5020     1.6800 H     1 <1>   0.1500 
 28 H        0.5780    -2.0640    -1.1040 H     1 <1>   0.1500 
 29 H        2.7890    -2.8570    -1.9120 H     1 <1>   0.1500 
 30 H        5.9790    -0.4340     0.5530 H     1 <1>   0.0800 
 31 H        5.1730    -0.3630     2.0990 H     1 <1>   0.0800 
 32 H        4.5200     1.6920     0.1360 H     1 <1>   0.4000 
 33 H        5.4710    -3.0140     0.7650 H     1 <1>   0.0800 
 34 H        7.4200    -3.1290    -1.5620 H     1 <1>   0.0800 
 35 H        7.7130    -3.7940     0.0260 H     1 <1>   0.0800 
 36 H        7.5510    -2.0700    -0.1710 H     1 <1>   0.0800 
 37 H        5.3080    -4.5810    -1.8380 H     1 <1>   0.0800 
 38 H        4.1080    -4.5750    -0.5560 H     1 <1>   0.0800 
 39 H        5.6690    -5.2890    -0.2840 H     1 <1>   0.0800 
 40 H        5.3970     3.8690     0.2510 H     1 <1>   0.1500 
 41 H        8.8480     1.9320     2.9910 H     1 <1>   0.1500 
 42 H        9.0970     4.2490     2.2720 H     1 <1>   0.1500 
 43 H        8.6280     8.2050     0.4720 H     1 <1>   0.0800 
 44 H        7.8360     7.7400    -1.0280 H     1 <1>   0.0800 
 45 H        9.2140     4.3620    -0.8690 H     1 <1>   0.0800 
 46 H       10.3360     5.0680     0.2940 H     1 <1>   0.0800 
 47 H       10.7530     7.8810    -0.4160 H     1 <1>   0.0800 
 48 H        9.9520     8.2720    -1.9240 H     1 <1>   0.0800 
 49 H        9.7100     5.9620    -2.4870 H     1 <1>   0.0800 
 50 H       11.2740     5.9270    -1.6960 H     1 <1>   0.0800 
@<TRIPOS>BOND
  1   1   2  1   
  2   2   3  ar  
  3   2   4  ar  
  4   3   5  ar  
  5   3  27  1   
  6   4   6  ar  
  7   4  28  1   
  8   5   7  ar  
  9   5   8  1   
 10   6   7  ar  
 11   6  29  1   
 12   7   9  1   
 13   8  10  1   
 14   8  30  1   
 15   8  31  1   
 16   9  11  1   
 17  10  12  1   
 18  10  32  1   
 19  11  13  1   
 20  11  14  1   
 21  11  33  1   
 22  12  15  ar  
 23  12  16  ar  
 24  13  34  1   
 25  13  35  1   
 26  13  36  1   
 27  14  37  1   
 28  14  38  1   
 29  14  39  1   
 30  15  17  ar  
 31  16  18  ar  
 32  16  40  1   
 33  17  19  ar  
 34  17  41  1   
 35  18  19  ar  
 36  18  20  1   
 37  19  42  1   
 38  20  21  2   
 39  20  22  am  
 40  22  23  1   
 41  22  24  1   
 42  23  25  1   
 43  23  43  1   
 44  23  44  1   
 45  24  26  1   
 46  24  45  1   
 47  24  46  1   
 48  25  26  1   
 49  25  47  1   
 50  25  48  1   
 51  26  49  1   
 52  26  50  1   
@<TRIPOS>SUBSTRUCTURE
  1 ****  10 GROUP 4 **** **** 0

# MOE 2024.06 (io_trps.svl 2023.06)
