@<TRIPOS>MOLECULE
NONAME
51 53 1 0 0 
SMALL
USER_CHARGES


@<TRIPOS>ATOM
  1 O        1.6580    -0.5580     3.8100 O.2   1 <1>  -0.5700 
  2 C        2.3010    -1.1160     2.9360 C.2   1 <1>   0.5440 
  3 N        3.6790    -0.9590     2.9560 N.am  1 <1>  -0.6600 
  4 C        1.5880    -1.9120     1.9340 C.ar  1 <1>   0.3960 
  5 C        4.6370    -1.8220     2.1980 C.3   1 <1>   0.1400 
  6 C        4.3260     0.2010     3.6220 C.3   1 <1>   0.1400 
  7 N        1.9820    -1.9320     0.6590 N.ar  1 <1>  -0.6200 
  8 C        0.4780    -2.6470     2.3050 C.ar  1 <1>  -0.1500 
  9 C        5.3210    -0.9980     1.1030 C.3   1 <1>   0.2000 
 10 C        4.9670     1.0830     2.5450 C.3   1 <1>  -0.1600 
 11 C        1.2920    -2.6810    -0.1790 C.ar  1 <1>   0.4770 
 12 C       -0.1720    -3.3870     1.3540 C.ar  1 <1>   0.1600 
 13 O        6.3040    -1.7840     0.5140 O.3   1 <1>  -0.6800 
 14 C        5.9560     0.2890     1.6820 C.3   1 <1>   0.2200 
 15 N        0.2280    -3.4180     0.1050 N.ar  1 <1>  -0.6200 
 16 C        1.7900    -2.6940    -1.6320 C.3   1 <1>   0.0630 
 17 N        6.4520     1.1830     0.6040 N.am  1 <1>  -0.7300 
 18 C        0.7050    -2.2350    -2.6200 C.3   1 <1>  -0.2400 
 19 C        2.3230    -4.0790    -2.0330 C.3   1 <1>  -0.2400 
 20 C        7.6290     1.0390    -0.0730 C.2   1 <1>   0.5440 
 21 O        8.2940     0.0470     0.1510 O.2   1 <1>  -0.5700 
 22 C        8.0500     2.0220    -1.0570 C.ar  1 <1>   0.0860 
 23 C        8.8580     1.6540    -2.1340 C.ar  1 <1>  -0.1500 
 24 C        7.6680     3.3630    -0.9730 C.ar  1 <1>  -0.1500 
 25 C        9.2560     2.5730    -3.0880 C.ar  1 <1>  -0.1500 
 26 C        8.0620     4.2870    -1.9240 C.ar  1 <1>  -0.1500 
 27 C        8.8560     3.8930    -2.9850 C.ar  1 <1>  -0.1500 
 28 H        5.3820    -2.1910     2.8810 H     1 <1>   0.0800 
 29 H        4.1380    -2.6680     1.7620 H     1 <1>   0.0800 
 30 H        3.6050     0.7760     4.1790 H     1 <1>   0.0800 
 31 H        5.0720    -0.1550     4.3110 H     1 <1>   0.0800 
 32 H        0.1360    -2.6310     3.3230 H     1 <1>   0.1500 
 33 H        4.5990    -0.7470     0.3450 H     1 <1>   0.0800 
 34 H        5.4810     1.8970     3.0240 H     1 <1>   0.0800 
 35 H        4.1810     1.4870     1.9320 H     1 <1>   0.0800 
 36 H       -1.0400    -3.9680     1.6200 H     1 <1>   0.1500 
 37 H        7.0730    -1.2050     0.2670 H     1 <1>   0.4000 
 38 H        6.7850    -0.0020     2.3060 H     1 <1>   0.0800 
 39 H        2.6090    -1.9990    -1.7060 H     1 <1>   0.0800 
 40 H        5.7880     1.8900     0.2870 H     1 <1>   0.3700 
 41 H       -0.1260    -2.9190    -2.6110 H     1 <1>   0.0800 
 42 H        1.1020    -2.1850    -3.6180 H     1 <1>   0.0800 
 43 H        0.3470    -1.2590    -2.3430 H     1 <1>   0.0800 
 44 H        1.5360    -4.8100    -1.9920 H     1 <1>   0.0800 
 45 H        3.1050    -4.3780    -1.3580 H     1 <1>   0.0800 
 46 H        2.7230    -4.0530    -3.0310 H     1 <1>   0.0800 
 47 H        9.1780     0.6290    -2.2200 H     1 <1>   0.1500 
 48 H        7.0630     3.6930    -0.1480 H     1 <1>   0.1500 
 49 H        9.8790     2.2620    -3.9090 H     1 <1>   0.1500 
 50 H        7.7550     5.3160    -1.8390 H     1 <1>   0.1500 
 51 H        9.1650     4.6100    -3.7260 H     1 <1>   0.1500 
@<TRIPOS>BOND
  1   1   2  2   
  2   2   3  am  
  3   2   4  1   
  4   3   5  1   
  5   3   6  1   
  6   4   7  ar  
  7   4   8  ar  
  8   5   9  1   
  9   5  28  1   
 10   5  29  1   
 11   6  10  1   
 12   6  30  1   
 13   6  31  1   
 14   7  11  ar  
 15   8  12  ar  
 16   8  32  1   
 17   9  13  1   
 18   9  14  1   
 19   9  33  1   
 20  10  14  1   
 21  10  34  1   
 22  10  35  1   
 23  11  15  ar  
 24  11  16  1   
 25  12  15  ar  
 26  12  36  1   
 27  13  37  1   
 28  14  17  1   
 29  14  38  1   
 30  16  18  1   
 31  16  19  1   
 32  16  39  1   
 33  17  20  am  
 34  17  40  1   
 35  18  41  1   
 36  18  42  1   
 37  18  43  1   
 38  19  44  1   
 39  19  45  1   
 40  19  46  1   
 41  20  21  2   
 42  20  22  1   
 43  22  23  ar  
 44  22  24  ar  
 45  23  25  ar  
 46  23  47  1   
 47  24  26  ar  
 48  24  48  1   
 49  25  27  ar  
 50  25  49  1   
 51  26  27  ar  
 52  26  50  1   
 53  27  51  1   
@<TRIPOS>SUBSTRUCTURE
  1 ****   9 GROUP 4 **** **** 0

# MOE 2024.06 (io_trps.svl 2023.06)
