@<TRIPOS>MOLECULE
NONAME
53 56 1 0 0 
SMALL
USER_CHARGES


@<TRIPOS>ATOM
  1 O       -0.4770     0.1950     0.7730 O.2   1 <1>  -0.5700 
  2 C       -1.4880     0.8710     0.7900 C.2   1 <1>   0.5440 
  3 N       -2.7090     0.2370     0.8790 N.am  1 <1>  -0.6600 
  4 C       -1.3980     2.3040     0.7080 C.ar  1 <1>   0.0860 
  5 C       -2.8270    -1.2320     1.1480 C.3   1 <1>   0.1400 
  6 C       -3.9980     0.8380     0.4100 C.3   1 <1>   0.1400 
  7 C       -0.7890     2.9920    -0.3310 C.ar  1 <1>   0.1660 
  8 C       -1.9550     3.0960     1.6930 C.ar  1 <1>   0.1600 
  9 C       -3.4950    -1.9560    -0.0340 C.3   1 <1>   0.3440 
 10 C       -4.6100     0.0020    -0.7390 C.3   1 <1>   0.2950 
 11 N       -0.7640     4.3000    -0.3840 N.ar  1 <1>  -0.6200 
 12 C       -0.1140     2.2630    -1.4800 C.3   1 <1>  -0.0960 
 13 N       -1.9490     4.4040     1.6610 N.ar  1 <1>  -0.6200 
 14 O       -4.7160    -1.3380    -0.3520 O.3   1 <1>  -0.5600 
 15 C       -3.7350    -3.4240     0.3060 C.ar  1 <1>  -0.1440 
 16 C       -6.0130     0.4520    -1.1820 C.3   1 <1>  -0.1950 
 17 C       -1.3460     4.9660     0.6130 C.ar  1 <1>   0.7200 
 18 C       -2.7490    -4.3590     0.0280 C.ar  1 <1>  -0.1500 
 19 C       -4.9150    -3.8480     0.9040 C.ar  1 <1>  -0.1500 
 20 C       -6.4830     1.8750    -1.1370 C.3   1 <1>  -0.2000 
 21 C       -7.1040     0.8440    -0.2340 C.3   1 <1>  -0.2000 
 22 N       -1.3260     6.3400     0.5540 N.pl3 1 <1>  -0.8380 
 23 C       -2.9360    -5.6940     0.3430 C.ar  1 <1>  -0.1500 
 24 C       -5.1040    -5.1820     1.2190 C.ar  1 <1>  -0.1500 
 25 C       -2.1270     7.1930     1.4760 C.3   1 <1>   0.1290 
 26 C       -0.4630     7.0820    -0.4070 C.3   1 <1>   0.1290 
 27 C       -4.1140    -6.1070     0.9390 C.ar  1 <1>  -0.1500 
 28 H       -1.8610    -1.6700     1.3290 H     1 <1>   0.0800 
 29 H       -3.4220    -1.3840     2.0320 H     1 <1>   0.0800 
 30 H       -4.6850     0.8730     1.2350 H     1 <1>   0.0800 
 31 H       -3.8440     1.8420     0.0610 H     1 <1>   0.0800 
 32 H       -2.4260     2.6190     2.5350 H     1 <1>   0.1500 
 33 H       -2.8580    -1.8950    -0.8990 H     1 <1>   0.0800 
 34 H       -3.9540     0.0510    -1.5920 H     1 <1>   0.0800 
 35 H       -0.7040     1.4240    -1.8000 H     1 <1>   0.0800 
 36 H        0.8510     1.9100    -1.1630 H     1 <1>   0.0800 
 37 H        0.0190     2.9250    -2.3170 H     1 <1>   0.0800 
 38 H       -6.3200    -0.1120    -2.0460 H     1 <1>   0.1000 
 39 H       -1.8250    -4.0540    -0.4340 H     1 <1>   0.1500 
 40 H       -5.6930    -3.1370     1.1240 H     1 <1>   0.1500 
 41 H       -5.8860     2.6460    -0.6810 H     1 <1>   0.1000 
 42 H       -7.0640     2.2500    -1.9610 H     1 <1>   0.1000 
 43 H       -8.1030     0.5020    -0.4440 H     1 <1>   0.1000 
 44 H       -6.9040     0.8840     0.8220 H     1 <1>   0.1000 
 45 H       -2.1650    -6.4120     0.1230 H     1 <1>   0.1500 
 46 H       -6.0230    -5.4990     1.6800 H     1 <1>   0.1500 
 47 H       -2.4370     8.0920     0.9720 H     1 <1>   0.0800 
 48 H       -1.5320     7.4540     2.3340 H     1 <1>   0.0800 
 49 H       -3.0090     6.6730     1.8080 H     1 <1>   0.0800 
 50 H       -0.1330     8.0080     0.0280 H     1 <1>   0.0800 
 51 H       -1.0190     7.2880    -1.3050 H     1 <1>   0.0800 
 52 H        0.4080     6.5020    -0.6620 H     1 <1>   0.0800 
 53 H       -4.2610    -7.1440     1.1830 H     1 <1>   0.1500 
@<TRIPOS>BOND
  1   1   2  2   
  2   2   3  am  
  3   2   4  1   
  4   3   5  1   
  5   3   6  1   
  6   4   7  ar  
  7   4   8  ar  
  8   5   9  1   
  9   5  28  1   
 10   5  29  1   
 11   6  10  1   
 12   6  30  1   
 13   6  31  1   
 14   7  11  ar  
 15   7  12  1   
 16   8  13  ar  
 17   8  32  1   
 18   9  14  1   
 19   9  15  1   
 20   9  33  1   
 21  10  14  1   
 22  10  16  1   
 23  10  34  1   
 24  11  17  ar  
 25  12  35  1   
 26  12  36  1   
 27  12  37  1   
 28  13  17  ar  
 29  15  18  ar  
 30  15  19  ar  
 31  16  20  1   
 32  16  21  1   
 33  16  38  1   
 34  17  22  1   
 35  18  23  ar  
 36  18  39  1   
 37  19  24  ar  
 38  19  40  1   
 39  20  21  1   
 40  20  41  1   
 41  20  42  1   
 42  21  43  1   
 43  21  44  1   
 44  22  25  1   
 45  22  26  1   
 46  23  27  ar  
 47  23  45  1   
 48  24  27  ar  
 49  24  46  1   
 50  25  47  1   
 51  25  48  1   
 52  25  49  1   
 53  26  50  1   
 54  26  51  1   
 55  26  52  1   
 56  27  53  1   
@<TRIPOS>SUBSTRUCTURE
  1 ****   3 GROUP 4 **** **** 0

# MOE 2024.06 (io_trps.svl 2023.06)
