@<TRIPOS>MOLECULE
NONAME
54 56 1 0 0 
SMALL
USER_CHARGES


@<TRIPOS>ATOM
  1 O        0.2290    -0.0260     1.1520 O.2   1 <1>  -0.5700 
  2 C        1.1730    -0.3410     0.4670 C.2   1 <1>   0.5690 
  3 N        2.0130     0.5900    -0.0530 N.am  1 <1>  -0.7300 
  4 C        1.3910    -1.8400     0.1900 C.3   1 <1>   0.4040 
  5 C        1.9250     2.0360     0.2300 C.3   1 <1>   0.2840 
  6 N        0.1600    -2.6890     0.4270 N.4   1 <1>  -0.9590 
  7 C        3.3210     2.6110     0.0850 C.ar  1 <1>  -0.1430 
  8 C        0.4710    -4.1420     0.4950 C.3   1 <1>   0.3430 
  9 C       -0.9290    -2.3680    -0.5410 C.3   1 <1>   0.3430 
 10 C        3.7450     3.1310    -1.1290 C.ar  1 <1>  -0.1500 
 11 C        4.1920     2.6130     1.1640 C.ar  1 <1>  -0.1500 
 12 C       -0.7790    -4.9120     0.9090 C.3   1 <1>  -0.1600 
 13 C       -2.2000    -3.1130    -0.1440 C.3   1 <1>  -0.1600 
 14 C        5.0220     3.6470    -1.2590 C.ar  1 <1>  -0.1500 
 15 C        5.4680     3.1300     1.0310 C.ar  1 <1>  -0.1500 
 16 C       -1.9720    -4.6280    -0.0180 C.3   1 <1>   0.1000 
 17 C        5.8960     3.6600    -0.1780 C.ar  1 <1>   0.1170 
 18 C       -3.2300    -5.2930     0.5310 C.2   1 <1>   0.0060 
 19 N        7.1910     4.1770    -0.2890 N.am  1 <1>  -0.5470 
 20 N       -3.6680    -5.0860     1.7260 N.2   1 <1>  -0.3380 
 21 N       -4.0190    -6.1470    -0.1360 N.pl3 1 <1>   0.0480 
 22 C        7.6320     5.3750    -0.7520 C.2   1 <1>   0.5690 
 23 N       -4.7730    -5.8130     1.8740 N.2   1 <1>  -0.3380 
 24 C       -4.9630    -6.4320     0.7620 C.2   1 <1>   0.0360 
 25 C       -3.9210    -6.6710    -1.5120 C.3   1 <1>   0.0160 
 26 O        8.8110     5.6100    -0.7800 O.2   1 <1>  -0.5700 
 27 C        6.6640     6.4390    -1.2150 C.3   1 <1>  -0.1790 
 28 H        2.8510     0.3540    -0.5940 H     1 <1>   0.3700 
 29 H        2.1810    -2.1740     0.8410 H     1 <1>   0.0800 
 30 H        1.7240    -1.9590    -0.8260 H     1 <1>   0.0800 
 31 H        1.5510     2.2010     1.2280 H     1 <1>   0.0800 
 32 H        1.2510     2.5040    -0.4680 H     1 <1>   0.0800 
 33 H       -0.2040    -2.3870     1.3490 H     1 <1>   0.4500 
 34 H        1.2520    -4.3210     1.2170 H     1 <1>   0.0800 
 35 H        0.8090    -4.4910    -0.4670 H     1 <1>   0.0800 
 36 H       -0.6340    -2.6550    -1.5370 H     1 <1>   0.0800 
 37 H       -1.1270    -1.3070    -0.5350 H     1 <1>   0.0800 
 38 H        3.0850     3.1380    -1.9800 H     1 <1>   0.1500 
 39 H        3.8800     2.2130     2.1140 H     1 <1>   0.1500 
 40 H       -1.0290    -4.6470     1.9230 H     1 <1>   0.0800 
 41 H       -0.5680    -5.9670     0.9030 H     1 <1>   0.0800 
 42 H       -2.9650    -2.9270    -0.8770 H     1 <1>   0.0800 
 43 H       -2.5570    -2.7180     0.7920 H     1 <1>   0.0800 
 44 H        5.3460     4.0360    -2.2070 H     1 <1>   0.1500 
 45 H        6.1350     3.1310     1.8750 H     1 <1>   0.1500 
 46 H       -1.7510    -5.0270    -0.9920 H     1 <1>   0.0800 
 47 H        7.9470     3.6060     0.0900 H     1 <1>   0.3700 
 48 H       -5.7820    -7.1020     0.5690 H     1 <1>   0.1500 
 49 H       -3.0180    -7.2450    -1.6120 H     1 <1>   0.0800 
 50 H       -3.9130    -5.8520    -2.2080 H     1 <1>   0.0800 
 51 H       -4.7660    -7.3020    -1.7190 H     1 <1>   0.0800 
 52 H        5.7880     6.4440    -0.5950 H     1 <1>   0.0800 
 53 H        6.3850     6.2540    -2.2350 H     1 <1>   0.0800 
 54 H        7.1360     7.4020    -1.1550 H     1 <1>   0.0800 
@<TRIPOS>BOND
  1   1   2  2   
  2   2   3  am  
  3   2   4  1   
  4   3   5  1   
  5   3  28  1   
  6   4   6  1   
  7   4  29  1   
  8   4  30  1   
  9   5   7  1   
 10   5  31  1   
 11   5  32  1   
 12   6   8  1   
 13   6   9  1   
 14   6  33  1   
 15   7  10  ar  
 16   7  11  ar  
 17   8  12  1   
 18   8  34  1   
 19   8  35  1   
 20   9  13  1   
 21   9  36  1   
 22   9  37  1   
 23  10  14  ar  
 24  10  38  1   
 25  11  15  ar  
 26  11  39  1   
 27  12  16  1   
 28  12  40  1   
 29  12  41  1   
 30  13  16  1   
 31  13  42  1   
 32  13  43  1   
 33  14  17  ar  
 34  14  44  1   
 35  15  17  ar  
 36  15  45  1   
 37  16  18  1   
 38  16  46  1   
 39  17  19  1   
 40  18  20  2   
 41  18  21  1   
 42  19  22  am  
 43  19  47  1   
 44  20  23  1   
 45  21  24  1   
 46  21  25  1   
 47  22  26  2   
 48  22  27  1   
 49  23  24  2   
 50  24  48  1   
 51  25  49  1   
 52  25  50  1   
 53  25  51  1   
 54  27  52  1   
 55  27  53  1   
 56  27  54  1   
@<TRIPOS>SUBSTRUCTURE
  1 ****   2 GROUP 4 **** **** 0

# MOE 2024.06 (io_trps.svl 2023.06)
