@<TRIPOS>MOLECULE
NONAME
48 49 1 0 0 
SMALL
USER_CHARGES


@<TRIPOS>ATOM
  1 S        0.1990    -0.1510     0.0730 S.o2  1 <1>   1.4470 
  2 O        0.7580    -0.5880    -1.1860 O.2   1 <1>  -0.6500 
  3 O        0.6340    -0.7450     1.3160 O.2   1 <1>  -0.6500 
  4 N       -1.4530    -0.4480     0.0310 N.am  1 <1>  -0.9140 
  5 C        0.2860     1.6610     0.1790 C.ar  1 <1>  -0.0090 
  6 C       -1.8570    -1.6560    -0.6750 C.3   1 <1>   0.1960 
  7 C        0.9000     2.3000     1.2500 C.ar  1 <1>  -0.1500 
  8 C       -0.2660     2.4610    -0.8150 C.ar  1 <1>  -0.1500 
  9 C       -1.4970    -2.9090     0.1290 C.3   1 <1>  -0.1600 
 10 C        0.9620     3.6810     1.3230 C.ar  1 <1>  -0.1500 
 11 C       -0.2050     3.8420    -0.7440 C.ar  1 <1>  -0.1500 
 12 C       -2.0480    -4.1730    -0.5410 C.3   1 <1>  -0.2400 
 13 C        0.4180     4.4830     0.3250 C.ar  1 <1>   0.0860 
 14 C        0.4930     5.9290     0.4040 C.2   1 <1>   0.5440 
 15 O       -0.1150     6.4940     1.2910 O.2   1 <1>  -0.5700 
 16 N        1.2450     6.6750    -0.4860 N.am  1 <1>  -0.6600 
 17 C        1.2700     8.1840    -0.4870 C.3   1 <1>   0.2200 
 18 C        2.2610     6.0500    -1.3770 C.3   1 <1>   0.1400 
 19 C        1.7170     8.8060     0.8420 C.3   1 <1>   0.2000 
 20 C       -0.1030     8.8250    -0.7410 C.3   1 <1>   0.1200 
 21 C        3.6200     6.0570    -0.6810 C.3   1 <1>  -0.2400 
 22 O        2.7380     9.7230     0.6000 O.3   1 <1>  -0.6800 
 23 C        0.4790     9.5720     1.3020 C.3   1 <1>   0.1200 
 24 O       -0.1780     9.9190     0.1240 O.3   1 <1>  -0.5600 
 25 H       -1.7020    -0.5690     1.0110 H     1 <1>   0.4200 
 26 H       -2.9250    -1.6250    -0.8110 H     1 <1>   0.0800 
 27 H       -1.4050    -1.6900    -1.6530 H     1 <1>   0.0800 
 28 H        1.3340     1.7090     2.0400 H     1 <1>   0.1500 
 29 H       -0.7520     1.9910    -1.6540 H     1 <1>   0.1500 
 30 H       -0.4270    -3.0040     0.2040 H     1 <1>   0.0800 
 31 H       -1.9060    -2.8360     1.1220 H     1 <1>   0.0800 
 32 H        1.4360     4.1540     2.1660 H     1 <1>   0.1500 
 33 H       -0.6460     4.4380    -1.5230 H     1 <1>   0.1500 
 34 H       -1.6370    -4.2830    -1.5300 H     1 <1>   0.0800 
 35 H       -3.1210    -4.1290    -0.6120 H     1 <1>   0.0800 
 36 H       -1.7790    -5.0410     0.0360 H     1 <1>   0.0800 
 37 H        1.9340     8.5170    -1.2640 H     1 <1>   0.0800 
 38 H        1.9900     5.0380    -1.6190 H     1 <1>   0.0800 
 39 H        2.3180     6.5970    -2.3040 H     1 <1>   0.0800 
 40 H        2.0600     8.0850     1.5630 H     1 <1>   0.0800 
 41 H       -0.9070     8.1540    -0.4940 H     1 <1>   0.0800 
 42 H       -0.2050     9.1760    -1.7510 H     1 <1>   0.0800 
 43 H        3.5700     5.5080     0.2420 H     1 <1>   0.0800 
 44 H        3.9390     7.0640    -0.4790 H     1 <1>   0.0800 
 45 H        4.3530     5.5910    -1.3140 H     1 <1>   0.0800 
 46 H        2.3560    10.4950     0.1360 H     1 <1>   0.4000 
 47 H        0.7170    10.4560     1.8670 H     1 <1>   0.0800 
 48 H       -0.1760     8.9370     1.8740 H     1 <1>   0.0800 
@<TRIPOS>BOND
  1   1   2  2   
  2   1   3  2   
  3   1   4  am  
  4   1   5  1   
  5   4   6  1   
  6   4  25  1   
  7   5   7  ar  
  8   5   8  ar  
  9   6   9  1   
 10   6  26  1   
 11   6  27  1   
 12   7  10  ar  
 13   7  28  1   
 14   8  11  ar  
 15   8  29  1   
 16   9  12  1   
 17   9  30  1   
 18   9  31  1   
 19  10  13  ar  
 20  10  32  1   
 21  11  13  ar  
 22  11  33  1   
 23  12  34  1   
 24  12  35  1   
 25  12  36  1   
 26  13  14  1   
 27  14  15  2   
 28  14  16  am  
 29  16  17  1   
 30  16  18  1   
 31  17  19  1   
 32  17  20  1   
 33  17  37  1   
 34  18  21  1   
 35  18  38  1   
 36  18  39  1   
 37  19  22  1   
 38  19  23  1   
 39  19  40  1   
 40  20  24  1   
 41  20  41  1   
 42  20  42  1   
 43  21  43  1   
 44  21  44  1   
 45  21  45  1   
 46  22  46  1   
 47  23  24  1   
 48  23  47  1   
 49  23  48  1   
@<TRIPOS>SUBSTRUCTURE
  1 ****  13 GROUP 4 **** **** 0

# MOE 2024.06 (io_trps.svl 2023.06)
