@<TRIPOS>MOLECULE
NONAME
53 55 1 0 0 
SMALL
USER_CHARGES


@<TRIPOS>ATOM
  1 O        1.7210    -1.2090     2.3760 O.2   1 <1>  -0.5700 
  2 C        0.8400    -0.9840     1.5830 C.2   1 <1>   0.5690 
  3 N        0.9560     0.0110     0.6590 N.am  1 <1>  -0.7300 
  4 C       -0.4110    -1.8430     1.6340 C.3   1 <1>   0.0440 
  5 C        2.1370     0.9190     0.5390 C.3   1 <1>   0.1400 
  6 C       -0.7430    -2.6040     0.3460 C.ar  1 <1>  -0.1440 
  7 C        3.4210     0.1220     0.2580 C.3   1 <1>   0.2000 
  8 C        0.2090    -3.2590    -0.4380 C.ar  1 <1>   0.0820 
  9 C       -2.0730    -2.6630    -0.0470 C.ar  1 <1>  -0.1500 
 10 O        4.4960     0.9980     0.0600 O.3   1 <1>  -0.5600 
 11 C        3.2710    -0.7650    -0.9890 C.3   1 <1>   0.3430 
 12 O        1.5260    -3.2160    -0.1540 O.3   1 <1>  -0.3630 
 13 C       -0.1680    -3.9450    -1.5820 C.ar  1 <1>  -0.1500 
 14 C       -2.4490    -3.3500    -1.1890 C.ar  1 <1>  -0.1500 
 15 C        5.7290     0.3410    -0.0720 C.3   1 <1>   0.1200 
 16 N        4.5270    -1.5400    -1.2660 N.4   1 <1>  -0.9590 
 17 C        2.0480    -4.1570     0.7550 C.3   1 <1>   0.2640 
 18 C       -1.4970    -3.9930    -1.9580 C.ar  1 <1>  -0.1500 
 19 C        5.7190    -0.6250    -1.2780 C.3   1 <1>   0.3430 
 20 C        4.3960    -2.3240    -2.5240 C.3   1 <1>   0.2630 
 21 C        3.5650    -4.0510     0.6740 C.ar  1 <1>  -0.1440 
 22 C        4.2640    -4.7630    -0.2890 C.ar  1 <1>  -0.1500 
 23 C        4.2620    -3.2420     1.5580 C.ar  1 <1>  -0.1500 
 24 C        5.6430    -4.6600    -0.3720 C.ar  1 <1>  -0.1500 
 25 C        5.6400    -3.1360     1.4750 C.ar  1 <1>  -0.1500 
 26 C        6.3310    -3.8440     0.5080 C.ar  1 <1>  -0.1500 
 27 H        0.1600     0.2070     0.0440 H     1 <1>   0.3700 
 28 H       -1.2290    -1.2010     1.9030 H     1 <1>   0.0800 
 29 H       -0.3010    -2.5570     2.4280 H     1 <1>   0.0800 
 30 H        2.2550     1.4610     1.4630 H     1 <1>   0.0800 
 31 H        1.9640     1.6230    -0.2560 H     1 <1>   0.0800 
 32 H        3.6470    -0.4810     1.1180 H     1 <1>   0.0800 
 33 H       -2.8380    -2.1780     0.5350 H     1 <1>   0.1500 
 34 H        3.0370    -0.1330    -1.8280 H     1 <1>   0.0800 
 35 H        2.4450    -1.4330    -0.8470 H     1 <1>   0.0800 
 36 H        0.5760    -4.4400    -2.1780 H     1 <1>   0.1500 
 37 H       -3.4860    -3.3860    -1.4790 H     1 <1>   0.1500 
 38 H        5.9370    -0.1890     0.8420 H     1 <1>   0.0800 
 39 H        6.4870     1.0930    -0.2080 H     1 <1>   0.0800 
 40 H        4.6360    -2.2180    -0.4830 H     1 <1>   0.4500 
 41 H        1.7090    -5.1380     0.4720 H     1 <1>   0.0800 
 42 H        1.6900    -3.9200     1.7420 H     1 <1>   0.0800 
 43 H       -1.7910    -4.5280    -2.8450 H     1 <1>   0.1500 
 44 H        6.6260    -1.2070    -1.2760 H     1 <1>   0.0800 
 45 H        5.7080    -0.0340    -2.1790 H     1 <1>   0.0800 
 46 H        4.2640    -1.6650    -3.3660 H     1 <1>   0.0800 
 47 H        3.5430    -2.9810    -2.4590 H     1 <1>   0.0800 
 48 H        5.2780    -2.9230    -2.6820 H     1 <1>   0.0800 
 49 H        3.7370    -5.4080    -0.9720 H     1 <1>   0.1500 
 50 H        3.7360    -2.6980     2.3260 H     1 <1>   0.1500 
 51 H        6.1820    -5.2290    -1.1120 H     1 <1>   0.1500 
 52 H        6.1730    -2.5180     2.1790 H     1 <1>   0.1500 
 53 H        7.4060    -3.7770     0.4550 H     1 <1>   0.1500 
@<TRIPOS>BOND
  1   1   2  2   
  2   2   3  am  
  3   2   4  1   
  4   3   5  1   
  5   3  27  1   
  6   4   6  1   
  7   4  28  1   
  8   4  29  1   
  9   5   7  1   
 10   5  30  1   
 11   5  31  1   
 12   6   8  ar  
 13   6   9  ar  
 14   7  10  1   
 15   7  11  1   
 16   7  32  1   
 17   8  12  1   
 18   8  13  ar  
 19   9  14  ar  
 20   9  33  1   
 21  10  15  1   
 22  11  16  1   
 23  11  34  1   
 24  11  35  1   
 25  12  17  1   
 26  13  18  ar  
 27  13  36  1   
 28  14  18  ar  
 29  14  37  1   
 30  15  19  1   
 31  15  38  1   
 32  15  39  1   
 33  16  19  1   
 34  16  20  1   
 35  16  40  1   
 36  17  21  1   
 37  17  41  1   
 38  17  42  1   
 39  18  43  1   
 40  19  44  1   
 41  19  45  1   
 42  20  46  1   
 43  20  47  1   
 44  20  48  1   
 45  21  22  ar  
 46  21  23  ar  
 47  22  24  ar  
 48  22  49  1   
 49  23  25  ar  
 50  23  50  1   
 51  24  26  ar  
 52  24  51  1   
 53  25  26  ar  
 54  25  52  1   
 55  26  53  1   
@<TRIPOS>SUBSTRUCTURE
  1 ****  12 GROUP 4 **** **** 0

# MOE 2024.06 (io_trps.svl 2023.06)
