@<TRIPOS>MOLECULE
NONAME
47 50 1 0 0 
SMALL
USER_CHARGES


@<TRIPOS>ATOM
  1 O        1.2280     0.1860     2.3490 O.2   1 <1>  -0.5700 
  2 C        1.7580     0.6060     1.3340 C.2   1 <1>   0.5440 
  3 N        1.3050     1.7920     0.8010 N.am  1 <1>  -0.6600 
  4 C        2.8470    -0.1080     0.7220 C.ar  1 <1>   0.0860 
  5 C        0.1710     2.5490     1.3720 C.3   1 <1>   0.1400 
  6 C        1.7700     2.3940    -0.4680 C.3   1 <1>   0.1400 
  7 C        2.6700    -1.3040    -0.0080 C.ar  1 <1>   0.4100 
  8 C        4.1340     0.3970     0.8530 C.ar  1 <1>  -0.1500 
  9 C        0.0300     3.7760     0.4760 C.3   1 <1>  -0.1600 
 10 C        0.6610     3.3650    -0.8530 C.3   1 <1>  -0.1600 
 11 N        3.6890    -1.9660    -0.5630 N.ar  1 <1>  -0.6200 
 12 N        1.4340    -1.9020    -0.2170 N.pl3 1 <1>  -0.8380 
 13 C        5.1720    -0.2910     0.2710 C.ar  1 <1>  -0.1500 
 14 C        4.8940    -1.4570    -0.4180 C.ar  1 <1>   0.1600 
 15 C        1.3290    -3.3970    -0.2110 C.3   1 <1>   0.2090 
 16 C        0.1930    -1.1320    -0.5280 C.3   1 <1>   0.2090 
 17 C       -0.0940    -3.8380     0.1660 C.3   1 <1>   0.1000 
 18 C       -0.7210    -1.9420    -1.4540 C.3   1 <1>  -0.1600 
 19 C       -0.1800    -5.3480     0.3720 C.2   1 <1>  -0.3320 
 20 C       -1.1080    -3.3200    -0.8760 C.3   1 <1>  -0.1600 
 21 N        0.4130    -5.9620     1.4200 N.pl3 1 <1>   0.3000 
 22 C       -0.7910    -6.3230    -0.3390 C.2   1 <1>  -0.1500 
 23 N        0.2070    -7.2920     1.4060 N.2   1 <1>  -0.7070 
 24 C       -0.5150    -7.4990     0.3490 C.2   1 <1>   0.1390 
 25 H        0.3720     2.8200     2.3950 H     1 <1>   0.0800 
 26 H       -0.7150     1.9390     1.3290 H     1 <1>   0.0800 
 27 H        1.9250     1.6460    -1.2270 H     1 <1>   0.0800 
 28 H        2.6870     2.9270    -0.2880 H     1 <1>   0.0800 
 29 H        4.3060     1.3040     1.4060 H     1 <1>   0.1500 
 30 H        0.5880     4.5880     0.9100 H     1 <1>   0.0800 
 31 H       -0.9970     4.0750     0.3700 H     1 <1>   0.0800 
 32 H       -0.0640     2.8460    -1.4560 H     1 <1>   0.0800 
 33 H        1.0390     4.2060    -1.4060 H     1 <1>   0.0800 
 34 H        6.1840     0.0630     0.3490 H     1 <1>   0.1500 
 35 H        5.7080    -1.9970    -0.8710 H     1 <1>   0.1500 
 36 H        2.0350    -3.7960     0.4950 H     1 <1>   0.0800 
 37 H        1.5810    -3.7740    -1.1870 H     1 <1>   0.0800 
 38 H        0.4520    -0.2040    -1.0060 H     1 <1>   0.0800 
 39 H       -0.3260    -0.9110     0.3890 H     1 <1>   0.0800 
 40 H       -0.3250    -3.3730     1.1100 H     1 <1>   0.0800 
 41 H       -0.1990    -2.0810    -2.3850 H     1 <1>   0.0800 
 42 H       -1.6110    -1.3760    -1.6660 H     1 <1>   0.0800 
 43 H       -2.0760    -3.2640    -0.4100 H     1 <1>   0.0800 
 44 H       -1.1790    -4.0070    -1.6990 H     1 <1>   0.0800 
 45 H        0.9590    -5.5030     2.1610 H     1 <1>   0.2700 
 46 H       -1.3720    -6.2560    -1.2400 H     1 <1>   0.1500 
 47 H       -0.8570    -8.4750     0.0480 H     1 <1>   0.1500 
@<TRIPOS>BOND
  1   1   2  2   
  2   2   3  am  
  3   2   4  1   
  4   3   5  1   
  5   3   6  1   
  6   4   7  ar  
  7   4   8  ar  
  8   5   9  1   
  9   5  25  1   
 10   5  26  1   
 11   6  10  1   
 12   6  27  1   
 13   6  28  1   
 14   7  11  ar  
 15   7  12  1   
 16   8  13  ar  
 17   8  29  1   
 18   9  10  1   
 19   9  30  1   
 20   9  31  1   
 21  10  32  1   
 22  10  33  1   
 23  11  14  ar  
 24  12  15  1   
 25  12  16  1   
 26  13  14  ar  
 27  13  34  1   
 28  14  35  1   
 29  15  17  1   
 30  15  36  1   
 31  15  37  1   
 32  16  18  1   
 33  16  38  1   
 34  16  39  1   
 35  17  19  1   
 36  17  20  1   
 37  17  40  1   
 38  18  20  1   
 39  18  41  1   
 40  18  42  1   
 41  19  21  1   
 42  19  22  2   
 43  20  43  1   
 44  20  44  1   
 45  21  23  1   
 46  21  45  1   
 47  22  24  1   
 48  22  46  1   
 49  23  24  2   
 50  24  47  1   
@<TRIPOS>SUBSTRUCTURE
  1 ****  12 GROUP 4 **** **** 0

# MOE 2024.06 (io_trps.svl 2023.06)
