@<TRIPOS>MOLECULE
NONAME
43 45 1 0 0 
SMALL
USER_CHARGES


@<TRIPOS>ATOM
  1 O        1.6260     0.1160     2.5330 O.2   1 <1>  -0.5700 
  2 C        1.2940    -0.6650     1.6740 C.2   1 <1>   0.5690 
  3 N        1.3020    -0.3400     0.3560 N.am  1 <1>  -0.7300 
  4 C        0.8560    -2.0800     2.0650 C.3   1 <1>   0.1710 
  5 C        1.6850     0.9760    -0.2200 C.3   1 <1>   0.1400 
  6 N       -0.0450    -2.7390     1.0710 N.3   1 <1>  -0.8100 
  7 C        3.1970     1.2230    -0.1210 C.3   1 <1>   0.2000 
  8 C       -0.1060    -4.1920     1.3050 C.3   1 <1>   0.2530 
  9 C       -1.3960    -2.1330     1.1260 C.3   1 <1>   0.1100 
 10 O        3.5250     2.3620    -0.8460 O.3   1 <1>  -0.5600 
 11 C        4.0710     0.1360    -0.7350 C.3   1 <1>  -0.1600 
 12 C       -0.5150    -4.9370     0.0450 C.ar  1 <1>  -0.1430 
 13 C       -2.3080    -2.5490    -0.0370 C.3   1 <1>   0.1200 
 14 C        4.8860     2.3630    -1.1310 C.3   1 <1>   0.1200 
 15 C        5.3110     0.8970    -1.1780 C.3   1 <1>  -0.1600 
 16 C       -1.7870    -4.7840    -0.4940 C.ar  1 <1>   0.0830 
 17 C        0.3710    -5.8100    -0.5700 C.ar  1 <1>  -0.1500 
 18 O       -2.6660    -3.9140     0.0410 O.3   1 <1>  -0.3630 
 19 C       -2.1790    -5.5180    -1.6010 C.ar  1 <1>  -0.1500 
 20 C       -0.0130    -6.5330    -1.6870 C.ar  1 <1>  -0.1500 
 21 C       -1.2910    -6.3930    -2.2000 C.ar  1 <1>  -0.1500 
 22 H        0.9760    -1.0690    -0.2890 H     1 <1>   0.3700 
 23 H        0.3770    -2.0410     3.0280 H     1 <1>   0.0800 
 24 H        1.7570    -2.6560     2.1690 H     1 <1>   0.0800 
 25 H        1.1710     1.7550     0.3150 H     1 <1>   0.0800 
 26 H        1.3850     1.0070    -1.2530 H     1 <1>   0.0800 
 27 H        3.4760     1.3990     0.9040 H     1 <1>   0.0800 
 28 H       -0.8010    -4.4150     2.0980 H     1 <1>   0.0800 
 29 H        0.8610    -4.5520     1.6080 H     1 <1>   0.0800 
 30 H       -1.3000    -1.0620     1.0810 H     1 <1>   0.0800 
 31 H       -1.8780    -2.3730     2.0580 H     1 <1>   0.0800 
 32 H        3.5740    -0.2930    -1.5880 H     1 <1>   0.0800 
 33 H        4.2900    -0.6400    -0.0240 H     1 <1>   0.0800 
 34 H       -1.8290    -2.3650    -0.9830 H     1 <1>   0.0800 
 35 H       -3.2210    -1.9840     0.0030 H     1 <1>   0.0800 
 36 H        5.3920     2.8920    -0.3420 H     1 <1>   0.0800 
 37 H        5.0390     2.8650    -2.0710 H     1 <1>   0.0800 
 38 H        5.6130     0.6140    -2.1710 H     1 <1>   0.0800 
 39 H        6.1320     0.7350    -0.5020 H     1 <1>   0.0800 
 40 H        1.3660    -5.9360    -0.1790 H     1 <1>   0.1500 
 41 H       -3.1740    -5.3960    -1.9880 H     1 <1>   0.1500 
 42 H        0.6810    -7.2090    -2.1550 H     1 <1>   0.1500 
 43 H       -1.5930    -6.9610    -3.0630 H     1 <1>   0.1500 
@<TRIPOS>BOND
  1   1   2  2   
  2   2   3  am  
  3   2   4  1   
  4   3   5  1   
  5   3  22  1   
  6   4   6  1   
  7   4  23  1   
  8   4  24  1   
  9   5   7  1   
 10   5  25  1   
 11   5  26  1   
 12   6   8  1   
 13   6   9  1   
 14   7  10  1   
 15   7  11  1   
 16   7  27  1   
 17   8  12  1   
 18   8  28  1   
 19   8  29  1   
 20   9  13  1   
 21   9  30  1   
 22   9  31  1   
 23  10  14  1   
 24  11  15  1   
 25  11  32  1   
 26  11  33  1   
 27  12  16  ar  
 28  12  17  ar  
 29  13  18  1   
 30  13  34  1   
 31  13  35  1   
 32  14  15  1   
 33  14  36  1   
 34  14  37  1   
 35  15  38  1   
 36  15  39  1   
 37  16  18  1   
 38  16  19  ar  
 39  17  20  ar  
 40  17  40  1   
 41  19  21  ar  
 42  19  41  1   
 43  20  21  ar  
 44  20  42  1   
 45  21  43  1   
@<TRIPOS>SUBSTRUCTURE
  1 ****   6 GROUP 4 **** **** 0

# MOE 2024.06 (io_trps.svl 2023.06)
