@<TRIPOS>MOLECULE
NONAME
41 43 1 0 0 
SMALL
USER_CHARGES


@<TRIPOS>ATOM
  1 S       -0.4240     0.3270    -0.4830 S.o2  1 <1>   1.3330 
  2 O       -1.1470    -0.9240    -0.4530 O.2   1 <1>  -0.6500 
  3 O       -0.3810     1.0700    -1.7230 O.2   1 <1>  -0.6500 
  4 N        1.1590     0.0200     0.0540 N.am  1 <1>  -0.8490 
  5 C       -1.1250     1.3620     0.8120 C.3   1 <1>  -0.0550 
  6 C        2.2020     0.4280    -0.8940 C.3   1 <1>   0.1160 
  7 C        1.3830    -1.3570     0.5050 C.3   1 <1>   0.1160 
  8 C       -0.6380     2.8220     0.9870 C.3   1 <1>  -0.0800 
  9 C       -0.8550     3.7170    -0.2440 C.3   1 <1>   0.2000 
 10 C        0.8430     2.9800     1.3630 C.3   1 <1>   0.2090 
 11 O       -1.3050     4.9470     0.2130 O.3   1 <1>  -0.6800 
 12 C        0.5260     3.9200    -0.8750 C.3   1 <1>   0.2090 
 13 N        1.4840     3.6860     0.2310 N.pl3 1 <1>  -0.8220 
 14 C        2.6460     4.3980     0.3860 C.2   1 <1>   0.5620 
 15 O        3.0800     5.1510    -0.6180 O.3   1 <1>  -0.2800 
 16 N        3.3810     4.4150     1.4440 N.2   1 <1>  -0.5650 
 17 C        4.1930     5.7040    -0.1750 C.ar  1 <1>   0.1400 
 18 C        4.3900     5.2540     1.1060 C.ar  1 <1>   0.2270 
 19 C        5.0630     6.5840    -0.8000 C.ar  1 <1>  -0.1500 
 20 C        5.5020     5.6850     1.8220 C.ar  1 <1>  -0.1500 
 21 C        6.1680     7.0130    -0.0860 C.ar  1 <1>  -0.1500 
 22 C        6.3850     6.5640     1.2200 C.ar  1 <1>  -0.1500 
 23 H       -2.1840     1.4060     0.6450 H     1 <1>   0.0800 
 24 H       -0.9890     0.8540     1.7470 H     1 <1>   0.0800 
 25 H        3.1770     0.2700    -0.4680 H     1 <1>   0.0800 
 26 H        2.1070     1.4750    -1.1240 H     1 <1>   0.0800 
 27 H        2.1160    -0.1340    -1.8090 H     1 <1>   0.0800 
 28 H        2.3760    -1.4590     0.9100 H     1 <1>   0.0800 
 29 H        1.2640    -2.0440    -0.3170 H     1 <1>   0.0800 
 30 H        0.6740    -1.6140     1.2740 H     1 <1>   0.0800 
 31 H       -1.2180     3.2120     1.8060 H     1 <1>   0.0800 
 32 H       -1.5790     3.3340    -0.9440 H     1 <1>   0.0800 
 33 H        1.3310     2.0390     1.5400 H     1 <1>   0.0800 
 34 H        0.9360     3.5810     2.2520 H     1 <1>   0.0800 
 35 H       -0.5780     5.3840     0.7010 H     1 <1>   0.4000 
 36 H        0.6250     4.9080    -1.2910 H     1 <1>   0.0800 
 37 H        0.7030     3.2010    -1.6520 H     1 <1>   0.0800 
 38 H        4.8700     6.9130    -1.8050 H     1 <1>   0.1500 
 39 H        5.6500     5.3280     2.8250 H     1 <1>   0.1500 
 40 H        6.8680     7.6970    -0.5350 H     1 <1>   0.1500 
 41 H        7.2510     6.9090     1.7600 H     1 <1>   0.1500 
@<TRIPOS>BOND
  1   1   2  2   
  2   1   3  2   
  3   1   4  am  
  4   1   5  1   
  5   4   6  1   
  6   4   7  1   
  7   5   8  1   
  8   5  23  1   
  9   5  24  1   
 10   6  25  1   
 11   6  26  1   
 12   6  27  1   
 13   7  28  1   
 14   7  29  1   
 15   7  30  1   
 16   8   9  1   
 17   8  10  1   
 18   8  31  1   
 19   9  11  1   
 20   9  12  1   
 21   9  32  1   
 22  10  13  1   
 23  10  33  1   
 24  10  34  1   
 25  11  35  1   
 26  12  13  1   
 27  12  36  1   
 28  12  37  1   
 29  13  14  1   
 30  14  15  1   
 31  14  16  2   
 32  15  17  1   
 33  16  18  1   
 34  17  18  ar  
 35  17  19  ar  
 36  18  20  ar  
 37  19  21  ar  
 38  19  38  1   
 39  20  22  ar  
 40  20  39  1   
 41  21  22  ar  
 42  21  40  1   
 43  22  41  1   
@<TRIPOS>SUBSTRUCTURE
  1 ****  13 GROUP 4 **** **** 0

# MOE 2024.06 (io_trps.svl 2023.06)
