@<TRIPOS>MOLECULE
NONAME
49 51 1 0 0 
SMALL
USER_CHARGES


@<TRIPOS>ATOM
  1 O        5.2880    -0.2340     3.9620 O.3   1 <1>  -0.6800 
  2 C        4.1980    -0.2230     3.1010 C.3   1 <1>   0.2000 
  3 C        4.1010    -1.6080     2.4620 C.3   1 <1>  -0.0800 
  4 C        4.5250     0.7040     1.9150 C.3   1 <1>   0.3430 
  5 C        5.2180    -1.5190     1.4190 C.3   1 <1>   0.3430 
  6 C        2.6880    -1.8340     1.8600 C.3   1 <1>  -0.0160 
  7 N        5.0360    -0.1820     0.8170 N.4   1 <1>  -0.9590 
  8 C        2.6820    -2.6740     0.5920 C.ar  1 <1>   0.1670 
  9 C        6.2460     0.3760     0.1520 C.3   1 <1>   0.5240 
 10 N        3.0100    -2.0400    -0.5270 N.ar  1 <1>  -0.6200 
 11 C        2.3380    -4.0240     0.6440 C.ar  1 <1>   0.1600 
 12 C        5.8780     1.6180    -0.6560 C.2   1 <1>   0.0460 
 13 C        2.9470    -2.8410    -1.5820 C.ar  1 <1>   0.1600 
 14 N        2.3020    -4.8230    -0.4060 N.ar  1 <1>  -0.6200 
 15 N        5.4040     2.7320    -0.0580 N.2   1 <1>  -0.5650 
 16 C        5.9580     1.7950    -1.9940 C.2   1 <1>  -0.3020 
 17 C        2.6070    -4.1870    -1.5230 C.ar  1 <1>   0.1600 
 18 C        5.2120     3.5590    -1.0340 C.2   1 <1>   0.0060 
 19 N        5.5310     3.0470    -2.2420 N.pl3 1 <1>   0.0330 
 20 C        4.6860     4.9730    -0.8570 C.3   1 <1>   0.0200 
 21 C        3.2460     5.1000    -1.3720 C.3   1 <1>  -0.1600 
 22 C        2.7030     6.5220    -1.1770 C.3   1 <1>  -0.1600 
 23 C        1.2660     6.6360    -1.6910 C.3   1 <1>  -0.2400 
 24 H        5.0480    -0.5970     4.8410 H     1 <1>   0.4000 
 25 H        3.3250     0.0910     3.6480 H     1 <1>   0.0800 
 26 H        4.3140    -2.3940     3.1660 H     1 <1>   0.0800 
 27 H        5.2610     1.4360     2.2080 H     1 <1>   0.0800 
 28 H        3.6410     1.2180     1.5770 H     1 <1>   0.0800 
 29 H        5.1580    -2.3040     0.6810 H     1 <1>   0.0800 
 30 H        6.1720    -1.5680     1.9190 H     1 <1>   0.0800 
 31 H        2.2250    -0.8930     1.6140 H     1 <1>   0.0800 
 32 H        2.0600    -2.2940     2.6030 H     1 <1>   0.0800 
 33 H        4.2970    -0.2700     0.0980 H     1 <1>   0.4500 
 34 H        6.9850     0.6400     0.8900 H     1 <1>   0.0800 
 35 H        6.6680    -0.3570    -0.5130 H     1 <1>   0.0800 
 36 H        2.0830    -4.4660     1.5920 H     1 <1>   0.1500 
 37 H        3.1750    -2.4150    -2.5440 H     1 <1>   0.1500 
 38 H        6.2880     1.1270    -2.7710 H     1 <1>   0.1500 
 39 H        2.5860    -4.7580    -2.4350 H     1 <1>   0.1500 
 40 H        5.4620     3.5250    -3.1460 H     1 <1>   0.2700 
 41 H        4.7160     5.2250     0.1890 H     1 <1>   0.0800 
 42 H        5.3280     5.6600    -1.3780 H     1 <1>   0.0800 
 43 H        3.2130     4.8450    -2.4170 H     1 <1>   0.0800 
 44 H        2.6230     4.4020    -0.8390 H     1 <1>   0.0800 
 45 H        2.7250     6.7780    -0.1310 H     1 <1>   0.0800 
 46 H        3.3240     7.2250    -1.7060 H     1 <1>   0.0800 
 47 H        0.6200     5.9600    -1.1590 H     1 <1>   0.0800 
 48 H        1.2200     6.4050    -2.7410 H     1 <1>   0.0800 
 49 H        0.9020     7.6380    -1.5470 H     1 <1>   0.0800 
@<TRIPOS>BOND
  1   1   2  1   
  2   1  24  1   
  3   2   3  1   
  4   2   4  1   
  5   2  25  1   
  6   3   5  1   
  7   3   6  1   
  8   3  26  1   
  9   4   7  1   
 10   4  27  1   
 11   4  28  1   
 12   5   7  1   
 13   5  29  1   
 14   5  30  1   
 15   6   8  1   
 16   6  31  1   
 17   6  32  1   
 18   7   9  1   
 19   7  33  1   
 20   8  10  ar  
 21   8  11  ar  
 22   9  12  1   
 23   9  34  1   
 24   9  35  1   
 25  10  13  ar  
 26  11  14  ar  
 27  11  36  1   
 28  12  15  1   
 29  12  16  2   
 30  13  17  ar  
 31  13  37  1   
 32  14  17  ar  
 33  15  18  2   
 34  16  19  1   
 35  16  38  1   
 36  17  39  1   
 37  18  19  1   
 38  18  20  1   
 39  19  40  1   
 40  20  21  1   
 41  20  41  1   
 42  20  42  1   
 43  21  22  1   
 44  21  43  1   
 45  21  44  1   
 46  22  23  1   
 47  22  45  1   
 48  22  46  1   
 49  23  47  1   
 50  23  48  1   
 51  23  49  1   
@<TRIPOS>SUBSTRUCTURE
  1 ****   7 GROUP 4 **** **** 0

# MOE 2024.06 (io_trps.svl 2023.06)
