@<TRIPOS>MOLECULE
NONAME
52 56 1 0 0 
SMALL
USER_CHARGES


@<TRIPOS>ATOM
  1 S        0.1470     0.0620     0.0590 S.3   1 <1>  -0.0800 
  2 C        0.3360    -1.4260    -0.8790 C.2   1 <1>  -0.0450 
  3 C       -1.4380    -0.4480     0.6520 C.ar  1 <1>   0.0400 
  4 C        1.4830    -1.7210    -1.6870 C.2   1 <1>   0.7150 
  5 C       -0.7450    -2.2190    -0.7180 C.2   1 <1>  -0.1810 
  6 C       -1.7710    -1.6930     0.1340 C.ar  1 <1>   0.0000 
  7 C       -2.2600     0.2560     1.5090 C.ar  1 <1>  -0.1500 
  8 O        2.4130    -0.9650    -1.8740 O.2   1 <1>  -0.5700 
  9 N        1.5170    -2.9500    -2.2680 N.am  1 <1>  -0.7300 
 10 C       -0.8100    -3.5570    -1.4460 C.3   1 <1>   0.0210 
 11 C       -2.9990    -2.2370     0.4950 C.ar  1 <1>  -0.1500 
 12 C       -3.4730    -0.3110     1.8530 C.ar  1 <1>  -0.1500 
 13 C        0.5880    -4.0590    -1.8900 C.3   1 <1>   0.1400 
 14 C       -3.8690    -1.5580     1.3450 C.ar  1 <1>   0.0860 
 15 C       -5.1500    -2.1400     1.6980 C.2   1 <1>   0.5440 
 16 O       -5.1840    -3.2880     2.1010 O.2   1 <1>  -0.5700 
 17 N       -6.3320    -1.4380     1.5720 N.am  1 <1>  -0.6600 
 18 C       -6.5060    -0.2490     0.6920 C.3   1 <1>   0.1400 
 19 C       -7.6010    -1.9210     2.1850 C.3   1 <1>   0.1400 
 20 C       -7.4920    -0.5930    -0.4260 C.3   1 <1>  -0.1600 
 21 C       -8.6000    -2.2700     1.0810 C.3   1 <1>  -0.1600 
 22 C       -8.8320    -1.0910     0.1320 C.3   1 <1>   0.4180 
 23 O       -9.4220    -0.0730     0.9040 O.3   1 <1>  -0.5600 
 24 C       -9.7700    -1.5170    -0.9950 C.2   1 <1>  -0.2880 
 25 C      -10.1250     0.9300     0.2240 C.3   1 <1>   0.1200 
 26 C      -10.9110    -0.8940    -1.2970 C.2   1 <1>  -0.2760 
 27 C      -11.3310     0.3380    -0.5180 C.3   1 <1>  -0.0220 
 28 C      -11.8700    -1.3340    -2.3890 C.3   1 <1>  -0.1020 
 29 H       -1.9530     1.2130     1.8920 H     1 <1>   0.1500 
 30 H        2.3730    -3.1780    -2.7760 H     1 <1>   0.3700 
 31 H       -1.4370    -3.4470    -2.3120 H     1 <1>   0.0800 
 32 H       -1.2570    -4.3010    -0.8110 H     1 <1>   0.0800 
 33 H       -3.2900    -3.2000     0.1160 H     1 <1>   0.1500 
 34 H       -4.1340     0.2070     2.5260 H     1 <1>   0.1500 
 35 H        1.0360    -4.6020    -1.0740 H     1 <1>   0.0800 
 36 H        0.4800    -4.7360    -2.7210 H     1 <1>   0.0800 
 37 H       -5.5710     0.0510     0.2560 H     1 <1>   0.0800 
 38 H       -6.8870     0.5700     1.2790 H     1 <1>   0.0800 
 39 H       -8.0060    -1.1440     2.8120 H     1 <1>   0.0800 
 40 H       -7.4240    -2.7850     2.8020 H     1 <1>   0.0800 
 41 H       -7.0590    -1.3650    -1.0360 H     1 <1>   0.0800 
 42 H       -7.6470     0.2590    -1.0580 H     1 <1>   0.0800 
 43 H       -9.5380    -2.5640     1.5160 H     1 <1>   0.0800 
 44 H       -8.2190    -3.1100     0.5310 H     1 <1>   0.0800 
 45 H       -9.4180    -2.3860    -1.5210 H     1 <1>   0.1500 
 46 H       -9.4570     1.4110    -0.4670 H     1 <1>   0.0800 
 47 H      -10.4510     1.6530     0.9500 H     1 <1>   0.0800 
 48 H      -11.7230     1.0860    -1.1840 H     1 <1>   0.0800 
 49 H      -12.1000     0.0790     0.1870 H     1 <1>   0.0800 
 50 H      -11.9770    -0.5580    -3.1260 H     1 <1>   0.0800 
 51 H      -12.8350    -1.5520    -1.9680 H     1 <1>   0.0800 
 52 H      -11.5030    -2.2190    -2.8770 H     1 <1>   0.0800 
@<TRIPOS>BOND
  1   1   2  1   
  2   1   3  1   
  3   2   4  1   
  4   2   5  2   
  5   3   6  ar  
  6   3   7  ar  
  7   4   8  2   
  8   4   9  am  
  9   5   6  1   
 10   5  10  1   
 11   6  11  ar  
 12   7  12  ar  
 13   7  29  1   
 14   9  13  1   
 15   9  30  1   
 16  10  13  1   
 17  10  31  1   
 18  10  32  1   
 19  11  14  ar  
 20  11  33  1   
 21  12  14  ar  
 22  12  34  1   
 23  13  35  1   
 24  13  36  1   
 25  14  15  1   
 26  15  16  2   
 27  15  17  am  
 28  17  18  1   
 29  17  19  1   
 30  18  20  1   
 31  18  37  1   
 32  18  38  1   
 33  19  21  1   
 34  19  39  1   
 35  19  40  1   
 36  20  22  1   
 37  20  41  1   
 38  20  42  1   
 39  21  22  1   
 40  21  43  1   
 41  21  44  1   
 42  22  23  1   
 43  22  24  1   
 44  23  25  1   
 45  24  26  2   
 46  24  45  1   
 47  25  27  1   
 48  25  46  1   
 49  25  47  1   
 50  26  27  1   
 51  26  28  1   
 52  27  48  1   
 53  27  49  1   
 54  28  50  1   
 55  28  51  1   
 56  28  52  1   
@<TRIPOS>SUBSTRUCTURE
  1 ****  14 GROUP 4 **** **** 0

# MOE 2024.06 (io_trps.svl 2023.06)
