@<TRIPOS>MOLECULE
NONAME
46 48 1 0 0 
SMALL
USER_CHARGES


@<TRIPOS>ATOM
  1 CL       0.4070     0.2560     1.8300 Cl    1 <1>  -0.1770 
  2 C        1.9650     0.0390     1.0610 C.ar  1 <1>   0.1770 
  3 C        2.3510    -1.2150     0.6010 C.ar  1 <1>   0.0820 
  4 C        2.7840     1.1430     0.9300 C.ar  1 <1>  -0.1500 
  5 O        1.4910    -2.2600     0.7650 O.3   1 <1>  -0.3630 
  6 C        3.6000    -1.3390    -0.0020 C.ar  1 <1>  -0.1500 
  7 C        4.0300     1.0250     0.3240 C.ar  1 <1>   0.1170 
  8 C        1.8470    -3.5680     0.3750 C.3   1 <1>   0.0400 
  9 C        4.4200    -0.2310    -0.1350 C.ar  1 <1>  -0.1500 
 10 N        4.8690     2.1490     0.1730 N.am  1 <1>  -0.4770 
 11 C        6.2320     2.2040     0.2250 C.2   1 <1>   0.5690 
 12 C        4.3110     3.4930    -0.0900 C.3   1 <1>   0.1400 
 13 O        6.9930     1.2900     0.4200 O.2   1 <1>  -0.5700 
 14 C        6.7340     3.6010    -0.0090 C.3   1 <1>  -0.0990 
 15 C        5.5070     4.3170    -0.5930 C.3   1 <1>  -0.0190 
 16 C        5.4200     5.7970    -0.2470 C.2   1 <1>   0.5690 
 17 O        4.3820     6.2280     0.1870 O.2   1 <1>  -0.5700 
 18 N        6.5260     6.5700    -0.4650 N.am  1 <1>  -0.4940 
 19 C        6.7140     7.9360    -0.2200 C.2   1 <1>   0.2040 
 20 O        5.7800     8.6880     0.3130 O.3   1 <1>  -0.0190 
 21 C        7.7880     8.7190    -0.4470 C.2   1 <1>  -0.1810 
 22 N        6.1740     9.9280     0.4530 N.2   1 <1>  -0.4100 
 23 C        7.3770     9.9740     0.0040 C.2   1 <1>   0.1080 
 24 C        9.1410     8.3710    -1.0450 C.3   1 <1>  -0.0590 
 25 C        8.2040    11.2480    -0.0140 C.3   1 <1>   0.0210 
 26 C        9.0790    11.3620     1.2390 C.3   1 <1>  -0.2400 
 27 H        2.4420     2.0860     1.3100 H     1 <1>   0.1500 
 28 H        3.9520    -2.2830    -0.3730 H     1 <1>   0.1500 
 29 H        1.0290    -4.2220     0.6200 H     1 <1>   0.0800 
 30 H        2.7270    -3.8670     0.9150 H     1 <1>   0.0800 
 31 H        2.0190    -3.5820    -0.6870 H     1 <1>   0.0800 
 32 H        5.3810    -0.3470    -0.6050 H     1 <1>   0.1500 
 33 H        3.9240     3.8920     0.8330 H     1 <1>   0.0800 
 34 H        3.5250     3.4510    -0.8250 H     1 <1>   0.0800 
 35 H        7.5680     3.5970    -0.6870 H     1 <1>   0.0800 
 36 H        7.0240     4.0180     0.9390 H     1 <1>   0.0800 
 37 H        5.5280     4.2280    -1.6640 H     1 <1>   0.0800 
 38 H        7.3350     6.1010    -0.8590 H     1 <1>   0.3700 
 39 H        9.1910     7.3280    -1.2960 H     1 <1>   0.0800 
 40 H        9.9220     8.5930    -0.3400 H     1 <1>   0.0800 
 41 H        9.3050     8.9470    -1.9380 H     1 <1>   0.0800 
 42 H        7.5380    12.0920    -0.0600 H     1 <1>   0.0800 
 43 H        8.8190    11.2670    -0.8940 H     1 <1>   0.0800 
 44 H        8.4590    11.3580     2.1190 H     1 <1>   0.0800 
 45 H        9.6410    12.2780     1.2170 H     1 <1>   0.0800 
 46 H        9.7630    10.5350     1.2980 H     1 <1>   0.0800 
@<TRIPOS>BOND
  1   1   2  1   
  2   2   3  ar  
  3   2   4  ar  
  4   3   5  1   
  5   3   6  ar  
  6   4   7  ar  
  7   4  27  1   
  8   5   8  1   
  9   6   9  ar  
 10   6  28  1   
 11   7   9  ar  
 12   7  10  1   
 13   8  29  1   
 14   8  30  1   
 15   8  31  1   
 16   9  32  1   
 17  10  11  am  
 18  10  12  1   
 19  11  13  2   
 20  11  14  1   
 21  12  15  1   
 22  12  33  1   
 23  12  34  1   
 24  14  15  1   
 25  14  35  1   
 26  14  36  1   
 27  15  16  1   
 28  15  37  1   
 29  16  17  2   
 30  16  18  am  
 31  18  19  1   
 32  18  38  1   
 33  19  20  1   
 34  19  21  2   
 35  20  22  1   
 36  21  23  1   
 37  21  24  1   
 38  22  23  2   
 39  23  25  1   
 40  24  39  1   
 41  24  40  1   
 42  24  41  1   
 43  25  26  1   
 44  25  42  1   
 45  25  43  1   
 46  26  44  1   
 47  26  45  1   
 48  26  46  1   
@<TRIPOS>SUBSTRUCTURE
  1 ****  15 GROUP 4 **** **** 0

# MOE 2024.06 (io_trps.svl 2023.06)
