@<TRIPOS>MOLECULE
NONAME
54 56 1 0 0 
SMALL
USER_CHARGES


@<TRIPOS>ATOM
  1 O       -2.5790     0.1640    -1.7310 O.2   1 <1>  -0.5700 
  2 C       -2.1720     0.7140    -0.7220 C.2   1 <1>   0.7160 
  3 N       -1.9560    -0.0580     0.4050 N.am  1 <1>  -0.6600 
  4 C       -1.9010     2.1160    -0.7170 C.2   1 <1>  -0.0860 
  5 C       -1.9890    -1.5430     0.3300 C.3   1 <1>   0.1400 
  6 C       -1.5830     0.5030     1.7350 C.3   1 <1>   0.0600 
  7 C       -2.8140     3.1660    -0.8710 C.2   1 <1>   0.3720 
  8 C       -0.7130     2.7480    -0.5280 C.2   1 <1>   0.0870 
  9 C       -3.4170    -2.0420     0.5310 C.3   1 <1>  -0.0990 
 10 N       -2.2150     4.3040    -0.7770 N.2   1 <1>  -0.4100 
 11 N       -4.1940     3.0400    -1.0980 N.pl3 1 <1>  -0.8210 
 12 O       -0.9540     4.0320    -0.5680 O.3   1 <1>  -0.0190 
 13 C        0.6190     2.2500    -0.3020 C.ar  1 <1>   0.0530 
 14 C       -3.4610    -3.5300     0.2940 C.2   1 <1>   0.5690 
 15 C       -4.9700     2.0410    -0.3230 C.3   1 <1>   0.2090 
 16 C       -4.9990     4.2750    -1.2690 C.3   1 <1>   0.2090 
 17 C        1.0610     1.0550    -0.8720 C.ar  1 <1>  -0.1500 
 18 C        1.5150     2.9440     0.5110 C.ar  1 <1>  -0.1500 
 19 O       -3.2410    -4.2720     1.2180 O.2   1 <1>  -0.5700 
 20 N       -3.7270    -3.9760    -0.9600 N.am  1 <1>  -0.7300 
 21 C       -6.2650     2.7410     0.0740 C.3   1 <1>  -0.1600 
 22 C       -6.4260     3.8600    -0.9470 C.3   1 <1>  -0.1600 
 23 C        2.3290     0.5620    -0.6270 C.ar  1 <1>  -0.1500 
 24 C        2.7840     2.4570     0.7600 C.ar  1 <1>  -0.1500 
 25 C       -3.8070    -5.4020    -1.3620 C.3   1 <1>   0.0600 
 26 C        3.2020     1.2620     0.1990 C.ar  1 <1>   0.0820 
 27 O        4.4560     0.8500     0.4970 O.3   1 <1>  -0.3620 
 28 C        4.9970    -0.3310    -0.0530 C.3   1 <1>   0.0400 
 29 H       -1.3410    -1.9680     1.0790 H     1 <1>   0.0800 
 30 H       -1.6270    -1.8610    -0.6340 H     1 <1>   0.0800 
 31 H       -1.8690     1.5380     1.8110 H     1 <1>   0.0800 
 32 H       -0.5190     0.4230     1.8760 H     1 <1>   0.0800 
 33 H       -2.0820    -0.0430     2.5170 H     1 <1>   0.0800 
 34 H       -4.0810    -1.5550    -0.1580 H     1 <1>   0.0800 
 35 H       -3.7410    -1.8390     1.5340 H     1 <1>   0.0800 
 36 H       -4.4310     1.7090     0.5480 H     1 <1>   0.0800 
 37 H       -5.1800     1.1980    -0.9600 H     1 <1>   0.0800 
 38 H       -4.9090     4.6490    -2.2750 H     1 <1>   0.0800 
 39 H       -4.6700     5.0290    -0.5730 H     1 <1>   0.0800 
 40 H        0.4050     0.5050    -1.5230 H     1 <1>   0.1500 
 41 H        1.2100     3.8760     0.9560 H     1 <1>   0.1500 
 42 H       -3.8790    -3.2920    -1.7070 H     1 <1>   0.3700 
 43 H       -6.1460     3.1590     1.0580 H     1 <1>   0.0800 
 44 H       -7.1000     2.0640     0.0780 H     1 <1>   0.0800 
 45 H       -6.8870     3.4780    -1.8420 H     1 <1>   0.0800 
 46 H       -7.0070     4.6830    -0.5720 H     1 <1>   0.0800 
 47 H        2.6210    -0.3630    -1.0870 H     1 <1>   0.1500 
 48 H        3.4630     3.0010     1.3920 H     1 <1>   0.1500 
 49 H       -3.6320    -6.0410    -0.5130 H     1 <1>   0.0800 
 50 H       -3.0640    -5.6110    -2.1120 H     1 <1>   0.0800 
 51 H       -4.7840    -5.6150    -1.7600 H     1 <1>   0.0800 
 52 H        6.0010    -0.4410     0.3160 H     1 <1>   0.0800 
 53 H        5.0100    -0.2430    -1.1250 H     1 <1>   0.0800 
 54 H        4.3990    -1.1680     0.2590 H     1 <1>   0.0800 
@<TRIPOS>BOND
  1   1   2  2   
  2   2   3  am  
  3   2   4  1   
  4   3   5  1   
  5   3   6  1   
  6   4   7  1   
  7   4   8  2   
  8   5   9  1   
  9   5  29  1   
 10   5  30  1   
 11   6  31  1   
 12   6  32  1   
 13   6  33  1   
 14   7  10  2   
 15   7  11  1   
 16   8  12  1   
 17   8  13  1   
 18   9  14  1   
 19   9  34  1   
 20   9  35  1   
 21  10  12  1   
 22  11  15  1   
 23  11  16  1   
 24  13  17  ar  
 25  13  18  ar  
 26  14  19  2   
 27  14  20  am  
 28  15  21  1   
 29  15  36  1   
 30  15  37  1   
 31  16  22  1   
 32  16  38  1   
 33  16  39  1   
 34  17  23  ar  
 35  17  40  1   
 36  18  24  ar  
 37  18  41  1   
 38  20  25  1   
 39  20  42  1   
 40  21  22  1   
 41  21  43  1   
 42  21  44  1   
 43  22  45  1   
 44  22  46  1   
 45  23  26  ar  
 46  23  47  1   
 47  24  26  ar  
 48  24  48  1   
 49  25  49  1   
 50  25  50  1   
 51  25  51  1   
 52  26  27  1   
 53  27  28  1   
 54  28  52  1   
 55  28  53  1   
 56  28  54  1   
@<TRIPOS>SUBSTRUCTURE
  1 ****   2 GROUP 4 **** **** 0

# MOE 2024.06 (io_trps.svl 2023.06)
