@<TRIPOS>MOLECULE
NONAME
53 55 1 0 0 
SMALL
USER_CHARGES


@<TRIPOS>ATOM
  1 O        0.1370     0.8270    -0.4310 O.2   1 <1>  -0.5700 
  2 C        0.0570     2.0300    -0.3480 C.2   1 <1>   0.5690 
  3 N       -1.0600     2.6580     0.1370 N.am  1 <1>  -0.6600 
  4 C        1.2460     2.8610    -0.8350 C.3   1 <1>   0.1810 
  5 C       -1.1340     4.1540     0.2370 C.3   1 <1>   0.3640 
  6 C       -2.2110     1.9000     0.7100 C.3   1 <1>   0.0600 
  7 O        1.2560     4.1760    -0.3340 O.3   1 <1>  -0.5600 
  8 C       -2.4810     4.6340    -0.3310 C.ar  1 <1>  -0.1430 
  9 C        0.0320     4.8650    -0.5000 C.3   1 <1>   0.2610 
 10 C       -3.4100     5.3520     0.4240 C.ar  1 <1>  -0.1430 
 11 C       -2.7850     4.3310    -1.6550 C.ar  1 <1>  -0.1500 
 12 C        0.1650     6.3320    -0.0550 C.2   1 <1>   0.5690 
 13 C       -4.5940     5.7710    -0.1650 C.ar  1 <1>  -0.1500 
 14 C       -3.1920     5.6990     1.8920 C.3   1 <1>  -0.0960 
 15 C       -3.9680     4.7500    -2.2320 C.ar  1 <1>  -0.1500 
 16 O       -0.0820     6.6160     1.0970 O.2   1 <1>  -0.5700 
 17 N        0.5460     7.3090    -0.9490 N.am  1 <1>  -0.6600 
 18 C       -4.8740     5.4760    -1.4860 C.ar  1 <1>  -0.1500 
 19 C        0.4540     8.7450    -0.5780 C.3   1 <1>   0.1400 
 20 C        1.0920     7.0320    -2.3080 C.3   1 <1>   0.0600 
 21 C        1.7770     9.2120     0.0320 C.3   1 <1>  -0.1600 
 22 C        1.6830    10.6840     0.4570 C.3   1 <1>   0.0960 
 23 N        2.9550    11.1560     1.0370 N.pl3 1 <1>   0.3140 
 24 N        3.0700    11.4560     2.3430 N.2   1 <1>  -0.7070 
 25 C        4.1150    11.3690     0.3840 C.2   1 <1>  -0.3020 
 26 C        4.3000    11.8430     2.4900 C.2   1 <1>   0.1390 
 27 C        5.0070    11.8120     1.2950 C.2   1 <1>  -0.1500 
 28 H        1.2340     2.9050    -1.9090 H     1 <1>   0.0800 
 29 H        2.1580     2.3870    -0.5200 H     1 <1>   0.0800 
 30 H       -1.0600     4.3990     1.2790 H     1 <1>   0.0800 
 31 H       -2.4370     2.2690     1.6950 H     1 <1>   0.0800 
 32 H       -1.9790     0.8510     0.7810 H     1 <1>   0.0800 
 33 H       -3.0770     2.0180     0.0820 H     1 <1>   0.0800 
 34 H       -0.1870     4.8630    -1.5490 H     1 <1>   0.0800 
 35 H       -2.0990     3.7520    -2.2490 H     1 <1>   0.1500 
 36 H       -5.3140     6.3320     0.4040 H     1 <1>   0.1500 
 37 H       -4.0960     6.0730     2.3370 H     1 <1>   0.0800 
 38 H       -2.4380     6.4580     1.9880 H     1 <1>   0.0800 
 39 H       -2.8920     4.8290     2.4480 H     1 <1>   0.0800 
 40 H       -4.1860     4.5090    -3.2580 H     1 <1>   0.1500 
 41 H       -5.7960     5.8090    -1.9290 H     1 <1>   0.1500 
 42 H        0.2120     9.3280    -1.4500 H     1 <1>   0.0800 
 43 H       -0.3410     8.8790     0.1390 H     1 <1>   0.0800 
 44 H        1.8100     7.7860    -2.5800 H     1 <1>   0.0800 
 45 H        0.2920     7.0350    -3.0280 H     1 <1>   0.0800 
 46 H        1.5900     6.0780    -2.3270 H     1 <1>   0.0800 
 47 H        2.5670     9.0920    -0.6860 H     1 <1>   0.0800 
 48 H        1.9930     8.6130     0.9000 H     1 <1>   0.0800 
 49 H        0.9140    10.8030     1.1980 H     1 <1>   0.0800 
 50 H        1.4480    11.3060    -0.3860 H     1 <1>   0.0800 
 51 H        4.2400    11.1970    -0.6690 H     1 <1>   0.1500 
 52 H        4.7130    12.1530     3.4350 H     1 <1>   0.1500 
 53 H        6.0380    12.0870     1.1600 H     1 <1>   0.1500 
@<TRIPOS>BOND
  1   1   2  2   
  2   2   3  am  
  3   2   4  1   
  4   3   5  1   
  5   3   6  1   
  6   4   7  1   
  7   4  28  1   
  8   4  29  1   
  9   5   8  1   
 10   5   9  1   
 11   5  30  1   
 12   6  31  1   
 13   6  32  1   
 14   6  33  1   
 15   7   9  1   
 16   8  10  ar  
 17   8  11  ar  
 18   9  12  1   
 19   9  34  1   
 20  10  13  ar  
 21  10  14  1   
 22  11  15  ar  
 23  11  35  1   
 24  12  16  2   
 25  12  17  am  
 26  13  18  ar  
 27  13  36  1   
 28  14  37  1   
 29  14  38  1   
 30  14  39  1   
 31  15  18  ar  
 32  15  40  1   
 33  17  19  1   
 34  17  20  1   
 35  18  41  1   
 36  19  21  1   
 37  19  42  1   
 38  19  43  1   
 39  20  44  1   
 40  20  45  1   
 41  20  46  1   
 42  21  22  1   
 43  21  47  1   
 44  21  48  1   
 45  22  23  1   
 46  22  49  1   
 47  22  50  1   
 48  23  24  1   
 49  23  25  1   
 50  24  26  2   
 51  25  27  2   
 52  25  51  1   
 53  26  27  1   
 54  26  52  1   
 55  27  53  1   
@<TRIPOS>SUBSTRUCTURE
  1 ****  12 GROUP 4 **** **** 0

# MOE 2024.06 (io_trps.svl 2023.06)
