@<TRIPOS>MOLECULE
NONAME
44 45 1 0 0 
SMALL
USER_CHARGES


@<TRIPOS>ATOM
  1 S        0.4590    -0.4590    -0.8060 S.o2  1 <1>   1.3330 
  2 O        0.2610    -1.3890     0.2820 O.2   1 <1>  -0.6500 
  3 O       -0.0750    -0.7660    -2.1130 O.2   1 <1>  -0.6500 
  4 N       -0.1850     1.0380    -0.3300 N.am  1 <1>  -0.8490 
  5 C        2.2190    -0.1480    -0.9520 C.3   1 <1>  -0.0550 
  6 C       -1.5460     0.9000     0.1930 C.3   1 <1>   0.1160 
  7 C       -0.1580     2.0520    -1.3920 C.3   1 <1>   0.1160 
  8 C        2.8570     0.4290     0.3250 C.3   1 <1>  -0.0800 
  9 C        4.2780     0.9270     0.0720 C.3   1 <1>   0.2200 
 10 C        3.0110    -0.5810     1.4640 C.3   1 <1>   0.1200 
 11 N        4.3350     2.3760     0.3560 N.am  1 <1>  -0.7300 
 12 C        5.1200     0.1300     1.0660 C.3   1 <1>   0.1200 
 13 O        4.2350    -0.2800     2.0550 O.3   1 <1>  -0.5600 
 14 C        3.8740     3.3400    -0.4900 C.2   1 <1>   0.7160 
 15 O        3.5070     3.0010    -1.5990 O.2   1 <1>  -0.5700 
 16 C        3.7990     4.7130    -0.0460 C.2   1 <1>  -0.0860 
 17 C        3.6050     5.8640    -0.7530 C.2   1 <1>  -0.0400 
 18 C        3.9090     5.1550     1.2920 C.2   1 <1>  -0.1500 
 19 O        3.5920     6.9080     0.0380 O.3   1 <1>  -0.2800 
 20 C        3.4180     6.1190    -2.2360 C.3   1 <1>  -0.0600 
 21 C        3.7730     6.4940     1.2700 C.2   1 <1>  -0.0400 
 22 C        3.7970     7.5190     2.3830 C.3   1 <1>  -0.0600 
 23 H        2.7180    -1.0580    -1.2230 H     1 <1>   0.0800 
 24 H        2.3720     0.5500    -1.7520 H     1 <1>   0.0800 
 25 H       -1.9180     1.8550     0.5200 H     1 <1>   0.0800 
 26 H       -1.5490     0.2300     1.0370 H     1 <1>   0.0800 
 27 H       -2.2000     0.5030    -0.5660 H     1 <1>   0.0800 
 28 H       -0.5400     2.9870    -1.0190 H     1 <1>   0.0800 
 29 H       -0.7580     1.7380    -2.2310 H     1 <1>   0.0800 
 30 H        0.8510     2.2170    -1.7290 H     1 <1>   0.0800 
 31 H        2.2440     1.2370     0.6860 H     1 <1>   0.0800 
 32 H        4.6140     0.7430    -0.9350 H     1 <1>   0.0800 
 33 H        3.0560    -1.5940     1.1010 H     1 <1>   0.0800 
 34 H        2.2300    -0.4920     2.2000 H     1 <1>   0.0800 
 35 H        4.4910     2.6180     1.3340 H     1 <1>   0.3700 
 36 H        5.9130     0.7080     1.5070 H     1 <1>   0.0800 
 37 H        5.5220    -0.7530     0.6010 H     1 <1>   0.0800 
 38 H        4.0650     4.5280     2.1510 H     1 <1>   0.1500 
 39 H        3.4940     5.2100    -2.8030 H     1 <1>   0.0800 
 40 H        4.1720     6.8020    -2.5810 H     1 <1>   0.0800 
 41 H        2.4510     6.5540    -2.4070 H     1 <1>   0.0800 
 42 H        3.9520     7.0370     3.3310 H     1 <1>   0.0800 
 43 H        2.8620     8.0480     2.4060 H     1 <1>   0.0800 
 44 H        4.5910     8.2210     2.2100 H     1 <1>   0.0800 
@<TRIPOS>BOND
  1   1   2  2   
  2   1   3  2   
  3   1   4  am  
  4   1   5  1   
  5   4   6  1   
  6   4   7  1   
  7   5   8  1   
  8   5  23  1   
  9   5  24  1   
 10   6  25  1   
 11   6  26  1   
 12   6  27  1   
 13   7  28  1   
 14   7  29  1   
 15   7  30  1   
 16   8   9  1   
 17   8  10  1   
 18   8  31  1   
 19   9  11  1   
 20   9  12  1   
 21   9  32  1   
 22  10  13  1   
 23  10  33  1   
 24  10  34  1   
 25  11  14  am  
 26  11  35  1   
 27  12  13  1   
 28  12  36  1   
 29  12  37  1   
 30  14  15  2   
 31  14  16  1   
 32  16  17  2   
 33  16  18  1   
 34  17  19  1   
 35  17  20  1   
 36  18  21  2   
 37  18  38  1   
 38  19  21  1   
 39  20  39  1   
 40  20  40  1   
 41  20  41  1   
 42  21  22  1   
 43  22  42  1   
 44  22  43  1   
 45  22  44  1   
@<TRIPOS>SUBSTRUCTURE
  1 ****  14 GROUP 4 **** **** 0

# MOE 2024.06 (io_trps.svl 2023.06)
