@<TRIPOS>MOLECULE
NONAME
56 58 1 0 0 
SMALL
USER_CHARGES


@<TRIPOS>ATOM
  1 O       -0.3510     0.0720    -0.4870 O.2   1 <1>  -0.5700 
  2 C       -1.2740     0.8440    -0.6730 C.2   1 <1>   0.5440 
  3 N       -2.5420     0.3310    -0.8490 N.am  1 <1>  -0.6600 
  4 C       -1.0180     2.2710    -0.6880 C.ar  1 <1>   0.0860 
  5 C       -3.7900     1.0840    -0.5120 C.3   1 <1>   0.1400 
  6 C       -2.7850    -1.1280    -1.0730 C.3   1 <1>   0.1400 
  7 C       -0.2530     2.8760     0.3080 C.ar  1 <1>  -0.1500 
  8 C       -1.5200     3.0950    -1.6950 C.ar  1 <1>  -0.1500 
  9 C       -4.5960     0.3620     0.5870 C.3   1 <1>   0.2950 
 10 C       -3.6380    -1.7260     0.0650 C.3   1 <1>   0.2000 
 11 C       -0.0070     4.2370     0.3260 C.ar  1 <1>  -0.1440 
 12 C       -1.2840     4.4550    -1.6900 C.ar  1 <1>  -0.1500 
 13 O       -4.8090    -0.9770     0.2270 O.3   1 <1>  -0.5600 
 14 C       -5.9510     1.0560     0.8190 C.3   1 <1>  -0.1950 
 15 C       -4.0750    -3.1720    -0.2020 C.3   1 <1>  -0.1600 
 16 C       -0.5350     5.0490    -0.6820 C.ar  1 <1>   0.1170 
 17 C        0.8450     4.8110     1.4520 C.3   1 <1>  -0.0970 
 18 C       -7.1300     0.3420     1.4050 C.3   1 <1>  -0.2000 
 19 C       -7.1510     0.7800    -0.0330 C.3   1 <1>  -0.2000 
 20 C       -2.8950    -4.1570    -0.2580 C.3   1 <1>  -0.1600 
 21 N       -0.3230     6.4290    -0.7360 N.am  1 <1>  -0.5470 
 22 C       -3.3890    -5.5980    -0.4300 C.3   1 <1>  -0.1600 
 23 C       -0.7400     7.3800     0.1490 C.2   1 <1>   0.5690 
 24 C       -2.2150    -6.5790    -0.4880 C.3   1 <1>  -0.2400 
 25 O       -1.3810     7.1360     1.1380 O.2   1 <1>  -0.5700 
 26 C       -0.3790     8.8140    -0.1480 C.3   1 <1>  -0.1790 
 27 H       -3.5560     2.0750    -0.1690 H     1 <1>   0.0800 
 28 H       -4.4000     1.1700    -1.3940 H     1 <1>   0.0800 
 29 H       -3.3010    -1.2570    -2.0080 H     1 <1>   0.0800 
 30 H       -1.8520    -1.6560    -1.1400 H     1 <1>   0.0800 
 31 H        0.1530     2.2450     1.0800 H     1 <1>   0.1500 
 32 H       -2.1000     2.6540    -2.4870 H     1 <1>   0.1500 
 33 H       -4.0380     0.3720     1.5080 H     1 <1>   0.0800 
 34 H       -3.0850    -1.6870     0.9880 H     1 <1>   0.0800 
 35 H       -1.6900     5.0690    -2.4740 H     1 <1>   0.1500 
 36 H       -5.8130     2.0740     1.1390 H     1 <1>   0.1000 
 37 H       -4.7380    -3.4720     0.5900 H     1 <1>   0.0800 
 38 H       -4.6200    -3.2110    -1.1290 H     1 <1>   0.0800 
 39 H        1.4000     4.0350     1.9480 H     1 <1>   0.0800 
 40 H        0.2130     5.2940     2.1750 H     1 <1>   0.0800 
 41 H        1.5450     5.5290     1.0660 H     1 <1>   0.0800 
 42 H       -7.0560    -0.7110     1.6150 H     1 <1>   0.1000 
 43 H       -7.7520     0.8610     2.1140 H     1 <1>   0.1000 
 44 H       -7.7870     1.6000    -0.3170 H     1 <1>   0.1000 
 45 H       -7.0920     0.0190    -0.7940 H     1 <1>   0.1000 
 46 H       -2.2460    -3.9100    -1.0810 H     1 <1>   0.0800 
 47 H       -2.3240    -4.0830     0.6520 H     1 <1>   0.0800 
 48 H        0.1280     6.7710    -1.5810 H     1 <1>   0.3700 
 49 H       -4.0300    -5.8620     0.3940 H     1 <1>   0.0800 
 50 H       -3.9630    -5.6780    -1.3380 H     1 <1>   0.0800 
 51 H       -1.6390    -6.5310     0.4200 H     1 <1>   0.0800 
 52 H       -1.5720    -6.3490    -1.3190 H     1 <1>   0.0800 
 53 H       -2.5810    -7.5840    -0.6070 H     1 <1>   0.0800 
 54 H        0.6860     8.9110    -0.2410 H     1 <1>   0.0800 
 55 H       -0.7160     9.4440     0.6550 H     1 <1>   0.0800 
 56 H       -0.8530     9.1280    -1.0580 H     1 <1>   0.0800 
@<TRIPOS>BOND
  1   1   2  2   
  2   2   3  am  
  3   2   4  1   
  4   3   5  1   
  5   3   6  1   
  6   4   7  ar  
  7   4   8  ar  
  8   5   9  1   
  9   5  27  1   
 10   5  28  1   
 11   6  10  1   
 12   6  29  1   
 13   6  30  1   
 14   7  11  ar  
 15   7  31  1   
 16   8  12  ar  
 17   8  32  1   
 18   9  13  1   
 19   9  14  1   
 20   9  33  1   
 21  10  13  1   
 22  10  15  1   
 23  10  34  1   
 24  11  16  ar  
 25  11  17  1   
 26  12  16  ar  
 27  12  35  1   
 28  14  18  1   
 29  14  19  1   
 30  14  36  1   
 31  15  20  1   
 32  15  37  1   
 33  15  38  1   
 34  16  21  1   
 35  17  39  1   
 36  17  40  1   
 37  17  41  1   
 38  18  19  1   
 39  18  42  1   
 40  18  43  1   
 41  19  44  1   
 42  19  45  1   
 43  20  22  1   
 44  20  46  1   
 45  20  47  1   
 46  21  23  am  
 47  21  48  1   
 48  22  24  1   
 49  22  49  1   
 50  22  50  1   
 51  23  25  2   
 52  23  26  1   
 53  24  51  1   
 54  24  52  1   
 55  24  53  1   
 56  26  54  1   
 57  26  55  1   
 58  26  56  1   
@<TRIPOS>SUBSTRUCTURE
  1 ****   3 GROUP 4 **** **** 0

# MOE 2024.06 (io_trps.svl 2023.06)
