@<TRIPOS>MOLECULE
NONAME
53 55 1 0 0 
SMALL
USER_CHARGES


@<TRIPOS>ATOM
  1 O       -0.0310     0.3120    -1.7390 O.2   1 <1>  -0.5700 
  2 C        0.6680    -0.5530    -1.2670 C.2   1 <1>   0.5690 
  3 N        1.8730    -0.3030    -0.6720 N.am  1 <1>  -0.4930 
  4 C        0.1300    -1.9920    -1.3190 C.3   1 <1>   0.4040 
  5 C        2.4980     0.9510    -0.4540 C.2   1 <1>   0.0630 
  6 N       -1.0400    -2.2780    -0.3900 N.4   1 <1>  -0.9590 
  7 C        3.6670     1.1540     0.1940 C.2   1 <1>  -0.3320 
  8 C        2.0780     2.2270    -0.8350 C.2   1 <1>   0.1390 
  9 C       -1.3340    -3.7470    -0.3790 C.3   1 <1>   0.3430 
 10 C       -2.2290    -1.4440    -0.7780 C.3   1 <1>   0.2630 
 11 N        3.8890     2.4930     0.1770 N.pl3 1 <1>   0.3140 
 12 C        4.6180     0.1590     0.8470 C.3   1 <1>  -0.0600 
 13 N        2.9070     3.1510    -0.4560 N.2   1 <1>  -0.7070 
 14 C       -2.3790    -4.1480     0.6750 C.3   1 <1>  -0.0800 
 15 C        5.0290     3.2180     0.7540 C.3   1 <1>   0.0160 
 16 C       -2.1070    -5.6000     1.0370 C.3   1 <1>   0.2090 
 17 C       -3.7950    -4.2430     0.0840 C.3   1 <1>  -0.1600 
 18 N       -2.6390    -6.3230    -0.1300 N.pl3 1 <1>  -0.8380 
 19 C       -3.8430    -5.6040    -0.6150 C.3   1 <1>   0.2090 
 20 C       -2.7470    -7.7050    -0.0040 C.ar  1 <1>   0.1000 
 21 C       -1.9830    -8.5230    -0.8250 C.ar  1 <1>  -0.1500 
 22 C       -3.5970    -8.2990     0.9240 C.ar  1 <1>  -0.1500 
 23 C       -2.0600    -9.9000    -0.7240 C.ar  1 <1>  -0.1500 
 24 C       -3.6780    -9.6760     1.0290 C.ar  1 <1>  -0.1500 
 25 C       -2.9080   -10.4790     0.2050 C.ar  1 <1>  -0.1500 
 26 H        2.4400    -1.0800    -0.3380 H     1 <1>   0.3700 
 27 H        0.9410    -2.6600    -1.0870 H     1 <1>   0.0800 
 28 H       -0.1710    -2.1870    -2.3340 H     1 <1>   0.0800 
 29 H       -0.7670    -1.9930     0.5630 H     1 <1>   0.4500 
 30 H        1.1750     2.4390    -1.3800 H     1 <1>   0.1500 
 31 H       -0.4220    -4.2800    -0.1630 H     1 <1>   0.0800 
 32 H       -1.6690    -4.0740    -1.3500 H     1 <1>   0.0800 
 33 H       -2.5550    -1.6940    -1.7740 H     1 <1>   0.0800 
 34 H       -1.9810    -0.3940    -0.7530 H     1 <1>   0.0800 
 35 H       -3.0440    -1.6100    -0.0930 H     1 <1>   0.0800 
 36 H        4.2540    -0.8460     0.7510 H     1 <1>   0.0800 
 37 H        4.7260     0.3830     1.8930 H     1 <1>   0.0800 
 38 H        5.5860     0.2140     0.3790 H     1 <1>   0.0800 
 39 H       -2.3230    -3.5280     1.5520 H     1 <1>   0.0800 
 40 H        5.9360     2.8730     0.2950 H     1 <1>   0.0800 
 41 H        5.0600     3.0440     1.8120 H     1 <1>   0.0800 
 42 H        4.9090     4.2690     0.5660 H     1 <1>   0.0800 
 43 H       -2.6500    -5.8820     1.9250 H     1 <1>   0.0800 
 44 H       -1.0610    -5.8150     1.1770 H     1 <1>   0.0800 
 45 H       -4.0480    -3.4550    -0.5980 H     1 <1>   0.0800 
 46 H       -4.5210    -4.2470     0.8790 H     1 <1>   0.0800 
 47 H       -3.7800    -5.4950    -1.6840 H     1 <1>   0.0800 
 48 H       -4.7450    -6.1420    -0.3690 H     1 <1>   0.0800 
 49 H       -1.3290    -8.0700    -1.5450 H     1 <1>   0.1500 
 50 H       -4.1980    -7.6820     1.5640 H     1 <1>   0.1500 
 51 H       -1.4620   -10.5220    -1.3670 H     1 <1>   0.1500 
 52 H       -4.3380   -10.1240     1.7500 H     1 <1>   0.1500 
 53 H       -2.9690   -11.5510     0.2850 H     1 <1>   0.1500 
@<TRIPOS>BOND
  1   1   2  2   
  2   2   3  am  
  3   2   4  1   
  4   3   5  1   
  5   3  26  1   
  6   4   6  1   
  7   4  27  1   
  8   4  28  1   
  9   5   7  2   
 10   5   8  1   
 11   6   9  1   
 12   6  10  1   
 13   6  29  1   
 14   7  11  1   
 15   7  12  1   
 16   8  13  2   
 17   8  30  1   
 18   9  14  1   
 19   9  31  1   
 20   9  32  1   
 21  10  33  1   
 22  10  34  1   
 23  10  35  1   
 24  11  13  1   
 25  11  15  1   
 26  12  36  1   
 27  12  37  1   
 28  12  38  1   
 29  14  16  1   
 30  14  17  1   
 31  14  39  1   
 32  15  40  1   
 33  15  41  1   
 34  15  42  1   
 35  16  18  1   
 36  16  43  1   
 37  16  44  1   
 38  17  19  1   
 39  17  45  1   
 40  17  46  1   
 41  18  19  1   
 42  18  20  1   
 43  19  47  1   
 44  19  48  1   
 45  20  21  ar  
 46  20  22  ar  
 47  21  23  ar  
 48  21  49  1   
 49  22  24  ar  
 50  22  50  1   
 51  23  25  ar  
 52  23  51  1   
 53  24  25  ar  
 54  24  52  1   
 55  25  53  1   
@<TRIPOS>SUBSTRUCTURE
  1 ****   6 GROUP 4 **** **** 0

# MOE 2024.06 (io_trps.svl 2023.06)
