@<TRIPOS>MOLECULE
NONAME
54 57 1 0 0 
SMALL
USER_CHARGES


@<TRIPOS>ATOM
  1 S       -1.0800     0.0650     0.2810 S.3   1 <1>  -0.3310 
  2 C       -1.7200     1.4540     1.2380 C.ar  1 <1>   0.1020 
  3 C        0.4790     0.6390    -0.5280 C.3   1 <1>   0.2140 
  4 C       -2.6330     1.2000     2.2650 C.ar  1 <1>   0.0860 
  5 C       -1.3120     2.7450     0.9350 C.ar  1 <1>  -0.1500 
  6 C        1.1780    -0.5670    -1.1340 C.ar  1 <1>  -0.1440 
  7 C       -3.0830    -0.1320     2.6120 C.2   1 <1>   0.5440 
  8 C       -3.1110     2.2950     2.9840 C.ar  1 <1>  -0.1500 
  9 C       -1.8080     3.8110     1.6640 C.ar  1 <1>  -0.1500 
 10 C        1.6560    -1.5770    -0.3060 C.ar  1 <1>  -0.1500 
 11 C        1.3460    -0.6620    -2.5110 C.ar  1 <1>  -0.1500 
 12 O       -2.6290    -0.6500     3.6160 O.2   1 <1>  -0.5700 
 13 N       -4.0410    -0.8110     1.8790 N.am  1 <1>  -0.6600 
 14 C       -2.7080     3.5840     2.6900 C.ar  1 <1>  -0.1500 
 15 C        2.3010    -2.6770    -0.8460 C.ar  1 <1>  -0.1500 
 16 C        1.9910    -1.7570    -3.0620 C.ar  1 <1>  -0.1500 
 17 C       -4.6250    -0.2490     0.6240 C.3   1 <1>   0.2200 
 18 C       -4.4620    -2.1820     2.3040 C.3   1 <1>   0.0600 
 19 C        2.4570    -2.7450    -2.2160 C.ar  1 <1>   0.1900 
 20 C       -4.5900    -1.2050    -0.5660 C.3   1 <1>  -0.1600 
 21 C       -6.0950     0.1240     0.7750 C.3   1 <1>  -0.1600 
 22 F        3.0650    -3.7800    -2.7310 F     1 <1>  -0.1900 
 23 C       -5.6270    -0.6300    -1.5370 C.3   1 <1>  -0.0800 
 24 C       -6.6340     0.1610    -0.6630 C.3   1 <1>  -0.0800 
 25 C       -6.2350    -1.7010    -2.4660 C.3   1 <1>   0.1400 
 26 C       -8.0890    -0.3350    -0.7710 C.3   1 <1>  -0.0990 
 27 N       -7.5410    -1.2400    -2.9800 N.am  1 <1>  -0.7300 
 28 C       -8.4500    -0.5990    -2.2170 C.2   1 <1>   0.5690 
 29 O       -9.5150    -0.2560    -2.6580 O.2   1 <1>  -0.5700 
 30 H        0.2070     1.3590    -1.2780 H     1 <1>   0.0800 
 31 H        1.0860     1.0980     0.2330 H     1 <1>   0.0800 
 32 H       -0.6220     2.9420     0.1390 H     1 <1>   0.1500 
 33 H       -3.8050     2.1190     3.7880 H     1 <1>   0.1500 
 34 H       -1.4960     4.8160     1.4360 H     1 <1>   0.1500 
 35 H        1.5200    -1.5110     0.7610 H     1 <1>   0.1500 
 36 H        0.9760     0.1130    -3.1600 H     1 <1>   0.1500 
 37 H       -3.0910     4.4120     3.2630 H     1 <1>   0.1500 
 38 H        2.6740    -3.4670    -0.2190 H     1 <1>   0.1500 
 39 H        2.1310    -1.8480    -4.1240 H     1 <1>   0.1500 
 40 H       -4.0960     0.6390     0.3290 H     1 <1>   0.0800 
 41 H       -5.4710    -2.3880     2.0020 H     1 <1>   0.0800 
 42 H       -4.4070    -2.2750     3.3760 H     1 <1>   0.0800 
 43 H       -3.8030    -2.9090     1.8640 H     1 <1>   0.0800 
 44 H       -3.6090    -1.2460    -1.0060 H     1 <1>   0.0800 
 45 H       -4.8900    -2.1930    -0.2680 H     1 <1>   0.0800 
 46 H       -6.6110    -0.6250     1.3460 H     1 <1>   0.0800 
 47 H       -6.2040     1.0770     1.2610 H     1 <1>   0.0800 
 48 H       -5.1210     0.0860    -2.1640 H     1 <1>   0.0800 
 49 H       -6.6150     1.1830    -1.0050 H     1 <1>   0.0800 
 50 H       -6.3920    -2.6190    -1.9260 H     1 <1>   0.0800 
 51 H       -5.5660    -1.8990    -3.2870 H     1 <1>   0.0800 
 52 H       -8.7620     0.3950    -0.3600 H     1 <1>   0.0800 
 53 H       -8.2160    -1.2550    -0.2320 H     1 <1>   0.0800 
 54 H       -7.8000    -1.4520    -3.9470 H     1 <1>   0.3700 
@<TRIPOS>BOND
  1   1   2  1   
  2   1   3  1   
  3   2   4  ar  
  4   2   5  ar  
  5   3   6  1   
  6   3  30  1   
  7   3  31  1   
  8   4   7  1   
  9   4   8  ar  
 10   5   9  ar  
 11   5  32  1   
 12   6  10  ar  
 13   6  11  ar  
 14   7  12  2   
 15   7  13  am  
 16   8  14  ar  
 17   8  33  1   
 18   9  14  ar  
 19   9  34  1   
 20  10  15  ar  
 21  10  35  1   
 22  11  16  ar  
 23  11  36  1   
 24  13  17  1   
 25  13  18  1   
 26  14  37  1   
 27  15  19  ar  
 28  15  38  1   
 29  16  19  ar  
 30  16  39  1   
 31  17  20  1   
 32  17  21  1   
 33  17  40  1   
 34  18  41  1   
 35  18  42  1   
 36  18  43  1   
 37  19  22  1   
 38  20  23  1   
 39  20  44  1   
 40  20  45  1   
 41  21  24  1   
 42  21  46  1   
 43  21  47  1   
 44  23  24  1   
 45  23  25  1   
 46  23  48  1   
 47  24  26  1   
 48  24  49  1   
 49  25  27  1   
 50  25  50  1   
 51  25  51  1   
 52  26  28  1   
 53  26  52  1   
 54  26  53  1   
 55  27  28  am  
 56  27  54  1   
 57  28  29  2   
@<TRIPOS>SUBSTRUCTURE
  1 ****   1 GROUP 4 **** **** 0

# MOE 2024.06 (io_trps.svl 2023.06)
