@<TRIPOS>MOLECULE
NONAME
44 46 1 0 0 
SMALL
USER_CHARGES


@<TRIPOS>ATOM
  1 S       -0.6650    -1.5160    -0.3750 S.o2  1 <1>   1.5010 
  2 O       -1.4820    -2.4030     0.4290 O.2   1 <1>  -0.6500 
  3 O       -0.5690    -1.7870    -1.7960 O.2   1 <1>  -0.6500 
  4 N       -1.3820     0.0200    -0.2360 N.am  1 <1>  -0.8490 
  5 C        0.9930    -1.3530     0.4110 C.2   1 <1>   0.1640 
  6 C       -2.7770     0.0030    -0.6930 C.3   1 <1>   0.1960 
  7 C       -0.5990     1.0580    -0.9390 C.3   1 <1>   0.1960 
  8 N        2.0140    -0.5820    -0.0720 N.2   1 <1>  -0.5650 
  9 C        1.4100    -1.9490     1.5590 C.2   1 <1>  -0.3020 
 10 C       -3.5100     1.3010    -0.2480 C.3   1 <1>   0.0000 
 11 C       -1.4320     2.2910    -1.3360 C.3   1 <1>  -0.1600 
 12 C        2.9830    -0.7390     0.7680 C.2   1 <1>   0.0060 
 13 N        2.6750    -1.5630     1.7880 N.pl3 1 <1>   0.0330 
 14 C       -4.0740     1.1680     1.1780 C.3   1 <1>   0.2000 
 15 C       -2.5860     2.5420    -0.3580 C.3   1 <1>  -0.1600 
 16 C       -4.8000     1.4470    -1.0690 C.3   1 <1>  -0.1600 
 17 C        4.3380    -0.0670     0.6320 C.3   1 <1>   0.0200 
 18 O       -3.1760     0.5420     2.0190 O.3   1 <1>  -0.6800 
 19 C       -5.3620     0.3540     1.0540 C.3   1 <1>  -0.1600 
 20 C       -5.8080     0.4980    -0.4090 C.3   1 <1>  -0.1600 
 21 C        5.4400    -1.0880     0.3320 C.3   1 <1>  -0.2400 
 22 H       -2.7900    -0.0890    -1.7670 H     1 <1>   0.0800 
 23 H       -3.2900    -0.8560    -0.2930 H     1 <1>   0.0800 
 24 H        0.1970     1.3740    -0.2850 H     1 <1>   0.0800 
 25 H       -0.1440     0.6560    -1.8300 H     1 <1>   0.0800 
 26 H        0.8650    -2.6160     2.2030 H     1 <1>   0.1500 
 27 H       -0.7890     3.1520    -1.3790 H     1 <1>   0.0800 
 28 H       -1.8290     2.1420    -2.3250 H     1 <1>   0.0800 
 29 H        3.2840    -1.8330     2.5660 H     1 <1>   0.2700 
 30 H       -4.2980     2.1380     1.5880 H     1 <1>   0.0800 
 31 H       -3.1390     3.4170    -0.6490 H     1 <1>   0.0800 
 32 H       -2.1500     2.7450     0.6070 H     1 <1>   0.0800 
 33 H       -5.1770     2.4520    -0.9820 H     1 <1>   0.0800 
 34 H       -4.6590     1.2260    -2.1130 H     1 <1>   0.0800 
 35 H        4.2910     0.6490    -0.1700 H     1 <1>   0.0800 
 36 H        4.5660     0.4670     1.5370 H     1 <1>   0.0800 
 37 H       -2.4040     0.2520     1.4760 H     1 <1>   0.4000 
 38 H       -5.1830    -0.6830     1.2840 H     1 <1>   0.0800 
 39 H       -6.1070     0.7420     1.7250 H     1 <1>   0.0800 
 40 H       -5.7760    -0.4650    -0.8900 H     1 <1>   0.0800 
 41 H       -6.8100     0.8860    -0.4790 H     1 <1>   0.0800 
 42 H        5.2050    -1.6220    -0.5730 H     1 <1>   0.0800 
 43 H        5.5370    -1.7930     1.1360 H     1 <1>   0.0800 
 44 H        6.3810    -0.5840     0.1980 H     1 <1>   0.0800 
@<TRIPOS>BOND
  1   1   2  2   
  2   1   3  2   
  3   1   4  am  
  4   1   5  1   
  5   4   6  1   
  6   4   7  1   
  7   5   8  1   
  8   5   9  2   
  9   6  10  1   
 10   6  22  1   
 11   6  23  1   
 12   7  11  1   
 13   7  24  1   
 14   7  25  1   
 15   8  12  2   
 16   9  13  1   
 17   9  26  1   
 18  10  14  1   
 19  10  15  1   
 20  10  16  1   
 21  11  15  1   
 22  11  27  1   
 23  11  28  1   
 24  12  13  1   
 25  12  17  1   
 26  13  29  1   
 27  14  18  1   
 28  14  19  1   
 29  14  30  1   
 30  15  31  1   
 31  15  32  1   
 32  16  20  1   
 33  16  33  1   
 34  16  34  1   
 35  17  21  1   
 36  17  35  1   
 37  17  36  1   
 38  18  37  1   
 39  19  20  1   
 40  19  38  1   
 41  19  39  1   
 42  20  40  1   
 43  20  41  1   
 44  21  42  1   
 45  21  43  1   
 46  21  44  1   
@<TRIPOS>SUBSTRUCTURE
  1 ****   4 GROUP 4 **** **** 0

# MOE 2024.06 (io_trps.svl 2023.06)
