@<TRIPOS>MOLECULE
NONAME
48 50 1 0 0 
SMALL
USER_CHARGES


@<TRIPOS>ATOM
  1 O       -0.7410     0.0070    -2.3300 O.2   1 <1>  -0.5700 
  2 C       -1.4270     0.8940    -1.8740 C.2   1 <1>   0.5690 
  3 N       -2.5820     0.6210    -1.1670 N.am  1 <1>  -0.6600 
  4 C       -0.9870     2.3260    -2.1790 C.3   1 <1>   0.1810 
  5 C       -3.3950     1.6890    -0.5040 C.3   1 <1>   0.2200 
  6 C       -3.0660    -0.7890    -1.0530 C.3   1 <1>   0.0600 
  7 O       -0.5160     2.9930    -1.0140 O.3   1 <1>  -0.3620 
  8 C       -4.0110     1.3190     0.8460 C.3   1 <1>  -0.1600 
  9 C       -4.5800     2.1220    -1.3570 C.3   1 <1>  -0.1600 
 10 C       -0.8770     4.2790    -0.8030 C.ar  1 <1>   0.0820 
 11 C       -5.1630     2.3170     1.0290 C.3   1 <1>  -0.0800 
 12 C       -5.5020     2.8530    -0.3750 C.3   1 <1>  -0.0800 
 13 C       -1.1960     4.6470     0.4920 C.ar  1 <1>  -0.1500 
 14 C       -0.9560     5.2130    -1.8290 C.ar  1 <1>  -0.1500 
 15 C       -4.8000     3.5420     1.8840 C.3   1 <1>  -0.1600 
 16 C       -5.2600     4.3690    -0.3190 C.3   1 <1>  -0.1600 
 17 C       -1.6240     5.9320     0.7700 C.ar  1 <1>   0.0820 
 18 C       -1.3800     6.5020    -1.5550 C.ar  1 <1>  -0.1500 
 19 C       -5.4340     4.7120     1.1500 C.3   1 <1>   0.2000 
 20 O       -1.9450     6.2020     2.0590 O.3   1 <1>  -0.3630 
 21 C       -1.7190     6.8640    -0.2610 C.ar  1 <1>  -0.1500 
 22 O       -4.7860     5.8870     1.4560 O.3   1 <1>  -0.6800 
 23 C       -2.1840     7.5240     2.4930 C.3   1 <1>   0.0400 
 24 H       -1.8220     2.8620    -2.5880 H     1 <1>   0.0800 
 25 H       -0.1860     2.3150    -2.8950 H     1 <1>   0.0800 
 26 H       -2.7890     2.5540    -0.3270 H     1 <1>   0.0800 
 27 H       -4.1280    -0.8320    -1.2130 H     1 <1>   0.0800 
 28 H       -2.8340    -1.1720    -0.0750 H     1 <1>   0.0800 
 29 H       -2.5920    -1.4180    -1.7860 H     1 <1>   0.0800 
 30 H       -4.4360     0.3340     0.8240 H     1 <1>   0.0800 
 31 H       -3.2860     1.3750     1.6390 H     1 <1>   0.0800 
 32 H       -4.2800     2.7490    -2.1770 H     1 <1>   0.0800 
 33 H       -5.0900     1.2560    -1.7370 H     1 <1>   0.0800 
 34 H       -6.0230     1.8250     1.4520 H     1 <1>   0.0800 
 35 H       -6.5370     2.6610    -0.6070 H     1 <1>   0.0800 
 36 H       -1.1150     3.9270     1.2850 H     1 <1>   0.1500 
 37 H       -0.6840     4.9460    -2.8340 H     1 <1>   0.1500 
 38 H       -3.7320     3.6700     1.9170 H     1 <1>   0.0800 
 39 H       -5.1850     3.4520     2.8850 H     1 <1>   0.0800 
 40 H       -5.9610     4.9060    -0.9330 H     1 <1>   0.0800 
 41 H       -4.2550     4.6020    -0.6260 H     1 <1>   0.0800 
 42 H       -1.4460     7.2260    -2.3480 H     1 <1>   0.1500 
 43 H       -6.4770     4.8120     1.4010 H     1 <1>   0.0800 
 44 H       -2.0550     7.8670    -0.0770 H     1 <1>   0.1500 
 45 H       -3.8130     5.7520     1.4340 H     1 <1>   0.4000 
 46 H       -2.3450     7.5030     3.5560 H     1 <1>   0.0800 
 47 H       -3.0620     7.9050     2.0020 H     1 <1>   0.0800 
 48 H       -1.3230     8.1280     2.2650 H     1 <1>   0.0800 
@<TRIPOS>BOND
  1   1   2  2   
  2   2   3  am  
  3   2   4  1   
  4   3   5  1   
  5   3   6  1   
  6   4   7  1   
  7   4  24  1   
  8   4  25  1   
  9   5   8  1   
 10   5   9  1   
 11   5  26  1   
 12   6  27  1   
 13   6  28  1   
 14   6  29  1   
 15   7  10  1   
 16   8  11  1   
 17   8  30  1   
 18   8  31  1   
 19   9  12  1   
 20   9  32  1   
 21   9  33  1   
 22  10  13  ar  
 23  10  14  ar  
 24  11  12  1   
 25  11  15  1   
 26  11  34  1   
 27  12  16  1   
 28  12  35  1   
 29  13  17  ar  
 30  13  36  1   
 31  14  18  ar  
 32  14  37  1   
 33  15  19  1   
 34  15  38  1   
 35  15  39  1   
 36  16  19  1   
 37  16  40  1   
 38  16  41  1   
 39  17  20  1   
 40  17  21  ar  
 41  18  21  ar  
 42  18  42  1   
 43  19  22  1   
 44  19  43  1   
 45  20  23  1   
 46  21  44  1   
 47  22  45  1   
 48  23  46  1   
 49  23  47  1   
 50  23  48  1   
@<TRIPOS>SUBSTRUCTURE
  1 ****   5 GROUP 4 **** **** 0

# MOE 2024.06 (io_trps.svl 2023.06)
