@<TRIPOS>MOLECULE
NONAME
46 48 1 0 0 
SMALL
USER_CHARGES


@<TRIPOS>ATOM
  1 CL      -1.1140    -0.0850    -2.2470 Cl    1 <1>  -0.1770 
  2 C       -1.9180    -0.8580    -0.8930 C.ar  1 <1>   0.1770 
  3 C       -2.4460    -0.1640     0.2050 C.ar  1 <1>   0.0820 
  4 C       -2.0170    -2.2330    -0.9750 C.ar  1 <1>  -0.1500 
  5 O       -2.4280     1.1740     0.4350 O.3   1 <1>  -0.3630 
  6 C       -3.0660    -0.9070     1.1990 C.ar  1 <1>  -0.1500 
  7 C       -2.6480    -2.9810     0.0180 C.ar  1 <1>   0.0860 
  8 C       -1.7070     2.1120    -0.3270 C.3   1 <1>   0.1200 
  9 C       -3.1610    -2.2830     1.1110 C.ar  1 <1>  -0.1500 
 10 C       -2.7500    -4.4230    -0.0910 C.2   1 <1>   0.5440 
 11 C       -1.8190     3.4660     0.3670 C.3   1 <1>  -0.2400 
 12 O       -1.7790    -5.0710    -0.4350 O.2   1 <1>  -0.5700 
 13 N       -3.9250    -5.0920     0.1660 N.am  1 <1>  -0.6600 
 14 C       -5.2770    -4.4840     0.0800 C.3   1 <1>   0.1400 
 15 C       -4.0150    -6.5710     0.0800 C.3   1 <1>   0.1400 
 16 C       -6.2040    -5.6400    -0.2940 C.3   1 <1>   0.2000 
 17 C       -5.5030    -6.9010     0.2060 C.3   1 <1>  -0.0800 
 18 O       -7.4470    -5.5130     0.3060 O.3   1 <1>  -0.6800 
 19 C       -5.9220    -8.1640    -0.5620 C.3   1 <1>  -0.0170 
 20 C       -5.2050    -9.3930    -0.0250 C.ar  1 <1>  -0.1430 
 21 C       -4.0510    -9.8830    -0.6040 C.ar  1 <1>  -0.1500 
 22 C       -5.6730   -10.0810     1.0760 C.ar  1 <1>  -0.1500 
 23 C       -3.4380   -11.0020    -0.0660 C.ar  1 <1>   0.1600 
 24 C       -4.9840   -11.1910     1.5340 C.ar  1 <1>   0.1600 
 25 N       -3.8760   -11.6680     0.9900 N.ar  1 <1>  -0.6200 
 26 H       -1.5970    -2.7440    -1.8240 H     1 <1>   0.1500 
 27 H       -3.4710    -0.3910     2.0520 H     1 <1>   0.1500 
 28 H       -0.6790     1.7970    -0.3760 H     1 <1>   0.0800 
 29 H       -2.1400     2.1580    -1.3110 H     1 <1>   0.0800 
 30 H       -3.6340    -2.8330     1.9060 H     1 <1>   0.1500 
 31 H       -1.4010     3.4090     1.3560 H     1 <1>   0.0800 
 32 H       -2.8490     3.7670     0.4280 H     1 <1>   0.0800 
 33 H       -1.2770     4.2070    -0.1920 H     1 <1>   0.0800 
 34 H       -5.5440    -4.0780     1.0400 H     1 <1>   0.0800 
 35 H       -5.3040    -3.7140    -0.6720 H     1 <1>   0.0800 
 36 H       -3.6290    -6.8880    -0.8740 H     1 <1>   0.0800 
 37 H       -3.4390    -7.0330     0.8650 H     1 <1>   0.0800 
 38 H       -6.3430    -5.6640    -1.3620 H     1 <1>   0.0800 
 39 H       -5.7100    -7.0350     1.2530 H     1 <1>   0.0800 
 40 H       -7.3620    -5.5370     1.2790 H     1 <1>   0.4000 
 41 H       -5.7070    -8.0470    -1.6100 H     1 <1>   0.0800 
 42 H       -6.9850    -8.3030    -0.4650 H     1 <1>   0.0800 
 43 H       -3.6210    -9.4080    -1.4670 H     1 <1>   0.1500 
 44 H       -6.5670    -9.7640     1.5810 H     1 <1>   0.1500 
 45 H       -2.5380   -11.3690    -0.5300 H     1 <1>   0.1500 
 46 H       -5.3650   -11.7160     2.3940 H     1 <1>   0.1500 
@<TRIPOS>BOND
  1   1   2  1   
  2   2   3  ar  
  3   2   4  ar  
  4   3   5  1   
  5   3   6  ar  
  6   4   7  ar  
  7   4  26  1   
  8   5   8  1   
  9   6   9  ar  
 10   6  27  1   
 11   7   9  ar  
 12   7  10  1   
 13   8  11  1   
 14   8  28  1   
 15   8  29  1   
 16   9  30  1   
 17  10  12  2   
 18  10  13  am  
 19  11  31  1   
 20  11  32  1   
 21  11  33  1   
 22  13  14  1   
 23  13  15  1   
 24  14  16  1   
 25  14  34  1   
 26  14  35  1   
 27  15  17  1   
 28  15  36  1   
 29  15  37  1   
 30  16  17  1   
 31  16  18  1   
 32  16  38  1   
 33  17  19  1   
 34  17  39  1   
 35  18  40  1   
 36  19  20  1   
 37  19  41  1   
 38  19  42  1   
 39  20  21  ar  
 40  20  22  ar  
 41  21  23  ar  
 42  21  43  1   
 43  22  24  ar  
 44  22  44  1   
 45  23  25  ar  
 46  23  45  1   
 47  24  25  ar  
 48  24  46  1   
@<TRIPOS>SUBSTRUCTURE
  1 ****  13 GROUP 4 **** **** 0

# MOE 2024.06 (io_trps.svl 2023.06)
