@<TRIPOS>MOLECULE
NONAME
41 42 1 0 0 
SMALL
USER_CHARGES


@<TRIPOS>ATOM
  1 S        0.5560     0.9690    -0.4750 S.o2  1 <1>   1.3330 
  2 O        0.2750    -0.2760    -1.1540 O.2   1 <1>  -0.6500 
  3 O       -0.4510     2.0060    -0.4430 O.2   1 <1>  -0.6500 
  4 N        0.9460     0.6030     1.1370 N.am  1 <1>  -0.8490 
  5 C        2.0750     1.6410    -1.1510 C.3   1 <1>  -0.0550 
  6 C        1.0340     1.7910     1.9970 C.3   1 <1>   0.1160 
  7 C        0.0080    -0.3600     1.7190 C.3   1 <1>   0.1160 
  8 C        3.1990     0.6020    -1.3680 C.3   1 <1>  -0.0800 
  9 C        4.4760     1.1600    -1.9780 C.3   1 <1>   0.2200 
 10 C        3.7130    -0.0740    -0.0920 C.3   1 <1>   0.1200 
 11 N        4.8290     2.4350    -1.3180 N.am  1 <1>  -0.7300 
 12 C        5.4770     0.0920    -1.5580 C.3   1 <1>   0.1200 
 13 O        5.0780    -0.3150    -0.2840 O.3   1 <1>  -0.5600 
 14 C        4.6260     3.6810    -1.8190 C.2   1 <1>   0.5690 
 15 O        4.3110     3.8440    -2.9720 O.2   1 <1>  -0.5700 
 16 C        4.7500     4.9070    -0.9330 C.3   1 <1>   0.1570 
 17 N        5.0160     4.5450     0.4720 N.pl3 1 <1>   0.3140 
 18 N        4.1360     3.8460     1.2240 N.2   1 <1>  -0.7070 
 19 C        6.1390     4.8110     1.1680 C.2   1 <1>  -0.3020 
 20 C        4.7240     3.6940     2.3720 C.2   1 <1>   0.1390 
 21 C        5.9830     4.2780     2.3970 C.2   1 <1>  -0.1500 
 22 H        1.8530     2.0880    -2.1010 H     1 <1>   0.0800 
 23 H        2.4180     2.4250    -0.5060 H     1 <1>   0.0800 
 24 H        1.3460     1.5070     2.9870 H     1 <1>   0.0800 
 25 H        0.0780     2.2850     2.0590 H     1 <1>   0.0800 
 26 H        1.7560     2.4860     1.6050 H     1 <1>   0.0800 
 27 H        0.2900    -0.5920     2.7310 H     1 <1>   0.0800 
 28 H        0.0190    -1.2750     1.1490 H     1 <1>   0.0800 
 29 H       -0.9930     0.0400     1.7100 H     1 <1>   0.0800 
 30 H        2.8260    -0.1720    -2.0170 H     1 <1>   0.0800 
 31 H        4.4210     1.2810    -3.0470 H     1 <1>   0.0800 
 32 H        3.2110    -1.0070     0.1020 H     1 <1>   0.0800 
 33 H        3.6200     0.5730     0.7630 H     1 <1>   0.0800 
 34 H        4.9810     2.3380    -0.3030 H     1 <1>   0.3700 
 35 H        6.4870     0.4600    -1.5230 H     1 <1>   0.0800 
 36 H        5.4180    -0.7620    -2.2100 H     1 <1>   0.0800 
 37 H        3.8330     5.4610    -0.9730 H     1 <1>   0.0800 
 38 H        5.5480     5.5250    -1.2970 H     1 <1>   0.0800 
 39 H        6.9740     5.3530     0.7620 H     1 <1>   0.1500 
 40 H        4.2810     3.1730     3.2050 H     1 <1>   0.1500 
 41 H        6.6630     4.2850     3.2310 H     1 <1>   0.1500 
@<TRIPOS>BOND
  1   1   2  2   
  2   1   3  2   
  3   1   4  am  
  4   1   5  1   
  5   4   6  1   
  6   4   7  1   
  7   5   8  1   
  8   5  22  1   
  9   5  23  1   
 10   6  24  1   
 11   6  25  1   
 12   6  26  1   
 13   7  27  1   
 14   7  28  1   
 15   7  29  1   
 16   8   9  1   
 17   8  10  1   
 18   8  30  1   
 19   9  11  1   
 20   9  12  1   
 21   9  31  1   
 22  10  13  1   
 23  10  32  1   
 24  10  33  1   
 25  11  14  am  
 26  11  34  1   
 27  12  13  1   
 28  12  35  1   
 29  12  36  1   
 30  14  15  2   
 31  14  16  1   
 32  16  17  1   
 33  16  37  1   
 34  16  38  1   
 35  17  18  1   
 36  17  19  1   
 37  18  20  2   
 38  19  21  2   
 39  19  39  1   
 40  20  21  1   
 41  20  40  1   
 42  21  41  1   
@<TRIPOS>SUBSTRUCTURE
  1 ****   5 GROUP 4 **** **** 0

# MOE 2024.06 (io_trps.svl 2023.06)
