@<TRIPOS>MOLECULE
NONAME
51 53 1 0 0 
SMALL
USER_CHARGES


@<TRIPOS>ATOM
  1 O       -1.6070     1.0300    -1.1450 O.2   1 <1>  -0.5700 
  2 C       -1.5630     0.7510     0.0300 C.2   1 <1>   0.5690 
  3 N       -1.9070    -0.4830     0.4850 N.am  1 <1>  -0.7300 
  4 C       -1.0760     1.8440     1.0000 C.3   1 <1>   0.4040 
  5 C       -2.3170    -1.6250    -0.3700 C.3   1 <1>   0.2200 
  6 N       -0.1920     2.8740     0.3330 N.4   1 <1>  -0.9590 
  7 C       -3.7380    -2.0390    -0.0060 C.3   1 <1>  -0.0800 
  8 C       -1.5300    -2.8540     0.0610 C.3   1 <1>   0.1200 
  9 C        1.1280     2.2870    -0.0380 C.3   1 <1>   0.3430 
 10 C       -0.1260     4.1330     1.1220 C.3   1 <1>   0.3430 
 11 C       -3.5220    -3.0190     1.1610 C.3   1 <1>   0.1200 
 12 C       -4.4540    -2.7030    -1.1980 C.3   1 <1>  -0.0170 
 13 O       -2.1470    -3.2550     1.2420 O.3   1 <1>  -0.5600 
 14 C        1.6630     2.9730    -1.2930 C.3   1 <1>  -0.1600 
 15 C        0.5280     5.2750     0.3410 C.3   1 <1>  -0.1600 
 16 C       -5.8630    -3.1480    -0.8330 C.ar  1 <1>  -0.1430 
 17 C        2.4560     4.2690    -1.0480 C.3   1 <1>  -0.1600 
 18 C        2.0440     5.1040     0.1730 C.3   1 <1>  -0.1600 
 19 C       -6.1800    -4.4740    -0.6170 C.ar  1 <1>  -0.1500 
 20 C       -6.9000    -2.2470    -0.7030 C.ar  1 <1>  -0.1500 
 21 C       -7.4790    -4.8230    -0.2830 C.ar  1 <1>   0.1600 
 22 C       -8.1650    -2.7000    -0.3660 C.ar  1 <1>   0.1600 
 23 N       -8.4780    -3.9670    -0.1500 N.ar  1 <1>  -0.6200 
 24 H       -1.8540    -0.7550     1.4730 H     1 <1>   0.3700 
 25 H       -0.5470     1.3810     1.8150 H     1 <1>   0.0800 
 26 H       -1.9490     2.3290     1.3990 H     1 <1>   0.0800 
 27 H       -2.1890    -1.3960    -1.4160 H     1 <1>   0.0800 
 28 H       -0.6610     3.0740    -0.5670 H     1 <1>   0.4500 
 29 H       -4.3200    -1.1920     0.3120 H     1 <1>   0.0800 
 30 H       -0.4910    -2.6480     0.2440 H     1 <1>   0.0800 
 31 H       -1.6260    -3.6520    -0.6550 H     1 <1>   0.0800 
 32 H        1.8330     2.3730     0.7730 H     1 <1>   0.0800 
 33 H        0.9990     1.2410    -0.2660 H     1 <1>   0.0800 
 34 H       -1.1260     4.4370     1.3860 H     1 <1>   0.0800 
 35 H        0.4220     3.9670     2.0360 H     1 <1>   0.0800 
 36 H       -4.0180    -3.9620     1.0090 H     1 <1>   0.0800 
 37 H       -3.8440    -2.5960     2.0970 H     1 <1>   0.0800 
 38 H       -3.8910    -3.5510    -1.5470 H     1 <1>   0.0800 
 39 H       -4.5170    -2.0020    -2.0130 H     1 <1>   0.0800 
 40 H        2.3210     2.2840    -1.7930 H     1 <1>   0.0800 
 41 H        0.8510     3.1620    -1.9750 H     1 <1>   0.0800 
 42 H        0.0440     5.4200    -0.6100 H     1 <1>   0.0800 
 43 H        0.3670     6.1740     0.9110 H     1 <1>   0.0800 
 44 H        3.4990     4.0220    -0.9380 H     1 <1>   0.0800 
 45 H        2.3790     4.8810    -1.9310 H     1 <1>   0.0800 
 46 H        2.4880     6.0800     0.0600 H     1 <1>   0.0800 
 47 H        2.4650     4.6780     1.0680 H     1 <1>   0.0800 
 48 H       -5.4340    -5.2430    -0.7040 H     1 <1>   0.1500 
 49 H       -6.7400    -1.1960    -0.8620 H     1 <1>   0.1500 
 50 H       -7.7070    -5.8620    -0.1170 H     1 <1>   0.1500 
 51 H       -8.9620    -1.9830    -0.2690 H     1 <1>   0.1500 
@<TRIPOS>BOND
  1   1   2  2   
  2   2   3  am  
  3   2   4  1   
  4   3   5  1   
  5   3  24  1   
  6   4   6  1   
  7   4  25  1   
  8   4  26  1   
  9   5   7  1   
 10   5   8  1   
 11   5  27  1   
 12   6   9  1   
 13   6  10  1   
 14   6  28  1   
 15   7  11  1   
 16   7  12  1   
 17   7  29  1   
 18   8  13  1   
 19   8  30  1   
 20   8  31  1   
 21   9  14  1   
 22   9  32  1   
 23   9  33  1   
 24  10  15  1   
 25  10  34  1   
 26  10  35  1   
 27  11  13  1   
 28  11  36  1   
 29  11  37  1   
 30  12  16  1   
 31  12  38  1   
 32  12  39  1   
 33  14  17  1   
 34  14  40  1   
 35  14  41  1   
 36  15  18  1   
 37  15  42  1   
 38  15  43  1   
 39  16  19  ar  
 40  16  20  ar  
 41  17  18  1   
 42  17  44  1   
 43  17  45  1   
 44  18  46  1   
 45  18  47  1   
 46  19  21  ar  
 47  19  48  1   
 48  20  22  ar  
 49  20  49  1   
 50  21  23  ar  
 51  21  50  1   
 52  22  23  ar  
 53  22  51  1   
@<TRIPOS>SUBSTRUCTURE
  1 ****   3 GROUP 4 **** **** 0

# MOE 2024.06 (io_trps.svl 2023.06)
