@<TRIPOS>MOLECULE
NONAME
54 57 1 0 0 
SMALL
USER_CHARGES


@<TRIPOS>ATOM
  1 S       -0.3010    -0.1070     1.0320 S.o2  1 <1>   1.4470 
  2 O        0.4040    -1.1640     1.7280 O.2   1 <1>  -0.6500 
  3 O       -1.1620     0.7410     1.8250 O.2   1 <1>  -0.6500 
  4 N       -1.2230    -0.8390    -0.2000 N.am  1 <1>  -0.8490 
  5 C        0.9350     0.8830     0.1340 C.ar  1 <1>  -0.0090 
  6 C       -2.5610    -0.2670    -0.3690 C.3   1 <1>   0.1960 
  7 C       -1.4810    -2.2700    -0.0160 C.3   1 <1>   0.1960 
  8 C        0.5900     2.0190    -0.6120 C.ar  1 <1>   0.0860 
  9 C        2.2710     0.4940     0.1680 C.ar  1 <1>  -0.1500 
 10 C       -3.4520    -1.0210     0.6140 C.3   1 <1>  -0.0800 
 11 C       -2.7620    -2.3770     0.8210 C.3   1 <1>  -0.0800 
 12 C       -0.7580     2.5220    -0.7190 C.2   1 <1>   0.6340 
 13 C        1.5930     2.7060    -1.2980 C.ar  1 <1>  -0.1500 
 14 C        3.2540     1.1910    -0.5110 C.ar  1 <1>  -0.1500 
 15 C       -4.9450    -1.0420     0.2350 C.3   1 <1>   0.4240 
 16 C       -3.6340    -3.5940     0.4560 C.3   1 <1>  -0.1600 
 17 O       -1.4350     2.3800    -1.7150 O.2   1 <1>  -0.5700 
 18 O       -1.2500     3.2010     0.3170 O.3   1 <1>  -0.4300 
 19 C        2.9120     2.3030    -1.2500 C.ar  1 <1>  -0.1500 
 20 O       -5.0830    -1.4990    -1.0640 O.3   1 <1>  -0.6800 
 21 C       -5.5380     0.3780     0.3500 C.ar  1 <1>  -0.1430 
 22 C       -5.6590    -2.0820     1.1150 C.3   1 <1>  -0.1600 
 23 C       -5.0570    -3.5090     1.0490 C.3   1 <1>  -0.1600 
 24 C       -2.5780     3.6910     0.3360 C.3   1 <1>   0.0400 
 25 C       -5.6720     0.9790     1.5990 C.ar  1 <1>  -0.1500 
 26 C       -5.9240     1.1150    -0.7670 C.ar  1 <1>  -0.1500 
 27 C       -6.1770     2.2610     1.7290 C.ar  1 <1>  -0.1500 
 28 C       -6.4290     2.3970    -0.6420 C.ar  1 <1>  -0.1500 
 29 C       -6.5570     2.9730     0.6080 C.ar  1 <1>  -0.1500 
 30 H       -2.6000     0.7880    -0.1810 H     1 <1>   0.0800 
 31 H       -2.8780    -0.4360    -1.3850 H     1 <1>   0.0800 
 32 H       -1.6540    -2.6980    -0.9900 H     1 <1>   0.0800 
 33 H       -0.6560    -2.8000     0.4290 H     1 <1>   0.0800 
 34 H        2.5580    -0.3760     0.7360 H     1 <1>   0.1500 
 35 H       -3.3830    -0.5040     1.5530 H     1 <1>   0.0800 
 36 H       -2.4810    -2.4600     1.8580 H     1 <1>   0.0800 
 37 H        1.3270     3.5730    -1.8800 H     1 <1>   0.1500 
 38 H        4.2800     0.8650    -0.4640 H     1 <1>   0.1500 
 39 H       -3.7040    -3.6740    -0.6140 H     1 <1>   0.0800 
 40 H       -3.1560    -4.4950     0.8030 H     1 <1>   0.0800 
 41 H        3.6690     2.8510    -1.7860 H     1 <1>   0.1500 
 42 H       -4.8970    -2.4530    -1.0590 H     1 <1>   0.4000 
 43 H       -5.5980    -1.7540     2.1360 H     1 <1>   0.0800 
 44 H       -6.7050    -2.1040     0.8630 H     1 <1>   0.0800 
 45 H       -5.0420    -3.9120     2.0480 H     1 <1>   0.0800 
 46 H       -5.7080    -4.1410     0.4690 H     1 <1>   0.0800 
 47 H       -2.7310     4.2210     1.2580 H     1 <1>   0.0800 
 48 H       -3.2610     2.8610     0.2740 H     1 <1>   0.0800 
 49 H       -2.7190     4.3520    -0.5020 H     1 <1>   0.0800 
 50 H       -5.3770     0.4590     2.4920 H     1 <1>   0.1500 
 51 H       -5.8330     0.6990    -1.7560 H     1 <1>   0.1500 
 52 H       -6.2720     2.7050     2.7050 H     1 <1>   0.1500 
 53 H       -6.7210     2.9450    -1.5210 H     1 <1>   0.1500 
 54 H       -6.9510     3.9690     0.7060 H     1 <1>   0.1500 
@<TRIPOS>BOND
  1   1   2  2   
  2   1   3  2   
  3   1   4  am  
  4   1   5  1   
  5   4   6  1   
  6   4   7  1   
  7   5   8  ar  
  8   5   9  ar  
  9   6  10  1   
 10   6  30  1   
 11   6  31  1   
 12   7  11  1   
 13   7  32  1   
 14   7  33  1   
 15   8  12  1   
 16   8  13  ar  
 17   9  14  ar  
 18   9  34  1   
 19  10  11  1   
 20  10  15  1   
 21  10  35  1   
 22  11  16  1   
 23  11  36  1   
 24  12  17  2   
 25  12  18  1   
 26  13  19  ar  
 27  13  37  1   
 28  14  19  ar  
 29  14  38  1   
 30  15  20  1   
 31  15  21  1   
 32  15  22  1   
 33  16  23  1   
 34  16  39  1   
 35  16  40  1   
 36  18  24  1   
 37  19  41  1   
 38  20  42  1   
 39  21  25  ar  
 40  21  26  ar  
 41  22  23  1   
 42  22  43  1   
 43  22  44  1   
 44  23  45  1   
 45  23  46  1   
 46  24  47  1   
 47  24  48  1   
 48  24  49  1   
 49  25  27  ar  
 50  25  50  1   
 51  26  28  ar  
 52  26  51  1   
 53  27  29  ar  
 54  27  52  1   
 55  28  29  ar  
 56  28  53  1   
 57  29  54  1   
@<TRIPOS>SUBSTRUCTURE
  1 ****   6 GROUP 4 **** **** 0

# MOE 2024.06 (io_trps.svl 2023.06)
