@<TRIPOS>MOLECULE
NONAME
57 58 1 0 0 
SMALL
USER_CHARGES


@<TRIPOS>ATOM
  1 O       -0.9280     1.4370     2.7590 O.2   1 <1>  -0.5700 
  2 C       -0.7180     2.5220     2.2800 C.2   1 <1>   0.5690 
  3 N       -1.6880     3.4640     2.2590 N.am  1 <1>  -0.7300 
  4 C        0.6470     2.8330     1.6540 C.3   1 <1>   0.1810 
  5 C       -1.4860     4.8260     1.7160 C.3   1 <1>   0.3640 
  6 O        0.8670     4.2120     1.4250 O.3   1 <1>  -0.5600 
  7 C       -2.7140     5.2470     0.9110 C.ar  1 <1>  -0.1440 
  8 C       -0.2220     4.8900     0.8230 C.3   1 <1>   0.2610 
  9 C       -3.1900     6.5440     1.0230 C.ar  1 <1>  -0.1500 
 10 C       -3.3560     4.3750     0.0450 C.ar  1 <1>  -0.1500 
 11 C        0.1540     6.3450     0.4890 C.2   1 <1>   0.5690 
 12 C       -4.2730     6.9860     0.2840 C.ar  1 <1>   0.0820 
 13 C       -4.4420     4.7980    -0.7020 C.ar  1 <1>  -0.1500 
 14 O       -0.1070     7.2160     1.2920 O.2   1 <1>  -0.5700 
 15 N        0.7920     6.6850    -0.6840 N.am  1 <1>  -0.6600 
 16 O       -4.6140     8.2880     0.4930 O.3   1 <1>  -0.3620 
 17 C       -4.9120     6.1060    -0.6050 C.ar  1 <1>   0.0820 
 18 C        0.6840     8.0740    -1.2490 C.3   1 <1>   0.1400 
 19 C        1.5260     5.7000    -1.5320 C.3   1 <1>   0.1400 
 20 C       -5.9660     8.6920     0.4670 C.3   1 <1>   0.0400 
 21 O       -5.9570     6.5470    -1.3650 O.3   1 <1>  -0.3630 
 22 C        1.7880     9.0190    -0.7360 C.3   1 <1>   0.3430 
 23 C        2.9820     5.6330    -1.0830 C.3   1 <1>  -0.2400 
 24 C       -6.6120     5.7180    -2.3000 C.3   1 <1>   0.0400 
 25 N        1.6950     9.2250     0.7410 N.4   1 <1>  -0.9590 
 26 C        0.7140    10.2890     1.1090 C.3   1 <1>   0.2630 
 27 C        3.0240     9.4400     1.3790 C.3   1 <1>   0.2630 
 28 H       -2.5880     3.2580     2.6970 H     1 <1>   0.3700 
 29 H        0.7310     2.3170     0.7150 H     1 <1>   0.0800 
 30 H        1.4240     2.4820     2.3090 H     1 <1>   0.0800 
 31 H       -1.3640     5.4950     2.5510 H     1 <1>   0.0800 
 32 H       -0.4530     4.3830    -0.0940 H     1 <1>   0.0800 
 33 H       -2.7190     7.2420     1.6920 H     1 <1>   0.1500 
 34 H       -3.0170     3.3580    -0.0590 H     1 <1>   0.1500 
 35 H       -4.9050     4.0860    -1.3590 H     1 <1>   0.1500 
 36 H        0.7360     8.0270    -2.3230 H     1 <1>   0.0800 
 37 H       -0.2810     8.4840    -1.0010 H     1 <1>   0.0800 
 38 H        1.0890     4.7210    -1.4500 H     1 <1>   0.0800 
 39 H        1.4730     5.9850    -2.5690 H     1 <1>   0.0800 
 40 H       -6.0530     9.6100     1.0180 H     1 <1>   0.0800 
 41 H       -6.5710     7.9280     0.9240 H     1 <1>   0.0800 
 42 H       -6.2620     8.8520    -0.5540 H     1 <1>   0.0800 
 43 H        1.7150     9.9690    -1.2400 H     1 <1>   0.0800 
 44 H        2.7420     8.5860    -0.9840 H     1 <1>   0.0800 
 45 H        3.0420     5.3490    -0.0470 H     1 <1>   0.0800 
 46 H        3.4770     6.5740    -1.2310 H     1 <1>   0.0800 
 47 H        3.5010     4.8890    -1.6620 H     1 <1>   0.0800 
 48 H       -7.3840     6.2960    -2.7750 H     1 <1>   0.0800 
 49 H       -7.0490     4.8830    -1.7810 H     1 <1>   0.0800 
 50 H       -5.8990     5.3880    -3.0350 H     1 <1>   0.0800 
 51 H        1.2880     8.3340     1.1090 H     1 <1>   0.4500 
 52 H        1.0280    11.2440     0.7220 H     1 <1>   0.0800 
 53 H        0.6280    10.3590     2.1810 H     1 <1>   0.0800 
 54 H       -0.2590    10.0510     0.7090 H     1 <1>   0.0800 
 55 H        3.4730    10.3500     1.0150 H     1 <1>   0.0800 
 56 H        3.6810     8.6150     1.1570 H     1 <1>   0.0800 
 57 H        2.9150     9.5110     2.4490 H     1 <1>   0.0800 
@<TRIPOS>BOND
  1   1   2  2   
  2   2   3  am  
  3   2   4  1   
  4   3   5  1   
  5   3  28  1   
  6   4   6  1   
  7   4  29  1   
  8   4  30  1   
  9   5   7  1   
 10   5   8  1   
 11   5  31  1   
 12   6   8  1   
 13   7   9  ar  
 14   7  10  ar  
 15   8  11  1   
 16   8  32  1   
 17   9  12  ar  
 18   9  33  1   
 19  10  13  ar  
 20  10  34  1   
 21  11  14  2   
 22  11  15  am  
 23  12  16  1   
 24  12  17  ar  
 25  13  17  ar  
 26  13  35  1   
 27  15  18  1   
 28  15  19  1   
 29  16  20  1   
 30  17  21  1   
 31  18  22  1   
 32  18  36  1   
 33  18  37  1   
 34  19  23  1   
 35  19  38  1   
 36  19  39  1   
 37  20  40  1   
 38  20  41  1   
 39  20  42  1   
 40  21  24  1   
 41  22  25  1   
 42  22  43  1   
 43  22  44  1   
 44  23  45  1   
 45  23  46  1   
 46  23  47  1   
 47  24  48  1   
 48  24  49  1   
 49  24  50  1   
 50  25  26  1   
 51  25  27  1   
 52  25  51  1   
 53  26  52  1   
 54  26  53  1   
 55  26  54  1   
 56  27  55  1   
 57  27  56  1   
 58  27  57  1   
@<TRIPOS>SUBSTRUCTURE
  1 ****  11 GROUP 4 **** **** 0

# MOE 2024.06 (io_trps.svl 2023.06)
