@<TRIPOS>MOLECULE
NONAME
58 61 1 0 0 
SMALL
USER_CHARGES


@<TRIPOS>ATOM
  1 F       -1.5150    -2.1470     3.6650 F     1 <1>  -0.1900 
  2 C       -1.7760    -3.2810     3.0780 C.ar  1 <1>   0.1900 
  3 C       -2.2380    -4.3380     3.8370 C.ar  1 <1>  -0.1500 
  4 C       -1.5850    -3.3890     1.7150 C.ar  1 <1>  -0.1500 
  5 C       -2.5110    -5.5380     3.2040 C.ar  1 <1>  -0.1500 
  6 C       -1.8630    -4.5970     1.0980 C.ar  1 <1>  -0.1500 
  7 C       -2.3250    -5.7010     1.8260 C.ar  1 <1>   0.0860 
  8 C       -2.6090    -6.9780     1.1910 C.2   1 <1>   0.5440 
  9 O       -3.4180    -7.7440     1.6770 O.2   1 <1>  -0.5700 
 10 N       -1.9650    -7.3510     0.0420 N.am  1 <1>  -0.7300 
 11 C       -2.1690    -8.6360    -0.6690 C.3   1 <1>   0.1400 
 12 C       -2.8920    -8.3950    -1.9900 C.3   1 <1>  -0.0990 
 13 C       -3.3870    -9.7260    -2.5170 C.2   1 <1>   0.5690 
 14 O       -2.6780   -10.2800    -3.3230 O.2   1 <1>  -0.5700 
 15 N       -4.5510   -10.2920    -2.0550 N.am  1 <1>  -0.6600 
 16 C       -5.5850    -9.6330    -1.2040 C.3   1 <1>   0.1400 
 17 C       -4.8360   -11.7350    -2.2810 C.3   1 <1>   0.1400 
 18 C       -5.6330   -10.3090     0.1660 C.3   1 <1>  -0.1600 
 19 C       -4.8360   -12.4530    -0.9280 C.3   1 <1>  -0.1600 
 20 C       -5.8420   -11.8330     0.0590 C.3   1 <1>   0.4240 
 21 O       -7.0920   -12.0250    -0.5700 O.3   1 <1>  -0.5600 
 22 C       -5.7800   -12.5350     1.4440 C.ar  1 <1>  -0.1430 
 23 C       -8.2310   -12.0120     0.2270 C.3   1 <1>   0.1200 
 24 C       -4.6270   -12.5160     2.2380 C.ar  1 <1>   0.0830 
 25 C       -6.8980   -13.2040     1.9400 C.ar  1 <1>  -0.1430 
 26 C       -8.1850   -13.2270     1.1410 C.3   1 <1>  -0.0170 
 27 O       -3.5130   -11.8660     1.8250 O.3   1 <1>  -0.3620 
 28 C       -4.5960   -13.1720     3.4620 C.ar  1 <1>  -0.1500 
 29 C       -6.8630   -13.8500     3.1660 C.ar  1 <1>  -0.1500 
 30 C       -2.9480   -10.8960     2.6830 C.3   1 <1>   0.0400 
 31 C       -5.7120   -13.8380     3.9280 C.ar  1 <1>  -0.1500 
 32 H       -2.3810    -4.2190     4.8960 H     1 <1>   0.1500 
 33 H       -1.2290    -2.5420     1.1560 H     1 <1>   0.1500 
 34 H       -2.8750    -6.3710     3.7820 H     1 <1>   0.1500 
 35 H       -1.7280    -4.6790     0.0340 H     1 <1>   0.1500 
 36 H       -1.2180    -6.7600    -0.3270 H     1 <1>   0.3700 
 37 H       -2.7500    -9.3030    -0.0550 H     1 <1>   0.0800 
 38 H       -1.2190    -9.1090    -0.8500 H     1 <1>   0.0800 
 39 H       -2.2050    -7.9760    -2.7010 H     1 <1>   0.0800 
 40 H       -3.7040    -7.7070    -1.8700 H     1 <1>   0.0800 
 41 H       -6.5420    -9.7290    -1.6880 H     1 <1>   0.0800 
 42 H       -5.3910    -8.5860    -1.0740 H     1 <1>   0.0800 
 43 H       -4.0940   -12.1770    -2.9230 H     1 <1>   0.0800 
 44 H       -5.7940   -11.8380    -2.7600 H     1 <1>   0.0800 
 45 H       -6.4080    -9.8710     0.7650 H     1 <1>   0.0800 
 46 H       -4.7120   -10.0930     0.6620 H     1 <1>   0.0800 
 47 H       -3.8410   -12.4070    -0.5330 H     1 <1>   0.0800 
 48 H       -5.0770   -13.4900    -1.0650 H     1 <1>   0.0800 
 49 H       -9.0880   -12.0580    -0.4210 H     1 <1>   0.0800 
 50 H       -8.2620   -11.0980     0.7940 H     1 <1>   0.0800 
 51 H       -8.2310   -14.1250     0.5500 H     1 <1>   0.0800 
 52 H       -9.0340   -13.2070     1.7990 H     1 <1>   0.0800 
 53 H       -3.6990   -13.1720     4.0510 H     1 <1>   0.1500 
 54 H       -7.7320   -14.3670     3.5330 H     1 <1>   0.1500 
 55 H       -2.2350   -10.3230     2.1190 H     1 <1>   0.0800 
 56 H       -2.4570   -11.3870     3.5020 H     1 <1>   0.0800 
 57 H       -3.7300   -10.2470     3.0400 H     1 <1>   0.0800 
 58 H       -5.6850   -14.3450     4.8760 H     1 <1>   0.1500 
@<TRIPOS>BOND
  1   1   2  1   
  2   2   3  ar  
  3   2   4  ar  
  4   3   5  ar  
  5   3  32  1   
  6   4   6  ar  
  7   4  33  1   
  8   5   7  ar  
  9   5  34  1   
 10   6   7  ar  
 11   6  35  1   
 12   7   8  1   
 13   8   9  2   
 14   8  10  am  
 15  10  11  1   
 16  10  36  1   
 17  11  12  1   
 18  11  37  1   
 19  11  38  1   
 20  12  13  1   
 21  12  39  1   
 22  12  40  1   
 23  13  14  2   
 24  13  15  am  
 25  15  16  1   
 26  15  17  1   
 27  16  18  1   
 28  16  41  1   
 29  16  42  1   
 30  17  19  1   
 31  17  43  1   
 32  17  44  1   
 33  18  20  1   
 34  18  45  1   
 35  18  46  1   
 36  19  20  1   
 37  19  47  1   
 38  19  48  1   
 39  20  21  1   
 40  20  22  1   
 41  21  23  1   
 42  22  24  ar  
 43  22  25  ar  
 44  23  26  1   
 45  23  49  1   
 46  23  50  1   
 47  24  27  1   
 48  24  28  ar  
 49  25  26  1   
 50  25  29  ar  
 51  26  51  1   
 52  26  52  1   
 53  27  30  1   
 54  28  31  ar  
 55  28  53  1   
 56  29  31  ar  
 57  29  54  1   
 58  30  55  1   
 59  30  56  1   
 60  30  57  1   
 61  31  58  1   
@<TRIPOS>SUBSTRUCTURE
  1 ****  18 GROUP 4 **** **** 0

# MOE 2024.06 (io_trps.svl 2023.06)
