@<TRIPOS>MOLECULE
NONAME
57 61 1 0 0 
SMALL
USER_CHARGES


@<TRIPOS>ATOM
  1 O       -2.4960    -3.3610     1.1720 O.2   1 <1>  -0.5700 
  2 C       -2.2610    -2.1730     1.0940 C.2   1 <1>   0.6900 
  3 N       -2.9240    -1.3590     0.2200 N.am  1 <1>  -0.6600 
  4 N       -1.3050    -1.6720     1.8850 N.am  1 <1>  -0.8000 
  5 C       -3.8090    -1.9430    -0.8270 C.3   1 <1>   0.1400 
  6 C       -3.1730     0.0860     0.4700 C.3   1 <1>   0.1400 
  7 C       -5.2690    -1.8190    -0.3780 C.3   1 <1>  -0.0190 
  8 C       -4.6360     0.2850     0.8930 C.3   1 <1>  -0.1600 
  9 C       -6.2000    -2.4510    -1.4110 C.2   1 <1>   0.5690 
 10 C       -5.6220    -0.3420    -0.1080 C.3   1 <1>  -0.1600 
 11 O       -5.9320    -2.2920    -2.5800 O.2   1 <1>  -0.5700 
 12 N       -7.2890    -3.1970    -1.0260 N.am  1 <1>  -0.6600 
 13 C       -7.8060    -3.3450     0.3620 C.3   1 <1>   0.1400 
 14 C       -7.9650    -4.1150    -1.9800 C.3   1 <1>   0.1400 
 15 C       -7.4790    -4.7580     0.8440 C.3   1 <1>  -0.1600 
 16 C       -7.6530    -5.5510    -1.5560 C.3   1 <1>  -0.1600 
 17 C       -8.0650    -5.8170    -0.0990 C.3   1 <1>   0.4600 
 18 O       -9.4680    -5.7030     0.0100 O.3   1 <1>  -0.5600 
 19 C       -7.6360    -7.2080     0.3500 C.2   1 <1>  -0.3320 
 20 C      -10.2550    -6.8090    -0.3680 C.3   1 <1>   0.1200 
 21 N       -6.3500    -7.6420     0.5260 N.pl3 1 <1>   0.0330 
 22 C       -8.4880    -8.2100     0.6410 C.2   1 <1>  -0.1810 
 23 C       -9.9810    -8.0240     0.5330 C.3   1 <1>   0.0210 
 24 C       -6.3990    -8.9500     0.9440 C.ar  1 <1>  -0.1520 
 25 C       -7.7340    -9.3380     1.0280 C.ar  1 <1>   0.0000 
 26 C       -5.3720    -9.8410     1.2640 C.ar  1 <1>  -0.1500 
 27 C       -8.0520   -10.6360     1.4380 C.ar  1 <1>  -0.1500 
 28 C       -5.6990   -11.1160     1.6650 C.ar  1 <1>  -0.1500 
 29 C       -7.0400   -11.5140     1.7510 C.ar  1 <1>  -0.1500 
 30 H       -0.7540    -2.3410     2.4180 H     1 <1>   0.3700 
 31 H       -0.8450    -0.8050     1.6300 H     1 <1>   0.3700 
 32 H       -3.5630    -2.9780    -0.9930 H     1 <1>   0.0800 
 33 H       -3.6570    -1.4150    -1.7530 H     1 <1>   0.0800 
 34 H       -2.9750     0.6350    -0.4350 H     1 <1>   0.0800 
 35 H       -2.5230     0.4610     1.2400 H     1 <1>   0.0800 
 36 H       -5.3370    -2.3740     0.5370 H     1 <1>   0.0800 
 37 H       -4.8380     1.3380     0.9870 H     1 <1>   0.0800 
 38 H       -4.7750    -0.1610     1.8630 H     1 <1>   0.0800 
 39 H       -6.6250    -0.2710     0.2750 H     1 <1>   0.0800 
 40 H       -5.5840     0.2020    -1.0370 H     1 <1>   0.0800 
 41 H       -8.8730    -3.2010     0.3560 H     1 <1>   0.0800 
 42 H       -7.3850    -2.6110     1.0240 H     1 <1>   0.0800 
 43 H       -7.6220    -3.9460    -2.9860 H     1 <1>   0.0800 
 44 H       -9.0270    -3.9390    -1.9530 H     1 <1>   0.0800 
 45 H       -7.8730    -4.9120     1.8320 H     1 <1>   0.0800 
 46 H       -6.4120    -4.8640     0.8970 H     1 <1>   0.0800 
 47 H       -6.5950    -5.7080    -1.6580 H     1 <1>   0.0800 
 48 H       -8.1380    -6.2460    -2.2130 H     1 <1>   0.0800 
 49 H      -10.0370    -7.0490    -1.3930 H     1 <1>   0.0800 
 50 H      -11.2870    -6.5170    -0.2940 H     1 <1>   0.0800 
 51 H       -5.4930    -7.0970     0.3920 H     1 <1>   0.2700 
 52 H      -10.4340    -8.9010     0.1080 H     1 <1>   0.0800 
 53 H      -10.3970    -7.8590     1.5100 H     1 <1>   0.0800 
 54 H       -4.3470    -9.5250     1.1960 H     1 <1>   0.1500 
 55 H       -9.0840   -10.9260     1.5010 H     1 <1>   0.1500 
 56 H       -4.9270   -11.8210     1.9160 H     1 <1>   0.1500 
 57 H       -7.2690   -12.5160     2.0680 H     1 <1>   0.1500 
@<TRIPOS>BOND
  1   1   2  2   
  2   2   3  am  
  3   2   4  am  
  4   3   5  1   
  5   3   6  1   
  6   4  30  1   
  7   4  31  1   
  8   5   7  1   
  9   5  32  1   
 10   5  33  1   
 11   6   8  1   
 12   6  34  1   
 13   6  35  1   
 14   7   9  1   
 15   7  10  1   
 16   7  36  1   
 17   8  10  1   
 18   8  37  1   
 19   8  38  1   
 20   9  11  2   
 21   9  12  am  
 22  10  39  1   
 23  10  40  1   
 24  12  13  1   
 25  12  14  1   
 26  13  15  1   
 27  13  41  1   
 28  13  42  1   
 29  14  16  1   
 30  14  43  1   
 31  14  44  1   
 32  15  17  1   
 33  15  45  1   
 34  15  46  1   
 35  16  17  1   
 36  16  47  1   
 37  16  48  1   
 38  17  18  1   
 39  17  19  1   
 40  18  20  1   
 41  19  21  1   
 42  19  22  2   
 43  20  23  1   
 44  20  49  1   
 45  20  50  1   
 46  21  24  1   
 47  21  51  1   
 48  22  23  1   
 49  22  25  1   
 50  23  52  1   
 51  23  53  1   
 52  24  25  ar  
 53  24  26  ar  
 54  25  27  ar  
 55  26  28  ar  
 56  26  54  1   
 57  27  29  ar  
 58  27  55  1   
 59  28  29  ar  
 60  28  56  1   
 61  29  57  1   
@<TRIPOS>SUBSTRUCTURE
  1 ****  15 GROUP 4 **** **** 0

# MOE 2024.06 (io_trps.svl 2023.06)
