@<TRIPOS>MOLECULE
NONAME
40 42 1 0 0 
SMALL
USER_CHARGES


@<TRIPOS>ATOM
  1 O       -0.4840     0.2110     0.6280 O.2   1 <1>  -0.5700 
  2 C       -1.5320     0.7530     0.3360 C.2   1 <1>   0.7160 
  3 N       -2.6450    -0.0240     0.1130 N.am  1 <1>  -0.6600 
  4 C       -1.5930     2.1850     0.2010 C.2   1 <1>  -0.0860 
  5 C       -3.8380     0.4270    -0.6480 C.3   1 <1>   0.1400 
  6 C       -2.6060    -1.5050     0.1960 C.3   1 <1>   0.1400 
  7 C       -2.3910     3.1140     0.7670 C.2   1 <1>  -0.0400 
  8 C       -0.7870     2.9760    -0.6000 C.2   1 <1>   0.1080 
  9 C       -4.4710    -0.8580    -1.1820 C.3   1 <1>   0.2000 
 10 C       -3.9950    -1.9690    -0.2490 C.3   1 <1>  -0.0800 
 11 O       -2.1260     4.3250     0.3380 O.3   1 <1>  -0.0190 
 12 C       -3.4870     2.9520     1.8030 C.3   1 <1>  -0.0600 
 13 N       -1.1260     4.2060    -0.5060 N.2   1 <1>  -0.4100 
 14 C        0.3450     2.4760    -1.4740 C.3   1 <1>  -0.0590 
 15 O       -5.8550    -0.7890    -1.1720 O.3   1 <1>  -0.6800 
 16 C       -4.0160    -3.3540    -0.9200 C.3   1 <1>  -0.0170 
 17 C       -3.6080    -4.4570     0.0430 C.ar  1 <1>   0.1670 
 18 N       -2.3100    -4.6090     0.2530 N.ar  1 <1>  -0.6200 
 19 C       -4.5820    -5.2460     0.6530 C.ar  1 <1>   0.1600 
 20 C       -2.0540    -5.5880     1.1040 C.ar  1 <1>   0.1600 
 21 N       -4.3290    -6.2240     1.5060 N.ar  1 <1>  -0.6200 
 22 C       -3.0310    -6.3690     1.7100 C.ar  1 <1>   0.1600 
 23 H       -4.5120     0.9350     0.0170 H     1 <1>   0.0800 
 24 H       -3.5520     1.0780    -1.4560 H     1 <1>   0.0800 
 25 H       -1.8440    -1.8760    -0.4700 H     1 <1>   0.0800 
 26 H       -2.3810    -1.8280     1.1990 H     1 <1>   0.0800 
 27 H       -4.1450    -1.0300    -2.1940 H     1 <1>   0.0800 
 28 H       -4.6180    -1.9900     0.6290 H     1 <1>   0.0800 
 29 H       -3.5650     1.9270     2.1170 H     1 <1>   0.0800 
 30 H       -4.4270     3.2700     1.3920 H     1 <1>   0.0800 
 31 H       -3.2610     3.5580     2.6620 H     1 <1>   0.0800 
 32 H       -0.0240     1.7510    -2.1750 H     1 <1>   0.0800 
 33 H        1.1010     2.0190    -0.8610 H     1 <1>   0.0800 
 34 H        0.7840     3.2950    -2.0140 H     1 <1>   0.0800 
 35 H       -6.1880    -0.6550    -0.2640 H     1 <1>   0.4000 
 36 H       -3.3480    -3.3630    -1.7650 H     1 <1>   0.0800 
 37 H       -5.0060    -3.5500    -1.2920 H     1 <1>   0.0800 
 38 H       -5.6170    -5.0600     0.4270 H     1 <1>   0.1500 
 39 H       -1.0210    -5.7830     1.3330 H     1 <1>   0.1500 
 40 H       -2.7240    -7.1440     2.3910 H     1 <1>   0.1500 
@<TRIPOS>BOND
  1   1   2  2   
  2   2   3  am  
  3   2   4  1   
  4   3   5  1   
  5   3   6  1   
  6   4   7  2   
  7   4   8  1   
  8   5   9  1   
  9   5  23  1   
 10   5  24  1   
 11   6  10  1   
 12   6  25  1   
 13   6  26  1   
 14   7  11  1   
 15   7  12  1   
 16   8  13  2   
 17   8  14  1   
 18   9  10  1   
 19   9  15  1   
 20   9  27  1   
 21  10  16  1   
 22  10  28  1   
 23  11  13  1   
 24  12  29  1   
 25  12  30  1   
 26  12  31  1   
 27  14  32  1   
 28  14  33  1   
 29  14  34  1   
 30  15  35  1   
 31  16  17  1   
 32  16  36  1   
 33  16  37  1   
 34  17  18  ar  
 35  17  19  ar  
 36  18  20  ar  
 37  19  21  ar  
 38  19  38  1   
 39  20  22  ar  
 40  20  39  1   
 41  21  22  ar  
 42  22  40  1   
@<TRIPOS>SUBSTRUCTURE
  1 ****   6 GROUP 4 **** **** 0

# MOE 2024.06 (io_trps.svl 2023.06)
