@<TRIPOS>MOLECULE
NONAME
43 44 1 0 0 
SMALL
USER_CHARGES


@<TRIPOS>ATOM
  1 O        2.1850    -0.1630     0.8900 O.co2 1 <1>  -0.9000 
  2 C        1.5860    -0.9890     0.2060 C.2   1 <1>   0.9060 
  3 O        1.2100    -0.7970    -0.9620 O.co2 1 <1>  -0.9000 
  4 C        1.1820    -2.3350     0.8090 C.3   1 <1>   0.2370 
  5 N        0.0470    -2.9400     0.0100 N.4   1 <1>  -0.9590 
  6 C       -0.0200    -4.4360     0.0080 C.3   1 <1>   0.3430 
  7 C       -1.2600    -2.3000     0.3610 C.3   1 <1>   0.3430 
  8 C       -1.2600    -4.9630    -0.7480 C.3   1 <1>   0.3440 
  9 C       -2.4330    -2.9210    -0.4350 C.3   1 <1>   0.2000 
 10 O       -2.4190    -4.3210    -0.2820 O.3   1 <1>  -0.5600 
 11 C       -1.3880    -6.4650    -0.5360 C.ar  1 <1>  -0.1440 
 12 C       -3.8240    -2.3680    -0.0120 C.3   1 <1>   0.0000 
 13 C       -2.0260    -6.9820     0.5840 C.ar  1 <1>  -0.1500 
 14 C       -0.8430    -7.3400    -1.4660 C.ar  1 <1>  -0.1500 
 15 C       -4.1480    -2.6860     1.4600 C.3   1 <1>  -0.2400 
 16 C       -4.9190    -2.9920    -0.8960 C.3   1 <1>  -0.2400 
 17 C       -3.8790    -0.8410    -0.2060 C.3   1 <1>  -0.2400 
 18 C       -2.1120    -8.3500     0.7750 C.ar  1 <1>  -0.1500 
 19 C       -0.9280    -8.7080    -1.2750 C.ar  1 <1>  -0.1500 
 20 C       -1.5610    -9.2140    -0.1540 C.ar  1 <1>  -0.1500 
 21 H        0.9000    -2.1850     1.8350 H     1 <1>   0.0800 
 22 H        2.0480    -2.9710     0.7720 H     1 <1>   0.0800 
 23 H        0.2740    -2.5610    -0.9390 H     1 <1>   0.4500 
 24 H        0.8690    -4.8440    -0.4410 H     1 <1>   0.0800 
 25 H       -0.0720    -4.7950     1.0220 H     1 <1>   0.0800 
 26 H       -1.4520    -2.4210     1.4130 H     1 <1>   0.0800 
 27 H       -1.2060    -1.2430     0.1510 H     1 <1>   0.0800 
 28 H       -1.1670    -4.7560    -1.8000 H     1 <1>   0.0800 
 29 H       -2.2910    -2.7040    -1.4800 H     1 <1>   0.0800 
 30 H       -2.4670    -6.3230     1.3120 H     1 <1>   0.1500 
 31 H       -0.3500    -6.9690    -2.3480 H     1 <1>   0.1500 
 32 H       -5.1350    -2.3370     1.7090 H     1 <1>   0.0800 
 33 H       -3.4540    -2.2130     2.1300 H     1 <1>   0.0800 
 34 H       -4.1210    -3.7480     1.6310 H     1 <1>   0.0800 
 35 H       -5.8870    -2.5980    -0.6410 H     1 <1>   0.0800 
 36 H       -4.9510    -4.0600    -0.7650 H     1 <1>   0.0800 
 37 H       -4.7340    -2.7860    -1.9350 H     1 <1>   0.0800 
 38 H       -4.8670    -0.4720     0.0080 H     1 <1>   0.0800 
 39 H       -3.6390    -0.5770    -1.2210 H     1 <1>   0.0800 
 40 H       -3.1950    -0.3320     0.4500 H     1 <1>   0.0800 
 41 H       -2.6100    -8.7440     1.6440 H     1 <1>   0.1500 
 42 H       -0.5050    -9.3820    -2.0000 H     1 <1>   0.1500 
 43 H       -1.6280   -10.2780    -0.0060 H     1 <1>   0.1500 
@<TRIPOS>BOND
  1   1   2  ar  
  2   2   3  ar  
  3   2   4  1   
  4   4   5  1   
  5   4  21  1   
  6   4  22  1   
  7   5   6  1   
  8   5   7  1   
  9   5  23  1   
 10   6   8  1   
 11   6  24  1   
 12   6  25  1   
 13   7   9  1   
 14   7  26  1   
 15   7  27  1   
 16   8  10  1   
 17   8  11  1   
 18   8  28  1   
 19   9  10  1   
 20   9  12  1   
 21   9  29  1   
 22  11  13  ar  
 23  11  14  ar  
 24  12  15  1   
 25  12  16  1   
 26  12  17  1   
 27  13  18  ar  
 28  13  30  1   
 29  14  19  ar  
 30  14  31  1   
 31  15  32  1   
 32  15  33  1   
 33  15  34  1   
 34  16  35  1   
 35  16  36  1   
 36  16  37  1   
 37  17  38  1   
 38  17  39  1   
 39  17  40  1   
 40  18  20  ar  
 41  18  41  1   
 42  19  20  ar  
 43  19  42  1   
 44  20  43  1   
@<TRIPOS>SUBSTRUCTURE
  1 ****   8 GROUP 4 **** **** 0

# MOE 2024.06 (io_trps.svl 2023.06)
