@<TRIPOS>MOLECULE
NONAME
47 50 1 0 0 
SMALL
USER_CHARGES


@<TRIPOS>ATOM
  1 O        0.2160     1.6270    -1.9300 O.2   1 <1>  -0.5700 
  2 C        1.0330     1.0580    -1.2290 C.2   1 <1>   0.5440 
  3 N        1.0530     1.3430     0.1180 N.am  1 <1>  -0.6600 
  4 C        1.9470     0.1180    -1.8250 C.ar  1 <1>   0.0860 
  5 C        0.0160     2.1600     0.7840 C.3   1 <1>   0.1400 
  6 C        2.1710     1.0450     1.0420 C.3   1 <1>   0.1400 
  7 C        1.9630    -1.2340    -1.4330 C.ar  1 <1>   0.4100 
  8 C        2.8250     0.5170    -2.8220 C.ar  1 <1>  -0.1500 
  9 C        0.5800     2.4610     2.1700 C.3   1 <1>  -0.1600 
 10 C        1.6120     1.3640     2.4220 C.3   1 <1>  -0.1600 
 11 N        2.7820    -2.1450    -1.9530 N.ar  1 <1>  -0.6200 
 12 N        1.0950    -1.6920    -0.4730 N.pl3 1 <1>  -0.8690 
 13 C        3.6720    -0.4260    -3.3570 C.ar  1 <1>  -0.1500 
 14 C        3.6110    -1.7260    -2.8900 C.ar  1 <1>   0.1600 
 15 C        1.1370    -3.0000     0.2100 C.3   1 <1>   0.5640 
 16 C       -0.2490    -3.6520     0.1360 C.2   1 <1>   0.0070 
 17 C        1.6160    -2.7450     1.6490 C.3   1 <1>  -0.1950 
 18 N       -1.0060    -3.9450     1.1540 N.2   1 <1>  -0.5650 
 19 N       -0.8070    -3.9860    -1.0560 N.pl3 1 <1>   0.0480 
 20 C        3.0600    -2.5110     1.9770 C.3   1 <1>  -0.2000 
 21 C        2.3870    -3.7840     2.4040 C.3   1 <1>  -0.2000 
 22 C       -2.1030    -4.4910     0.6000 C.2   1 <1>   0.0770 
 23 C       -1.9990    -4.5240    -0.7450 C.2   1 <1>  -0.3020 
 24 C       -0.2720    -3.7930    -2.4180 C.3   1 <1>   0.0160 
 25 H       -0.8900     1.5830     0.8580 H     1 <1>   0.0800 
 26 H       -0.1770     3.0630     0.2280 H     1 <1>   0.0800 
 27 H        2.9970     1.6960     0.8130 H     1 <1>   0.0800 
 28 H        2.4890     0.0210     0.9730 H     1 <1>   0.0800 
 29 H        2.8300     1.5390    -3.1610 H     1 <1>   0.1500 
 30 H       -0.1920     2.4780     2.9190 H     1 <1>   0.0800 
 31 H        1.0650     3.4210     2.1460 H     1 <1>   0.0800 
 32 H        2.3840     1.6730     3.1040 H     1 <1>   0.0800 
 33 H        1.1270     0.4870     2.8130 H     1 <1>   0.0800 
 34 H        0.4970    -1.0140     0.0100 H     1 <1>   0.4000 
 35 H        4.3710    -0.1610    -4.1300 H     1 <1>   0.1500 
 36 H        4.2790    -2.4570    -3.3130 H     1 <1>   0.1500 
 37 H        1.8410    -3.6540    -0.2730 H     1 <1>   0.0800 
 38 H        0.8780    -2.2060     2.2170 H     1 <1>   0.1000 
 39 H        3.3090    -1.7820     2.7290 H     1 <1>   0.1000 
 40 H        3.7800    -2.5440     1.1770 H     1 <1>   0.1000 
 41 H        2.6490    -4.7030     1.9070 H     1 <1>   0.1000 
 42 H        2.1490    -3.9340     3.4430 H     1 <1>   0.1000 
 43 H       -2.9220    -4.8360     1.2080 H     1 <1>   0.1500 
 44 H       -2.6950    -4.8910    -1.4760 H     1 <1>   0.1500 
 45 H        0.7550    -4.1090    -2.4510 H     1 <1>   0.0800 
 46 H       -0.3320    -2.7510    -2.6760 H     1 <1>   0.0800 
 47 H       -0.8470    -4.3700    -3.1190 H     1 <1>   0.0800 
@<TRIPOS>BOND
  1   1   2  2   
  2   2   3  am  
  3   2   4  1   
  4   3   5  1   
  5   3   6  1   
  6   4   7  ar  
  7   4   8  ar  
  8   5   9  1   
  9   5  25  1   
 10   5  26  1   
 11   6  10  1   
 12   6  27  1   
 13   6  28  1   
 14   7  11  ar  
 15   7  12  1   
 16   8  13  ar  
 17   8  29  1   
 18   9  10  1   
 19   9  30  1   
 20   9  31  1   
 21  10  32  1   
 22  10  33  1   
 23  11  14  ar  
 24  12  15  1   
 25  12  34  1   
 26  13  14  ar  
 27  13  35  1   
 28  14  36  1   
 29  15  16  1   
 30  15  17  1   
 31  15  37  1   
 32  16  18  2   
 33  16  19  1   
 34  17  20  1   
 35  17  21  1   
 36  17  38  1   
 37  18  22  1   
 38  19  23  1   
 39  19  24  1   
 40  20  21  1   
 41  20  39  1   
 42  20  40  1   
 43  21  41  1   
 44  21  42  1   
 45  22  23  2   
 46  22  43  1   
 47  23  44  1   
 48  24  45  1   
 49  24  46  1   
 50  24  47  1   
@<TRIPOS>SUBSTRUCTURE
  1 ****  12 GROUP 4 **** **** 0

# MOE 2024.06 (io_trps.svl 2023.06)
