@<TRIPOS>MOLECULE
NONAME
54 56 1 0 0 
SMALL
USER_CHARGES


@<TRIPOS>ATOM
  1 O       -1.2990    -0.2380    -0.7060 O.3   1 <1>  -0.3630 
  2 C       -2.1840    -1.2020    -1.0710 C.ar  1 <1>   0.0820 
  3 C       -0.6440    -0.2200     0.5430 C.3   1 <1>   0.2000 
  4 C       -2.5870    -2.2510    -0.2510 C.ar  1 <1>  -0.1500 
  5 C       -2.7030    -1.1050    -2.3520 C.ar  1 <1>  -0.1500 
  6 C       -0.1740     1.2130     0.7790 C.3   1 <1>  -0.2400 
  7 C        0.5420    -1.1860     0.4950 C.3   1 <1>  -0.2400 
  8 C       -3.5000    -3.1880    -0.7070 C.ar  1 <1>   0.0820 
  9 C       -3.6130    -2.0380    -2.8160 C.ar  1 <1>  -0.1500 
 10 O       -3.8420    -4.1760     0.1590 O.3   1 <1>  -0.3630 
 11 C       -4.0140    -3.0800    -1.9980 C.ar  1 <1>  -0.1500 
 12 C       -4.7960    -5.1500    -0.1850 C.3   1 <1>   0.1200 
 13 C       -4.9420    -6.0910     1.0130 C.3   1 <1>   0.3430 
 14 N       -5.9180    -7.1930     0.7470 N.4   1 <1>  -0.9590 
 15 C       -7.3540    -6.7750     0.6100 C.3   1 <1>   0.3430 
 16 C       -5.8880    -8.2780     1.7600 C.3   1 <1>   0.3430 
 17 C       -8.1820    -7.8290     1.3650 C.3   1 <1>   0.2000 
 18 C       -7.2220    -9.0030     1.5670 C.3   1 <1>  -0.0800 
 19 O       -8.5550    -7.3320     2.6080 O.3   1 <1>  -0.6800 
 20 C       -7.2630    -9.9560     0.3380 C.3   1 <1>  -0.0170 
 21 C       -5.9030   -10.3440    -0.2310 C.ar  1 <1>   0.1670 
 22 N       -5.2940    -9.4300    -0.9800 N.ar  1 <1>  -0.6200 
 23 C       -5.3680   -11.6030     0.0390 C.ar  1 <1>   0.1600 
 24 C       -4.1380    -9.8760    -1.4580 C.ar  1 <1>   0.1600 
 25 N       -4.2020   -12.0270    -0.4130 N.ar  1 <1>  -0.6200 
 26 C       -3.6100   -11.1310    -1.1810 C.ar  1 <1>   0.1600 
 27 H       -1.3470    -0.4890     1.3120 H     1 <1>   0.0800 
 28 H       -2.2070    -2.3610     0.7450 H     1 <1>   0.1500 
 29 H       -2.3870    -0.2920    -2.9820 H     1 <1>   0.1500 
 30 H        0.5030     1.5180     0.0020 H     1 <1>   0.0800 
 31 H        0.3300     1.2840     1.7250 H     1 <1>   0.0800 
 32 H       -1.0200     1.8770     0.7940 H     1 <1>   0.0800 
 33 H        1.2220    -0.9000    -0.2870 H     1 <1>   0.0800 
 34 H        0.2060    -2.1910     0.3180 H     1 <1>   0.0800 
 35 H        1.0680    -1.1670     1.4320 H     1 <1>   0.0800 
 36 H       -4.0060    -1.9480    -3.8140 H     1 <1>   0.1500 
 37 H       -4.7200    -3.7860    -2.3900 H     1 <1>   0.1500 
 38 H       -5.7220    -4.6470    -0.4010 H     1 <1>   0.0800 
 39 H       -4.4340    -5.6830    -1.0470 H     1 <1>   0.0800 
 40 H       -5.2600    -5.5220     1.8700 H     1 <1>   0.0800 
 41 H       -3.9740    -6.5170     1.2250 H     1 <1>   0.0800 
 42 H       -5.6460    -7.6850    -0.1330 H     1 <1>   0.4500 
 43 H       -7.5300    -5.7990     1.0340 H     1 <1>   0.0800 
 44 H       -7.6310    -6.7670    -0.4310 H     1 <1>   0.0800 
 45 H       -5.0440    -8.9340     1.6170 H     1 <1>   0.0800 
 46 H       -5.8440    -7.8560     2.7510 H     1 <1>   0.0800 
 47 H       -9.0860    -8.0930     0.8400 H     1 <1>   0.0800 
 48 H       -7.4720    -9.5680     2.4490 H     1 <1>   0.0800 
 49 H       -7.8020    -7.1090     3.1880 H     1 <1>   0.4000 
 50 H       -7.8220    -9.5130    -0.4680 H     1 <1>   0.0800 
 51 H       -7.8010   -10.8470     0.6130 H     1 <1>   0.0800 
 52 H       -5.9220   -12.2910     0.6540 H     1 <1>   0.1500 
 53 H       -3.5770    -9.2220    -2.1030 H     1 <1>   0.1500 
 54 H       -2.6610   -11.4040    -1.6110 H     1 <1>   0.1500 
@<TRIPOS>BOND
  1   1   2  1   
  2   1   3  1   
  3   2   4  ar  
  4   2   5  ar  
  5   3   6  1   
  6   3   7  1   
  7   3  27  1   
  8   4   8  ar  
  9   4  28  1   
 10   5   9  ar  
 11   5  29  1   
 12   6  30  1   
 13   6  31  1   
 14   6  32  1   
 15   7  33  1   
 16   7  34  1   
 17   7  35  1   
 18   8  10  1   
 19   8  11  ar  
 20   9  11  ar  
 21   9  36  1   
 22  10  12  1   
 23  11  37  1   
 24  12  13  1   
 25  12  38  1   
 26  12  39  1   
 27  13  14  1   
 28  13  40  1   
 29  13  41  1   
 30  14  15  1   
 31  14  16  1   
 32  14  42  1   
 33  15  17  1   
 34  15  43  1   
 35  15  44  1   
 36  16  18  1   
 37  16  45  1   
 38  16  46  1   
 39  17  18  1   
 40  17  19  1   
 41  17  47  1   
 42  18  20  1   
 43  18  48  1   
 44  19  49  1   
 45  20  21  1   
 46  20  50  1   
 47  20  51  1   
 48  21  22  ar  
 49  21  23  ar  
 50  22  24  ar  
 51  23  25  ar  
 52  23  52  1   
 53  24  26  ar  
 54  24  53  1   
 55  25  26  ar  
 56  26  54  1   
@<TRIPOS>SUBSTRUCTURE
  1 ****  12 GROUP 4 **** **** 0

# MOE 2024.06 (io_trps.svl 2023.06)
