@<TRIPOS>MOLECULE
NONAME
42 44 1 0 0 
SMALL
USER_CHARGES


@<TRIPOS>ATOM
  1 O        1.1400     1.6200     1.3990 O.co2 1 <1>  -0.9000 
  2 C        2.0830     0.8460     1.2480 C.2   1 <1>   0.9060 
  3 O        2.5970     0.2510     2.2100 O.co2 1 <1>  -0.9000 
  4 C        2.5600     0.5270    -0.1810 C.3   1 <1>  -0.1060 
  5 C        3.7710    -0.4250    -0.1370 C.3   1 <1>   0.4230 
  6 C        2.9470     1.8590    -0.8960 C.3   1 <1>  -0.1600 
  7 C        1.4400    -0.2100    -0.9540 C.3   1 <1>  -0.1600 
  8 N        3.4300    -1.6720     0.6310 N.4   1 <1>  -0.9590 
  9 C        5.0270     0.3600     0.3060 C.3   1 <1>   0.2090 
 10 C        4.2860     1.8170    -1.6480 C.3   1 <1>   0.2090 
 11 C        1.1040    -1.5500    -0.2730 C.3   1 <1>  -0.1600 
 12 C        2.3340    -2.4330    -0.0300 C.3   1 <1>   0.3430 
 13 C        4.5770    -2.5350     1.0140 C.3   1 <1>   0.2630 
 14 N        5.3990     1.3710    -0.7400 N.pl3 1 <1>  -0.8380 
 15 C        6.3560     2.2940    -0.3600 C.ar  1 <1>   0.4100 
 16 N        5.9620     3.5470    -0.1880 N.ar  1 <1>  -0.6200 
 17 C        7.6670     1.8750    -0.1580 C.ar  1 <1>  -0.1500 
 18 C        6.8820     4.4240     0.2110 C.ar  1 <1>   0.3830 
 19 C        8.6240     2.7700     0.2530 C.ar  1 <1>  -0.1500 
 20 C        6.4890     5.7960     0.4070 C.1   1 <1>   0.4840 
 21 C        8.2070     4.0720     0.4400 C.ar  1 <1>  -0.1500 
 22 N        6.2460     6.9010     0.5690 N.1   1 <1>  -0.5570 
 23 H        3.9750    -0.7310    -1.1480 H     1 <1>   0.0800 
 24 H        3.0320     2.6460    -0.1640 H     1 <1>   0.0800 
 25 H        2.1660     2.1650    -1.5680 H     1 <1>   0.0800 
 26 H        0.5550     0.4060    -0.9740 H     1 <1>   0.0800 
 27 H        1.7460    -0.3830    -1.9720 H     1 <1>   0.0800 
 28 H        3.0300    -1.2480     1.5120 H     1 <1>   0.4500 
 29 H        5.8570    -0.3080     0.4320 H     1 <1>   0.0800 
 30 H        4.8420     0.8660     1.2390 H     1 <1>   0.0800 
 31 H        4.4980     2.7910    -2.0580 H     1 <1>   0.0800 
 32 H        4.2160     1.1340    -2.4770 H     1 <1>   0.0800 
 33 H        0.3970    -2.0890    -0.8780 H     1 <1>   0.0800 
 34 H        0.6240    -1.3600     0.6730 H     1 <1>   0.0800 
 35 H        2.6860    -2.8130    -0.9750 H     1 <1>   0.0800 
 36 H        2.0490    -3.2700     0.5870 H     1 <1>   0.0800 
 37 H        5.0830    -2.9000     0.1350 H     1 <1>   0.0800 
 38 H        4.2290    -3.3750     1.5920 H     1 <1>   0.0800 
 39 H        5.2740    -1.9780     1.6170 H     1 <1>   0.0800 
 40 H        7.9170     0.8470    -0.3320 H     1 <1>   0.1500 
 41 H        9.6460     2.4740     0.4180 H     1 <1>   0.1500 
 42 H        8.9120     4.8180     0.7620 H     1 <1>   0.1500 
@<TRIPOS>BOND
  1   1   2  ar  
  2   2   3  ar  
  3   2   4  1   
  4   4   5  1   
  5   4   6  1   
  6   4   7  1   
  7   5   8  1   
  8   5   9  1   
  9   5  23  1   
 10   6  10  1   
 11   6  24  1   
 12   6  25  1   
 13   7  11  1   
 14   7  26  1   
 15   7  27  1   
 16   8  12  1   
 17   8  13  1   
 18   8  28  1   
 19   9  14  1   
 20   9  29  1   
 21   9  30  1   
 22  10  14  1   
 23  10  31  1   
 24  10  32  1   
 25  11  12  1   
 26  11  33  1   
 27  11  34  1   
 28  12  35  1   
 29  12  36  1   
 30  13  37  1   
 31  13  38  1   
 32  13  39  1   
 33  14  15  1   
 34  15  16  ar  
 35  15  17  ar  
 36  16  18  ar  
 37  17  19  ar  
 38  17  40  1   
 39  18  20  1   
 40  18  21  ar  
 41  19  21  ar  
 42  19  41  1   
 43  20  22  3   
 44  21  42  1   
@<TRIPOS>SUBSTRUCTURE
  1 ****   9 GROUP 4 **** **** 0

# MOE 2024.06 (io_trps.svl 2023.06)
