@<TRIPOS>MOLECULE
NONAME
49 51 1 0 0 
SMALL
USER_CHARGES


@<TRIPOS>ATOM
  1 CL      -0.8820    -1.6510    -0.4980 Cl    1 <1>  -0.1770 
  2 C       -2.1120    -2.8190    -0.0780 C.ar  1 <1>   0.1770 
  3 C       -2.8550    -3.4370    -1.0690 C.ar  1 <1>   0.1600 
  4 C       -2.3400    -3.1250     1.2450 C.ar  1 <1>  -0.1500 
  5 N       -3.8070    -4.3330    -0.8420 N.ar  1 <1>  -0.6200 
  6 C       -3.3260    -4.0550     1.4920 C.ar  1 <1>  -0.1500 
  7 C       -4.0320    -4.6300     0.4320 C.ar  1 <1>   0.4270 
  8 N       -5.0280    -5.5650     0.6000 N.am  1 <1>  -0.5470 
  9 C       -5.7080    -6.0420     1.6780 C.2   1 <1>   0.5690 
 10 O       -5.5020    -5.6940     2.8150 O.2   1 <1>  -0.5700 
 11 C       -6.8010    -7.0760     1.3950 C.3   1 <1>   0.1710 
 12 N       -7.2760    -7.0790    -0.0230 N.3   1 <1>  -0.8100 
 13 C       -7.9560    -8.3570    -0.3170 C.3   1 <1>   0.1100 
 14 C       -8.1350    -5.9100    -0.2920 C.3   1 <1>   0.1100 
 15 C       -8.3660    -8.5240    -1.7890 C.3   1 <1>   0.1400 
 16 C       -8.1550    -5.6120    -1.7930 C.3   1 <1>  -0.1600 
 17 N       -9.5690    -7.6980    -2.1230 N.am  1 <1>  -0.6600 
 18 C       -9.2980    -6.2950    -2.5570 C.3   1 <1>   0.1400 
 19 C      -10.8650    -8.1650    -2.0720 C.2   1 <1>   0.5690 
 20 O      -11.8040    -7.4500    -2.3420 O.2   1 <1>  -0.5700 
 21 C      -11.2100    -9.6040    -1.6780 C.3   1 <1>   0.2010 
 22 N      -11.2200    -9.8140    -0.1950 N.am  1 <1>  -0.4690 
 23 C      -10.3000   -10.6610     0.4030 C.2   1 <1>   0.8410 
 24 C      -12.1380    -9.1390     0.5680 C.2   1 <1>  -0.0410 
 25 O       -9.4620   -11.2350    -0.2700 O.2   1 <1>  -0.5700 
 26 N      -10.2850   -10.8360     1.7610 N.2   1 <1>  -0.6610 
 27 C      -12.1190    -9.3270     1.9070 C.2   1 <1>  -0.1360 
 28 C      -11.1570   -10.2010     2.4570 C.2   1 <1>   0.3760 
 29 H       -2.6530    -3.1780    -2.0930 H     1 <1>   0.1500 
 30 H       -1.7750    -2.6590     2.0330 H     1 <1>   0.1500 
 31 H       -3.5470    -4.3370     2.5030 H     1 <1>   0.1500 
 32 H       -5.3960    -5.9240    -0.2840 H     1 <1>   0.3700 
 33 H       -7.6290    -6.9020     2.0590 H     1 <1>   0.0800 
 34 H       -6.3840    -8.0370     1.6360 H     1 <1>   0.0800 
 35 H       -8.8210    -8.4590     0.3130 H     1 <1>   0.0800 
 36 H       -7.2840    -9.1650    -0.0800 H     1 <1>   0.0800 
 37 H       -7.7290    -5.0450     0.2060 H     1 <1>   0.0800 
 38 H       -9.1320    -6.0690     0.0860 H     1 <1>   0.0800 
 39 H       -8.5690    -9.5610    -1.9750 H     1 <1>   0.0800 
 40 H       -7.5410    -8.2520    -2.4240 H     1 <1>   0.0800 
 41 H       -7.2070    -5.8670    -2.2320 H     1 <1>   0.0800 
 42 H       -8.2780    -4.5520    -1.9250 H     1 <1>   0.0800 
 43 H       -9.0750    -6.2930    -3.6100 H     1 <1>   0.0800 
 44 H      -10.1870    -5.7040    -2.4160 H     1 <1>   0.0800 
 45 H      -10.5380   -10.2840    -2.1660 H     1 <1>   0.0800 
 46 H      -12.1930    -9.8220    -2.0530 H     1 <1>   0.0800 
 47 H      -12.8390    -8.4810     0.0750 H     1 <1>   0.1500 
 48 H      -12.8070    -8.8340     2.5680 H     1 <1>   0.1500 
 49 H      -11.1630   -10.3310     3.5250 H     1 <1>   0.0600 
@<TRIPOS>BOND
  1   1   2  1   
  2   2   3  ar  
  3   2   4  ar  
  4   3   5  ar  
  5   3  29  1   
  6   4   6  ar  
  7   4  30  1   
  8   5   7  ar  
  9   6   7  ar  
 10   6  31  1   
 11   7   8  1   
 12   8   9  am  
 13   8  32  1   
 14   9  10  2   
 15   9  11  1   
 16  11  12  1   
 17  11  33  1   
 18  11  34  1   
 19  12  13  1   
 20  12  14  1   
 21  13  15  1   
 22  13  35  1   
 23  13  36  1   
 24  14  16  1   
 25  14  37  1   
 26  14  38  1   
 27  15  17  1   
 28  15  39  1   
 29  15  40  1   
 30  16  18  1   
 31  16  41  1   
 32  16  42  1   
 33  17  18  1   
 34  17  19  am  
 35  18  43  1   
 36  18  44  1   
 37  19  20  2   
 38  19  21  1   
 39  21  22  1   
 40  21  45  1   
 41  21  46  1   
 42  22  23  am  
 43  22  24  1   
 44  23  25  2   
 45  23  26  1   
 46  24  27  2   
 47  24  47  1   
 48  26  28  2   
 49  27  28  1   
 50  27  48  1   
 51  28  49  1   
@<TRIPOS>SUBSTRUCTURE
  1 ****  12 GROUP 4 **** **** 0

# MOE 2024.06 (io_trps.svl 2023.06)
