@<TRIPOS>MOLECULE
NONAME
44 46 1 0 0 
SMALL
USER_CHARGES


@<TRIPOS>ATOM
  1 O        1.1320     1.5850    -1.4290 O.3   1 <1>  -0.0190 
  2 N        1.9450     0.5740    -1.4790 N.2   1 <1>  -0.4100 
  3 C        0.7770     1.8630    -0.2030 C.2   1 <1>  -0.0400 
  4 C        2.1000     0.1770    -0.2670 C.2   1 <1>   0.1080 
  5 C        1.3710     0.9760     0.6100 C.2   1 <1>  -0.1500 
  6 C       -0.1360     3.0440     0.0670 C.3   1 <1>   0.0200 
  7 C        2.9600    -1.0000     0.1390 C.3   1 <1>  -0.0590 
  8 C        0.3460     4.2800    -0.7180 C.3   1 <1>  -0.0800 
  9 C       -0.3370     5.6080    -0.3970 C.3   1 <1>   0.2000 
 10 C        1.8440     4.5620    -0.5420 C.3   1 <1>   0.3430 
 11 O       -0.4210     5.7760     0.9840 O.3   1 <1>  -0.6800 
 12 C        0.6730     6.6180    -0.9460 C.3   1 <1>   0.3430 
 13 N        2.0260     6.0460    -0.6300 N.4   1 <1>  -0.9590 
 14 C        2.5540     6.5800     0.6600 C.3   1 <1>   0.4860 
 15 C        2.7390     8.0770     0.5450 C.ar  1 <1>  -0.1430 
 16 C        1.8400     8.9240     1.1720 C.ar  1 <1>   0.1600 
 17 C        3.7820     8.6280    -0.1760 C.ar  1 <1>  -0.1500 
 18 N        1.8800    10.2400     1.1140 N.ar  1 <1>  -0.6200 
 19 C        3.8440    10.0030    -0.2340 C.ar  1 <1>  -0.1500 
 20 C        2.8760    10.7660     0.4180 C.ar  1 <1>   0.3930 
 21 O        2.8770    12.1140     0.3920 O.3   1 <1>  -0.3630 
 22 C        3.9070    12.8740    -0.1990 C.3   1 <1>   0.0400 
 23 H        1.3270     0.8690     1.6780 H     1 <1>   0.1500 
 24 H       -1.1370     2.7890    -0.2350 H     1 <1>   0.0800 
 25 H       -0.1420     3.2300     1.1270 H     1 <1>   0.0800 
 26 H        3.6940    -0.6900     0.8590 H     1 <1>   0.0800 
 27 H        3.4650    -1.4010    -0.7220 H     1 <1>   0.0800 
 28 H        2.3450    -1.7700     0.5670 H     1 <1>   0.0800 
 29 H        0.1900     4.0790    -1.7650 H     1 <1>   0.0800 
 30 H       -1.3170     5.7210    -0.8320 H     1 <1>   0.0800 
 31 H        2.4120     4.0500    -1.3030 H     1 <1>   0.0800 
 32 H        2.1640     4.2060     0.4240 H     1 <1>   0.0800 
 33 H       -1.2770     5.4410     1.3290 H     1 <1>   0.4000 
 34 H        0.5200     7.5970    -0.5220 H     1 <1>   0.0800 
 35 H        0.5540     6.6820    -2.0150 H     1 <1>   0.0800 
 36 H        2.6880     6.2980    -1.3750 H     1 <1>   0.4500 
 37 H        1.8660     6.3590     1.4600 H     1 <1>   0.0800 
 38 H        3.5010     6.1200     0.8910 H     1 <1>   0.0800 
 39 H        1.0320     8.5050     1.7510 H     1 <1>   0.1500 
 40 H        4.5250     8.0270    -0.6740 H     1 <1>   0.1500 
 41 H        4.6370    10.4720    -0.7830 H     1 <1>   0.1500 
 42 H        3.6840    13.9140    -0.0400 H     1 <1>   0.0800 
 43 H        3.9370    12.6660    -1.2530 H     1 <1>   0.0800 
 44 H        4.8410    12.6260     0.2740 H     1 <1>   0.0800 
@<TRIPOS>BOND
  1   1   2  1   
  2   1   3  1   
  3   2   4  2   
  4   3   5  2   
  5   3   6  1   
  6   4   5  1   
  7   4   7  1   
  8   5  23  1   
  9   6   8  1   
 10   6  24  1   
 11   6  25  1   
 12   7  26  1   
 13   7  27  1   
 14   7  28  1   
 15   8   9  1   
 16   8  10  1   
 17   8  29  1   
 18   9  11  1   
 19   9  12  1   
 20   9  30  1   
 21  10  13  1   
 22  10  31  1   
 23  10  32  1   
 24  11  33  1   
 25  12  13  1   
 26  12  34  1   
 27  12  35  1   
 28  13  14  1   
 29  13  36  1   
 30  14  15  1   
 31  14  37  1   
 32  14  38  1   
 33  15  16  ar  
 34  15  17  ar  
 35  16  18  ar  
 36  16  39  1   
 37  17  19  ar  
 38  17  40  1   
 39  18  20  ar  
 40  19  20  ar  
 41  19  41  1   
 42  20  21  1   
 43  21  22  1   
 44  22  42  1   
 45  22  43  1   
 46  22  44  1   
@<TRIPOS>SUBSTRUCTURE
  1 ****  13 GROUP 4 **** **** 0

# MOE 2024.06 (io_trps.svl 2023.06)
