@<TRIPOS>MOLECULE
NONAME
46 48 1 0 0 
SMALL
USER_CHARGES


@<TRIPOS>ATOM
  1 S       -2.9310    -0.7750     1.3550 S.3   1 <1>  -0.2820 
  2 C       -2.2600    -1.9400     0.2480 C.2   1 <1>   0.6510 
  3 C       -2.4310     0.5300     0.2790 C.2   1 <1>   0.5300 
  4 N       -2.3010    -3.2190     0.4540 N.2   1 <1>  -0.6210 
  5 N       -1.7330    -1.2680    -0.8200 N.am  1 <1>  -0.0580 
  6 N       -1.8460     0.1310    -0.7740 N.2   1 <1>  -0.5120 
  7 C       -2.7620     1.9400     0.7420 C.3   1 <1>  -0.0990 
  8 C       -1.7290    -3.9990    -0.5160 C.2   1 <1>   0.0330 
  9 C       -1.1660    -2.0380    -1.8230 C.2   1 <1>   0.6160 
 10 C       -2.3090     3.0320    -0.2410 C.3   1 <1>  -0.2400 
 11 C       -1.1750    -3.4430    -1.6280 C.2   1 <1>  -0.1360 
 12 C       -1.7270    -5.5230    -0.3040 C.3   1 <1>   0.4810 
 13 O       -0.6890    -1.5510    -2.8360 O.2   1 <1>  -0.5700 
 14 N       -3.0380    -6.0710     0.1760 N.4   1 <1>  -0.9590 
 15 C       -4.2440    -5.5950    -0.5600 C.3   1 <1>   0.6040 
 16 C       -3.1990    -5.8670     1.6530 C.3   1 <1>   0.2630 
 17 C       -5.4410    -6.4080    -0.0670 C.2   1 <1>   0.0460 
 18 C       -4.0820    -5.8200    -2.0650 C.3   1 <1>  -0.2400 
 19 N       -5.2750    -7.7910     0.0300 N.2   1 <1>  -0.5650 
 20 C       -6.6400    -5.9220     0.2970 C.2   1 <1>  -0.1400 
 21 C       -6.3360    -8.3540     0.4500 C.2   1 <1>   0.1980 
 22 S       -7.6500    -7.2510     0.7870 S.3   1 <1>  -0.0800 
 23 C       -7.2590    -4.5380     0.3640 C.3   1 <1>  -0.0600 
 24 C       -6.5910    -9.8250     0.6870 C.3   1 <1>  -0.0600 
 25 H       -2.2890     2.1050     1.6930 H     1 <1>   0.0800 
 26 H       -3.8250     2.0120     0.8830 H     1 <1>   0.0800 
 27 H       -1.2430     2.9920    -0.3810 H     1 <1>   0.0800 
 28 H       -2.5690     4.0040     0.1380 H     1 <1>   0.0800 
 29 H       -2.7850     2.8970    -1.1970 H     1 <1>   0.0800 
 30 H       -0.7160    -4.0200    -2.4100 H     1 <1>   0.1500 
 31 H       -0.9600    -5.7690     0.4120 H     1 <1>   0.0800 
 32 H       -1.4630    -5.9980    -1.2350 H     1 <1>   0.0800 
 33 H       -3.0810    -7.0910     0.0230 H     1 <1>   0.4500 
 34 H       -4.4120    -4.5490    -0.3630 H     1 <1>   0.0800 
 35 H       -3.3120    -4.8210     1.8830 H     1 <1>   0.0800 
 36 H       -2.3390    -6.2460     2.1800 H     1 <1>   0.0800 
 37 H       -4.0720    -6.3910     2.0100 H     1 <1>   0.0800 
 38 H       -3.8410    -6.8470    -2.2740 H     1 <1>   0.0800 
 39 H       -3.3400    -5.1730    -2.4910 H     1 <1>   0.0800 
 40 H       -5.0150    -5.5980    -2.5520 H     1 <1>   0.0800 
 41 H       -6.5630    -3.7850     0.0430 H     1 <1>   0.0800 
 42 H       -7.5630    -4.3210     1.3730 H     1 <1>   0.0800 
 43 H       -8.1270    -4.4970    -0.2700 H     1 <1>   0.0800 
 44 H       -5.7140   -10.3940     0.4400 H     1 <1>   0.0800 
 45 H       -7.4060   -10.1560     0.0700 H     1 <1>   0.0800 
 46 H       -6.8390    -9.9910     1.7190 H     1 <1>   0.0800 
@<TRIPOS>BOND
  1   1   2  1   
  2   1   3  1   
  3   2   4  2   
  4   2   5  1   
  5   3   6  2   
  6   3   7  1   
  7   4   8  1   
  8   5   6  1   
  9   5   9  am  
 10   7  10  1   
 11   7  25  1   
 12   7  26  1   
 13   8  11  2   
 14   8  12  1   
 15   9  11  1   
 16   9  13  2   
 17  10  27  1   
 18  10  28  1   
 19  10  29  1   
 20  11  30  1   
 21  12  14  1   
 22  12  31  1   
 23  12  32  1   
 24  14  15  1   
 25  14  16  1   
 26  14  33  1   
 27  15  17  1   
 28  15  18  1   
 29  15  34  1   
 30  16  35  1   
 31  16  36  1   
 32  16  37  1   
 33  17  19  1   
 34  17  20  2   
 35  18  38  1   
 36  18  39  1   
 37  18  40  1   
 38  19  21  2   
 39  20  22  1   
 40  20  23  1   
 41  21  22  1   
 42  21  24  1   
 43  23  41  1   
 44  23  42  1   
 45  23  43  1   
 46  24  44  1   
 47  24  45  1   
 48  24  46  1   
@<TRIPOS>SUBSTRUCTURE
  1 ****   4 GROUP 4 **** **** 0

# MOE 2024.06 (io_trps.svl 2023.06)
