@<TRIPOS>MOLECULE
NONAME
45 48 1 0 0 
SMALL
USER_CHARGES


@<TRIPOS>ATOM
  1 O        3.7170    -1.4980    -2.1610 O.2   1 <1>  -0.5700 
  2 C        2.8780    -1.4350    -1.2810 C.2   1 <1>   0.5440 
  3 N        2.8460    -0.2590    -0.5740 N.am  1 <1>  -0.6600 
  4 C        2.1050    -2.6040    -0.9000 C.ar  1 <1>   0.0860 
  5 C        3.3550    -0.3040     0.8410 C.3   1 <1>   0.2200 
  6 C        2.8980     1.0410    -1.3190 C.3   1 <1>   0.1400 
  7 C        0.7910    -2.5490    -0.3570 C.ar  1 <1>   0.0000 
  8 C        2.6610    -3.8540    -1.0180 C.ar  1 <1>  -0.1500 
  9 C        2.8650     0.8720     1.7010 C.3   1 <1>   0.1200 
 10 C        4.9050    -0.3920     0.8530 C.3   1 <1>   0.3430 
 11 C        3.9700     2.0320    -0.8270 C.3   1 <1>  -0.0800 
 12 C        0.2280    -3.7500     0.1350 C.ar  1 <1>   0.3100 
 13 C       -0.0040    -1.3800    -0.2880 C.ar  1 <1>  -0.1500 
 14 C        2.0000    -4.9850    -0.5430 C.ar  1 <1>   0.1600 
 15 O        3.7280     1.9630     1.5770 O.3   1 <1>  -0.5600 
 16 N        5.5230     0.0200    -0.4600 N.4   1 <1>  -0.9590 
 17 C        3.5410     2.7590     0.4570 C.3   1 <1>   0.1200 
 18 C        5.4120     1.4860    -0.7410 C.3   1 <1>   0.3430 
 19 N        0.8440    -4.9510     0.0370 N.ar  1 <1>  -0.6200 
 20 C       -1.0370    -3.7160     0.7410 C.ar  1 <1>  -0.1500 
 21 C       -1.2410    -1.3800     0.2970 C.ar  1 <1>  -0.1500 
 22 C        6.9260    -0.4610    -0.5900 C.3   1 <1>   0.2630 
 23 C       -1.7630    -2.5600     0.8300 C.ar  1 <1>  -0.1500 
 24 H        2.9690    -1.1950     1.3060 H     1 <1>   0.0800 
 25 H        3.0680     0.8440    -2.3650 H     1 <1>   0.0800 
 26 H        1.9300     1.5080    -1.2510 H     1 <1>   0.0800 
 27 H        3.6280    -3.9860    -1.4700 H     1 <1>   0.1500 
 28 H        2.8890     0.5840     2.7380 H     1 <1>   0.0800 
 29 H        1.8570     1.1600     1.4550 H     1 <1>   0.0800 
 30 H        5.1730    -1.4150     1.0590 H     1 <1>   0.0800 
 31 H        5.2970     0.2110     1.6550 H     1 <1>   0.0800 
 32 H        4.0000     2.8090    -1.5700 H     1 <1>   0.0800 
 33 H        0.3550    -0.4630    -0.7120 H     1 <1>   0.1500 
 34 H        2.4820    -5.9430    -0.6530 H     1 <1>   0.1500 
 35 H        4.9400    -0.4550    -1.1870 H     1 <1>   0.4500 
 36 H        2.5100     3.0720     0.4150 H     1 <1>   0.0800 
 37 H        4.1470     3.6390     0.5980 H     1 <1>   0.0800 
 38 H        5.9490     2.0390     0.0120 H     1 <1>   0.0800 
 39 H        5.8910     1.6800    -1.6870 H     1 <1>   0.0800 
 40 H       -1.4250    -4.6400     1.1300 H     1 <1>   0.1500 
 41 H       -1.8320    -0.4810     0.3490 H     1 <1>   0.1500 
 42 H        7.5520     0.0040     0.1540 H     1 <1>   0.0800 
 43 H        7.3120    -0.2210    -1.5680 H     1 <1>   0.0800 
 44 H        6.9670    -1.5300    -0.4610 H     1 <1>   0.0800 
 45 H       -2.7340    -2.5490     1.2950 H     1 <1>   0.1500 
@<TRIPOS>BOND
  1   1   2  2   
  2   2   3  am  
  3   2   4  1   
  4   3   5  1   
  5   3   6  1   
  6   4   7  ar  
  7   4   8  ar  
  8   5   9  1   
  9   5  10  1   
 10   5  24  1   
 11   6  11  1   
 12   6  25  1   
 13   6  26  1   
 14   7  12  ar  
 15   7  13  ar  
 16   8  14  ar  
 17   8  27  1   
 18   9  15  1   
 19   9  28  1   
 20   9  29  1   
 21  10  16  1   
 22  10  30  1   
 23  10  31  1   
 24  11  17  1   
 25  11  18  1   
 26  11  32  1   
 27  12  19  ar  
 28  12  20  ar  
 29  13  21  ar  
 30  13  33  1   
 31  14  19  ar  
 32  14  34  1   
 33  15  17  1   
 34  16  18  1   
 35  16  22  1   
 36  16  35  1   
 37  17  36  1   
 38  17  37  1   
 39  18  38  1   
 40  18  39  1   
 41  20  23  ar  
 42  20  40  1   
 43  21  23  ar  
 44  21  41  1   
 45  22  42  1   
 46  22  43  1   
 47  22  44  1   
 48  23  45  1   
@<TRIPOS>SUBSTRUCTURE
  1 ****   3 GROUP 4 **** **** 0

# MOE 2024.06 (io_trps.svl 2023.06)
