@<TRIPOS>MOLECULE
NONAME
51 53 1 0 0 
SMALL
USER_CHARGES


@<TRIPOS>ATOM
  1 S       -0.9750    -0.2790     1.8750 S.3   1 <1>  -0.0800 
  2 C       -1.2460     0.9760     0.6840 C.2   1 <1>   0.1980 
  3 C       -2.1750    -1.2530     1.0800 C.2   1 <1>  -0.1100 
  4 N       -2.1250     0.6860    -0.1890 N.2   1 <1>  -0.5650 
  5 C       -0.4350     2.2520     0.8080 C.3   1 <1>   0.0200 
  6 C       -2.6600    -0.5780     0.0240 C.2   1 <1>   0.0460 
  7 C        1.0320     2.0390     0.4160 C.3   1 <1>  -0.2400 
  8 C       -3.7260    -1.0440    -0.9580 C.3   1 <1>   0.3210 
  9 N       -3.9500    -2.5110    -0.8640 N.am  1 <1>  -0.7300 
 10 C       -5.1600    -3.1020    -0.7460 C.2   1 <1>   0.5690 
 11 O       -6.1850    -2.4660    -0.7160 O.2   1 <1>  -0.5700 
 12 C       -5.2250    -4.6130    -0.6650 C.3   1 <1>  -0.0990 
 13 C       -6.5060    -5.1160     0.0140 C.3   1 <1>   0.2000 
 14 O       -6.3580    -6.4980     0.1830 O.3   1 <1>  -0.5600 
 15 C       -7.7940    -4.8300    -0.8040 C.3   1 <1>   0.3430 
 16 C       -7.4110    -7.1320     0.8530 C.3   1 <1>   0.1200 
 17 N       -9.0010    -5.5030    -0.2130 N.4   1 <1>  -0.9590 
 18 C       -8.7280    -6.9530     0.0740 C.3   1 <1>   0.3430 
 19 C      -10.2070    -5.3170    -1.0630 C.3   1 <1>   0.4860 
 20 C      -11.4070    -5.8720    -0.3220 C.ar  1 <1>  -0.1440 
 21 C      -11.9580    -7.0900    -0.6980 C.ar  1 <1>  -0.1500 
 22 C      -11.9590    -5.1730     0.7420 C.ar  1 <1>  -0.1500 
 23 C      -13.0400    -7.6070    -0.0070 C.ar  1 <1>  -0.1500 
 24 C      -13.0400    -5.6920     1.4310 C.ar  1 <1>  -0.1500 
 25 C      -13.5790    -6.9100     1.0580 C.ar  1 <1>  -0.1500 
 26 H       -2.3880    -2.2210     1.4920 H     1 <1>   0.1500 
 27 H       -0.4970     2.6110     1.8200 H     1 <1>   0.0800 
 28 H       -0.8700     2.9960     0.1650 H     1 <1>   0.0800 
 29 H        1.4960     1.3220     1.0690 H     1 <1>   0.0800 
 30 H        1.5710     2.9670     0.4820 H     1 <1>   0.0800 
 31 H        1.0920     1.6750    -0.5950 H     1 <1>   0.0800 
 32 H       -3.4040    -0.8060    -1.9570 H     1 <1>   0.0800 
 33 H       -4.6390    -0.5070    -0.7660 H     1 <1>   0.0800 
 34 H       -3.0940    -3.0650    -0.9170 H     1 <1>   0.3700 
 35 H       -4.3790    -4.9570    -0.0990 H     1 <1>   0.0800 
 36 H       -5.1570    -5.0120    -1.6600 H     1 <1>   0.0800 
 37 H       -6.5830    -4.6650     0.9890 H     1 <1>   0.0800 
 38 H       -7.6370    -5.1800    -1.8100 H     1 <1>   0.0800 
 39 H       -7.9630    -3.7670    -0.8510 H     1 <1>   0.0800 
 40 H       -7.4880    -6.7270     1.8470 H     1 <1>   0.0800 
 41 H       -7.1670    -8.1780     0.9300 H     1 <1>   0.0800 
 42 H       -9.2110    -5.0530     0.6870 H     1 <1>   0.4500 
 43 H       -9.5400    -7.3760     0.6450 H     1 <1>   0.0800 
 44 H       -8.6530    -7.5010    -0.8500 H     1 <1>   0.0800 
 45 H      -10.0850    -5.8290    -2.0040 H     1 <1>   0.0800 
 46 H      -10.3650    -4.2690    -1.2630 H     1 <1>   0.0800 
 47 H      -11.5600    -7.6480    -1.5290 H     1 <1>   0.1500 
 48 H      -11.5640    -4.2180     1.0470 H     1 <1>   0.1500 
 49 H      -13.4690    -8.5520    -0.2990 H     1 <1>   0.1500 
 50 H      -13.4690    -5.1500     2.2570 H     1 <1>   0.1500 
 51 H      -14.4230    -7.3130     1.5940 H     1 <1>   0.1500 
@<TRIPOS>BOND
  1   1   2  1   
  2   1   3  1   
  3   2   4  2   
  4   2   5  1   
  5   3   6  2   
  6   3  26  1   
  7   4   6  1   
  8   5   7  1   
  9   5  27  1   
 10   5  28  1   
 11   6   8  1   
 12   7  29  1   
 13   7  30  1   
 14   7  31  1   
 15   8   9  1   
 16   8  32  1   
 17   8  33  1   
 18   9  10  am  
 19   9  34  1   
 20  10  11  2   
 21  10  12  1   
 22  12  13  1   
 23  12  35  1   
 24  12  36  1   
 25  13  14  1   
 26  13  15  1   
 27  13  37  1   
 28  14  16  1   
 29  15  17  1   
 30  15  38  1   
 31  15  39  1   
 32  16  18  1   
 33  16  40  1   
 34  16  41  1   
 35  17  18  1   
 36  17  19  1   
 37  17  42  1   
 38  18  43  1   
 39  18  44  1   
 40  19  20  1   
 41  19  45  1   
 42  19  46  1   
 43  20  21  ar  
 44  20  22  ar  
 45  21  23  ar  
 46  21  47  1   
 47  22  24  ar  
 48  22  48  1   
 49  23  25  ar  
 50  23  49  1   
 51  24  25  ar  
 52  24  50  1   
 53  25  51  1   
@<TRIPOS>SUBSTRUCTURE
  1 ****  11 GROUP 4 **** **** 0

# MOE 2024.06 (io_trps.svl 2023.06)
