@<TRIPOS>MOLECULE
NONAME
57 60 1 0 0 
SMALL
USER_CHARGES


@<TRIPOS>ATOM
  1 N        0.2660    -0.3600    -0.2130 N.ar  1 <1>  -0.1790 
  2 C        1.2350     0.5440     0.1920 C.ar  1 <1>   0.3610 
  3 C        0.4420    -1.6760    -0.3820 C.ar  1 <1>   0.4610 
  4 C        2.5280     0.0550     0.4460 C.ar  1 <1>   0.0000 
  5 C        0.9300     1.9110     0.3440 C.ar  1 <1>  -0.1440 
  6 N       -0.6350    -2.4010    -0.7710 N.pl3 1 <1>  -0.8690 
  7 C        1.7540    -2.1570    -0.1310 C.ar  1 <1>  -0.1500 
  8 C        2.7680    -1.3410     0.2690 C.ar  1 <1>  -0.1430 
  9 C        3.5030     0.9730     0.8580 C.ar  1 <1>  -0.1500 
 10 C        1.9210     2.7870     0.7520 C.ar  1 <1>  -0.1430 
 11 C       -0.4960     2.4000     0.0550 C.3   1 <1>  -0.0970 
 12 C       -0.9510    -3.8320    -1.0720 C.3   1 <1>   0.2890 
 13 C        4.1590    -1.9130     0.5230 C.3   1 <1>  -0.0970 
 14 C        3.2030     2.3020     1.0050 C.ar  1 <1>  -0.1500 
 15 C        1.6950     4.2830     0.9460 C.3   1 <1>  -0.0970 
 16 C       -2.2200    -4.1790    -0.2880 C.3   1 <1>  -0.1600 
 17 C        0.1510    -4.8480    -0.7600 C.3   1 <1>  -0.1600 
 18 C       -2.6580    -5.6260    -0.5140 C.3   1 <1>   0.3430 
 19 C       -0.3220    -6.2840    -0.9880 C.3   1 <1>   0.3430 
 20 N       -1.5380    -6.5510    -0.1730 N.4   1 <1>  -0.9590 
 21 C       -1.9550    -7.9830    -0.2790 C.3   1 <1>   0.4860 
 22 C       -3.0630    -8.2490     0.7160 C.ar  1 <1>  -0.1430 
 23 C       -2.7680    -8.3840     2.0650 C.ar  1 <1>   0.1600 
 24 C       -4.3800    -8.3570     0.3080 C.ar  1 <1>  -0.1500 
 25 N       -3.6610    -8.5790     3.0140 N.ar  1 <1>  -0.6200 
 26 C       -5.3220    -8.5750     1.2910 C.ar  1 <1>  -0.1500 
 27 C       -4.9170    -8.6750     2.6100 C.ar  1 <1>   0.1600 
 28 H       -0.6470     0.0400    -0.3870 H     1 <1>   0.4570 
 29 H       -1.4970    -1.8750    -0.9480 H     1 <1>   0.4000 
 30 H        1.9680    -3.1910    -0.2620 H     1 <1>   0.1500 
 31 H        4.5060     0.6450     1.0640 H     1 <1>   0.1500 
 32 H       -1.2010     1.9080     0.7030 H     1 <1>   0.0800 
 33 H       -0.7570     2.2120    -0.9710 H     1 <1>   0.0800 
 34 H       -0.6120     3.4550     0.2170 H     1 <1>   0.0800 
 35 H       -1.1750    -3.9010    -2.1260 H     1 <1>   0.0800 
 36 H        4.8780    -1.4460    -0.1290 H     1 <1>   0.0800 
 37 H        4.1890    -2.9730     0.3440 H     1 <1>   0.0800 
 38 H        4.4530    -1.7390     1.5430 H     1 <1>   0.0800 
 39 H        3.9770     2.9820     1.3230 H     1 <1>   0.1500 
 40 H        1.3750     4.7350     0.0230 H     1 <1>   0.0800 
 41 H        2.5970     4.7790     1.2580 H     1 <1>   0.0800 
 42 H        0.9490     4.4530     1.7010 H     1 <1>   0.0800 
 43 H       -3.0240    -3.5360    -0.5990 H     1 <1>   0.0800 
 44 H       -2.0580    -4.0250     0.7650 H     1 <1>   0.0800 
 45 H        0.4750    -4.7520     0.2610 H     1 <1>   0.0800 
 46 H        0.9810    -4.6830    -1.4220 H     1 <1>   0.0800 
 47 H       -2.9470    -5.7630    -1.5440 H     1 <1>   0.0800 
 48 H       -3.5150    -5.8370     0.1070 H     1 <1>   0.0800 
 49 H        0.4670    -6.9680    -0.7120 H     1 <1>   0.0800 
 50 H       -0.5420    -6.4310    -2.0340 H     1 <1>   0.0800 
 51 H       -1.3100    -6.3930     0.8180 H     1 <1>   0.4500 
 52 H       -1.1210    -8.6310    -0.0610 H     1 <1>   0.0800 
 53 H       -2.3000    -8.2000    -1.2780 H     1 <1>   0.0800 
 54 H       -1.7440    -8.3260     2.3950 H     1 <1>   0.1500 
 55 H       -4.6810    -8.2830    -0.7240 H     1 <1>   0.1500 
 56 H       -6.3650    -8.6720     1.0430 H     1 <1>   0.1500 
 57 H       -5.6620    -8.8430     3.3710 H     1 <1>   0.1500 
@<TRIPOS>BOND
  1   1   2  ar  
  2   1   3  ar  
  3   1  28  1   
  4   2   4  ar  
  5   2   5  ar  
  6   3   6  1   
  7   3   7  ar  
  8   4   8  ar  
  9   4   9  ar  
 10   5  10  ar  
 11   5  11  1   
 12   6  12  1   
 13   6  29  1   
 14   7   8  ar  
 15   7  30  1   
 16   8  13  1   
 17   9  14  ar  
 18   9  31  1   
 19  10  14  ar  
 20  10  15  1   
 21  11  32  1   
 22  11  33  1   
 23  11  34  1   
 24  12  16  1   
 25  12  17  1   
 26  12  35  1   
 27  13  36  1   
 28  13  37  1   
 29  13  38  1   
 30  14  39  1   
 31  15  40  1   
 32  15  41  1   
 33  15  42  1   
 34  16  18  1   
 35  16  43  1   
 36  16  44  1   
 37  17  19  1   
 38  17  45  1   
 39  17  46  1   
 40  18  20  1   
 41  18  47  1   
 42  18  48  1   
 43  19  20  1   
 44  19  49  1   
 45  19  50  1   
 46  20  21  1   
 47  20  51  1   
 48  21  22  1   
 49  21  52  1   
 50  21  53  1   
 51  22  23  ar  
 52  22  24  ar  
 53  23  25  ar  
 54  23  54  1   
 55  24  26  ar  
 56  24  55  1   
 57  25  27  ar  
 58  26  27  ar  
 59  26  56  1   
 60  27  57  1   
@<TRIPOS>SUBSTRUCTURE
  1 ****   6 GROUP 4 **** **** 0

# MOE 2024.06 (io_trps.svl 2023.06)
