@<TRIPOS>MOLECULE
NONAME
55 57 1 0 0 
SMALL
USER_CHARGES


@<TRIPOS>ATOM
  1 O       -1.1330     0.1870     0.4590 O.2   1 <1>  -0.5700 
  2 C       -1.9320     1.0440     0.1530 C.2   1 <1>   0.5690 
  3 N       -3.1200     0.6960    -0.4320 N.am  1 <1>  -0.6600 
  4 C       -1.6190     2.4990     0.4720 C.3   1 <1>  -0.0990 
  5 C       -3.2840    -0.6600    -0.9820 C.3   1 <1>   0.1400 
  6 C       -4.4270     1.2670    -0.0190 C.3   1 <1>   0.1400 
  7 C       -0.1940     2.9030     0.0560 C.3   1 <1>  -0.1600 
  8 C       -3.9370    -1.4570     0.1600 C.3   1 <1>   0.4230 
  9 C       -5.1830     0.2610     0.8930 C.3   1 <1>  -0.1600 
 10 C        0.0930     4.3770     0.3680 C.3   1 <1>  -0.0170 
 11 N       -3.4140    -2.8650     0.3210 N.4   1 <1>  -0.9590 
 12 C       -5.5130    -1.1700     0.1920 C.3   1 <1>   0.0000 
 13 C        1.4990     4.7500    -0.0710 C.ar  1 <1>  -0.1440 
 14 C       -3.5890    -3.6730    -0.8990 C.3   1 <1>   0.3430 
 15 C       -1.9830    -2.8490     0.7740 C.3   1 <1>   0.2630 
 16 C       -5.8810    -2.5500    -0.5700 C.3   1 <1>  -0.1600 
 17 C       -7.0800    -0.8610     0.3120 C.3   1 <1>   0.1200 
 18 C        1.7230     5.2760    -1.3350 C.ar  1 <1>  -0.1500 
 19 C        2.5720     4.5660     0.7870 C.ar  1 <1>  -0.1500 
 20 C       -4.9120    -3.2820    -1.5330 C.3   1 <1>  -0.1600 
 21 O       -7.4530     0.0110    -0.7090 O.3   1 <1>  -0.6800 
 22 C        3.0040     5.6150    -1.7340 C.ar  1 <1>  -0.1500 
 23 C        3.8540     4.9060     0.3890 C.ar  1 <1>  -0.1500 
 24 C        4.0710     5.4310    -0.8720 C.ar  1 <1>  -0.1500 
 25 H       -2.3160     3.1340    -0.0420 H     1 <1>   0.0800 
 26 H       -1.7400     2.6450     1.5300 H     1 <1>   0.0800 
 27 H       -3.9210    -0.6180    -1.8480 H     1 <1>   0.0800 
 28 H       -2.3280    -1.0620    -1.2650 H     1 <1>   0.0800 
 29 H       -4.2850     2.1930     0.5110 H     1 <1>   0.0800 
 30 H       -5.0170     1.4760    -0.8970 H     1 <1>   0.0800 
 31 H        0.5230     2.2880     0.5730 H     1 <1>   0.0800 
 32 H       -0.0670     2.7340    -1.0000 H     1 <1>   0.0800 
 33 H       -3.5080    -1.0020     1.0340 H     1 <1>   0.0800 
 34 H       -4.6520     0.1430     1.8240 H     1 <1>   0.0800 
 35 H       -6.0020     0.8830     1.2160 H     1 <1>   0.0800 
 36 H       -0.0100     4.5540     1.4240 H     1 <1>   0.0800 
 37 H       -0.6190     5.0050    -0.1400 H     1 <1>   0.0800 
 38 H       -3.9850    -3.2940     1.0610 H     1 <1>   0.4500 
 39 H       -2.7860    -3.4900    -1.5950 H     1 <1>   0.0800 
 40 H       -3.5930    -4.7210    -0.6440 H     1 <1>   0.0800 
 41 H       -1.3530    -2.3960     0.0250 H     1 <1>   0.0800 
 42 H       -1.6340    -3.8520     0.9600 H     1 <1>   0.0800 
 43 H       -1.8840    -2.2750     1.6810 H     1 <1>   0.0800 
 44 H       -6.1950    -3.2700     0.1700 H     1 <1>   0.0800 
 45 H       -6.7120    -2.4250    -1.2540 H     1 <1>   0.0800 
 46 H       -7.3800    -0.4380     1.2580 H     1 <1>   0.0800 
 47 H       -7.7530    -1.7040     0.2620 H     1 <1>   0.0800 
 48 H        0.9020     5.4220    -2.0140 H     1 <1>   0.1500 
 49 H        2.4140     4.1570     1.7690 H     1 <1>   0.1500 
 50 H       -4.7210    -2.6640    -2.3930 H     1 <1>   0.0800 
 51 H       -5.3830    -4.1740    -1.9080 H     1 <1>   0.0800 
 52 H       -8.4130     0.2030    -0.6790 H     1 <1>   0.4000 
 53 H        3.1700     6.0220    -2.7160 H     1 <1>   0.1500 
 54 H        4.6810     4.7600     1.0610 H     1 <1>   0.1500 
 55 H        5.0670     5.6950    -1.1820 H     1 <1>   0.1500 
@<TRIPOS>BOND
  1   1   2  2   
  2   2   3  am  
  3   2   4  1   
  4   3   5  1   
  5   3   6  1   
  6   4   7  1   
  7   4  25  1   
  8   4  26  1   
  9   5   8  1   
 10   5  27  1   
 11   5  28  1   
 12   6   9  1   
 13   6  29  1   
 14   6  30  1   
 15   7  10  1   
 16   7  31  1   
 17   7  32  1   
 18   8  11  1   
 19   8  12  1   
 20   8  33  1   
 21   9  12  1   
 22   9  34  1   
 23   9  35  1   
 24  10  13  1   
 25  10  36  1   
 26  10  37  1   
 27  11  14  1   
 28  11  15  1   
 29  11  38  1   
 30  12  16  1   
 31  12  17  1   
 32  13  18  ar  
 33  13  19  ar  
 34  14  20  1   
 35  14  39  1   
 36  14  40  1   
 37  15  41  1   
 38  15  42  1   
 39  15  43  1   
 40  16  20  1   
 41  16  44  1   
 42  16  45  1   
 43  17  21  1   
 44  17  46  1   
 45  17  47  1   
 46  18  22  ar  
 47  18  48  1   
 48  19  23  ar  
 49  19  49  1   
 50  20  50  1   
 51  20  51  1   
 52  21  52  1   
 53  22  24  ar  
 54  22  53  1   
 55  23  24  ar  
 56  23  54  1   
 57  24  55  1   
@<TRIPOS>SUBSTRUCTURE
  1 ****   2 GROUP 4 **** **** 0

# MOE 2024.06 (io_trps.svl 2023.06)
