@<TRIPOS>MOLECULE
NONAME
51 53 1 0 0 
SMALL
USER_CHARGES


@<TRIPOS>ATOM
  1 O       -2.5030    -0.0700    -2.4180 O.2   1 <1>  -0.5700 
  2 C       -2.3520     0.3210    -1.2810 C.2   1 <1>   0.5690 
  3 N       -2.1410    -0.5620    -0.2690 N.am  1 <1>  -0.7300 
  4 C       -2.4240     1.8420    -0.9520 C.3   1 <1>   0.3410 
  5 C       -2.0970    -2.0360    -0.3780 C.3   1 <1>   0.2200 
  6 O       -2.3140     1.9950     0.4540 O.3   1 <1>  -0.5600 
  7 C       -1.2620     2.5770    -1.6410 C.3   1 <1>  -0.2400 
  8 C       -3.7810     2.4100    -1.4050 C.3   1 <1>  -0.2400 
  9 C       -3.4030    -2.6660     0.0860 C.3   1 <1>  -0.0800 
 10 C       -1.1320    -2.5840     0.6650 C.3   1 <1>   0.1200 
 11 C       -2.2800     3.2650     1.0290 C.3   1 <1>   0.1200 
 12 C       -3.2290    -2.6870     1.6090 C.3   1 <1>   0.1200 
 13 C       -4.6820    -1.9530    -0.4020 C.3   1 <1>  -0.0170 
 14 O       -1.8540    -2.6460     1.8600 O.3   1 <1>  -0.5600 
 15 C       -2.2370     3.0690     2.5380 C.3   1 <1>  -0.2400 
 16 C       -6.0200    -2.6210    -0.0650 C.ar  1 <1>  -0.1440 
 17 C       -7.2300    -1.9330    -0.3330 C.ar  1 <1>   0.0000 
 18 C       -6.1280    -3.8690     0.4840 C.ar  1 <1>  -0.1500 
 19 C       -8.4480    -2.5680     0.0130 C.ar  1 <1>   0.3100 
 20 C       -7.3020    -0.6530    -0.9330 C.ar  1 <1>  -0.1500 
 21 C       -7.3850    -4.4090     0.7800 C.ar  1 <1>   0.1600 
 22 N       -8.5080    -3.8030     0.5690 N.ar  1 <1>  -0.6200 
 23 C       -9.6590    -1.8990    -0.2290 C.ar  1 <1>  -0.1500 
 24 C       -8.4990    -0.0290    -1.1590 C.ar  1 <1>  -0.1500 
 25 C       -9.6950    -0.6570    -0.8010 C.ar  1 <1>  -0.1500 
 26 H       -2.0590    -0.1730     0.6780 H     1 <1>   0.3700 
 27 H       -1.8260    -2.3290    -1.3790 H     1 <1>   0.0800 
 28 H       -1.2710     2.3540    -2.6930 H     1 <1>   0.0800 
 29 H       -0.3240     2.2400    -1.2370 H     1 <1>   0.0800 
 30 H       -1.3450     3.6420    -1.5340 H     1 <1>   0.0800 
 31 H       -3.9390     2.1790    -2.4440 H     1 <1>   0.0800 
 32 H       -3.8190     3.4770    -1.3020 H     1 <1>   0.0800 
 33 H       -4.5750     1.9590    -0.8370 H     1 <1>   0.0800 
 34 H       -3.4110    -3.6800    -0.2710 H     1 <1>   0.0800 
 35 H       -0.2640    -1.9620     0.7970 H     1 <1>   0.0800 
 36 H       -0.8310    -3.5860     0.4130 H     1 <1>   0.0800 
 37 H       -1.3980     3.7850     0.6990 H     1 <1>   0.0800 
 38 H       -3.1630     3.8140     0.7540 H     1 <1>   0.0800 
 39 H       -3.6380    -3.5740     2.0590 H     1 <1>   0.0800 
 40 H       -3.6670    -1.8150     2.0640 H     1 <1>   0.0800 
 41 H       -4.6210    -1.8470    -1.4720 H     1 <1>   0.0800 
 42 H       -4.6950    -0.9640     0.0210 H     1 <1>   0.0800 
 43 H       -1.3570     2.5160     2.8140 H     1 <1>   0.0800 
 44 H       -3.1120     2.5390     2.8680 H     1 <1>   0.0800 
 45 H       -2.2090     4.0250     3.0290 H     1 <1>   0.0800 
 46 H       -5.2770    -4.4810     0.7080 H     1 <1>   0.1500 
 47 H       -6.3990    -0.1520    -1.2260 H     1 <1>   0.1500 
 48 H       -7.4180    -5.3940     1.2150 H     1 <1>   0.1500 
 49 H      -10.5650    -2.4030     0.0510 H     1 <1>   0.1500 
 50 H       -8.5370     0.9450    -1.6150 H     1 <1>   0.1500 
 51 H      -10.6310    -0.1570    -0.9820 H     1 <1>   0.1500 
@<TRIPOS>BOND
  1   1   2  2   
  2   2   3  am  
  3   2   4  1   
  4   3   5  1   
  5   3  26  1   
  6   4   6  1   
  7   4   7  1   
  8   4   8  1   
  9   5   9  1   
 10   5  10  1   
 11   5  27  1   
 12   6  11  1   
 13   7  28  1   
 14   7  29  1   
 15   7  30  1   
 16   8  31  1   
 17   8  32  1   
 18   8  33  1   
 19   9  12  1   
 20   9  13  1   
 21   9  34  1   
 22  10  14  1   
 23  10  35  1   
 24  10  36  1   
 25  11  15  1   
 26  11  37  1   
 27  11  38  1   
 28  12  14  1   
 29  12  39  1   
 30  12  40  1   
 31  13  16  1   
 32  13  41  1   
 33  13  42  1   
 34  15  43  1   
 35  15  44  1   
 36  15  45  1   
 37  16  17  ar  
 38  16  18  ar  
 39  17  19  ar  
 40  17  20  ar  
 41  18  21  ar  
 42  18  46  1   
 43  19  22  ar  
 44  19  23  ar  
 45  20  24  ar  
 46  20  47  1   
 47  21  22  ar  
 48  21  48  1   
 49  23  25  ar  
 50  23  49  1   
 51  24  25  ar  
 52  24  50  1   
 53  25  51  1   
@<TRIPOS>SUBSTRUCTURE
  1 ****  13 GROUP 4 **** **** 0

# MOE 2024.06 (io_trps.svl 2023.06)
