@<TRIPOS>MOLECULE
NONAME
40 42 1 0 0 
SMALL
USER_CHARGES


@<TRIPOS>ATOM
  1 O       -1.3820     0.5000     2.5140 O.2   1 <1>  -0.5700 
  2 C       -1.8520     0.8860     1.4640 C.2   1 <1>   0.5440 
  3 N       -2.7360     0.0740     0.7940 N.am  1 <1>  -0.6600 
  4 C       -1.5020     2.1910     0.9500 C.ar  1 <1>   0.0860 
  5 C       -3.7180     0.5400    -0.2140 C.3   1 <1>   0.1400 
  6 C       -3.0580    -1.3070     1.2330 C.3   1 <1>   0.1400 
  7 C       -0.7330     2.3840    -0.1960 C.ar  1 <1>  -0.1440 
  8 C       -1.9570     3.3240     1.6190 C.ar  1 <1>   0.1600 
  9 C       -4.9060    -0.4070    -0.0420 C.3   1 <1>   0.2000 
 10 C       -4.2800    -1.7320     0.4020 C.3   1 <1>  -0.0800 
 11 C       -0.5100     3.6870    -0.5910 C.ar  1 <1>  -0.1500 
 12 C       -0.1420     1.2200    -0.9810 C.3   1 <1>  -0.0970 
 13 N       -1.7560     4.5800     1.2480 N.ar  1 <1>  -0.6200 
 14 O       -5.6920     0.0610     0.9970 O.3   1 <1>  -0.6800 
 15 C       -3.8880    -2.5870    -0.8210 C.3   1 <1>  -0.0170 
 16 C       -1.0360     4.7310     0.1500 C.ar  1 <1>   0.1600 
 17 C       -3.3590    -3.9560    -0.4210 C.ar  1 <1>   0.1670 
 18 N       -2.0440    -4.0940    -0.3770 N.ar  1 <1>  -0.6200 
 19 C       -4.2500    -4.9870    -0.1280 C.ar  1 <1>   0.1600 
 20 C       -1.6830    -5.3160    -0.0200 C.ar  1 <1>   0.1600 
 21 N       -3.8930    -6.2090     0.2290 N.ar  1 <1>  -0.6200 
 22 C       -2.5780    -6.3380     0.2740 C.ar  1 <1>   0.1600 
 23 H       -4.0040     1.5670    -0.0620 H     1 <1>   0.0800 
 24 H       -3.2950     0.4240    -1.1960 H     1 <1>   0.0800 
 25 H       -2.2080    -1.9510     1.0870 H     1 <1>   0.0800 
 26 H       -3.3040    -1.2950     2.2820 H     1 <1>   0.0800 
 27 H       -2.5280     3.1720     2.5190 H     1 <1>   0.1500 
 28 H       -5.5210    -0.4820    -0.9220 H     1 <1>   0.0800 
 29 H       -4.9710    -2.2970     1.0040 H     1 <1>   0.0800 
 30 H        0.0730     3.9040    -1.4680 H     1 <1>   0.1500 
 31 H        0.6080     1.5640    -1.6700 H     1 <1>   0.0800 
 32 H       -0.9110     0.7150    -1.5350 H     1 <1>   0.0800 
 33 H        0.3180     0.5160    -0.3090 H     1 <1>   0.0800 
 34 H       -5.1190     0.2350     1.7720 H     1 <1>   0.4000 
 35 H       -3.1410    -2.0790    -1.4060 H     1 <1>   0.0800 
 36 H       -4.7490    -2.7260    -1.4500 H     1 <1>   0.0800 
 37 H       -0.8520     5.7420    -0.1750 H     1 <1>   0.1500 
 38 H       -5.3060    -4.7920    -0.1900 H     1 <1>   0.1500 
 39 H       -0.6290    -5.5180     0.0440 H     1 <1>   0.1500 
 40 H       -2.1880    -7.3000     0.5550 H     1 <1>   0.1500 
@<TRIPOS>BOND
  1   1   2  2   
  2   2   3  am  
  3   2   4  1   
  4   3   5  1   
  5   3   6  1   
  6   4   7  ar  
  7   4   8  ar  
  8   5   9  1   
  9   5  23  1   
 10   5  24  1   
 11   6  10  1   
 12   6  25  1   
 13   6  26  1   
 14   7  11  ar  
 15   7  12  1   
 16   8  13  ar  
 17   8  27  1   
 18   9  10  1   
 19   9  14  1   
 20   9  28  1   
 21  10  15  1   
 22  10  29  1   
 23  11  16  ar  
 24  11  30  1   
 25  12  31  1   
 26  12  32  1   
 27  12  33  1   
 28  13  16  ar  
 29  14  34  1   
 30  15  17  1   
 31  15  35  1   
 32  15  36  1   
 33  16  37  1   
 34  17  18  ar  
 35  17  19  ar  
 36  18  20  ar  
 37  19  21  ar  
 38  19  38  1   
 39  20  22  ar  
 40  20  39  1   
 41  21  22  ar  
 42  22  40  1   
@<TRIPOS>SUBSTRUCTURE
  1 ****   3 GROUP 4 **** **** 0

# MOE 2024.06 (io_trps.svl 2023.06)
