@<TRIPOS>MOLECULE
NONAME
43 45 1 0 0 
SMALL
USER_CHARGES


@<TRIPOS>ATOM
  1 F        2.2850     0.8750    -1.1350 F     1 <1>  -0.3400 
  2 C        1.8940    -0.0160    -0.2300 C.3   1 <1>   1.1640 
  3 F        0.7610    -0.5270    -0.6980 F     1 <1>  -0.3400 
  4 F        1.5590     0.6680     0.8540 F     1 <1>  -0.3400 
  5 C        2.9720    -1.0810     0.0240 C.ar  1 <1>  -0.1440 
  6 C        4.1700    -0.7280     0.6620 C.ar  1 <1>   0.0860 
  7 C        2.7760    -2.3990    -0.3810 C.ar  1 <1>  -0.1500 
  8 C        4.4770     0.6200     1.0980 C.2   1 <1>   0.5440 
  9 C        5.1250    -1.7200     0.8800 C.ar  1 <1>  -0.1500 
 10 C        3.7420    -3.3640    -0.1590 C.ar  1 <1>  -0.1500 
 11 O        4.3450     0.9020     2.2730 O.2   1 <1>  -0.5700 
 12 N        4.9420     1.5890     0.2270 N.am  1 <1>  -0.6600 
 13 C        4.9200    -3.0230     0.4760 C.ar  1 <1>  -0.1500 
 14 C        5.2260     2.9620     0.7570 C.3   1 <1>   0.1400 
 15 C        5.4560     1.2450    -1.1370 C.3   1 <1>   0.1400 
 16 C        6.7280     3.2150     1.0550 C.3   1 <1>   0.4230 
 17 C        6.9290     1.6410    -1.3880 C.3   1 <1>  -0.0800 
 18 N        7.4820     3.7680    -0.1300 N.4   1 <1>  -0.9590 
 19 C        7.4890     1.9980     1.6500 C.3   1 <1>   0.1200 
 20 C        7.9730     0.9340    -0.4950 C.3   1 <1>   0.1200 
 21 C        7.1010     3.1610    -1.4400 C.3   1 <1>   0.3430 
 22 C        7.3850     5.2590    -0.1950 C.3   1 <1>   0.2630 
 23 O        7.5740     0.8520     0.8370 O.3   1 <1>  -0.5600 
 24 H        1.8660    -2.6970    -0.8760 H     1 <1>   0.1500 
 25 H        6.0420    -1.4550     1.3790 H     1 <1>   0.1500 
 26 H        3.5750    -4.3800    -0.4760 H     1 <1>   0.1500 
 27 H        5.6730    -3.7720     0.6570 H     1 <1>   0.1500 
 28 H        4.8460     3.6960     0.0720 H     1 <1>   0.0800 
 29 H        4.6830     3.1080     1.6750 H     1 <1>   0.0800 
 30 H        5.3690     0.1860    -1.3070 H     1 <1>   0.0800 
 31 H        4.8260     1.7270    -1.8640 H     1 <1>   0.0800 
 32 H        6.7500     3.9720     1.8200 H     1 <1>   0.0800 
 33 H        7.1350     1.3110    -2.3900 H     1 <1>   0.0800 
 34 H        8.4660     3.5150     0.0370 H     1 <1>   0.4500 
 35 H        6.9860     1.6890     2.5510 H     1 <1>   0.0800 
 36 H        8.4890     2.2830     1.9220 H     1 <1>   0.0800 
 37 H        8.9400     1.4040    -0.5440 H     1 <1>   0.0800 
 38 H        8.0850    -0.0830    -0.8320 H     1 <1>   0.0800 
 39 H        6.1800     3.5980    -1.7900 H     1 <1>   0.0800 
 40 H        7.8650     3.3950    -2.1640 H     1 <1>   0.0800 
 41 H        6.3640     5.5620    -0.3610 H     1 <1>   0.0800 
 42 H        7.9920     5.6400    -1.0010 H     1 <1>   0.0800 
 43 H        7.7290     5.6980     0.7280 H     1 <1>   0.0800 
@<TRIPOS>BOND
  1   1   2  1   
  2   2   3  1   
  3   2   4  1   
  4   2   5  1   
  5   5   6  ar  
  6   5   7  ar  
  7   6   8  1   
  8   6   9  ar  
  9   7  10  ar  
 10   7  24  1   
 11   8  11  2   
 12   8  12  am  
 13   9  13  ar  
 14   9  25  1   
 15  10  13  ar  
 16  10  26  1   
 17  12  14  1   
 18  12  15  1   
 19  13  27  1   
 20  14  16  1   
 21  14  28  1   
 22  14  29  1   
 23  15  17  1   
 24  15  30  1   
 25  15  31  1   
 26  16  18  1   
 27  16  19  1   
 28  16  32  1   
 29  17  20  1   
 30  17  21  1   
 31  17  33  1   
 32  18  21  1   
 33  18  22  1   
 34  18  34  1   
 35  19  23  1   
 36  19  35  1   
 37  19  36  1   
 38  20  23  1   
 39  20  37  1   
 40  20  38  1   
 41  21  39  1   
 42  21  40  1   
 43  22  41  1   
 44  22  42  1   
 45  22  43  1   
@<TRIPOS>SUBSTRUCTURE
  1 ****  12 GROUP 4 **** **** 0

# MOE 2024.06 (io_trps.svl 2023.06)
