@<TRIPOS>MOLECULE
NONAME
45 47 1 0 0 
SMALL
USER_CHARGES


@<TRIPOS>ATOM
  1 O       -0.6880     0.2630     1.6370 O.2   1 <1>  -0.5700 
  2 C       -1.6780     0.8370     1.2130 C.2   1 <1>   0.5440 
  3 N       -2.8690     0.1270     1.2080 N.am  1 <1>  -0.6600 
  4 C       -1.5510     2.2250     0.7550 C.ar  1 <1>   0.3960 
  5 C       -2.9010    -1.3680     1.2310 C.3   1 <1>   0.1400 
  6 C       -4.2060     0.7000     0.8790 C.3   1 <1>   0.1400 
  7 N       -2.1470     2.6270    -0.3850 N.ar  1 <1>  -0.6200 
  8 C       -0.7880     3.1090     1.5190 C.ar  1 <1>  -0.1500 
  9 C       -3.5130    -1.9140    -0.0740 C.3   1 <1>   0.3440 
 10 C       -4.7180     0.0910    -0.4440 C.3   1 <1>   0.2000 
 11 C       -1.9790     3.8870    -0.7390 C.ar  1 <1>   0.1600 
 12 C       -0.6230     4.4230     1.1410 C.ar  1 <1>  -0.1500 
 13 O       -4.7570    -1.3080    -0.3300 O.3   1 <1>  -0.5600 
 14 C       -3.6920    -3.4280     0.0080 C.ar  1 <1>  -0.1430 
 15 C       -6.1210     0.5790    -0.8710 C.3   1 <1>  -0.0800 
 16 C       -1.2420     4.8140    -0.0250 C.ar  1 <1>  -0.1500 
 17 C       -4.8420    -3.9930     0.5420 C.ar  1 <1>  -0.1500 
 18 C       -2.6810    -4.2640    -0.4460 C.ar  1 <1>  -0.1500 
 19 C       -6.1340     2.0860    -1.1730 C.3   1 <1>  -0.2400 
 20 C       -7.2270     0.2450     0.1470 C.3   1 <1>  -0.2400 
 21 C       -4.9800    -5.3680     0.6230 C.ar  1 <1>  -0.1500 
 22 C       -2.8170    -5.6390    -0.3670 C.ar  1 <1>  -0.1500 
 23 C       -3.9660    -6.1920     0.1680 C.ar  1 <1>  -0.1500 
 24 H       -1.9110    -1.7720     1.3480 H     1 <1>   0.0800 
 25 H       -3.4910    -1.7000     2.0660 H     1 <1>   0.0800 
 26 H       -4.8900     0.4590     1.6720 H     1 <1>   0.0800 
 27 H       -4.1610     1.7690     0.8080 H     1 <1>   0.0800 
 28 H       -0.3200     2.7460     2.4170 H     1 <1>   0.1500 
 29 H       -2.8620    -1.6790    -0.8980 H     1 <1>   0.0800 
 30 H       -4.0220     0.3370    -1.2290 H     1 <1>   0.0800 
 31 H       -2.4540     4.2050    -1.6530 H     1 <1>   0.1500 
 32 H       -0.0360     5.1100     1.7270 H     1 <1>   0.1500 
 33 H       -6.3550     0.0690    -1.7900 H     1 <1>   0.0800 
 34 H       -1.1530     5.8250    -0.3800 H     1 <1>   0.1500 
 35 H       -5.6370    -3.3580     0.8950 H     1 <1>   0.1500 
 36 H       -1.7800    -3.8480    -0.8630 H     1 <1>   0.1500 
 37 H       -5.9810     2.6640    -0.2790 H     1 <1>   0.0800 
 38 H       -7.0800     2.3680    -1.6000 H     1 <1>   0.0800 
 39 H       -5.3590     2.3310    -1.8790 H     1 <1>   0.0800 
 40 H       -7.0850     0.7810     1.0680 H     1 <1>   0.0800 
 41 H       -7.2320    -0.8100     0.3570 H     1 <1>   0.0800 
 42 H       -8.1890     0.5100    -0.2550 H     1 <1>   0.0800 
 43 H       -5.8770    -5.7940     1.0370 H     1 <1>   0.1500 
 44 H       -2.0280    -6.2790    -0.7210 H     1 <1>   0.1500 
 45 H       -4.0730    -7.2610     0.2300 H     1 <1>   0.1500 
@<TRIPOS>BOND
  1   1   2  2   
  2   2   3  am  
  3   2   4  1   
  4   3   5  1   
  5   3   6  1   
  6   4   7  ar  
  7   4   8  ar  
  8   5   9  1   
  9   5  24  1   
 10   5  25  1   
 11   6  10  1   
 12   6  26  1   
 13   6  27  1   
 14   7  11  ar  
 15   8  12  ar  
 16   8  28  1   
 17   9  13  1   
 18   9  14  1   
 19   9  29  1   
 20  10  13  1   
 21  10  15  1   
 22  10  30  1   
 23  11  16  ar  
 24  11  31  1   
 25  12  16  ar  
 26  12  32  1   
 27  14  17  ar  
 28  14  18  ar  
 29  15  19  1   
 30  15  20  1   
 31  15  33  1   
 32  16  34  1   
 33  17  21  ar  
 34  17  35  1   
 35  18  22  ar  
 36  18  36  1   
 37  19  37  1   
 38  19  38  1   
 39  19  39  1   
 40  20  40  1   
 41  20  41  1   
 42  20  42  1   
 43  21  23  ar  
 44  21  43  1   
 45  22  23  ar  
 46  22  44  1   
 47  23  45  1   
@<TRIPOS>SUBSTRUCTURE
  1 ****   3 GROUP 4 **** **** 0

# MOE 2024.06 (io_trps.svl 2023.06)
