@<TRIPOS>MOLECULE
NONAME
48 50 1 0 0 
SMALL
USER_CHARGES


@<TRIPOS>ATOM
  1 O       -0.0810    -0.3680     1.1470 O.2   1 <1>  -0.5700 
  2 C        0.6070    -1.0830     0.4530 C.2   1 <1>   0.5690 
  3 N        1.7310    -0.6590    -0.1840 N.am  1 <1>  -0.4930 
  4 C        0.1490    -2.5390     0.2880 C.3   1 <1>   0.4040 
  5 C        2.3150     0.6010    -0.2090 C.2   1 <1>   0.3520 
  6 N       -1.3420    -2.7340     0.4800 N.4   1 <1>  -0.9590 
  7 N        3.3650     0.7690    -0.9420 N.2   1 <1>  -0.7070 
  8 C        1.9370     1.7640     0.4570 C.2   1 <1>  -0.1500 
  9 C       -1.7810    -4.1600     0.6530 C.3   1 <1>   0.4230 
 10 C       -2.0360    -2.0560    -0.6580 C.3   1 <1>   0.3430 
 11 N        3.6990     2.0650    -0.7660 N.pl3 1 <1>   0.3140 
 12 C        2.8480     2.6830     0.0760 C.2   1 <1>  -0.3020 
 13 C       -3.3100    -4.1930     0.8380 C.3   1 <1>  -0.1600 
 14 C       -1.1360    -4.8600     1.8750 C.3   1 <1>  -0.1600 
 15 C       -3.5470    -2.0620    -0.4500 C.3   1 <1>  -0.1600 
 16 C        4.8600     2.6550    -1.4420 C.3   1 <1>   0.0160 
 17 C       -4.0680    -3.4900    -0.2910 C.3   1 <1>  -0.1600 
 18 C        0.2740    -5.4650     1.6970 C.3   1 <1>   0.0960 
 19 N        0.4740    -6.0280     0.3470 N.pl3 1 <1>   0.3140 
 20 N        0.7920    -5.2440    -0.7030 N.2   1 <1>  -0.7070 
 21 C        0.3480    -7.3150    -0.0220 C.2   1 <1>  -0.3020 
 22 C        0.8800    -6.0630    -1.7100 C.2   1 <1>   0.1390 
 23 C        0.6070    -7.3750    -1.3450 C.2   1 <1>  -0.1500 
 24 H        2.2820    -1.3000    -0.7530 H     1 <1>   0.3700 
 25 H        0.6880    -3.1130     1.0140 H     1 <1>   0.0800 
 26 H        0.4370    -2.8880    -0.6890 H     1 <1>   0.0800 
 27 H       -1.5930    -2.2000     1.3250 H     1 <1>   0.4500 
 28 H        1.1020     1.8770     1.1230 H     1 <1>   0.1500 
 29 H       -1.5460    -4.7130    -0.2430 H     1 <1>   0.0800 
 30 H       -1.8010    -2.5630    -1.5800 H     1 <1>   0.0800 
 31 H       -1.7010    -1.0330    -0.7380 H     1 <1>   0.0800 
 32 H        2.9350     3.7180     0.3510 H     1 <1>   0.1500 
 33 H       -3.5690    -3.7380     1.7790 H     1 <1>   0.0800 
 34 H       -3.6410    -5.2160     0.8760 H     1 <1>   0.0800 
 35 H       -1.7630    -5.6950     2.1380 H     1 <1>   0.0800 
 36 H       -1.1460    -4.2030     2.7270 H     1 <1>   0.0800 
 37 H       -4.0210    -1.6010    -1.2990 H     1 <1>   0.0800 
 38 H       -3.7940    -1.4740     0.4170 H     1 <1>   0.0800 
 39 H        5.7410     2.1100    -1.1590 H     1 <1>   0.0800 
 40 H        4.9620     3.6850    -1.1550 H     1 <1>   0.0800 
 41 H        4.7180     2.5840    -2.5040 H     1 <1>   0.0800 
 42 H       -5.1230    -3.4740    -0.0710 H     1 <1>   0.0800 
 43 H       -3.9320    -4.0320    -1.2130 H     1 <1>   0.0800 
 44 H        0.4240    -6.2500     2.4160 H     1 <1>   0.0800 
 45 H        1.0390    -4.7320     1.8690 H     1 <1>   0.0800 
 46 H        0.0920    -8.1090     0.6570 H     1 <1>   0.1500 
 47 H        1.1360    -5.7590    -2.7130 H     1 <1>   0.1500 
 48 H        0.6120    -8.2310    -1.9970 H     1 <1>   0.1500 
@<TRIPOS>BOND
  1   1   2  2   
  2   2   3  am  
  3   2   4  1   
  4   3   5  1   
  5   3  24  1   
  6   4   6  1   
  7   4  25  1   
  8   4  26  1   
  9   5   7  2   
 10   5   8  1   
 11   6   9  1   
 12   6  10  1   
 13   6  27  1   
 14   7  11  1   
 15   8  12  2   
 16   8  28  1   
 17   9  13  1   
 18   9  14  1   
 19   9  29  1   
 20  10  15  1   
 21  10  30  1   
 22  10  31  1   
 23  11  12  1   
 24  11  16  1   
 25  12  32  1   
 26  13  17  1   
 27  13  33  1   
 28  13  34  1   
 29  14  18  1   
 30  14  35  1   
 31  14  36  1   
 32  15  17  1   
 33  15  37  1   
 34  15  38  1   
 35  16  39  1   
 36  16  40  1   
 37  16  41  1   
 38  17  42  1   
 39  17  43  1   
 40  18  19  1   
 41  18  44  1   
 42  18  45  1   
 43  19  20  1   
 44  19  21  1   
 45  20  22  2   
 46  21  23  2   
 47  21  46  1   
 48  22  23  1   
 49  22  47  1   
 50  23  48  1   
@<TRIPOS>SUBSTRUCTURE
  1 ****   4 GROUP 4 **** **** 0

# MOE 2024.06 (io_trps.svl 2023.06)
