@<TRIPOS>MOLECULE
NONAME
56 59 1 0 0 
SMALL
USER_CHARGES


@<TRIPOS>ATOM
  1 S        0.2200     1.2400     0.5390 S.3   1 <1>  -0.4600 
  2 C        1.7620     0.4720     1.0830 C.3   1 <1>   0.0700 
  3 C        0.7100     2.9650     0.3180 C.3   1 <1>   0.0700 
  4 C        2.8720     0.8180     0.0790 C.3   1 <1>   0.3430 
  5 C        1.9430     3.0220    -0.5950 C.3   1 <1>   0.3430 
  6 N        3.1510     2.3050    -0.0240 N.4   1 <1>  -0.9590 
  7 C        4.4140     2.6030    -0.7920 C.3   1 <1>   0.4230 
  8 C        5.6230     1.9020    -0.1370 C.3   1 <1>  -0.1600 
  9 C        4.6560     4.1210    -0.8670 C.3   1 <1>  -0.1600 
 10 C        6.9590     2.2980    -0.7750 C.3   1 <1>   0.2090 
 11 C        6.0000     4.4500    -1.5100 C.3   1 <1>   0.2090 
 12 N        7.0840     3.7790    -0.7320 N.pl3 1 <1>  -0.8380 
 13 C        8.0170     4.5110    -0.0520 C.ar  1 <1>   0.7710 
 14 N        7.7550     5.7810     0.2150 N.ar  1 <1>  -0.6200 
 15 N        9.1720     3.9330     0.3320 N.ar  1 <1>  -0.1790 
 16 C        8.6530     6.4980     0.8660 C.ar  1 <1>   0.4100 
 17 C       10.1100     4.6210     1.0290 C.ar  1 <1>   0.2110 
 18 N        8.3790     7.8110     1.0880 N.pl3 1 <1>  -0.8380 
 19 C        9.8560     5.9190     1.3120 C.ar  1 <1>  -0.1500 
 20 C        9.4230     8.8890     1.1670 C.3   1 <1>   0.2090 
 21 C        6.9850     8.3530     1.1220 C.3   1 <1>   0.2090 
 22 C        9.2270     9.9230     0.0430 C.3   1 <1>   0.2000 
 23 C        6.7800     9.3320    -0.0390 C.3   1 <1>  -0.1600 
 24 O       10.1000    10.9810     0.2290 O.3   1 <1>  -0.6800 
 25 C        7.8010    10.4810     0.0010 C.3   1 <1>  -0.1600 
 26 H        1.5860    -0.5900     1.1150 H     1 <1>   0.0800 
 27 H        1.9830     0.8300     2.0720 H     1 <1>   0.0800 
 28 H        0.9040     3.3840     1.2900 H     1 <1>   0.0800 
 29 H       -0.1280     3.4710    -0.1300 H     1 <1>   0.0800 
 30 H        2.5930     0.4330    -0.8890 H     1 <1>   0.0800 
 31 H        3.7570     0.2970     0.3970 H     1 <1>   0.0800 
 32 H        2.1690     4.0620    -0.7500 H     1 <1>   0.0800 
 33 H        1.6850     2.5950    -1.5510 H     1 <1>   0.0800 
 34 H        3.2870     2.6600     0.9320 H     1 <1>   0.4500 
 35 H        4.3110     2.2290    -1.7990 H     1 <1>   0.0800 
 36 H        5.5400     0.8360    -0.2390 H     1 <1>   0.0800 
 37 H        5.6640     2.1440     0.9110 H     1 <1>   0.0800 
 38 H        4.6360     4.5580     0.1160 H     1 <1>   0.0800 
 39 H        3.9080     4.5980    -1.4720 H     1 <1>   0.0800 
 40 H        6.9940     1.9650    -1.8010 H     1 <1>   0.0800 
 41 H        7.7600     1.8170    -0.2410 H     1 <1>   0.0800 
 42 H        6.1320     5.5200    -1.5470 H     1 <1>   0.0800 
 43 H        6.0210     4.0980    -2.5290 H     1 <1>   0.0800 
 44 H        9.3220     2.9770     0.0370 H     1 <1>   0.4570 
 45 H       11.0160     4.1220     1.3340 H     1 <1>   0.1500 
 46 H       10.5490     6.5110     1.8790 H     1 <1>   0.1500 
 47 H       10.4110     8.4790     1.0680 H     1 <1>   0.0800 
 48 H        9.3440     9.3760     2.1240 H     1 <1>   0.0800 
 49 H        6.8300     8.8630     2.0580 H     1 <1>   0.0800 
 50 H        6.2590     7.5610     1.0620 H     1 <1>   0.0800 
 51 H        9.4740     9.4650    -0.8990 H     1 <1>   0.0800 
 52 H        5.7840     9.7350     0.0090 H     1 <1>   0.0800 
 53 H        6.8730     8.7930    -0.9660 H     1 <1>   0.0800 
 54 H        9.7670    11.5820     0.9230 H     1 <1>   0.4000 
 55 H        7.6810    11.0980    -0.8730 H     1 <1>   0.0800 
 56 H        7.6150    11.0770     0.8770 H     1 <1>   0.0800 
@<TRIPOS>BOND
  1   1   2  1   
  2   1   3  1   
  3   2   4  1   
  4   2  26  1   
  5   2  27  1   
  6   3   5  1   
  7   3  28  1   
  8   3  29  1   
  9   4   6  1   
 10   4  30  1   
 11   4  31  1   
 12   5   6  1   
 13   5  32  1   
 14   5  33  1   
 15   6   7  1   
 16   6  34  1   
 17   7   8  1   
 18   7   9  1   
 19   7  35  1   
 20   8  10  1   
 21   8  36  1   
 22   8  37  1   
 23   9  11  1   
 24   9  38  1   
 25   9  39  1   
 26  10  12  1   
 27  10  40  1   
 28  10  41  1   
 29  11  12  1   
 30  11  42  1   
 31  11  43  1   
 32  12  13  1   
 33  13  14  ar  
 34  13  15  ar  
 35  14  16  ar  
 36  15  17  ar  
 37  15  44  1   
 38  16  18  1   
 39  16  19  ar  
 40  17  19  ar  
 41  17  45  1   
 42  18  20  1   
 43  18  21  1   
 44  19  46  1   
 45  20  22  1   
 46  20  47  1   
 47  20  48  1   
 48  21  23  1   
 49  21  49  1   
 50  21  50  1   
 51  22  24  1   
 52  22  25  1   
 53  22  51  1   
 54  23  25  1   
 55  23  52  1   
 56  23  53  1   
 57  24  54  1   
 58  25  55  1   
 59  25  56  1   
@<TRIPOS>SUBSTRUCTURE
  1 ****  14 GROUP 4 **** **** 0

# MOE 2024.06 (io_trps.svl 2023.06)
