@<TRIPOS>MOLECULE
NONAME
45 47 1 0 0 
SMALL
USER_CHARGES


@<TRIPOS>ATOM
  1 F       -1.4830    -0.6570    -1.6620 F     1 <1>  -0.1900 
  2 C       -2.4220     0.1530    -1.2520 C.ar  1 <1>   0.1900 
  3 C       -3.0580    -0.1140    -0.0580 C.ar  1 <1>  -0.1500 
  4 C       -2.7470     1.2440    -2.0300 C.ar  1 <1>  -0.1500 
  5 C       -4.0670     0.7330     0.3830 C.ar  1 <1>  -0.1440 
  6 C       -3.7430     2.0940    -1.5850 C.ar  1 <1>  -0.1500 
  7 C       -4.4030     1.8510    -0.3860 C.ar  1 <1>  -0.1430 
  8 C       -4.7660     0.3870     1.7030 C.3   1 <1>   0.0440 
  9 C       -5.4780     2.8390     0.0480 C.3   1 <1>  -0.0960 
 10 C       -5.1700    -1.0790     1.8090 C.2   1 <1>   0.5690 
 11 O       -4.7110    -1.7300     2.7170 O.2   1 <1>  -0.5700 
 12 N       -6.0320    -1.6410     0.9050 N.am  1 <1>  -0.6600 
 13 C       -6.5900    -0.9940    -0.3110 C.3   1 <1>   0.1400 
 14 C       -6.3690    -3.0860     0.9200 C.3   1 <1>   0.1400 
 15 C       -7.6290    -1.9870    -0.8260 C.3   1 <1>   0.2000 
 16 C       -7.0520    -3.3500    -0.4280 C.3   1 <1>  -0.0800 
 17 O       -8.8140    -1.7650    -0.1400 O.3   1 <1>  -0.6800 
 18 C       -8.0710    -4.5040    -0.3960 C.3   1 <1>   0.0200 
 19 C       -7.4300    -5.8570    -0.1380 C.2   1 <1>  -0.0400 
 20 O       -8.2050    -6.8920     0.0520 O.3   1 <1>  -0.0190 
 21 C       -6.1580    -6.2810    -0.0560 C.2   1 <1>  -0.1500 
 22 N       -7.5230    -7.9810     0.2610 N.2   1 <1>  -0.4100 
 23 C       -6.2860    -7.6430     0.2020 C.2   1 <1>   0.1080 
 24 C       -5.1320    -8.6030     0.3900 C.3   1 <1>  -0.0590 
 25 H       -2.7600    -0.9770     0.5120 H     1 <1>   0.1500 
 26 H       -2.2300     1.4220    -2.9560 H     1 <1>   0.1500 
 27 H       -3.9990     2.9520    -2.1830 H     1 <1>   0.1500 
 28 H       -5.6510     0.9700     1.8540 H     1 <1>   0.0800 
 29 H       -4.0940     0.6140     2.5110 H     1 <1>   0.0800 
 30 H       -5.5210     3.6820    -0.6190 H     1 <1>   0.0800 
 31 H       -5.2630     3.2100     1.0340 H     1 <1>   0.0800 
 32 H       -6.4430     2.3650     0.0500 H     1 <1>   0.0800 
 33 H       -7.0270    -0.0350    -0.0950 H     1 <1>   0.0800 
 34 H       -5.8060    -0.8790    -1.0390 H     1 <1>   0.0800 
 35 H       -5.4800    -3.6800     1.0420 H     1 <1>   0.0800 
 36 H       -7.0390    -3.2800     1.7400 H     1 <1>   0.0800 
 37 H       -7.8200    -1.8910    -1.8820 H     1 <1>   0.0800 
 38 H       -6.2850    -3.5940    -1.1420 H     1 <1>   0.0800 
 39 H       -8.6190    -1.7150     0.8180 H     1 <1>   0.4000 
 40 H       -8.5900    -4.5480    -1.3370 H     1 <1>   0.0800 
 41 H       -8.8060    -4.3250     0.3700 H     1 <1>   0.0800 
 42 H       -5.2340    -5.7450    -0.1570 H     1 <1>   0.1500 
 43 H       -4.5400    -8.2990     1.2330 H     1 <1>   0.0800 
 44 H       -4.5190    -8.6130    -0.4920 H     1 <1>   0.0800 
 45 H       -5.5060    -9.5950     0.5660 H     1 <1>   0.0800 
@<TRIPOS>BOND
  1   1   2  1   
  2   2   3  ar  
  3   2   4  ar  
  4   3   5  ar  
  5   3  25  1   
  6   4   6  ar  
  7   4  26  1   
  8   5   7  ar  
  9   5   8  1   
 10   6   7  ar  
 11   6  27  1   
 12   7   9  1   
 13   8  10  1   
 14   8  28  1   
 15   8  29  1   
 16   9  30  1   
 17   9  31  1   
 18   9  32  1   
 19  10  11  2   
 20  10  12  am  
 21  12  13  1   
 22  12  14  1   
 23  13  15  1   
 24  13  33  1   
 25  13  34  1   
 26  14  16  1   
 27  14  35  1   
 28  14  36  1   
 29  15  16  1   
 30  15  17  1   
 31  15  37  1   
 32  16  18  1   
 33  16  38  1   
 34  17  39  1   
 35  18  19  1   
 36  18  40  1   
 37  18  41  1   
 38  19  20  1   
 39  19  21  2   
 40  20  22  1   
 41  21  23  1   
 42  21  42  1   
 43  22  23  2   
 44  23  24  1   
 45  24  43  1   
 46  24  44  1   
 47  24  45  1   
@<TRIPOS>SUBSTRUCTURE
  1 ****  12 GROUP 4 **** **** 0

# MOE 2024.06 (io_trps.svl 2023.06)
