@<TRIPOS>MOLECULE
NONAME
52 54 1 0 0 
SMALL
USER_CHARGES


@<TRIPOS>ATOM
  1 F       -0.8800    -1.0370     0.0950 F     1 <1>  -0.3400 
  2 C        0.2680    -1.6540    -0.1580 C.3   1 <1>   0.8800 
  3 F        0.9990    -0.7930    -0.8500 F     1 <1>  -0.3400 
  4 O        0.0090    -2.7660    -0.9830 O.3   1 <1>  -0.3630 
  5 C       -0.5250    -3.9040    -0.4870 C.ar  1 <1>   0.0830 
  6 C       -0.5850    -4.9890    -1.3460 C.ar  1 <1>  -0.1500 
  7 C       -1.0040    -4.0420     0.8140 C.ar  1 <1>  -0.1500 
  8 C       -1.1210    -6.1910    -0.9230 C.ar  1 <1>  -0.1500 
  9 C       -1.5380    -5.2480     1.2270 C.ar  1 <1>  -0.1500 
 10 C       -1.6260    -6.3450     0.3700 C.ar  1 <1>   0.0860 
 11 C       -2.2290    -7.5890     0.8110 C.2   1 <1>   0.5440 
 12 O       -2.0360    -7.9800     1.9470 O.2   1 <1>  -0.5700 
 13 N       -3.0260    -8.3610    -0.0110 N.am  1 <1>  -0.6600 
 14 C       -4.0670    -7.8370    -0.9510 C.3   1 <1>   0.2200 
 15 C       -2.8740    -9.8450     0.0520 C.3   1 <1>   0.0600 
 16 C       -4.4850    -6.3890    -0.6890 C.3   1 <1>  -0.1600 
 17 C       -5.3850    -8.5970    -0.7910 C.3   1 <1>  -0.1600 
 18 C       -5.8960    -6.2450    -1.2720 C.3   1 <1>  -0.0800 
 19 C       -6.4880    -7.6610    -1.3050 C.3   1 <1>  -0.0800 
 20 C       -6.8220    -5.4050    -0.3860 C.3   1 <1>  -0.1600 
 21 C       -7.7290    -7.6320    -0.4010 C.3   1 <1>  -0.1600 
 22 C       -7.4930    -6.4370     0.5170 C.3   1 <1>   0.4230 
 23 N       -8.7340    -5.9620     1.2000 N.4   1 <1>  -0.9590 
 24 C       -9.8040    -5.4350     0.2910 C.3   1 <1>   0.2630 
 25 C       -8.3960    -4.9440     2.2430 C.3   1 <1>   0.2630 
 26 H        0.7690    -1.9120     0.7580 H     1 <1>   0.0800 
 27 H       -0.2070    -4.8860    -2.3480 H     1 <1>   0.1500 
 28 H       -0.9800    -3.2310     1.5180 H     1 <1>   0.1500 
 29 H       -1.1550    -7.0260    -1.6000 H     1 <1>   0.1500 
 30 H       -1.9010    -5.3550     2.2350 H     1 <1>   0.1500 
 31 H       -3.7190    -7.9330    -1.9670 H     1 <1>   0.0800 
 32 H       -2.8990   -10.2640    -0.9390 H     1 <1>   0.0800 
 33 H       -3.6650   -10.2700     0.6440 H     1 <1>   0.0800 
 34 H       -1.9340   -10.1020     0.5100 H     1 <1>   0.0800 
 35 H       -4.5060    -6.2120     0.3720 H     1 <1>   0.0800 
 36 H       -3.8170    -5.6890    -1.1590 H     1 <1>   0.0800 
 37 H       -5.3750    -9.5190    -1.3440 H     1 <1>   0.0800 
 38 H       -5.5360    -8.8090     0.2530 H     1 <1>   0.0800 
 39 H       -5.8360    -5.8380    -2.2690 H     1 <1>   0.0800 
 40 H       -6.7530    -7.9320    -2.3150 H     1 <1>   0.0800 
 41 H       -7.5390    -4.9200    -1.0230 H     1 <1>   0.0800 
 42 H       -6.2780    -4.6630     0.1710 H     1 <1>   0.0800 
 43 H       -7.8500    -8.5480     0.1500 H     1 <1>   0.0800 
 44 H       -8.5890    -7.4760    -1.0250 H     1 <1>   0.0800 
 45 H       -6.7720    -6.7400     1.2610 H     1 <1>   0.0800 
 46 H       -9.1190    -6.7860     1.6860 H     1 <1>   0.4500 
 47 H       -9.4590    -4.5570    -0.2290 H     1 <1>   0.0800 
 48 H      -10.6800    -5.1710     0.8610 H     1 <1>   0.0800 
 49 H      -10.0860    -6.1790    -0.4360 H     1 <1>   0.0800 
 50 H       -7.9920    -4.0570     1.7830 H     1 <1>   0.0800 
 51 H       -7.6630    -5.3390     2.9290 H     1 <1>   0.0800 
 52 H       -9.2770    -4.6720     2.8020 H     1 <1>   0.0800 
@<TRIPOS>BOND
  1   1   2  1   
  2   2   3  1   
  3   2   4  1   
  4   2  26  1   
  5   4   5  1   
  6   5   6  ar  
  7   5   7  ar  
  8   6   8  ar  
  9   6  27  1   
 10   7   9  ar  
 11   7  28  1   
 12   8  10  ar  
 13   8  29  1   
 14   9  10  ar  
 15   9  30  1   
 16  10  11  1   
 17  11  12  2   
 18  11  13  am  
 19  13  14  1   
 20  13  15  1   
 21  14  16  1   
 22  14  17  1   
 23  14  31  1   
 24  15  32  1   
 25  15  33  1   
 26  15  34  1   
 27  16  18  1   
 28  16  35  1   
 29  16  36  1   
 30  17  19  1   
 31  17  37  1   
 32  17  38  1   
 33  18  19  1   
 34  18  20  1   
 35  18  39  1   
 36  19  21  1   
 37  19  40  1   
 38  20  22  1   
 39  20  41  1   
 40  20  42  1   
 41  21  22  1   
 42  21  43  1   
 43  21  44  1   
 44  22  23  1   
 45  22  45  1   
 46  23  24  1   
 47  23  25  1   
 48  23  46  1   
 49  24  47  1   
 50  24  48  1   
 51  24  49  1   
 52  25  50  1   
 53  25  51  1   
 54  25  52  1   
@<TRIPOS>SUBSTRUCTURE
  1 ****  16 GROUP 4 **** **** 0

# MOE 2024.06 (io_trps.svl 2023.06)
