@<TRIPOS>MOLECULE
NONAME
59 62 1 0 0 
SMALL
USER_CHARGES


@<TRIPOS>ATOM
  1 O        0.3290     0.0630    -0.2610 O.2   1 <1>  -0.5700 
  2 C        1.2060    -0.7560    -0.4660 C.2   1 <1>   0.5440 
  3 N        0.8600    -2.0390    -0.8440 N.am  1 <1>  -0.6600 
  4 C        2.5930    -0.3610    -0.3150 C.ar  1 <1>   0.0860 
  5 C        1.8570    -3.0900    -1.1910 C.3   1 <1>   0.1400 
  6 C       -0.5600    -2.4790    -0.9130 C.3   1 <1>   0.1400 
  7 C        3.2700    -0.4700     0.9050 C.ar  1 <1>  -0.1440 
  8 C        3.2940     0.1320    -1.4150 C.ar  1 <1>  -0.1500 
  9 C        1.6610    -4.3080    -0.2860 C.3   1 <1>  -0.1600 
 10 C       -0.7660    -3.6890     0.0030 C.3   1 <1>  -0.1600 
 11 C        4.6050    -0.1100     0.9970 C.ar  1 <1>  -0.1500 
 12 C        2.5430    -0.9780     2.1430 C.3   1 <1>  -0.0970 
 13 C        4.6250     0.4910    -1.3190 C.ar  1 <1>  -0.1500 
 14 C        0.2110    -4.8310    -0.3340 C.3   1 <1>  -0.0190 
 15 C        5.2830     0.3670    -0.1100 C.ar  1 <1>  -0.1500 
 16 C       -0.0110    -6.0280     0.5980 C.2   1 <1>   0.5690 
 17 O        0.5830    -6.0670     1.6500 O.2   1 <1>  -0.5700 
 18 N       -0.8760    -7.0300     0.2480 N.am  1 <1>  -0.6600 
 19 C       -1.7320    -7.1090    -0.9640 C.3   1 <1>   0.1400 
 20 C       -1.1310    -8.1930     1.1350 C.3   1 <1>   0.1400 
 21 C       -2.7660    -8.1870    -0.6360 C.3   1 <1>   0.2000 
 22 C       -2.0450    -9.1290     0.3310 C.3   1 <1>  -0.0800 
 23 O       -3.8150    -7.5920     0.0430 O.3   1 <1>  -0.6800 
 24 C       -1.2400   -10.1960    -0.4370 C.3   1 <1>  -0.0170 
 25 C       -0.5540   -11.1700     0.5090 C.ar  1 <1>  -0.1430 
 26 C       -1.2500   -12.1840     1.1360 C.ar  1 <1>  -0.1500 
 27 C        0.7960   -11.0940     0.7890 C.ar  1 <1>  -0.1500 
 28 C       -0.5820   -13.0460     1.9900 C.ar  1 <1>   0.1600 
 29 C        1.3670   -12.0060     1.6600 C.ar  1 <1>   0.1600 
 30 N        0.7100   -12.9810     2.2680 N.ar  1 <1>  -0.6200 
 31 H        1.7190    -3.3730    -2.2200 H     1 <1>   0.0800 
 32 H        2.8630    -2.7250    -1.0810 H     1 <1>   0.0800 
 33 H       -1.2230    -1.6860    -0.6100 H     1 <1>   0.0800 
 34 H       -0.7970    -2.7380    -1.9300 H     1 <1>   0.0800 
 35 H        2.7780     0.2320    -2.3530 H     1 <1>   0.1500 
 36 H        2.3360    -5.0890    -0.5880 H     1 <1>   0.0800 
 37 H        1.9180    -4.0330     0.7220 H     1 <1>   0.0800 
 38 H       -0.6220    -3.3780     1.0230 H     1 <1>   0.0800 
 39 H       -1.7800    -4.0320    -0.0910 H     1 <1>   0.0800 
 40 H        5.1270    -0.1960     1.9340 H     1 <1>   0.1500 
 41 H        3.1950    -0.9980     2.9970 H     1 <1>   0.0800 
 42 H        2.1720    -1.9730     1.9760 H     1 <1>   0.0800 
 43 H        1.7100    -0.3340     2.3660 H     1 <1>   0.0800 
 44 H        5.1470     0.8680    -2.1810 H     1 <1>   0.1500 
 45 H        0.0260    -5.1480    -1.3430 H     1 <1>   0.0800 
 46 H        6.3200     0.6450    -0.0290 H     1 <1>   0.1500 
 47 H       -2.2040    -6.1680    -1.1900 H     1 <1>   0.0800 
 48 H       -1.1290    -7.4220    -1.7980 H     1 <1>   0.0800 
 49 H       -0.2050    -8.6590     1.4270 H     1 <1>   0.0800 
 50 H       -1.6350    -7.8500     2.0220 H     1 <1>   0.0800 
 51 H       -3.1640    -8.6750    -1.5100 H     1 <1>   0.0800 
 52 H       -2.7460    -9.6290     0.9770 H     1 <1>   0.0800 
 53 H       -3.4600    -7.0810     0.7980 H     1 <1>   0.4000 
 54 H       -0.5020    -9.7270    -1.0640 H     1 <1>   0.0800 
 55 H       -1.9030   -10.7510    -1.0780 H     1 <1>   0.0800 
 56 H       -2.3030   -12.3120     0.9690 H     1 <1>   0.1500 
 57 H        1.4100   -10.3330     0.3420 H     1 <1>   0.1500 
 58 H       -1.1410   -13.8310     2.4700 H     1 <1>   0.1500 
 59 H        2.4200   -11.9300     1.8690 H     1 <1>   0.1500 
@<TRIPOS>BOND
  1   1   2  2   
  2   2   3  am  
  3   2   4  1   
  4   3   5  1   
  5   3   6  1   
  6   4   7  ar  
  7   4   8  ar  
  8   5   9  1   
  9   5  31  1   
 10   5  32  1   
 11   6  10  1   
 12   6  33  1   
 13   6  34  1   
 14   7  11  ar  
 15   7  12  1   
 16   8  13  ar  
 17   8  35  1   
 18   9  14  1   
 19   9  36  1   
 20   9  37  1   
 21  10  14  1   
 22  10  38  1   
 23  10  39  1   
 24  11  15  ar  
 25  11  40  1   
 26  12  41  1   
 27  12  42  1   
 28  12  43  1   
 29  13  15  ar  
 30  13  44  1   
 31  14  16  1   
 32  14  45  1   
 33  15  46  1   
 34  16  17  2   
 35  16  18  am  
 36  18  19  1   
 37  18  20  1   
 38  19  21  1   
 39  19  47  1   
 40  19  48  1   
 41  20  22  1   
 42  20  49  1   
 43  20  50  1   
 44  21  22  1   
 45  21  23  1   
 46  21  51  1   
 47  22  24  1   
 48  22  52  1   
 49  23  53  1   
 50  24  25  1   
 51  24  54  1   
 52  24  55  1   
 53  25  26  ar  
 54  25  27  ar  
 55  26  28  ar  
 56  26  56  1   
 57  27  29  ar  
 58  27  57  1   
 59  28  30  ar  
 60  28  58  1   
 61  29  30  ar  
 62  29  59  1   
@<TRIPOS>SUBSTRUCTURE
  1 ****  16 GROUP 4 **** **** 0

# MOE 2024.06 (io_trps.svl 2023.06)
