@<TRIPOS>MOLECULE
NONAME
50 52 1 0 0 
SMALL
USER_CHARGES


@<TRIPOS>ATOM
  1 O        0.1050     0.9680    -0.9920 O.2   1 <1>  -0.5700 
  2 C       -0.1380     2.1520    -0.9940 C.2   1 <1>   0.5690 
  3 N       -0.7100     2.7890     0.0730 N.am  1 <1>  -0.6600 
  4 C        0.1880     2.9530    -2.2530 C.3   1 <1>   0.1810 
  5 C       -1.0550     4.2490     0.0200 C.3   1 <1>   0.3640 
  6 C       -1.0040     2.0900     1.3570 C.3   1 <1>   0.0600 
  7 O        0.4030     4.3150    -1.9800 O.3   1 <1>  -0.5600 
  8 C       -2.5340     4.4700     0.3830 C.ar  1 <1>  -0.1430 
  9 C       -0.6750     4.9600    -1.3100 C.3   1 <1>   0.2610 
 10 C       -3.6140     3.8180    -0.2230 C.ar  1 <1>  -0.1430 
 11 C       -2.7950     5.3910     1.3920 C.ar  1 <1>  -0.1500 
 12 C       -0.3040     6.4190    -1.0260 C.2   1 <1>   0.5690 
 13 C       -4.9060     4.0970     0.2010 C.ar  1 <1>  -0.1500 
 14 C       -3.4650     2.7900    -1.3390 C.3   1 <1>  -0.0960 
 15 C       -4.0850     5.6620     1.8040 C.ar  1 <1>  -0.1500 
 16 O       -1.1330     7.1690    -0.5650 O.2   1 <1>  -0.5700 
 17 N        0.9690     6.8240    -1.2930 N.am  1 <1>  -0.5790 
 18 C       -5.1450     5.0120     1.2080 C.ar  1 <1>  -0.1500 
 19 C        1.5340     8.1670    -1.1170 C.3   1 <1>   0.0540 
 20 C        2.3510     8.6610    -2.2670 C.3   1 <1>  -0.2000 
 21 C        0.9850     9.2290    -2.0130 C.3   1 <1>  -0.2000 
 22 C        1.9050     8.4210     0.3560 C.3   1 <1>  -0.0650 
 23 C        2.5710     9.7750     0.6560 C.3   1 <1>  -0.1600 
 24 C        2.8860     9.9170     2.1490 C.3   1 <1>  -0.2400 
 25 H       -0.6130     2.8640    -2.9630 H     1 <1>   0.0800 
 26 H        1.0870     2.5630    -2.6950 H     1 <1>   0.0800 
 27 H       -0.4610     4.7150     0.7880 H     1 <1>   0.0800 
 28 H       -0.5560     2.6240     2.1760 H     1 <1>   0.0800 
 29 H       -0.6100     1.0880     1.3440 H     1 <1>   0.0800 
 30 H       -2.0680     2.0380     1.5110 H     1 <1>   0.0800 
 31 H       -1.5190     4.9640    -1.9740 H     1 <1>   0.0800 
 32 H       -1.9880     5.9220     1.8670 H     1 <1>   0.1500 
 33 H       -5.7460     3.6000    -0.2510 H     1 <1>   0.1500 
 34 H       -4.4180     2.5640    -1.7840 H     1 <1>   0.0800 
 35 H       -3.0620     1.8740    -0.9460 H     1 <1>   0.0800 
 36 H       -2.8260     3.1550    -2.1170 H     1 <1>   0.0800 
 37 H       -4.2620     6.3820     2.5840 H     1 <1>   0.1500 
 38 H        1.5940     6.1260    -1.7070 H     1 <1>   0.3700 
 39 H       -6.1520     5.2180     1.5240 H     1 <1>   0.1500 
 40 H        3.1920     9.3100    -2.1060 H     1 <1>   0.1000 
 41 H        2.4840     8.0290    -3.1270 H     1 <1>   0.1000 
 42 H        0.1680     8.9660    -2.6630 H     1 <1>   0.1000 
 43 H        0.9130    10.2430    -1.6650 H     1 <1>   0.1000 
 44 H        1.0030     8.3500     0.9400 H     1 <1>   0.0800 
 45 H        2.5700     7.6380     0.6750 H     1 <1>   0.0800 
 46 H        3.4860     9.8660     0.1000 H     1 <1>   0.0800 
 47 H        1.9160    10.5770     0.3650 H     1 <1>   0.0800 
 48 H        3.5610     9.1420     2.4680 H     1 <1>   0.0800 
 49 H        1.9840     9.8540     2.7320 H     1 <1>   0.0800 
 50 H        3.3480    10.8700     2.3380 H     1 <1>   0.0800 
@<TRIPOS>BOND
  1   1   2  2   
  2   2   3  am  
  3   2   4  1   
  4   3   5  1   
  5   3   6  1   
  6   4   7  1   
  7   4  25  1   
  8   4  26  1   
  9   5   8  1   
 10   5   9  1   
 11   5  27  1   
 12   6  28  1   
 13   6  29  1   
 14   6  30  1   
 15   7   9  1   
 16   8  10  ar  
 17   8  11  ar  
 18   9  12  1   
 19   9  31  1   
 20  10  13  ar  
 21  10  14  1   
 22  11  15  ar  
 23  11  32  1   
 24  12  16  2   
 25  12  17  am  
 26  13  18  ar  
 27  13  33  1   
 28  14  34  1   
 29  14  35  1   
 30  14  36  1   
 31  15  18  ar  
 32  15  37  1   
 33  17  19  1   
 34  17  38  1   
 35  18  39  1   
 36  19  20  1   
 37  19  21  1   
 38  19  22  1   
 39  20  21  1   
 40  20  40  1   
 41  20  41  1   
 42  21  42  1   
 43  21  43  1   
 44  22  23  1   
 45  22  44  1   
 46  22  45  1   
 47  23  24  1   
 48  23  46  1   
 49  23  47  1   
 50  24  48  1   
 51  24  49  1   
 52  24  50  1   
@<TRIPOS>SUBSTRUCTURE
  1 ****   9 GROUP 4 **** **** 0

# MOE 2024.06 (io_trps.svl 2023.06)
