@<TRIPOS>MOLECULE
NONAME
49 51 1 0 0 
SMALL
USER_CHARGES


@<TRIPOS>ATOM
  1 O       -3.5090     1.7090    -2.5280 O.2   1 <1>  -0.5700 
  2 C       -2.4930     1.5640    -1.8740 C.2   1 <1>   0.5440 
  3 N       -1.8610     0.3590    -1.9540 N.am  1 <1>  -0.7300 
  4 C       -1.9760     2.6420    -1.0450 C.ar  1 <1>   0.0860 
  5 C       -2.3440    -0.8420    -2.6690 C.3   1 <1>   0.2200 
  6 C       -1.1690     2.4390     0.0910 C.ar  1 <1>   0.0820 
  7 C       -2.2860     3.9620    -1.3830 C.ar  1 <1>  -0.1500 
  8 C       -3.0130    -1.8230    -1.7140 C.3   1 <1>  -0.0800 
  9 C       -1.1420    -1.6590    -3.1220 C.3   1 <1>   0.1200 
 10 O       -0.8700     1.1670     0.4610 O.3   1 <1>  -0.3630 
 11 C       -0.6980     3.5290     0.8220 C.ar  1 <1>  -0.1500 
 12 C       -1.8190     5.0370    -0.6540 C.ar  1 <1>  -0.1500 
 13 C       -1.8380    -2.6490    -1.1760 C.3   1 <1>   0.1200 
 14 C       -3.8960    -1.2040    -0.6140 C.3   1 <1>  -0.0170 
 15 O       -0.7390    -2.3800    -1.9960 O.3   1 <1>  -0.5600 
 16 C        0.0190     0.8490     1.5070 C.3   1 <1>   0.1200 
 17 C       -1.0190     4.8200     0.4520 C.ar  1 <1>  -0.1500 
 18 C       -4.5590    -2.2850     0.2260 C.ar  1 <1>  -0.1430 
 19 C        0.1430    -0.6730     1.5710 C.3   1 <1>  -0.1600 
 20 C       -5.6780    -2.9610    -0.2150 C.ar  1 <1>  -0.1500 
 21 C       -4.0770    -2.6460     1.4680 C.ar  1 <1>  -0.1500 
 22 C        1.1080    -1.1100     2.6770 C.3   1 <1>  -0.2400 
 23 C       -6.2420    -3.9430     0.5820 C.ar  1 <1>   0.1600 
 24 C       -4.7160    -3.6440     2.1850 C.ar  1 <1>   0.1600 
 25 N       -5.7860    -4.3040     1.7710 N.ar  1 <1>  -0.6200 
 26 H       -1.0980     0.1830    -1.2910 H     1 <1>   0.3700 
 27 H       -2.9800    -0.5600    -3.4910 H     1 <1>   0.0800 
 28 H       -2.9090     4.1440    -2.2430 H     1 <1>   0.1500 
 29 H       -3.6240    -2.4840    -2.3020 H     1 <1>   0.0800 
 30 H       -0.3310    -1.0460    -3.4720 H     1 <1>   0.0800 
 31 H       -1.4260    -2.3660    -3.8820 H     1 <1>   0.0800 
 32 H       -0.0790     3.3970     1.6890 H     1 <1>   0.1500 
 33 H       -2.0770     6.0410    -0.9450 H     1 <1>   0.1500 
 34 H       -2.0470    -3.7040    -1.2060 H     1 <1>   0.0800 
 35 H       -1.5740    -2.3600    -0.1750 H     1 <1>   0.0800 
 36 H       -4.6540    -0.5890    -1.0690 H     1 <1>   0.0800 
 37 H       -3.3090    -0.5690     0.0270 H     1 <1>   0.0800 
 38 H        0.9720     1.3010     1.2940 H     1 <1>   0.0800 
 39 H       -0.3830     1.2370     2.4270 H     1 <1>   0.0800 
 40 H       -0.6520     5.6570     1.0220 H     1 <1>   0.1500 
 41 H       -0.8270    -1.0980     1.7620 H     1 <1>   0.0800 
 42 H        0.5020    -1.0410     0.6240 H     1 <1>   0.0800 
 43 H       -6.1160    -2.7320    -1.1690 H     1 <1>   0.1500 
 44 H       -3.2140    -2.1630     1.8850 H     1 <1>   0.1500 
 45 H        0.7620    -0.7690     3.6380 H     1 <1>   0.0800 
 46 H        2.0910    -0.7100     2.4990 H     1 <1>   0.0800 
 47 H        1.1770    -2.1830     2.7010 H     1 <1>   0.0800 
 48 H       -7.1150    -4.4600     0.2220 H     1 <1>   0.1500 
 49 H       -4.3270    -3.9140     3.1520 H     1 <1>   0.1500 
@<TRIPOS>BOND
  1   1   2  2   
  2   2   3  am  
  3   2   4  1   
  4   3   5  1   
  5   3  26  1   
  6   4   6  ar  
  7   4   7  ar  
  8   5   8  1   
  9   5   9  1   
 10   5  27  1   
 11   6  10  1   
 12   6  11  ar  
 13   7  12  ar  
 14   7  28  1   
 15   8  13  1   
 16   8  14  1   
 17   8  29  1   
 18   9  15  1   
 19   9  30  1   
 20   9  31  1   
 21  10  16  1   
 22  11  17  ar  
 23  11  32  1   
 24  12  17  ar  
 25  12  33  1   
 26  13  15  1   
 27  13  34  1   
 28  13  35  1   
 29  14  18  1   
 30  14  36  1   
 31  14  37  1   
 32  16  19  1   
 33  16  38  1   
 34  16  39  1   
 35  17  40  1   
 36  18  20  ar  
 37  18  21  ar  
 38  19  22  1   
 39  19  41  1   
 40  19  42  1   
 41  20  23  ar  
 42  20  43  1   
 43  21  24  ar  
 44  21  44  1   
 45  22  45  1   
 46  22  46  1   
 47  22  47  1   
 48  23  25  ar  
 49  23  48  1   
 50  24  25  ar  
 51  24  49  1   
@<TRIPOS>SUBSTRUCTURE
  1 ****   3 GROUP 4 **** **** 0

# MOE 2024.06 (io_trps.svl 2023.06)
