@<TRIPOS>MOLECULE
NONAME
50 52 1 0 0 
SMALL
USER_CHARGES


@<TRIPOS>ATOM
  1 O       -1.9770     0.7240     2.2110 O.2   1 <1>  -0.5700 
  2 C       -1.9340     1.2290     1.1040 C.2   1 <1>   0.5440 
  3 N       -2.6440     0.6270     0.0840 N.am  1 <1>  -0.6600 
  4 C       -1.1910     2.4490     0.9150 C.ar  1 <1>   0.0860 
  5 C       -3.3880    -0.6510     0.3050 C.3   1 <1>   0.1400 
  6 C       -2.9550     1.3060    -1.2060 C.3   1 <1>   0.1400 
  7 C       -0.0800     2.5140     0.0530 C.ar  1 <1>   0.4100 
  8 C       -1.5560     3.6010     1.5970 C.ar  1 <1>  -0.1500 
  9 C       -4.8510    -0.4100     0.7140 C.3   1 <1>   0.1400 
 10 C       -4.0820     2.3350    -1.0430 C.3   1 <1>  -0.1600 
 11 N        0.6130     3.6290    -0.1710 N.ar  1 <1>  -0.6200 
 12 N        0.3580     1.3920    -0.6210 N.pl3 1 <1>  -0.8690 
 13 C       -0.8300     4.7480     1.3720 C.ar  1 <1>  -0.1500 
 14 N       -5.5730     0.4990    -0.2400 N.am  1 <1>  -0.6600 
 15 C       -5.2070     1.9340    -0.0800 C.3   1 <1>   0.1400 
 16 C        0.2310     4.7060     0.4850 C.ar  1 <1>   0.1600 
 17 C        1.6520     1.3070    -1.3460 C.3   1 <1>   0.1290 
 18 C       -6.5350     0.1220    -1.1480 C.2   1 <1>   0.5690 
 19 O       -7.0820     0.9350    -1.8570 O.2   1 <1>  -0.5700 
 20 C       -6.9350    -1.3300    -1.3480 C.3   1 <1>   0.1570 
 21 N       -7.6540    -1.8740    -0.1770 N.pl3 1 <1>   0.0480 
 22 C       -7.5370    -3.1060     0.3820 C.2   1 <1>   0.0070 
 23 C       -8.5570    -1.2370     0.5920 C.2   1 <1>  -0.3020 
 24 N       -8.2760    -3.2730     1.4280 N.2   1 <1>  -0.5650 
 25 C       -6.6340    -4.1990    -0.1530 C.3   1 <1>  -0.0600 
 26 C       -8.9220    -2.1010     1.5620 C.2   1 <1>   0.0770 
 27 H       -2.9020    -1.2230     1.0770 H     1 <1>   0.0800 
 28 H       -3.3590    -1.2420    -0.5930 H     1 <1>   0.0800 
 29 H       -3.2620     0.5670    -1.9260 H     1 <1>   0.0800 
 30 H       -2.0790     1.7880    -1.6030 H     1 <1>   0.0800 
 31 H       -2.3840     3.5850     2.2840 H     1 <1>   0.1500 
 32 H       -4.8630     0.0270     1.6980 H     1 <1>   0.0800 
 33 H       -5.3460    -1.3580     0.7950 H     1 <1>   0.0800 
 34 H       -4.5110     2.5230    -2.0110 H     1 <1>   0.0800 
 35 H       -3.6620     3.2650    -0.7070 H     1 <1>   0.0800 
 36 H       -0.0470     0.4950    -0.3330 H     1 <1>   0.4000 
 37 H       -1.0770     5.6650     1.8760 H     1 <1>   0.1500 
 38 H       -6.0700     2.5540    -0.2550 H     1 <1>   0.0800 
 39 H       -4.8870     2.1080     0.9340 H     1 <1>   0.0800 
 40 H        0.7930     5.6080     0.3100 H     1 <1>   0.1500 
 41 H        1.7720     2.1640    -1.9870 H     1 <1>   0.0800 
 42 H        1.6770     0.4170    -1.9490 H     1 <1>   0.0800 
 43 H        2.4630     1.2840    -0.6390 H     1 <1>   0.0800 
 44 H       -6.0540    -1.9100    -1.5350 H     1 <1>   0.0800 
 45 H       -7.5800    -1.4010    -2.2030 H     1 <1>   0.0800 
 46 H       -8.8850    -0.2280     0.4150 H     1 <1>   0.1500 
 47 H       -6.8840    -4.4210    -1.1740 H     1 <1>   0.0800 
 48 H       -6.7650    -5.0930     0.4310 H     1 <1>   0.0800 
 49 H       -5.6050    -3.8990    -0.0890 H     1 <1>   0.0800 
 50 H       -9.6260    -1.9400     2.3610 H     1 <1>   0.1500 
@<TRIPOS>BOND
  1   1   2  2   
  2   2   3  am  
  3   2   4  1   
  4   3   5  1   
  5   3   6  1   
  6   4   7  ar  
  7   4   8  ar  
  8   5   9  1   
  9   5  27  1   
 10   5  28  1   
 11   6  10  1   
 12   6  29  1   
 13   6  30  1   
 14   7  11  ar  
 15   7  12  1   
 16   8  13  ar  
 17   8  31  1   
 18   9  14  1   
 19   9  32  1   
 20   9  33  1   
 21  10  15  1   
 22  10  34  1   
 23  10  35  1   
 24  11  16  ar  
 25  12  17  1   
 26  12  36  1   
 27  13  16  ar  
 28  13  37  1   
 29  14  15  1   
 30  14  18  am  
 31  15  38  1   
 32  15  39  1   
 33  16  40  1   
 34  17  41  1   
 35  17  42  1   
 36  17  43  1   
 37  18  19  2   
 38  18  20  1   
 39  20  21  1   
 40  20  44  1   
 41  20  45  1   
 42  21  22  1   
 43  21  23  1   
 44  22  24  2   
 45  22  25  1   
 46  23  26  2   
 47  23  46  1   
 48  24  26  1   
 49  25  47  1   
 50  25  48  1   
 51  25  49  1   
 52  26  50  1   
@<TRIPOS>SUBSTRUCTURE
  1 ****   3 GROUP 4 **** **** 0

# MOE 2024.06 (io_trps.svl 2023.06)
