@<TRIPOS>MOLECULE
NONAME
44 45 1 0 0 
SMALL
USER_CHARGES


@<TRIPOS>ATOM
  1 S       -0.4750     0.3390    -0.7100 S.o2  1 <1>   1.3330 
  2 O       -0.3830     1.2130    -1.8570 O.2   1 <1>  -0.6500 
  3 O       -1.2630    -0.8700    -0.7950 O.2   1 <1>  -0.6500 
  4 N        1.1010    -0.1240    -0.2740 N.am  1 <1>  -0.8490 
  5 C       -1.0280     1.2890     0.7150 C.3   1 <1>  -0.0550 
  6 C        1.9840    -0.2710    -1.4360 C.3   1 <1>   0.1160 
  7 C        1.1510    -1.3390     0.5460 C.3   1 <1>   0.1160 
  8 C       -0.4760     2.7230     0.8800 C.3   1 <1>  -0.0800 
  9 C       -1.0840     3.7480    -0.0800 C.3   1 <1>   0.2000 
 10 C        1.0320     2.9190     0.7260 C.3   1 <1>   0.1400 
 11 O       -2.3030     4.1760     0.4270 O.3   1 <1>  -0.6800 
 12 C       -0.0720     4.8980    -0.1510 C.3   1 <1>   0.1400 
 13 N        1.1740     4.3650     0.4560 N.am  1 <1>  -0.6600 
 14 C        2.3230     5.0890     0.7330 C.2   1 <1>   0.7160 
 15 O        3.2470     4.4750     1.2460 O.2   1 <1>  -0.5700 
 16 C        2.4780     6.5180     0.4500 C.2   1 <1>   0.2030 
 17 N        1.5950     7.3490    -0.0850 N.2   1 <1>  -0.7070 
 18 C        3.6590     7.2190     0.7340 C.2   1 <1>  -0.1500 
 19 N        2.1970     8.5420    -0.1420 N.pl3 1 <1>   0.3140 
 20 C        3.4510     8.4920     0.3500 C.2   1 <1>  -0.3320 
 21 C        1.5110     9.7180    -0.6900 C.3   1 <1>   0.0160 
 22 C        4.4050     9.6720     0.4330 C.3   1 <1>  -0.0600 
 23 H       -2.0980     1.3600     0.6740 H     1 <1>   0.0800 
 24 H       -0.7910     0.7330     1.6000 H     1 <1>   0.0800 
 25 H        2.9750    -0.5510    -1.1200 H     1 <1>   0.0800 
 26 H        2.0540     0.6630    -1.9690 H     1 <1>   0.0800 
 27 H        1.5990    -1.0230    -2.1060 H     1 <1>   0.0800 
 28 H        2.1610    -1.5240     0.8730 H     1 <1>   0.0800 
 29 H        0.8050    -2.1900    -0.0180 H     1 <1>   0.0800 
 30 H        0.5280    -1.2270     1.4170 H     1 <1>   0.0800 
 31 H       -0.7080     3.0370     1.8830 H     1 <1>   0.0800 
 32 H       -1.2510     3.3470    -1.0640 H     1 <1>   0.0800 
 33 H        1.4250     2.3880    -0.1220 H     1 <1>   0.0800 
 34 H        1.5680     2.6280     1.6140 H     1 <1>   0.0800 
 35 H       -2.1650     4.6770     1.2540 H     1 <1>   0.4000 
 36 H       -0.4130     5.7520     0.4080 H     1 <1>   0.0800 
 37 H        0.1120     5.1790    -1.1740 H     1 <1>   0.0800 
 38 H        4.5380     6.7820     1.1750 H     1 <1>   0.1500 
 39 H        2.0640    10.0870    -1.5320 H     1 <1>   0.0800 
 40 H        1.4470    10.4740     0.0700 H     1 <1>   0.0800 
 41 H        0.5220     9.4360    -1.0020 H     1 <1>   0.0800 
 42 H        5.3400     9.3610     0.8650 H     1 <1>   0.0800 
 43 H        3.9870    10.4480     1.0480 H     1 <1>   0.0800 
 44 H        4.5990    10.0650    -0.5490 H     1 <1>   0.0800 
@<TRIPOS>BOND
  1   1   2  2   
  2   1   3  2   
  3   1   4  am  
  4   1   5  1   
  5   4   6  1   
  6   4   7  1   
  7   5   8  1   
  8   5  23  1   
  9   5  24  1   
 10   6  25  1   
 11   6  26  1   
 12   6  27  1   
 13   7  28  1   
 14   7  29  1   
 15   7  30  1   
 16   8   9  1   
 17   8  10  1   
 18   8  31  1   
 19   9  11  1   
 20   9  12  1   
 21   9  32  1   
 22  10  13  1   
 23  10  33  1   
 24  10  34  1   
 25  11  35  1   
 26  12  13  1   
 27  12  36  1   
 28  12  37  1   
 29  13  14  am  
 30  14  15  2   
 31  14  16  1   
 32  16  17  2   
 33  16  18  1   
 34  17  19  1   
 35  18  20  2   
 36  18  38  1   
 37  19  20  1   
 38  19  21  1   
 39  20  22  1   
 40  21  39  1   
 41  21  40  1   
 42  21  41  1   
 43  22  42  1   
 44  22  43  1   
 45  22  44  1   
@<TRIPOS>SUBSTRUCTURE
  1 ****  13 GROUP 4 **** **** 0

# MOE 2024.06 (io_trps.svl 2023.06)
