@<TRIPOS>MOLECULE
NONAME
46 48 1 0 0 
SMALL
USER_CHARGES


@<TRIPOS>ATOM
  1 CL      -0.7750    -0.0510     1.7340 Cl    1 <1>  -0.1770 
  2 C       -2.1290    -1.0070     1.1810 C.ar  1 <1>   0.1770 
  3 C       -2.1800    -1.4120    -0.1400 C.ar  1 <1>  -0.1500 
  4 C       -3.1300    -1.3460     2.0730 C.ar  1 <1>  -0.1500 
  5 C       -3.2530    -2.1700    -0.5740 C.ar  1 <1>  -0.1500 
  6 C       -4.1990    -2.1030     1.6290 C.ar  1 <1>  -0.1500 
  7 C       -4.2760    -2.5220     0.3040 C.ar  1 <1>   0.1000 
  8 N       -5.3650    -3.2850    -0.1090 N.pl3 1 <1>  -0.8380 
  9 C       -5.4150    -4.6980     0.3350 C.3   1 <1>   0.2090 
 10 C       -6.0180    -2.9810    -1.4000 C.3   1 <1>   0.2090 
 11 C       -6.8790    -5.1030     0.4630 C.3   1 <1>  -0.1600 
 12 C       -7.4910    -3.3620    -1.2840 C.3   1 <1>  -0.1600 
 13 C       -7.6210    -4.8260    -0.8540 C.3   1 <1>   0.4230 
 14 N       -9.0640    -5.2050    -0.8030 N.4   1 <1>  -0.9590 
 15 C       -9.2000    -6.7090    -0.8830 C.3   1 <1>   0.3430 
 16 C       -9.7760    -4.6500     0.3940 C.3   1 <1>   0.3430 
 17 C      -10.4610    -7.2500    -0.2100 C.3   1 <1>  -0.1860 
 18 C      -11.2820    -4.8890     0.2650 C.3   1 <1>  -0.1600 
 19 C      -10.1580    -7.5410     1.2420 C.2   1 <1>   0.9060 
 20 C      -11.6040    -6.2470    -0.3740 C.3   1 <1>   0.2000 
 21 O       -8.9970    -7.4130     1.6390 O.co2 1 <1>  -0.9000 
 22 O      -11.0950    -7.8090     1.9940 O.co2 1 <1>  -0.9000 
 23 O      -12.7300    -6.7560     0.2200 O.3   1 <1>  -0.6800 
 24 H       -1.3880    -1.1370    -0.8130 H     1 <1>   0.1500 
 25 H       -3.0700    -1.0200     3.0950 H     1 <1>   0.1500 
 26 H       -3.2950    -2.4960    -1.5960 H     1 <1>   0.1500 
 27 H       -4.9890    -2.3730     2.3050 H     1 <1>   0.1500 
 28 H       -4.9090    -5.3200    -0.3840 H     1 <1>   0.0800 
 29 H       -4.9190    -4.8060     1.2860 H     1 <1>   0.0800 
 30 H       -5.9240    -1.9290    -1.6150 H     1 <1>   0.0800 
 31 H       -5.5390    -3.5390    -2.1870 H     1 <1>   0.0800 
 32 H       -7.2980    -4.5420     1.2780 H     1 <1>   0.0800 
 33 H       -6.9210    -6.1460     0.7160 H     1 <1>   0.0800 
 34 H       -7.9620    -3.2090    -2.2370 H     1 <1>   0.0800 
 35 H       -7.9450    -2.7090    -0.5610 H     1 <1>   0.0800 
 36 H       -7.1460    -5.4210    -1.6180 H     1 <1>   0.0800 
 37 H       -9.5260    -4.8120    -1.6270 H     1 <1>   0.4500 
 38 H       -9.2120    -7.0000    -1.9200 H     1 <1>   0.0800 
 39 H       -8.3430    -7.1830    -0.4320 H     1 <1>   0.0800 
 40 H       -9.4150    -5.1450     1.2830 H     1 <1>   0.0800 
 41 H       -9.5840    -3.5950     0.5020 H     1 <1>   0.0800 
 42 H      -10.7250    -8.1840    -0.6690 H     1 <1>   0.0800 
 43 H      -11.7260    -4.1060    -0.3210 H     1 <1>   0.0800 
 44 H      -11.7010    -4.8380     1.2550 H     1 <1>   0.0800 
 45 H      -11.8310    -6.1160    -1.4190 H     1 <1>   0.0800 
 46 H      -12.4330    -7.2130     1.0640 H     1 <1>   0.4000 
@<TRIPOS>BOND
  1   1   2  1   
  2   2   3  ar  
  3   2   4  ar  
  4   3   5  ar  
  5   3  24  1   
  6   4   6  ar  
  7   4  25  1   
  8   5   7  ar  
  9   5  26  1   
 10   6   7  ar  
 11   6  27  1   
 12   7   8  1   
 13   8   9  1   
 14   8  10  1   
 15   9  11  1   
 16   9  28  1   
 17   9  29  1   
 18  10  12  1   
 19  10  30  1   
 20  10  31  1   
 21  11  13  1   
 22  11  32  1   
 23  11  33  1   
 24  12  13  1   
 25  12  34  1   
 26  12  35  1   
 27  13  14  1   
 28  13  36  1   
 29  14  15  1   
 30  14  16  1   
 31  14  37  1   
 32  15  17  1   
 33  15  38  1   
 34  15  39  1   
 35  16  18  1   
 36  16  40  1   
 37  16  41  1   
 38  17  19  1   
 39  17  20  1   
 40  17  42  1   
 41  18  20  1   
 42  18  43  1   
 43  18  44  1   
 44  19  21  ar  
 45  19  22  ar  
 46  20  23  1   
 47  20  45  1   
 48  23  46  1   
@<TRIPOS>SUBSTRUCTURE
  1 ****  11 GROUP 4 **** **** 0

# MOE 2024.06 (io_trps.svl 2023.06)
