@<TRIPOS>MOLECULE
NONAME
41 43 1 0 0 
SMALL
USER_CHARGES


@<TRIPOS>ATOM
  1 S        0.0450    -0.0780     1.3690 S.3   1 <1>  -0.0800 
  2 C        1.1720    -0.9390     0.3390 C.2   1 <1>  -0.0450 
  3 C        0.7570     1.4360     0.8800 C.2   1 <1>   0.1980 
  4 C        1.9610    -0.0040    -0.2440 C.2   1 <1>   0.0460 
  5 C        1.1380    -2.3790     0.2800 C.2   1 <1>   0.7150 
  6 N        1.7150     1.3190     0.0570 N.2   1 <1>  -0.5650 
  7 C        0.1810     2.7030     1.4670 C.3   1 <1>  -0.0600 
  8 C        3.1020    -0.2580    -1.2090 C.3   1 <1>  -0.0590 
  9 O        2.1810    -3.0050     0.2300 O.2   1 <1>  -0.5700 
 10 N       -0.0420    -3.0910     0.2510 N.am  1 <1>  -0.6600 
 11 C       -1.3450    -2.5470    -0.2110 C.3   1 <1>   0.1400 
 12 C       -0.0650    -4.5750     0.2360 C.3   1 <1>   0.1400 
 13 C       -2.0870    -3.7520    -0.7850 C.3   1 <1>   0.2000 
 14 C       -1.5200    -4.9600    -0.0440 C.3   1 <1>  -0.0800 
 15 O       -3.4540    -3.6600    -0.5780 O.3   1 <1>  -0.6800 
 16 C       -1.6700    -6.2720    -0.8280 C.3   1 <1>   0.0200 
 17 C       -1.0130    -7.4230    -0.0910 C.2   1 <1>  -0.0400 
 18 O       -1.4410    -7.7690     1.0940 O.3   1 <1>  -0.0190 
 19 C        0.0060    -8.2320    -0.4150 C.2   1 <1>  -0.1500 
 20 N       -0.7590    -8.7630     1.5830 N.2   1 <1>  -0.4100 
 21 C        0.1200    -9.0650     0.6950 C.2   1 <1>   0.1080 
 22 C        1.1350   -10.1750     0.8460 C.3   1 <1>  -0.0590 
 23 H        0.7120     3.5540     1.0800 H     1 <1>   0.0800 
 24 H        0.2770     2.6860     2.5360 H     1 <1>   0.0800 
 25 H       -0.8570     2.7890     1.2030 H     1 <1>   0.0800 
 26 H        3.2060    -1.3040    -1.4260 H     1 <1>   0.0800 
 27 H        4.0190     0.0990    -0.7790 H     1 <1>   0.0800 
 28 H        2.9220     0.2700    -2.1270 H     1 <1>   0.0800 
 29 H       -1.8770    -2.1430     0.6320 H     1 <1>   0.0800 
 30 H       -1.2020    -1.7890    -0.9630 H     1 <1>   0.0800 
 31 H        0.5850    -4.9300    -0.5470 H     1 <1>   0.0800 
 32 H        0.2720    -4.9700     1.1800 H     1 <1>   0.0800 
 33 H       -1.9070    -3.8190    -1.8440 H     1 <1>   0.0800 
 34 H       -2.0090    -5.0570     0.9100 H     1 <1>   0.0800 
 35 H       -3.6590    -3.6740     0.3770 H     1 <1>   0.4000 
 36 H       -1.2210    -6.1730    -1.8010 H     1 <1>   0.0800 
 37 H       -2.7140    -6.4930    -0.9640 H     1 <1>   0.0800 
 38 H        0.6130    -8.2610    -1.3010 H     1 <1>   0.1500 
 39 H        1.0180   -10.8880     0.0510 H     1 <1>   0.0800 
 40 H        0.9940   -10.6760     1.7870 H     1 <1>   0.0800 
 41 H        2.1290    -9.7670     0.8150 H     1 <1>   0.0800 
@<TRIPOS>BOND
  1   1   2  1   
  2   1   3  1   
  3   2   4  2   
  4   2   5  1   
  5   3   6  2   
  6   3   7  1   
  7   4   6  1   
  8   4   8  1   
  9   5   9  2   
 10   5  10  am  
 11   7  23  1   
 12   7  24  1   
 13   7  25  1   
 14   8  26  1   
 15   8  27  1   
 16   8  28  1   
 17  10  11  1   
 18  10  12  1   
 19  11  13  1   
 20  11  29  1   
 21  11  30  1   
 22  12  14  1   
 23  12  31  1   
 24  12  32  1   
 25  13  14  1   
 26  13  15  1   
 27  13  33  1   
 28  14  16  1   
 29  14  34  1   
 30  15  35  1   
 31  16  17  1   
 32  16  36  1   
 33  16  37  1   
 34  17  18  1   
 35  17  19  2   
 36  18  20  1   
 37  19  21  1   
 38  19  38  1   
 39  20  21  2   
 40  21  22  1   
 41  22  39  1   
 42  22  40  1   
 43  22  41  1   
@<TRIPOS>SUBSTRUCTURE
  1 ****  10 GROUP 4 **** **** 0

# MOE 2024.06 (io_trps.svl 2023.06)
