@<TRIPOS>MOLECULE
NONAME
57 60 1 0 0 
SMALL
USER_CHARGES


@<TRIPOS>ATOM
  1 O       -3.6150     2.1920    -1.9180 O.2   1 <1>  -0.5700 
  2 C       -3.4290     1.5070    -0.9330 C.2   1 <1>   0.5690 
  3 N       -4.1030     0.3060    -0.8530 N.am  1 <1>  -0.6600 
  4 C       -2.4680     2.0400     0.2070 C.3   1 <1>   0.3310 
  5 C       -5.0730    -0.1170    -1.8980 C.3   1 <1>   0.1400 
  6 C       -3.8680    -0.8090     0.0930 C.3   1 <1>   0.1400 
  7 N       -1.1710     1.2760     0.3540 N.3   1 <1>  -0.8100 
  8 C       -1.9730     3.4850    -0.1180 C.3   1 <1>  -0.1600 
  9 C       -3.2890     2.0890     1.5360 C.3   1 <1>  -0.1600 
 10 C       -5.7100    -1.3930    -1.3490 C.3   1 <1>   0.2000 
 11 C       -4.6120    -2.0210    -0.4900 C.3   1 <1>  -0.0800 
 12 C       -0.8350     0.4800     1.5550 C.3   1 <1>   0.1100 
 13 C       -0.6670     0.6490    -0.8870 C.3   1 <1>   0.1100 
 14 C       -2.9610     4.5820     0.3070 C.3   1 <1>  -0.1600 
 15 C       -2.8890     3.2290     2.4870 C.3   1 <1>  -0.1600 
 16 O       -6.7550    -1.0390    -0.5110 O.3   1 <1>  -0.6800 
 17 C       -3.7040    -2.9290    -1.3480 C.3   1 <1>  -0.0160 
 18 C        0.6580     0.1120     1.5720 C.3   1 <1>   0.1200 
 19 C        0.8130     0.2480    -0.7550 C.3   1 <1>   0.1200 
 20 C       -3.1490     4.5980     1.8350 C.3   1 <1>  -0.1600 
 21 C       -2.4680    -3.3880    -0.5920 C.ar  1 <1>   0.1670 
 22 O        1.0300    -0.5330     0.3890 O.3   1 <1>  -0.5600 
 23 N       -1.3200    -2.8690    -0.9930 N.ar  1 <1>  -0.6200 
 24 C       -2.5780    -4.2790     0.4740 C.ar  1 <1>   0.1600 
 25 C       -0.3030    -3.2750    -0.2520 C.ar  1 <1>   0.1600 
 26 N       -1.5630    -4.6890     1.2160 N.ar  1 <1>  -0.6200 
 27 C       -0.4210    -4.1530     0.8170 C.ar  1 <1>   0.1600 
 28 H       -5.8030     0.6500    -2.0930 H     1 <1>   0.0800 
 29 H       -4.5330    -0.3280    -2.8040 H     1 <1>   0.0800 
 30 H       -2.8190    -0.9940     0.2060 H     1 <1>   0.0800 
 31 H       -4.2910    -0.5570     1.0490 H     1 <1>   0.0800 
 32 H       -1.0490     3.6720     0.4010 H     1 <1>   0.0800 
 33 H       -1.7570     3.5800    -1.1670 H     1 <1>   0.0800 
 34 H       -4.3220     2.2550     1.2830 H     1 <1>   0.0800 
 35 H       -3.2640     1.1510     2.0520 H     1 <1>   0.0800 
 36 H       -6.0960    -2.0430    -2.1150 H     1 <1>   0.0800 
 37 H       -5.0370    -2.6160     0.3000 H     1 <1>   0.0800 
 38 H       -1.0390     1.0470     2.4430 H     1 <1>   0.0800 
 39 H       -1.4140    -0.4230     1.5880 H     1 <1>   0.0800 
 40 H       -1.2450    -0.2250    -1.1240 H     1 <1>   0.0800 
 41 H       -0.7630     1.3390    -1.7080 H     1 <1>   0.0800 
 42 H       -2.6080     5.5430    -0.0240 H     1 <1>   0.0800 
 43 H       -3.9080     4.4020    -0.1740 H     1 <1>   0.0800 
 44 H       -3.4400     3.1580     3.4080 H     1 <1>   0.0800 
 45 H       -1.8420     3.1430     2.7240 H     1 <1>   0.0800 
 46 H       -6.4850    -0.2600     0.0160 H     1 <1>   0.4000 
 47 H       -3.3890    -2.4020    -2.2320 H     1 <1>   0.0800 
 48 H       -4.2570    -3.7930    -1.6690 H     1 <1>   0.0800 
 49 H        0.8670    -0.5550     2.3890 H     1 <1>   0.0800 
 50 H        1.2600     0.9970     1.6840 H     1 <1>   0.0800 
 51 H        1.4320     1.1260    -0.6930 H     1 <1>   0.0800 
 52 H        1.1150    -0.3290    -1.6100 H     1 <1>   0.0800 
 53 H       -4.1530     4.9190     2.0530 H     1 <1>   0.0800 
 54 H       -2.4780     5.3180     2.2710 H     1 <1>   0.0800 
 55 H       -3.5500    -4.6640     0.7290 H     1 <1>   0.1500 
 56 H        0.6720    -2.8900    -0.4990 H     1 <1>   0.1500 
 57 H        0.4680    -4.4200     1.3620 H     1 <1>   0.1500 
@<TRIPOS>BOND
  1   1   2  2   
  2   2   3  am  
  3   2   4  1   
  4   3   5  1   
  5   3   6  1   
  6   4   7  1   
  7   4   8  1   
  8   4   9  1   
  9   5  10  1   
 10   5  28  1   
 11   5  29  1   
 12   6  11  1   
 13   6  30  1   
 14   6  31  1   
 15   7  12  1   
 16   7  13  1   
 17   8  14  1   
 18   8  32  1   
 19   8  33  1   
 20   9  15  1   
 21   9  34  1   
 22   9  35  1   
 23  10  11  1   
 24  10  16  1   
 25  10  36  1   
 26  11  17  1   
 27  11  37  1   
 28  12  18  1   
 29  12  38  1   
 30  12  39  1   
 31  13  19  1   
 32  13  40  1   
 33  13  41  1   
 34  14  20  1   
 35  14  42  1   
 36  14  43  1   
 37  15  20  1   
 38  15  44  1   
 39  15  45  1   
 40  16  46  1   
 41  17  21  1   
 42  17  47  1   
 43  17  48  1   
 44  18  22  1   
 45  18  49  1   
 46  18  50  1   
 47  19  22  1   
 48  19  51  1   
 49  19  52  1   
 50  20  53  1   
 51  20  54  1   
 52  21  23  ar  
 53  21  24  ar  
 54  23  25  ar  
 55  24  26  ar  
 56  24  55  1   
 57  25  27  ar  
 58  25  56  1   
 59  26  27  ar  
 60  27  57  1   
@<TRIPOS>SUBSTRUCTURE
  1 ****   6 GROUP 4 **** **** 0

# MOE 2024.06 (io_trps.svl 2023.06)
