@<TRIPOS>MOLECULE
NONAME
58 60 1 0 0 
SMALL
USER_CHARGES


@<TRIPOS>ATOM
  1 O       -0.4330    -0.2780    -0.1290 O.2   1 <1>  -0.5700 
  2 C       -1.2120     0.6440    -0.0690 C.2   1 <1>   0.5690 
  3 N       -2.5430     0.4590    -0.3400 N.am  1 <1>  -0.6600 
  4 C       -0.6870     2.0030     0.3480 C.3   1 <1>  -0.0990 
  5 C       -3.0200    -0.8320    -0.8860 C.3   1 <1>   0.1400 
  6 C       -3.6120     1.2250     0.3660 C.3   1 <1>   0.1400 
  7 C       -0.6060     2.9540    -0.8480 C.3   1 <1>   0.0210 
  8 C       -3.9250    -1.4000     0.2230 C.3   1 <1>   0.4230 
  9 C       -5.0280     0.5880     0.1690 C.3   1 <1>  -0.1600 
 10 C       -0.1740     4.3300    -0.3760 C.2   1 <1>  -0.1810 
 11 N       -3.4410    -2.7290     0.7410 N.4   1 <1>  -0.9590 
 12 C       -5.4320    -0.9800    -0.0770 C.3   1 <1>   0.0000 
 13 C       -1.0060     5.3840    -0.0080 C.2   1 <1>   0.1080 
 14 C        1.0790     4.8060    -0.2050 C.2   1 <1>  -0.3320 
 15 C       -3.7540    -3.7970    -0.1890 C.3   1 <1>   0.3430 
 16 C       -1.9900    -2.7140     1.1330 C.3   1 <1>   0.2630 
 17 C       -5.9250    -2.4910    -0.4020 C.3   1 <1>  -0.1600 
 18 C       -6.9490    -0.4850    -0.3120 C.3   1 <1>   0.1200 
 19 N       -0.3380     6.4270     0.3640 N.2   1 <1>  -0.7070 
 20 C       -2.5170     5.3750    -0.0190 C.3   1 <1>  -0.0590 
 21 N        0.9510     6.0760     0.2400 N.pl3 1 <1>   0.3140 
 22 C        2.4160     4.1190    -0.4360 C.3   1 <1>  -0.0600 
 23 C       -5.2490    -3.8470    -0.1000 C.3   1 <1>  -0.1600 
 24 O       -7.6120    -0.5370     0.9130 O.3   1 <1>  -0.6800 
 25 C        2.0260     7.0170     0.5730 C.3   1 <1>   0.0160 
 26 H       -1.3070     2.4270     1.1130 H     1 <1>   0.0800 
 27 H        0.2980     1.8840     0.7640 H     1 <1>   0.0800 
 28 H       -3.5840    -0.6480    -1.7840 H     1 <1>   0.0800 
 29 H       -2.2050    -1.4820    -1.1420 H     1 <1>   0.0800 
 30 H       -3.3810     1.2480     1.4190 H     1 <1>   0.0800 
 31 H       -3.6170     2.2440     0.0140 H     1 <1>   0.0800 
 32 H       -1.5590     3.0240    -1.3400 H     1 <1>   0.0800 
 33 H        0.1020     2.5770    -1.5650 H     1 <1>   0.0800 
 34 H       -3.6950    -0.8190     1.0960 H     1 <1>   0.0800 
 35 H       -5.6090     0.9940     0.9840 H     1 <1>   0.0800 
 36 H       -5.3020     1.1350    -0.7190 H     1 <1>   0.0800 
 37 H       -3.9950    -2.9090     1.5900 H     1 <1>   0.4500 
 38 H       -3.4220    -3.5600    -1.1870 H     1 <1>   0.0800 
 39 H       -3.3240    -4.7330     0.1300 H     1 <1>   0.0800 
 40 H       -1.3580    -2.5980     0.2670 H     1 <1>   0.0800 
 41 H       -1.7240    -3.6350     1.6270 H     1 <1>   0.0800 
 42 H       -1.7900    -1.8940     1.8030 H     1 <1>   0.0800 
 43 H       -6.8970    -2.7030     0.0220 H     1 <1>   0.0800 
 44 H       -6.0540    -2.5150    -1.4740 H     1 <1>   0.0800 
 45 H       -7.5280    -1.0650    -1.0160 H     1 <1>   0.0800 
 46 H       -7.1120     0.5120    -0.6860 H     1 <1>   0.0800 
 47 H       -2.8810     4.6490     0.6820 H     1 <1>   0.0800 
 48 H       -2.8740     5.1420    -1.0050 H     1 <1>   0.0800 
 49 H       -2.8870     6.3450     0.2620 H     1 <1>   0.0800 
 50 H        2.2740     3.1030    -0.7550 H     1 <1>   0.0800 
 51 H        2.9900     4.1100     0.4730 H     1 <1>   0.0800 
 52 H        2.9720     4.6390    -1.1960 H     1 <1>   0.0800 
 53 H       -5.6150    -4.5900    -0.7890 H     1 <1>   0.0800 
 54 H       -5.5290    -4.1800     0.8860 H     1 <1>   0.0800 
 55 H       -8.5520    -0.2770     0.8200 H     1 <1>   0.4000 
 56 H        2.6410     7.1690    -0.2930 H     1 <1>   0.0800 
 57 H        2.6110     6.6120     1.3770 H     1 <1>   0.0800 
 58 H        1.5930     7.9510     0.8770 H     1 <1>   0.0800 
@<TRIPOS>BOND
  1   1   2  2   
  2   2   3  am  
  3   2   4  1   
  4   3   5  1   
  5   3   6  1   
  6   4   7  1   
  7   4  26  1   
  8   4  27  1   
  9   5   8  1   
 10   5  28  1   
 11   5  29  1   
 12   6   9  1   
 13   6  30  1   
 14   6  31  1   
 15   7  10  1   
 16   7  32  1   
 17   7  33  1   
 18   8  11  1   
 19   8  12  1   
 20   8  34  1   
 21   9  12  1   
 22   9  35  1   
 23   9  36  1   
 24  10  13  1   
 25  10  14  2   
 26  11  15  1   
 27  11  16  1   
 28  11  37  1   
 29  12  17  1   
 30  12  18  1   
 31  13  19  2   
 32  13  20  1   
 33  14  21  1   
 34  14  22  1   
 35  15  23  1   
 36  15  38  1   
 37  15  39  1   
 38  16  40  1   
 39  16  41  1   
 40  16  42  1   
 41  17  23  1   
 42  17  43  1   
 43  17  44  1   
 44  18  24  1   
 45  18  45  1   
 46  18  46  1   
 47  19  21  1   
 48  20  47  1   
 49  20  48  1   
 50  20  49  1   
 51  21  25  1   
 52  22  50  1   
 53  22  51  1   
 54  22  52  1   
 55  23  53  1   
 56  23  54  1   
 57  24  55  1   
 58  25  56  1   
 59  25  57  1   
 60  25  58  1   
@<TRIPOS>SUBSTRUCTURE
  1 ****   3 GROUP 4 **** **** 0

# MOE 2024.06 (io_trps.svl 2023.06)
