@<TRIPOS>MOLECULE
NONAME
51 53 1 0 0 
SMALL
USER_CHARGES


@<TRIPOS>ATOM
  1 O       -3.6490     1.9420    -1.9240 O.2   1 <1>  -0.5700 
  2 C       -2.9150     1.9600    -0.9630 C.2   1 <1>   0.5690 
  3 N       -2.6720     0.8200    -0.2330 N.am  1 <1>  -0.6600 
  4 C       -2.2870     3.3030    -0.6060 C.3   1 <1>   0.0440 
  5 C       -3.2620    -0.4780    -0.6810 C.3   1 <1>   0.1400 
  6 C       -1.8110     0.7640     0.9860 C.3   1 <1>   0.1400 
  7 C       -0.7610     3.2970    -0.6650 C.ar  1 <1>  -0.1440 
  8 C       -4.6500    -0.7000    -0.0620 C.3   1 <1>   0.1400 
  9 C       -2.4050    -0.0850     2.1200 C.3   1 <1>  -0.1600 
 10 C        0.0120     3.8750     0.3220 C.ar  1 <1>  -0.1500 
 11 C       -0.0750     2.7130    -1.7120 C.ar  1 <1>  -0.1500 
 12 N       -4.5800    -1.0240     1.4000 N.am  1 <1>  -0.6600 
 13 C       -3.9290     0.0120     2.2520 C.3   1 <1>   0.1400 
 14 C        1.3930     3.8330     0.2230 C.ar  1 <1>   0.1600 
 15 C        1.3100     2.7240    -1.7140 C.ar  1 <1>   0.1600 
 16 C       -5.1330    -2.1470     1.9770 C.2   1 <1>   0.5690 
 17 N        2.0600     3.2670    -0.7690 N.ar  1 <1>  -0.6200 
 18 O       -5.0130    -2.3700     3.1600 O.2   1 <1>  -0.5700 
 19 C       -5.9090    -3.1810     1.1660 C.3   1 <1>   0.0440 
 20 C       -7.1760    -2.6310     0.5130 C.ar  1 <1>  -0.1440 
 21 C       -7.4800    -2.9470    -0.8020 C.ar  1 <1>  -0.1500 
 22 C       -8.0350    -1.8090     1.2260 C.ar  1 <1>  -0.1500 
 23 C       -8.6200    -2.4370    -1.3990 C.ar  1 <1>  -0.1500 
 24 C       -9.1740    -1.3000     0.6280 C.ar  1 <1>  -0.1500 
 25 C       -9.4730    -1.6110    -0.6880 C.ar  1 <1>  -0.1440 
 26 C      -10.7210    -1.0480    -1.3440 C.3   1 <1>  -0.0970 
 27 H       -2.6260     3.5880     0.3720 H     1 <1>   0.0800 
 28 H       -2.6490     4.0430    -1.2960 H     1 <1>   0.0800 
 29 H       -2.6100    -1.2950    -0.4290 H     1 <1>   0.0800 
 30 H       -3.3640    -0.4680    -1.7520 H     1 <1>   0.0800 
 31 H       -1.6650     1.7570     1.3690 H     1 <1>   0.0800 
 32 H       -0.8430     0.3780     0.7160 H     1 <1>   0.0800 
 33 H       -5.1180    -1.4980    -0.6030 H     1 <1>   0.0800 
 34 H       -5.2530     0.1800    -0.2090 H     1 <1>   0.0800 
 35 H       -1.9640     0.2530     3.0400 H     1 <1>   0.0800 
 36 H       -2.1180    -1.1150     2.0040 H     1 <1>   0.0800 
 37 H       -0.4410     4.3610     1.1670 H     1 <1>   0.1500 
 38 H       -0.6030     2.2480    -2.5250 H     1 <1>   0.1500 
 39 H       -4.2780     0.9910     1.9710 H     1 <1>   0.0800 
 40 H       -4.2010    -0.1410     3.2820 H     1 <1>   0.0800 
 41 H        1.9810     4.2890     1.0020 H     1 <1>   0.1500 
 42 H        1.8270     2.2620    -2.5380 H     1 <1>   0.1500 
 43 H       -6.1910    -3.9860     1.8200 H     1 <1>   0.0800 
 44 H       -5.2500    -3.5910     0.4250 H     1 <1>   0.0800 
 45 H       -6.8350    -3.5910    -1.3730 H     1 <1>   0.1500 
 46 H       -7.8200    -1.5570     2.2510 H     1 <1>   0.1500 
 47 H       -8.8410    -2.6870    -2.4220 H     1 <1>   0.1500 
 48 H       -9.8270    -0.6600     1.1950 H     1 <1>   0.1500 
 49 H      -11.1000    -1.7340    -2.0800 H     1 <1>   0.0800 
 50 H      -10.4880    -0.1150    -1.8250 H     1 <1>   0.0800 
 51 H      -11.4880    -0.8790    -0.6110 H     1 <1>   0.0800 
@<TRIPOS>BOND
  1   1   2  2   
  2   2   3  am  
  3   2   4  1   
  4   3   5  1   
  5   3   6  1   
  6   4   7  1   
  7   4  27  1   
  8   4  28  1   
  9   5   8  1   
 10   5  29  1   
 11   5  30  1   
 12   6   9  1   
 13   6  31  1   
 14   6  32  1   
 15   7  10  ar  
 16   7  11  ar  
 17   8  12  1   
 18   8  33  1   
 19   8  34  1   
 20   9  13  1   
 21   9  35  1   
 22   9  36  1   
 23  10  14  ar  
 24  10  37  1   
 25  11  15  ar  
 26  11  38  1   
 27  12  13  1   
 28  12  16  am  
 29  13  39  1   
 30  13  40  1   
 31  14  17  ar  
 32  14  41  1   
 33  15  17  ar  
 34  15  42  1   
 35  16  18  2   
 36  16  19  1   
 37  19  20  1   
 38  19  43  1   
 39  19  44  1   
 40  20  21  ar  
 41  20  22  ar  
 42  21  23  ar  
 43  21  45  1   
 44  22  24  ar  
 45  22  46  1   
 46  23  25  ar  
 47  23  47  1   
 48  24  25  ar  
 49  24  48  1   
 50  25  26  1   
 51  26  49  1   
 52  26  50  1   
 53  26  51  1   
@<TRIPOS>SUBSTRUCTURE
  1 ****   8 GROUP 4 **** **** 0

# MOE 2024.06 (io_trps.svl 2023.06)
