@<TRIPOS>MOLECULE
NONAME
56 58 1 0 0 
SMALL
USER_CHARGES


@<TRIPOS>ATOM
  1 O        1.0500    -2.5790     0.2940 O.2   1 <1>  -0.5700 
  2 C        1.5800    -1.9310    -0.5630 C.2   1 <1>   0.4480 
  3 C        1.4240    -2.3370    -2.0260 C.3   1 <1>  -0.0190 
  4 C        2.4420    -0.7140    -0.2640 C.3   1 <1>  -0.0990 
  5 C        0.0390    -2.9830    -2.2150 C.3   1 <1>   0.3430 
  6 C        2.5730    -3.2910    -2.4460 C.3   1 <1>  -0.1600 
  7 C        2.6290    -0.4550     1.2380 C.3   1 <1>  -0.0170 
  8 N        0.0810    -4.3520    -1.6280 N.4   1 <1>  -0.9590 
  9 C        2.0580    -4.5480    -3.1720 C.3   1 <1>  -0.1600 
 10 C        3.5140     0.7610     1.4440 C.ar  1 <1>  -0.1440 
 11 C        0.9690    -5.2970    -2.3840 C.3   1 <1>   0.3430 
 12 C       -1.2620    -4.9070    -1.3160 C.3   1 <1>   0.4860 
 13 C        2.9550     2.0270     1.5350 C.ar  1 <1>  -0.1500 
 14 C        4.8900     0.6170     1.5380 C.ar  1 <1>  -0.1500 
 15 C       -1.0890    -6.1400    -0.4640 C.ar  1 <1>  -0.1440 
 16 C        3.7630     3.1370     1.7130 C.ar  1 <1>  -0.1500 
 17 C        5.6990     1.7260     1.7160 C.ar  1 <1>  -0.1500 
 18 C       -1.3510    -7.3970    -0.9570 C.ar  1 <1>   0.1600 
 19 C       -0.6500    -6.0580     0.8370 C.ar  1 <1>   0.1600 
 20 C        5.1360     2.9870     1.8020 C.ar  1 <1>  -0.1500 
 21 N       -1.1710    -8.4780    -0.2370 N.ar  1 <1>  -0.6200 
 22 N       -0.4640    -7.1260     1.5740 N.ar  1 <1>  -0.6200 
 23 C       -0.7360    -8.2920     1.0020 C.ar  1 <1>   0.4770 
 24 C       -0.5290    -9.5570     1.8460 C.3   1 <1>   0.0630 
 25 C       -1.4360    -9.5710     3.0870 C.3   1 <1>  -0.2400 
 26 C        0.9410    -9.7310     2.2630 C.3   1 <1>  -0.2400 
 27 H        1.4540    -1.4490    -2.6330 H     1 <1>   0.0800 
 28 H        1.9900     0.1540    -0.7110 H     1 <1>   0.0800 
 29 H        3.4090    -0.8520    -0.7120 H     1 <1>   0.0800 
 30 H       -0.2050    -3.0390    -3.2640 H     1 <1>   0.0800 
 31 H       -0.7050    -2.3820    -1.7170 H     1 <1>   0.0800 
 32 H        3.1220    -3.6110    -1.5750 H     1 <1>   0.0800 
 33 H        3.2680    -2.7670    -3.0810 H     1 <1>   0.0800 
 34 H        3.0780    -1.3140     1.7070 H     1 <1>   0.0800 
 35 H        1.6740    -0.2920     1.7070 H     1 <1>   0.0800 
 36 H        0.5370    -4.1930    -0.7070 H     1 <1>   0.4500 
 37 H        2.8770    -5.2220    -3.3590 H     1 <1>   0.0800 
 38 H        1.6620    -4.2700    -4.1340 H     1 <1>   0.0800 
 39 H        0.3850    -5.8870    -3.0720 H     1 <1>   0.0800 
 40 H        1.4340    -5.9750    -1.6840 H     1 <1>   0.0800 
 41 H       -1.7850    -5.1520    -2.2260 H     1 <1>   0.0800 
 42 H       -1.8440    -4.1800    -0.7710 H     1 <1>   0.0800 
 43 H        1.8900     2.1580     1.4690 H     1 <1>   0.1500 
 44 H        5.3410    -0.3580     1.4740 H     1 <1>   0.1500 
 45 H        3.3250     4.1170     1.7830 H     1 <1>   0.1500 
 46 H        6.7660     1.6090     1.7880 H     1 <1>   0.1500 
 47 H       -1.7130    -7.5350    -1.9630 H     1 <1>   0.1500 
 48 H       -0.4380    -5.1040     1.2940 H     1 <1>   0.1500 
 49 H        5.7640     3.8490     1.9410 H     1 <1>   0.1500 
 50 H       -0.7960   -10.4050     1.2400 H     1 <1>   0.0800 
 51 H       -1.1880    -8.7560     3.7440 H     1 <1>   0.0800 
 52 H       -1.3230   -10.4960     3.6250 H     1 <1>   0.0800 
 53 H       -2.4650    -9.4700     2.7890 H     1 <1>   0.0800 
 54 H        1.2510    -8.9180     2.8960 H     1 <1>   0.0800 
 55 H        1.5700    -9.7450     1.3910 H     1 <1>   0.0800 
 56 H        1.0730   -10.6550     2.7970 H     1 <1>   0.0800 
@<TRIPOS>BOND
  1   1   2  2   
  2   2   3  1   
  3   2   4  1   
  4   3   5  1   
  5   3   6  1   
  6   3  27  1   
  7   4   7  1   
  8   4  28  1   
  9   4  29  1   
 10   5   8  1   
 11   5  30  1   
 12   5  31  1   
 13   6   9  1   
 14   6  32  1   
 15   6  33  1   
 16   7  10  1   
 17   7  34  1   
 18   7  35  1   
 19   8  11  1   
 20   8  12  1   
 21   8  36  1   
 22   9  11  1   
 23   9  37  1   
 24   9  38  1   
 25  10  13  ar  
 26  10  14  ar  
 27  11  39  1   
 28  11  40  1   
 29  12  15  1   
 30  12  41  1   
 31  12  42  1   
 32  13  16  ar  
 33  13  43  1   
 34  14  17  ar  
 35  14  44  1   
 36  15  18  ar  
 37  15  19  ar  
 38  16  20  ar  
 39  16  45  1   
 40  17  20  ar  
 41  17  46  1   
 42  18  21  ar  
 43  18  47  1   
 44  19  22  ar  
 45  19  48  1   
 46  20  49  1   
 47  21  23  ar  
 48  22  23  ar  
 49  23  24  1   
 50  24  25  1   
 51  24  26  1   
 52  24  50  1   
 53  25  51  1   
 54  25  52  1   
 55  25  53  1   
 56  26  54  1   
 57  26  55  1   
 58  26  56  1   
@<TRIPOS>SUBSTRUCTURE
  1 ****   1 GROUP 4 **** **** 0

# MOE 2024.06 (io_trps.svl 2023.06)
