@<TRIPOS>MOLECULE
NONAME
54 56 1 0 0 
SMALL
USER_CHARGES


@<TRIPOS>ATOM
  1 O       -2.2480     1.1230     2.9800 O.2   1 <1>  -0.5700 
  2 C       -2.6550     1.7060     1.9900 C.2   1 <1>   0.5440 
  3 N       -3.7190     1.1640     1.2970 N.am  1 <1>  -0.6600 
  4 C       -2.0180     2.9350     1.5740 C.ar  1 <1>   0.0860 
  5 C       -4.2550    -0.1790     1.6520 C.3   1 <1>   0.1400 
  6 C       -4.1290     1.6060    -0.0670 C.3   1 <1>   0.1400 
  7 C       -0.9760     2.9370     0.6390 C.ar  1 <1>   0.0830 
  8 C       -2.4350     4.1550     2.1040 C.ar  1 <1>  -0.1500 
  9 C       -3.6220    -1.1910     0.6740 C.3   1 <1>   0.4230 
 10 C       -3.6340     0.5800    -1.1030 C.3   1 <1>  -0.1600 
 11 O       -0.5860     1.7410     0.1330 O.3   1 <1>  -0.3630 
 12 C       -0.3830     4.1390     0.2580 C.ar  1 <1>  -0.1500 
 13 C       -1.8450     5.3440     1.7230 C.ar  1 <1>  -0.1500 
 14 N       -3.8790    -2.6370     0.9860 N.4   1 <1>  -0.9590 
 15 C       -4.0680    -0.8810    -0.7750 C.3   1 <1>  -0.1060 
 16 C        0.4920     1.6080    -0.7640 C.3   1 <1>   0.1200 
 17 C       -0.8160     5.3360     0.7970 C.ar  1 <1>  -0.1500 
 18 C       -3.1610    -3.5850     0.0840 C.3   1 <1>   0.3430 
 19 C       -3.7710    -3.0100     2.4210 C.3   1 <1>   0.2630 
 20 C       -5.5990    -1.0380    -0.8340 C.2   1 <1>   0.9060 
 21 C       -3.4050    -1.8640    -1.7860 C.3   1 <1>  -0.1600 
 22 C        0.6460     0.1250    -1.1020 C.3   1 <1>  -0.1600 
 23 C       -2.4810    -2.8850    -1.1020 C.3   1 <1>  -0.1600 
 24 O       -6.1080    -2.0230    -0.2750 O.co2 1 <1>  -0.9000 
 25 O       -6.2880    -0.1940    -1.4040 O.co2 1 <1>  -0.9000 
 26 C        1.8120    -0.1090    -2.0680 C.3   1 <1>  -0.2400 
 27 H       -3.9980    -0.4150     2.6670 H     1 <1>   0.0800 
 28 H       -5.3290    -0.1700     1.5690 H     1 <1>   0.0800 
 29 H       -5.2040     1.6800    -0.1050 H     1 <1>   0.0800 
 30 H       -3.7290     2.5780    -0.2960 H     1 <1>   0.0800 
 31 H       -3.2330     4.1580     2.8270 H     1 <1>   0.1500 
 32 H       -2.5590    -1.0300     0.7350 H     1 <1>   0.0800 
 33 H       -4.0200     0.8600    -2.0680 H     1 <1>   0.0800 
 34 H       -2.5640     0.6420    -1.1570 H     1 <1>   0.0800 
 35 H        0.4180     4.1650    -0.4560 H     1 <1>   0.1500 
 36 H       -2.1820     6.2750     2.1450 H     1 <1>   0.1500 
 37 H       -4.8920    -2.7060     0.6930 H     1 <1>   0.4500 
 38 H        0.2730     2.1790    -1.6490 H     1 <1>   0.0800 
 39 H        1.3800     1.9850    -0.2850 H     1 <1>   0.0800 
 40 H       -0.3550     6.2620     0.5010 H     1 <1>   0.1500 
 41 H       -2.4140    -4.1270     0.6410 H     1 <1>   0.0800 
 42 H       -3.8740    -4.2980    -0.2970 H     1 <1>   0.0800 
 43 H       -2.7700    -2.8280     2.7780 H     1 <1>   0.0800 
 44 H       -4.0090    -4.0530     2.5520 H     1 <1>   0.0800 
 45 H       -4.4620    -2.4290     3.0090 H     1 <1>   0.0800 
 46 H       -4.1790    -2.4020    -2.3110 H     1 <1>   0.0800 
 47 H       -2.8480    -1.3270    -2.5350 H     1 <1>   0.0800 
 48 H        0.8210    -0.4260    -0.1940 H     1 <1>   0.0800 
 49 H       -0.2630    -0.2310    -1.5540 H     1 <1>   0.0800 
 50 H       -1.5880    -2.3930    -0.7570 H     1 <1>   0.0800 
 51 H       -2.1760    -3.6270    -1.8180 H     1 <1>   0.0800 
 52 H        2.7370     0.2260    -1.6320 H     1 <1>   0.0800 
 53 H        1.6510     0.4210    -2.9900 H     1 <1>   0.0800 
 54 H        1.9010    -1.1580    -2.2900 H     1 <1>   0.0800 
@<TRIPOS>BOND
  1   1   2  2   
  2   2   3  am  
  3   2   4  1   
  4   3   5  1   
  5   3   6  1   
  6   4   7  ar  
  7   4   8  ar  
  8   5   9  1   
  9   5  27  1   
 10   5  28  1   
 11   6  10  1   
 12   6  29  1   
 13   6  30  1   
 14   7  11  1   
 15   7  12  ar  
 16   8  13  ar  
 17   8  31  1   
 18   9  14  1   
 19   9  15  1   
 20   9  32  1   
 21  10  15  1   
 22  10  33  1   
 23  10  34  1   
 24  11  16  1   
 25  12  17  ar  
 26  12  35  1   
 27  13  17  ar  
 28  13  36  1   
 29  14  18  1   
 30  14  19  1   
 31  14  37  1   
 32  15  20  1   
 33  15  21  1   
 34  16  22  1   
 35  16  38  1   
 36  16  39  1   
 37  17  40  1   
 38  18  23  1   
 39  18  41  1   
 40  18  42  1   
 41  19  43  1   
 42  19  44  1   
 43  19  45  1   
 44  20  24  ar  
 45  20  25  ar  
 46  21  23  1   
 47  21  46  1   
 48  21  47  1   
 49  22  26  1   
 50  22  48  1   
 51  22  49  1   
 52  23  50  1   
 53  23  51  1   
 54  26  52  1   
 55  26  53  1   
 56  26  54  1   
@<TRIPOS>SUBSTRUCTURE
  1 ****   3 GROUP 4 **** **** 0

# MOE 2024.06 (io_trps.svl 2023.06)
