@<TRIPOS>MOLECULE
NONAME
38 39 1 0 0 
SMALL
USER_CHARGES


@<TRIPOS>ATOM
  1 O        0.0220     0.6030    -0.6780 O.3   1 <1>  -0.6800 
  2 C        0.0910     1.8250    -0.0360 C.3   1 <1>   0.2000 
  3 C       -1.3120     2.4530     0.0380 C.3   1 <1>  -0.0800 
  4 C        1.0630     2.7060    -0.8430 C.3   1 <1>   0.3430 
  5 C       -1.1960     3.9080     0.5430 C.3   1 <1>  -0.1600 
  6 C       -2.2650     1.6170     0.9120 C.3   1 <1>   0.1200 
  7 N        1.1070     4.1210    -0.3420 N.4   1 <1>  -0.9590 
  8 C       -0.2490     4.7460    -0.3160 C.3   1 <1>   0.3430 
  9 O       -3.5000     2.2380     0.9420 O.3   1 <1>  -0.6800 
 10 C        2.0700     4.9360    -1.1370 C.3   1 <1>   0.4860 
 11 C        2.3010     6.2550    -0.4290 C.ar  1 <1>  -0.1440 
 12 C        3.1350     6.3690     0.6830 C.ar  1 <1>   0.1670 
 13 C        1.6560     7.3840    -0.9020 C.ar  1 <1>  -0.1500 
 14 N        3.3250     7.4970     1.3390 N.ar  1 <1>  -0.6200 
 15 C        3.9190     5.2030     1.2660 C.3   1 <1>  -0.0970 
 16 C        1.8670     8.5640    -0.2240 C.ar  1 <1>  -0.1500 
 17 C        2.6980     8.5660     0.8800 C.ar  1 <1>   0.1600 
 18 H       -0.5270    -0.0400    -0.1840 H     1 <1>   0.4000 
 19 H        0.4890     1.6560     0.9510 H     1 <1>   0.0800 
 20 H       -1.7180     2.4760    -0.9610 H     1 <1>   0.0800 
 21 H        0.7380     2.7030    -1.8710 H     1 <1>   0.0800 
 22 H        2.0460     2.2670    -0.7950 H     1 <1>   0.0800 
 23 H       -0.8690     3.9270     1.5680 H     1 <1>   0.0800 
 24 H       -2.1660     4.3760     0.5130 H     1 <1>   0.0800 
 25 H       -1.9030     1.5410     1.9240 H     1 <1>   0.0800 
 26 H       -2.4020     0.6310     0.5020 H     1 <1>   0.0800 
 27 H        1.4520     4.1250     0.6270 H     1 <1>   0.4500 
 28 H       -0.1900     5.7440     0.0920 H     1 <1>   0.0800 
 29 H       -0.6430     4.8120    -1.3170 H     1 <1>   0.0800 
 30 H       -4.1550     1.7050     1.4380 H     1 <1>   0.4000 
 31 H        3.0080     4.4150    -1.2380 H     1 <1>   0.0800 
 32 H        1.6780     5.1130    -2.1250 H     1 <1>   0.0800 
 33 H        1.0130     7.3680    -1.7660 H     1 <1>   0.1500 
 34 H        3.9190     4.3310     0.6440 H     1 <1>   0.0800 
 35 H        3.5190     4.9510     2.2310 H     1 <1>   0.0800 
 36 H        4.9420     5.5070     1.4040 H     1 <1>   0.0800 
 37 H        1.3950     9.4770    -0.5420 H     1 <1>   0.1500 
 38 H        2.8580     9.4910     1.4100 H     1 <1>   0.1500 
@<TRIPOS>BOND
  1   1   2  1   
  2   1  18  1   
  3   2   3  1   
  4   2   4  1   
  5   2  19  1   
  6   3   5  1   
  7   3   6  1   
  8   3  20  1   
  9   4   7  1   
 10   4  21  1   
 11   4  22  1   
 12   5   8  1   
 13   5  23  1   
 14   5  24  1   
 15   6   9  1   
 16   6  25  1   
 17   6  26  1   
 18   7   8  1   
 19   7  10  1   
 20   7  27  1   
 21   8  28  1   
 22   8  29  1   
 23   9  30  1   
 24  10  11  1   
 25  10  31  1   
 26  10  32  1   
 27  11  12  ar  
 28  11  13  ar  
 29  12  14  ar  
 30  12  15  1   
 31  13  16  ar  
 32  13  33  1   
 33  14  17  ar  
 34  15  34  1   
 35  15  35  1   
 36  15  36  1   
 37  16  17  ar  
 38  16  37  1   
 39  17  38  1   
@<TRIPOS>SUBSTRUCTURE
  1 ****   7 GROUP 4 **** **** 0

# MOE 2024.06 (io_trps.svl 2023.06)
