@<TRIPOS>MOLECULE
NONAME
50 54 1 0 0 
SMALL
USER_CHARGES


@<TRIPOS>ATOM
  1 O       -1.0820    -2.0550     1.3590 O.3   1 <1>  -0.2800 
  2 C       -2.3400    -2.1870     1.7190 C.2   1 <1>  -0.0100 
  3 C       -0.8980    -0.8020     0.9970 C.2   1 <1>  -0.0100 
  4 C       -2.9990    -1.0150     1.5840 C.2   1 <1>  -0.1810 
  5 C       -2.0440    -0.1000     1.1120 C.2   1 <1>  -0.1500 
  6 C       -4.4550    -0.7200     1.8680 C.3   1 <1>   0.5240 
  7 N       -5.1300    -0.4300     0.5760 N.4   1 <1>  -0.9590 
  8 C       -6.5190     0.0980     0.8000 C.3   1 <1>   0.3430 
  9 C       -5.1360    -1.6300    -0.3150 C.3   1 <1>   0.3430 
 10 C       -7.2160     0.4870    -0.5170 C.3   1 <1>   0.1430 
 11 C       -5.7650    -1.2750    -1.6660 C.3   1 <1>  -0.1600 
 12 C       -8.6450     0.8650    -0.2070 C.ar  1 <1>   0.1670 
 13 C       -7.1820    -0.6940    -1.5100 C.3   1 <1>  -0.1600 
 14 C       -6.6550     1.7920    -1.1450 C.3   1 <1>  -0.1600 
 15 N       -9.4440     0.1700     0.5620 N.ar  1 <1>  -0.6200 
 16 C       -9.0040     2.0300    -0.8070 C.ar  1 <1>  -0.1430 
 17 C       -7.8730     2.6120    -1.6180 C.3   1 <1>  -0.0170 
 18 C      -10.6770     0.6770     0.7190 C.ar  1 <1>   0.6200 
 19 C      -10.2800     2.4840    -0.5950 C.ar  1 <1>   0.1600 
 20 N      -11.1160     1.8170     0.1670 N.ar  1 <1>  -0.6200 
 21 C      -11.6040    -0.0630     1.5610 C.ar  1 <1>   0.0000 
 22 C      -11.5970    -1.4600     1.6050 C.ar  1 <1>  -0.1500 
 23 C      -12.5420     0.5900     2.3650 C.ar  1 <1>  -0.1500 
 24 C      -12.4720    -2.1670     2.4100 C.ar  1 <1>  -0.1500 
 25 C      -13.4210    -0.1100     3.1720 C.ar  1 <1>  -0.1500 
 26 C      -13.3870    -1.4920     3.1970 C.ar  1 <1>  -0.1500 
 27 H       -2.6700    -3.1560     2.0570 H     1 <1>   0.1500 
 28 H        0.0850    -0.4970     0.6750 H     1 <1>   0.1500 
 29 H       -2.1940     0.9440     0.8980 H     1 <1>   0.1500 
 30 H       -4.5240     0.1300     2.5270 H     1 <1>   0.0800 
 31 H       -4.9170    -1.5670     2.3480 H     1 <1>   0.0800 
 32 H       -4.5680     0.2900     0.1070 H     1 <1>   0.4500 
 33 H       -6.4930     0.9600     1.4470 H     1 <1>   0.0800 
 34 H       -7.1170    -0.6580     1.2840 H     1 <1>   0.0800 
 35 H       -5.7030    -2.4240     0.1450 H     1 <1>   0.0800 
 36 H       -4.1280    -1.9820    -0.4730 H     1 <1>   0.0800 
 37 H       -5.8160    -2.1660    -2.2670 H     1 <1>   0.0800 
 38 H       -5.1270    -0.5820    -2.1850 H     1 <1>   0.0800 
 39 H       -7.5630    -0.3840    -2.4690 H     1 <1>   0.0800 
 40 H       -7.8350    -1.4710    -1.1480 H     1 <1>   0.0800 
 41 H       -5.9740     1.6130    -1.9580 H     1 <1>   0.0800 
 42 H       -6.1440     2.3670    -0.3930 H     1 <1>   0.0800 
 43 H       -8.0610     2.4510    -2.6660 H     1 <1>   0.0800 
 44 H       -7.7460     3.6640    -1.4280 H     1 <1>   0.0800 
 45 H      -10.6200     3.4010    -1.0480 H     1 <1>   0.1500 
 46 H      -10.8960    -2.0020     0.9950 H     1 <1>   0.1500 
 47 H      -12.5840     1.6650     2.3550 H     1 <1>   0.1500 
 48 H      -12.4450    -3.2420     2.4230 H     1 <1>   0.1500 
 49 H      -14.1320     0.4220     3.7800 H     1 <1>   0.1500 
 50 H      -14.0700    -2.0380     3.8240 H     1 <1>   0.1500 
@<TRIPOS>BOND
  1   1   2  1   
  2   1   3  1   
  3   2   4  2   
  4   2  27  1   
  5   3   5  2   
  6   3  28  1   
  7   4   5  1   
  8   4   6  1   
  9   5  29  1   
 10   6   7  1   
 11   6  30  1   
 12   6  31  1   
 13   7   8  1   
 14   7   9  1   
 15   7  32  1   
 16   8  10  1   
 17   8  33  1   
 18   8  34  1   
 19   9  11  1   
 20   9  35  1   
 21   9  36  1   
 22  10  12  1   
 23  10  13  1   
 24  10  14  1   
 25  11  13  1   
 26  11  37  1   
 27  11  38  1   
 28  12  15  ar  
 29  12  16  ar  
 30  13  39  1   
 31  13  40  1   
 32  14  17  1   
 33  14  41  1   
 34  14  42  1   
 35  15  18  ar  
 36  16  17  1   
 37  16  19  ar  
 38  17  43  1   
 39  17  44  1   
 40  18  20  ar  
 41  18  21  1   
 42  19  20  ar  
 43  19  45  1   
 44  21  22  ar  
 45  21  23  ar  
 46  22  24  ar  
 47  22  46  1   
 48  23  25  ar  
 49  23  47  1   
 50  24  26  ar  
 51  24  48  1   
 52  25  26  ar  
 53  25  49  1   
 54  26  50  1   
@<TRIPOS>SUBSTRUCTURE
  1 ****   8 GROUP 4 **** **** 0

# MOE 2024.06 (io_trps.svl 2023.06)
