@<TRIPOS>MOLECULE
NONAME
45 46 1 0 0 
SMALL
USER_CHARGES


@<TRIPOS>ATOM
  1 S        1.3710    -0.7630     1.2510 S.o2  1 <1>   1.5010 
  2 O        1.1790    -0.2080     2.5700 O.2   1 <1>  -0.6500 
  3 O        2.5940    -1.4590     0.9210 O.2   1 <1>  -0.6500 
  4 N        0.1380    -1.8840     1.0760 N.am  1 <1>  -0.9140 
  5 C        0.9590     0.4340    -0.0270 C.2   1 <1>  -0.0630 
  6 C        0.2930    -2.7740    -0.0680 C.3   1 <1>   0.2760 
  7 C       -0.1460     1.1900    -0.2690 C.2   1 <1>  -0.3320 
  8 C        1.8150     0.7520    -1.0710 C.2   1 <1>   0.1390 
  9 C       -1.0720    -3.2990    -0.4860 C.3   1 <1>  -0.0800 
 10 C        0.9650    -4.0720     0.3700 C.3   1 <1>   0.1200 
 11 N        0.0920     1.8900    -1.3990 N.pl3 1 <1>   0.3140 
 12 C       -1.4320     1.2800     0.5410 C.3   1 <1>  -0.0600 
 13 N        1.3050     1.6120    -1.8970 N.2   1 <1>  -0.7070 
 14 C       -1.2820    -4.5040     0.4420 C.3   1 <1>   0.1200 
 15 C       -2.1990    -2.2470    -0.4320 C.3   1 <1>  -0.0550 
 16 O       -0.0400    -4.7790     1.0270 O.3   1 <1>  -0.5600 
 17 C       -0.8030     2.8460    -2.0650 C.3   1 <1>   0.0160 
 18 S       -3.7380    -2.8190    -1.1400 S.o2  1 <1>   1.3330 
 19 O       -4.2760    -3.8780    -0.3170 O.2   1 <1>  -0.6500 
 20 O       -3.5060    -3.0490    -2.5480 O.2   1 <1>  -0.6500 
 21 N       -4.7470    -1.4620    -0.9780 N.am  1 <1>  -0.8490 
 22 C       -5.7900    -1.4270    -2.0090 C.3   1 <1>   0.1160 
 23 C       -5.3610    -1.3530     0.3500 C.3   1 <1>   0.1160 
 24 H        0.2020    -2.4770     1.9040 H     1 <1>   0.4200 
 25 H        0.8050    -2.2920    -0.8850 H     1 <1>   0.0800 
 26 H        2.8000     0.3300    -1.1930 H     1 <1>   0.1500 
 27 H       -0.9950    -3.6690    -1.4940 H     1 <1>   0.0800 
 28 H        1.7990    -3.9230     1.0330 H     1 <1>   0.0800 
 29 H        1.2760    -4.6510    -0.4820 H     1 <1>   0.0800 
 30 H       -1.3870     0.6280     1.3960 H     1 <1>   0.0800 
 31 H       -2.2760     0.9950    -0.0620 H     1 <1>   0.0800 
 32 H       -1.5770     2.2860     0.8940 H     1 <1>   0.0800 
 33 H       -1.6130    -5.3740    -0.1010 H     1 <1>   0.0800 
 34 H       -1.9760    -4.2890     1.2360 H     1 <1>   0.0800 
 35 H       -1.8790    -1.3780    -0.9730 H     1 <1>   0.0800 
 36 H       -2.3680    -1.9550     0.5850 H     1 <1>   0.0800 
 37 H       -1.0230     3.6520    -1.3910 H     1 <1>   0.0800 
 38 H       -1.7080     2.3440    -2.3490 H     1 <1>   0.0800 
 39 H       -0.3160     3.2320    -2.9410 H     1 <1>   0.0800 
 40 H       -6.4060    -0.5530    -1.8890 H     1 <1>   0.0800 
 41 H       -6.4080    -2.3080    -1.9470 H     1 <1>   0.0800 
 42 H       -5.3400    -1.3890    -2.9870 H     1 <1>   0.0800 
 43 H       -5.9210    -0.4370     0.4250 H     1 <1>   0.0800 
 44 H       -4.6020    -1.3500     1.1130 H     1 <1>   0.0800 
 45 H       -6.0240    -2.1840     0.5280 H     1 <1>   0.0800 
@<TRIPOS>BOND
  1   1   2  2   
  2   1   3  2   
  3   1   4  am  
  4   1   5  1   
  5   4   6  1   
  6   4  24  1   
  7   5   7  2   
  8   5   8  1   
  9   6   9  1   
 10   6  10  1   
 11   6  25  1   
 12   7  11  1   
 13   7  12  1   
 14   8  13  2   
 15   8  26  1   
 16   9  14  1   
 17   9  15  1   
 18   9  27  1   
 19  10  16  1   
 20  10  28  1   
 21  10  29  1   
 22  11  13  1   
 23  11  17  1   
 24  12  30  1   
 25  12  31  1   
 26  12  32  1   
 27  14  16  1   
 28  14  33  1   
 29  14  34  1   
 30  15  18  1   
 31  15  35  1   
 32  15  36  1   
 33  17  37  1   
 34  17  38  1   
 35  17  39  1   
 36  18  19  2   
 37  18  20  2   
 38  18  21  am  
 39  21  22  1   
 40  21  23  1   
 41  22  40  1   
 42  22  41  1   
 43  22  42  1   
 44  23  43  1   
 45  23  44  1   
 46  23  45  1   
@<TRIPOS>SUBSTRUCTURE
  1 ****  15 GROUP 4 **** **** 0

# MOE 2024.06 (io_trps.svl 2023.06)
