@<TRIPOS>MOLECULE
NONAME
41 43 1 0 0 
SMALL
USER_CHARGES


@<TRIPOS>ATOM
  1 S        0.5590     0.5250     1.1010 S.3   1 <1>  -0.0800 
  2 C        1.6280     1.3950    -0.0070 C.2   1 <1>  -0.0450 
  3 C        0.9080    -1.0150     0.3490 C.2   1 <1>  -0.1100 
  4 C        1.7630     2.8240     0.1400 C.2   1 <1>   0.7150 
  5 C        2.1720     0.4970    -0.8710 C.2   1 <1>  -0.1500 
  6 C        1.7710    -0.8560    -0.6700 C.2   1 <1>  -0.1500 
  7 O        0.8320     3.4900     0.5580 O.2   1 <1>  -0.5700 
  8 N        2.9340     3.4730    -0.1920 N.am  1 <1>  -0.6600 
  9 C        4.2870     2.8510    -0.0290 C.3   1 <1>   0.1400 
 10 C        2.9810     4.9610    -0.3700 C.3   1 <1>   0.1400 
 11 C        5.0940     3.5420     1.0840 C.3   1 <1>   0.2090 
 12 C        3.7820     5.6360     0.7550 C.3   1 <1>   0.2090 
 13 N        5.1460     5.0230     0.8660 N.pl3 1 <1>  -0.8380 
 14 C        6.3120     5.7290     0.7100 C.ar  1 <1>   0.7200 
 15 N        6.2200     7.0480     0.5510 N.ar  1 <1>  -0.6200 
 16 N        7.4550     5.0460     0.7290 N.ar  1 <1>  -0.6200 
 17 C        7.3300     7.7240     0.3980 C.ar  1 <1>   0.1670 
 18 C        8.5520     5.7390     0.5650 C.ar  1 <1>   0.1600 
 19 C        8.5790     7.1080     0.3610 C.ar  1 <1>   0.0860 
 20 C        7.1520     9.2300     0.2960 C.3   1 <1>  -0.0970 
 21 C        9.8430     7.7520     0.1340 C.2   1 <1>   0.4230 
 22 O       10.8300     7.4730     0.7620 O.2   1 <1>  -0.5700 
 23 C       10.0110     8.7760    -0.9720 C.3   1 <1>  -0.1790 
 24 H        0.4230    -1.8870     0.7520 H     1 <1>   0.1500 
 25 H        2.8520     0.7540    -1.6650 H     1 <1>   0.1500 
 26 H        2.1440    -1.6470    -1.2970 H     1 <1>   0.1500 
 27 H        4.8290     2.9350    -0.9550 H     1 <1>   0.0800 
 28 H        4.2020     1.8080     0.2140 H     1 <1>   0.0800 
 29 H        1.9870     5.3720    -0.3940 H     1 <1>   0.0800 
 30 H        3.4490     5.1870    -1.3120 H     1 <1>   0.0800 
 31 H        6.0790     3.1110     1.1200 H     1 <1>   0.0800 
 32 H        4.6250     3.3470     2.0330 H     1 <1>   0.0800 
 33 H        3.2590     5.5060     1.6860 H     1 <1>   0.0800 
 34 H        3.8350     6.6910     0.5570 H     1 <1>   0.0800 
 35 H        9.4890     5.2060     0.5850 H     1 <1>   0.1500 
 36 H        6.2400     9.5250     0.7860 H     1 <1>   0.0800 
 37 H        7.0900     9.5250    -0.7350 H     1 <1>   0.0800 
 38 H        7.9610     9.7470     0.7760 H     1 <1>   0.0800 
 39 H        9.2240     8.6890    -1.6980 H     1 <1>   0.0800 
 40 H       10.9500     8.6110    -1.4670 H     1 <1>   0.0800 
 41 H       10.0160     9.7660    -0.5560 H     1 <1>   0.0800 
@<TRIPOS>BOND
  1   1   2  1   
  2   1   3  1   
  3   2   4  1   
  4   2   5  2   
  5   3   6  2   
  6   3  24  1   
  7   4   7  2   
  8   4   8  am  
  9   5   6  1   
 10   5  25  1   
 11   6  26  1   
 12   8   9  1   
 13   8  10  1   
 14   9  11  1   
 15   9  27  1   
 16   9  28  1   
 17  10  12  1   
 18  10  29  1   
 19  10  30  1   
 20  11  13  1   
 21  11  31  1   
 22  11  32  1   
 23  12  13  1   
 24  12  33  1   
 25  12  34  1   
 26  13  14  1   
 27  14  15  ar  
 28  14  16  ar  
 29  15  17  ar  
 30  16  18  ar  
 31  17  19  ar  
 32  17  20  1   
 33  18  19  ar  
 34  18  35  1   
 35  19  21  1   
 36  20  36  1   
 37  20  37  1   
 38  20  38  1   
 39  21  22  2   
 40  21  23  1   
 41  23  39  1   
 42  23  40  1   
 43  23  41  1   
@<TRIPOS>SUBSTRUCTURE
  1 ****  13 GROUP 4 **** **** 0

# MOE 2024.06 (io_trps.svl 2023.06)
