@<TRIPOS>MOLECULE
NONAME
42 43 1 0 0 
SMALL
USER_CHARGES


@<TRIPOS>ATOM
  1 CL      -2.0050    -0.2260     1.4110 Cl    1 <1>  -0.1770 
  2 C       -2.4190    -1.3890     0.1770 C.ar  1 <1>   0.1770 
  3 C       -2.4590    -2.7330     0.5010 C.ar  1 <1>  -0.1500 
  4 C       -2.7030    -0.9480    -1.1010 C.ar  1 <1>  -0.1500 
  5 C       -2.7890    -3.6610    -0.4750 C.ar  1 <1>  -0.1440 
  6 C       -3.0320    -1.8740    -2.0760 C.ar  1 <1>  -0.1500 
  7 C       -3.0740    -3.2240    -1.7610 C.ar  1 <1>  -0.1500 
  8 C       -2.8470    -5.1430    -0.1400 C.3   1 <1>  -0.0160 
  9 C       -4.2880    -5.5580     0.1910 C.3   1 <1>  -0.0990 
 10 C       -4.4300    -7.0190     0.5970 C.2   1 <1>   0.5690 
 11 O       -3.5160    -7.7700     0.3430 O.2   1 <1>  -0.5700 
 12 N       -5.5610    -7.4570     1.2330 N.am  1 <1>  -0.6600 
 13 C       -5.7330    -8.9140     1.5300 C.3   1 <1>   0.3210 
 14 C       -6.7360    -6.5990     1.6070 C.3   1 <1>   0.1400 
 15 C       -6.7510    -9.5410     0.5820 C.2   1 <1>   0.0460 
 16 C       -7.5310    -6.0270     0.4140 C.3   1 <1>   0.1200 
 17 N       -8.0770    -9.4620     0.8310 N.2   1 <1>  -0.5650 
 18 C       -6.5210   -10.2010    -0.5780 C.2   1 <1>  -0.3320 
 19 O       -7.5930    -6.9230    -0.6410 O.3   1 <1>  -0.6800 
 20 C       -8.6190   -10.0780    -0.1690 C.2   1 <1>   0.0360 
 21 N       -7.7260   -10.5510    -1.0620 N.pl3 1 <1>   0.0330 
 22 C       -5.2190   -10.5160    -1.2950 C.3   1 <1>  -0.0600 
 23 H       -2.2320    -3.0400     1.5050 H     1 <1>   0.1500 
 24 H       -2.6660     0.1020    -1.3260 H     1 <1>   0.1500 
 25 H       -3.2550    -1.5480    -3.0770 H     1 <1>   0.1500 
 26 H       -3.3320    -3.9370    -2.5260 H     1 <1>   0.1500 
 27 H       -2.2070    -5.3560     0.6990 H     1 <1>   0.0800 
 28 H       -2.4870    -5.7180    -0.9760 H     1 <1>   0.0800 
 29 H       -4.9020    -5.3930    -0.6740 H     1 <1>   0.0800 
 30 H       -4.6430    -4.9330     0.9880 H     1 <1>   0.0800 
 31 H       -6.0680    -9.0400     2.5440 H     1 <1>   0.0800 
 32 H       -4.7980    -9.4330     1.4350 H     1 <1>   0.0800 
 33 H       -6.4010    -5.7870     2.2280 H     1 <1>   0.0800 
 34 H       -7.4170    -7.1780     2.2070 H     1 <1>   0.0800 
 35 H       -7.0840    -5.1200     0.0490 H     1 <1>   0.0800 
 36 H       -8.5380    -5.8060     0.7210 H     1 <1>   0.0800 
 37 H       -7.6380    -7.8450    -0.2780 H     1 <1>   0.4000 
 38 H       -9.6790   -10.2090    -0.2980 H     1 <1>   0.1500 
 39 H       -7.9280   -11.0570    -1.9290 H     1 <1>   0.2700 
 40 H       -4.3790   -10.1230    -0.7510 H     1 <1>   0.0800 
 41 H       -5.2200   -10.0690    -2.2730 H     1 <1>   0.0800 
 42 H       -5.0940   -11.5800    -1.3940 H     1 <1>   0.0800 
@<TRIPOS>BOND
  1   1   2  1   
  2   2   3  ar  
  3   2   4  ar  
  4   3   5  ar  
  5   3  23  1   
  6   4   6  ar  
  7   4  24  1   
  8   5   7  ar  
  9   5   8  1   
 10   6   7  ar  
 11   6  25  1   
 12   7  26  1   
 13   8   9  1   
 14   8  27  1   
 15   8  28  1   
 16   9  10  1   
 17   9  29  1   
 18   9  30  1   
 19  10  11  2   
 20  10  12  am  
 21  12  13  1   
 22  12  14  1   
 23  13  15  1   
 24  13  31  1   
 25  13  32  1   
 26  14  16  1   
 27  14  33  1   
 28  14  34  1   
 29  15  17  1   
 30  15  18  2   
 31  16  19  1   
 32  16  35  1   
 33  16  36  1   
 34  17  20  2   
 35  18  21  1   
 36  18  22  1   
 37  19  37  1   
 38  20  21  1   
 39  20  38  1   
 40  21  39  1   
 41  22  40  1   
 42  22  41  1   
 43  22  42  1   
@<TRIPOS>SUBSTRUCTURE
  1 ****   9 GROUP 4 **** **** 0

# MOE 2024.06 (io_trps.svl 2023.06)
