@<TRIPOS>MOLECULE
NONAME
49 50 1 0 0 
SMALL
USER_CHARGES


@<TRIPOS>ATOM
  1 O        0.3380    -0.0120     0.8820 O.2   1 <1>  -0.5700 
  2 C        1.3080     0.7110     0.7680 C.2   1 <1>   0.7800 
  3 O        1.1810     1.9690     0.3380 O.3   1 <1>  -0.4300 
  4 N        2.5750     0.2740     1.0540 N.am  1 <1>  -0.6600 
  5 C       -0.0080     2.6350    -0.0260 C.3   1 <1>   0.2800 
  6 C        2.8550    -1.1060     1.5270 C.3   1 <1>   0.1400 
  7 C        3.8010     1.0810     0.8360 C.3   1 <1>   0.1400 
  8 C       -0.9540     2.7310     1.1770 C.3   1 <1>  -0.2400 
  9 C        0.4340     4.0420    -0.4320 C.3   1 <1>  -0.2400 
 10 C       -0.6580     1.9430    -1.2290 C.3   1 <1>  -0.2400 
 11 C        3.6380    -1.8430     0.4390 C.3   1 <1>  -0.0190 
 12 C        4.6800     0.4260    -0.2450 C.3   1 <1>  -0.0800 
 13 C        3.9720    -3.2660     0.8420 C.2   1 <1>   0.6590 
 14 C        4.9110    -1.0780     0.0410 C.3   1 <1>   0.2000 
 15 C        6.0210     1.1930    -0.3600 C.3   1 <1>  -0.1600 
 16 O        3.6650    -3.7320     1.9110 O.2   1 <1>  -0.5700 
 17 O        4.5970    -3.9890    -0.0810 O.3   1 <1>  -0.4300 
 18 O        5.8580    -1.1640     1.0620 O.3   1 <1>  -0.5600 
 19 C        7.2200     0.2350    -0.4250 C.3   1 <1>  -0.1600 
 20 C        4.9680    -5.3240     0.1640 C.3   1 <1>   0.1200 
 21 C        7.1690    -0.8220     0.6990 C.3   1 <1>   0.1200 
 22 C        5.6840    -5.8500    -1.0760 C.3   1 <1>  -0.2400 
 23 H        3.4370    -1.0640     2.4330 H     1 <1>   0.0800 
 24 H        1.9390    -1.6310     1.7420 H     1 <1>   0.0800 
 25 H        3.5560     2.0880     0.5460 H     1 <1>   0.0800 
 26 H        4.3450     1.1260     1.7640 H     1 <1>   0.0800 
 27 H       -1.7920     3.3580     0.9370 H     1 <1>   0.0800 
 28 H       -0.4420     3.1540     2.0220 H     1 <1>   0.0800 
 29 H       -1.3380     1.7650     1.4460 H     1 <1>   0.0800 
 30 H       -0.4160     4.6290    -0.7300 H     1 <1>   0.0800 
 31 H        1.1190     3.9930    -1.2590 H     1 <1>   0.0800 
 32 H        0.9140     4.5350     0.3940 H     1 <1>   0.0800 
 33 H       -1.4820     2.5320    -1.5900 H     1 <1>   0.0800 
 34 H       -1.0440     0.9780    -0.9600 H     1 <1>   0.0800 
 35 H        0.0550     1.8300    -2.0260 H     1 <1>   0.0800 
 36 H        3.0010    -1.9060    -0.4230 H     1 <1>   0.0800 
 37 H        4.1570     0.5050    -1.1820 H     1 <1>   0.0800 
 38 H        5.3250    -1.5580    -0.8310 H     1 <1>   0.0800 
 39 H        6.0090     1.8290    -1.2280 H     1 <1>   0.0800 
 40 H        6.1590     1.8250     0.5010 H     1 <1>   0.0800 
 41 H        8.1420     0.7850    -0.3570 H     1 <1>   0.0800 
 42 H        7.2240    -0.2690    -1.3760 H     1 <1>   0.0800 
 43 H        5.6170    -5.3440     1.0240 H     1 <1>   0.0800 
 44 H        4.0770    -5.8940     0.3700 H     1 <1>   0.0800 
 45 H        7.6460    -0.4440     1.5860 H     1 <1>   0.0800 
 46 H        7.6770    -1.7210     0.3940 H     1 <1>   0.0800 
 47 H        6.5640    -5.2640    -1.2720 H     1 <1>   0.0800 
 48 H        5.0280    -5.8130    -1.9270 H     1 <1>   0.0800 
 49 H        5.9810    -6.8710    -0.9170 H     1 <1>   0.0800 
@<TRIPOS>BOND
  1   1   2  2   
  2   2   3  1   
  3   2   4  am  
  4   3   5  1   
  5   4   6  1   
  6   4   7  1   
  7   5   8  1   
  8   5   9  1   
  9   5  10  1   
 10   6  11  1   
 11   6  23  1   
 12   6  24  1   
 13   7  12  1   
 14   7  25  1   
 15   7  26  1   
 16   8  27  1   
 17   8  28  1   
 18   8  29  1   
 19   9  30  1   
 20   9  31  1   
 21   9  32  1   
 22  10  33  1   
 23  10  34  1   
 24  10  35  1   
 25  11  13  1   
 26  11  14  1   
 27  11  36  1   
 28  12  14  1   
 29  12  15  1   
 30  12  37  1   
 31  13  16  2   
 32  13  17  1   
 33  14  18  1   
 34  14  38  1   
 35  15  19  1   
 36  15  39  1   
 37  15  40  1   
 38  17  20  1   
 39  18  21  1   
 40  19  21  1   
 41  19  41  1   
 42  19  42  1   
 43  20  22  1   
 44  20  43  1   
 45  20  44  1   
 46  21  45  1   
 47  21  46  1   
 48  22  47  1   
 49  22  48  1   
 50  22  49  1   
@<TRIPOS>SUBSTRUCTURE
  1 ****   4 GROUP 4 **** **** 0

# MOE 2024.06 (io_trps.svl 2023.06)
