@<TRIPOS>MOLECULE
NONAME
43 44 1 0 0 
SMALL
USER_CHARGES


@<TRIPOS>ATOM
  1 CL      -1.6130    -1.4380     2.2760 Cl    1 <1>  -0.1770 
  2 C       -1.8530     0.0200     1.3430 C.ar  1 <1>   0.1770 
  3 C       -2.4580    -0.0370     0.0890 C.ar  1 <1>   0.0860 
  4 C       -1.4240     1.2120     1.8980 C.ar  1 <1>  -0.1500 
  5 C       -2.9120    -1.2780    -0.4970 C.2   1 <1>   0.5440 
  6 C       -2.6030     1.1670    -0.6020 C.ar  1 <1>  -0.1500 
  7 C       -1.5880     2.3930     1.1950 C.ar  1 <1>  -0.1500 
  8 O       -2.3580    -1.6780    -1.5030 O.2   1 <1>  -0.5700 
  9 N       -3.9680    -2.0040     0.0230 N.am  1 <1>  -0.6600 
 10 C       -2.1780     2.3660    -0.0580 C.ar  1 <1>  -0.1500 
 11 C       -4.3030    -3.3680    -0.5030 C.3   1 <1>   0.1400 
 12 C       -4.8200    -1.5230     1.1470 C.3   1 <1>   0.1400 
 13 C       -5.8010    -3.4840    -0.8340 C.3   1 <1>   0.2000 
 14 C       -6.3020    -1.6280     0.7640 C.3   1 <1>  -0.1600 
 15 O       -6.0780    -4.7870    -1.2410 O.3   1 <1>  -0.6800 
 16 C       -6.7270    -3.0590     0.3430 C.3   1 <1>   0.0000 
 17 C       -6.5510    -4.0490     1.5300 C.3   1 <1>   0.1200 
 18 C       -8.2270    -3.0710    -0.0790 C.3   1 <1>  -0.1600 
 19 O       -7.3000    -3.6710     2.6360 O.3   1 <1>  -0.6800 
 20 C       -8.6080    -2.2510    -1.3270 C.3   1 <1>  -0.1600 
 21 C      -10.1150    -2.3300    -1.5870 C.3   1 <1>  -0.2400 
 22 H       -0.9620     1.2140     2.8690 H     1 <1>   0.1500 
 23 H       -3.0520     1.1500    -1.5810 H     1 <1>   0.1500 
 24 H       -1.2560     3.3270     1.6170 H     1 <1>   0.1500 
 25 H       -2.3020     3.2820    -0.6120 H     1 <1>   0.1500 
 26 H       -3.7440    -3.5740    -1.4000 H     1 <1>   0.0800 
 27 H       -4.0220    -4.0970     0.2350 H     1 <1>   0.0800 
 28 H       -4.6100    -2.1100     2.0250 H     1 <1>   0.0800 
 29 H       -4.5980    -0.4970     1.3790 H     1 <1>   0.0800 
 30 H       -5.9820    -2.8520    -1.6850 H     1 <1>   0.0800 
 31 H       -6.9050    -1.2830     1.5830 H     1 <1>   0.0800 
 32 H       -6.4640    -0.9430    -0.0490 H     1 <1>   0.0800 
 33 H       -5.9210    -5.4230    -0.5190 H     1 <1>   0.4000 
 34 H       -5.5260    -4.1200     1.8450 H     1 <1>   0.0800 
 35 H       -6.8860    -5.0330     1.2500 H     1 <1>   0.0800 
 36 H       -8.5220    -4.0920    -0.2560 H     1 <1>   0.0800 
 37 H       -8.8220    -2.7190     0.7460 H     1 <1>   0.0800 
 38 H       -7.0810    -2.7620     2.9110 H     1 <1>   0.4000 
 39 H       -8.3380    -1.2180    -1.2020 H     1 <1>   0.0800 
 40 H       -8.0960    -2.6340    -2.1930 H     1 <1>   0.0800 
 41 H      -10.6640    -1.9340    -0.7510 H     1 <1>   0.0800 
 42 H      -10.4150    -3.3510    -1.7460 H     1 <1>   0.0800 
 43 H      -10.3680    -1.7600    -2.4630 H     1 <1>   0.0800 
@<TRIPOS>BOND
  1   1   2  1   
  2   2   3  ar  
  3   2   4  ar  
  4   3   5  1   
  5   3   6  ar  
  6   4   7  ar  
  7   4  22  1   
  8   5   8  2   
  9   5   9  am  
 10   6  10  ar  
 11   6  23  1   
 12   7  10  ar  
 13   7  24  1   
 14   9  11  1   
 15   9  12  1   
 16  10  25  1   
 17  11  13  1   
 18  11  26  1   
 19  11  27  1   
 20  12  14  1   
 21  12  28  1   
 22  12  29  1   
 23  13  15  1   
 24  13  16  1   
 25  13  30  1   
 26  14  16  1   
 27  14  31  1   
 28  14  32  1   
 29  15  33  1   
 30  16  17  1   
 31  16  18  1   
 32  17  19  1   
 33  17  34  1   
 34  17  35  1   
 35  18  20  1   
 36  18  36  1   
 37  18  37  1   
 38  19  38  1   
 39  20  21  1   
 40  20  39  1   
 41  20  40  1   
 42  21  41  1   
 43  21  42  1   
 44  21  43  1   
@<TRIPOS>SUBSTRUCTURE
  1 ****   9 GROUP 4 **** **** 0

# MOE 2024.06 (io_trps.svl 2023.06)
