@<TRIPOS>MOLECULE
NONAME
62 65 1 0 0 
SMALL
USER_CHARGES


@<TRIPOS>ATOM
  1 O        3.6460    -1.9760    -1.1950 O.2   1 <1>  -0.5700 
  2 C        3.1930    -1.6920    -0.1050 C.2   1 <1>   0.5690 
  3 N        4.0840    -1.1880     0.8270 N.am  1 <1>  -0.6600 
  4 C        1.6480    -1.9080     0.1600 C.3   1 <1>   0.3310 
  5 C        5.5090    -1.6380     0.7670 C.3   1 <1>   0.1400 
  6 C        3.8120    -0.0280     1.7150 C.3   1 <1>   0.1400 
  7 N        1.1260    -3.1140    -0.5730 N.3   1 <1>  -0.8100 
  8 C        0.9030    -0.6730    -0.3790 C.3   1 <1>  -0.2400 
  9 C        1.3210    -2.0830     1.6610 C.3   1 <1>  -0.2400 
 10 C        6.2740    -0.9830    -0.4020 C.3   1 <1>   0.3430 
 11 C        4.7850     1.1270     1.4490 C.3   1 <1>  -0.1600 
 12 C        1.8120    -4.3860    -0.2400 C.3   1 <1>   0.1100 
 13 C       -0.3420    -3.3440    -0.6320 C.3   1 <1>   0.1100 
 14 N        6.4480     0.5090    -0.3000 N.4   1 <1>  -0.9590 
 15 C        5.1850     1.2640    -0.0240 C.3   1 <1>   0.3430 
 16 C        1.3860    -5.5180    -1.1920 C.3   1 <1>   0.1200 
 17 C       -0.6830    -4.5180    -1.5670 C.3   1 <1>   0.1200 
 18 C        7.0890     1.0110    -1.5460 C.3   1 <1>   0.4860 
 19 O       -0.0030    -5.6750    -1.1760 O.3   1 <1>  -0.5600 
 20 C        7.5390     2.4410    -1.3200 C.ar  1 <1>  -0.1440 
 21 C        8.6400     2.7090    -0.5110 C.ar  1 <1>  -0.1500 
 22 C        6.8410     3.4890    -1.9200 C.ar  1 <1>  -0.1500 
 23 C        9.0110     4.0240    -0.3050 C.ar  1 <1>  -0.1440 
 24 C        7.2240     4.8030    -1.7040 C.ar  1 <1>  -0.1500 
 25 C        8.3120     5.0450    -0.8890 C.ar  1 <1>   0.0820 
 26 C       10.1320     4.6150     0.5000 C.3   1 <1>  -0.0170 
 27 O        8.7990     6.2570    -0.5860 O.3   1 <1>  -0.3620 
 28 C        9.9400     6.1230     0.2500 C.3   1 <1>   0.1200 
 29 H        5.5160    -2.7050     0.6140 H     1 <1>   0.0800 
 30 H        6.0060    -1.4450     1.7020 H     1 <1>   0.0800 
 31 H        3.8730    -0.3370     2.7460 H     1 <1>   0.0800 
 32 H        2.8180     0.3360     1.5400 H     1 <1>   0.0800 
 33 H        0.9460    -0.6680    -1.4540 H     1 <1>   0.0800 
 34 H        1.3520     0.2340    -0.0280 H     1 <1>   0.0800 
 35 H       -0.1240    -0.6650    -0.0630 H     1 <1>   0.0800 
 36 H        1.9590    -2.8280     2.0990 H     1 <1>   0.0800 
 37 H        0.2990    -2.3720     1.8100 H     1 <1>   0.0800 
 38 H        1.4560    -1.1710     2.2040 H     1 <1>   0.0800 
 39 H        5.7520    -1.2200    -1.3150 H     1 <1>   0.0800 
 40 H        7.2450    -1.4460    -0.4650 H     1 <1>   0.0800 
 41 H        5.6550     1.0370     2.0740 H     1 <1>   0.0800 
 42 H        4.2900     2.0340     1.7480 H     1 <1>   0.0800 
 43 H        1.5770    -4.6830     0.7670 H     1 <1>   0.0800 
 44 H        2.8770    -4.2680    -0.3170 H     1 <1>   0.0800 
 45 H       -0.8460    -2.4740    -1.0100 H     1 <1>   0.0800 
 46 H       -0.7300    -3.5670     0.3450 H     1 <1>   0.0800 
 47 H        7.0980     0.7310     0.4620 H     1 <1>   0.4500 
 48 H        5.3440     2.3110    -0.2250 H     1 <1>   0.0800 
 49 H        4.3890     0.9160    -0.6640 H     1 <1>   0.0800 
 50 H        1.8260    -6.4490    -0.8850 H     1 <1>   0.0800 
 51 H        1.6990    -5.2990    -2.1980 H     1 <1>   0.0800 
 52 H       -0.4090    -4.2830    -2.5810 H     1 <1>   0.0800 
 53 H       -1.7370    -4.7300    -1.5310 H     1 <1>   0.0800 
 54 H        6.3930     0.9650    -2.3690 H     1 <1>   0.0800 
 55 H        7.9480     0.4080    -1.7930 H     1 <1>   0.0800 
 56 H        9.2110     1.9230    -0.0490 H     1 <1>   0.1500 
 57 H        5.9970     3.2980    -2.5600 H     1 <1>   0.1500 
 58 H        6.7030     5.6290    -2.1540 H     1 <1>   0.1500 
 59 H       11.0910     4.2870     0.1400 H     1 <1>   0.0800 
 60 H       10.0330     4.3850     1.5450 H     1 <1>   0.0800 
 61 H       10.7830     6.5490    -0.2650 H     1 <1>   0.0800 
 62 H        9.7520     6.6580     1.1640 H     1 <1>   0.0800 
@<TRIPOS>BOND
  1   1   2  2   
  2   2   3  am  
  3   2   4  1   
  4   3   5  1   
  5   3   6  1   
  6   4   7  1   
  7   4   8  1   
  8   4   9  1   
  9   5  10  1   
 10   5  29  1   
 11   5  30  1   
 12   6  11  1   
 13   6  31  1   
 14   6  32  1   
 15   7  12  1   
 16   7  13  1   
 17   8  33  1   
 18   8  34  1   
 19   8  35  1   
 20   9  36  1   
 21   9  37  1   
 22   9  38  1   
 23  10  14  1   
 24  10  39  1   
 25  10  40  1   
 26  11  15  1   
 27  11  41  1   
 28  11  42  1   
 29  12  16  1   
 30  12  43  1   
 31  12  44  1   
 32  13  17  1   
 33  13  45  1   
 34  13  46  1   
 35  14  15  1   
 36  14  18  1   
 37  14  47  1   
 38  15  48  1   
 39  15  49  1   
 40  16  19  1   
 41  16  50  1   
 42  16  51  1   
 43  17  19  1   
 44  17  52  1   
 45  17  53  1   
 46  18  20  1   
 47  18  54  1   
 48  18  55  1   
 49  20  21  ar  
 50  20  22  ar  
 51  21  23  ar  
 52  21  56  1   
 53  22  24  ar  
 54  22  57  1   
 55  23  25  ar  
 56  23  26  1   
 57  24  25  ar  
 58  24  58  1   
 59  25  27  1   
 60  26  28  1   
 61  26  59  1   
 62  26  60  1   
 63  27  28  1   
 64  28  61  1   
 65  28  62  1   
@<TRIPOS>SUBSTRUCTURE
  1 ****  15 GROUP 4 **** **** 0

# MOE 2024.06 (io_trps.svl 2023.06)
