@<TRIPOS>MOLECULE
NONAME
59 62 1 0 0 
SMALL
USER_CHARGES


@<TRIPOS>ATOM
  1 O        2.1370     1.2270    -0.3930 O.3   1 <1>  -0.6800 
  2 C        1.1340     0.2430    -0.3760 C.3   1 <1>   0.1200 
  3 C        1.7280    -1.1620     0.1220 C.3   1 <1>   0.0000 
  4 C        2.2710    -2.5730     0.7070 C.3   1 <1>   0.4230 
  5 C        1.7310    -0.6030     1.6400 C.3   1 <1>  -0.1600 
  6 C        1.7750    -1.6450    -1.4190 C.3   1 <1>  -0.1600 
  7 N        1.8140    -3.8540     0.0350 N.4   1 <1>  -0.9590 
  8 C        3.7930    -2.5020     1.0380 C.3   1 <1>   0.2090 
  9 C        3.1630    -0.4060     2.1910 C.3   1 <1>   0.2090 
 10 C        2.7050    -2.7650    -1.9370 C.3   1 <1>  -0.1600 
 11 C        2.4770    -4.1040    -1.2620 C.3   1 <1>   0.3430 
 12 C        1.9070    -5.0570     0.9230 C.3   1 <1>   0.2630 
 13 N        4.1560    -1.0760     1.2950 N.pl3 1 <1>  -0.8380 
 14 C        5.1110    -0.4320     0.5920 C.ar  1 <1>   0.4610 
 15 N        4.9160     0.8250     0.1910 N.ar  1 <1>  -0.1790 
 16 C        6.3200    -1.0540     0.1990 C.ar  1 <1>  -0.1500 
 17 C        5.8320     1.5850    -0.5190 C.ar  1 <1>   0.3610 
 18 C        7.2510    -0.4020    -0.5480 C.ar  1 <1>  -0.1440 
 19 C        7.0200     0.9550    -0.9380 C.ar  1 <1>   0.0000 
 20 C        5.5850     2.9380    -0.8290 C.ar  1 <1>  -0.1440 
 21 C        8.5410    -1.1100    -0.9490 C.3   1 <1>  -0.0970 
 22 C        7.9170     1.7010    -1.7140 C.ar  1 <1>  -0.1500 
 23 C        6.4900     3.6350    -1.6080 C.ar  1 <1>  -0.1440 
 24 C        4.3300     3.6480    -0.3070 C.3   1 <1>  -0.0970 
 25 C        7.6530     3.0040    -2.0430 C.ar  1 <1>  -0.1500 
 26 C        6.2890     5.0890    -2.0250 C.3   1 <1>  -0.0960 
 27 H        1.7560     2.0470    -0.7830 H     1 <1>   0.4000 
 28 H        0.3130     0.6000     0.2260 H     1 <1>   0.0800 
 29 H        0.6670     0.2670    -1.3500 H     1 <1>   0.0800 
 30 H        1.8410    -2.7060     1.6810 H     1 <1>   0.0800 
 31 H        1.1560    -1.2150     2.3170 H     1 <1>   0.0800 
 32 H        1.2800     0.3500     1.8640 H     1 <1>   0.0800 
 33 H        0.7720    -1.9010    -1.7250 H     1 <1>   0.0800 
 34 H        2.1110    -0.8530    -2.0770 H     1 <1>   0.0800 
 35 H        0.8170    -3.7070    -0.1830 H     1 <1>   0.4500 
 36 H        4.3810    -2.8880     0.2270 H     1 <1>   0.0800 
 37 H        4.0030    -3.0840     1.9190 H     1 <1>   0.0800 
 38 H        3.2360    -0.8230     3.1830 H     1 <1>   0.0800 
 39 H        3.3820     0.6450     2.2760 H     1 <1>   0.0800 
 40 H        3.7330    -2.4700    -1.8220 H     1 <1>   0.0800 
 41 H        2.5540    -2.8960    -2.9960 H     1 <1>   0.0800 
 42 H        3.4210    -4.6060    -1.1220 H     1 <1>   0.0800 
 43 H        1.8470    -4.7260    -1.8780 H     1 <1>   0.0800 
 44 H        2.9350    -5.2670     1.1710 H     1 <1>   0.0800 
 45 H        1.4920    -5.9210     0.4270 H     1 <1>   0.0800 
 46 H        1.3570    -4.8950     1.8370 H     1 <1>   0.0800 
 47 H        3.9600     1.1860     0.2730 H     1 <1>   0.4570 
 48 H        6.4890    -2.0620     0.5280 H     1 <1>   0.1500 
 49 H        8.5710    -2.1150    -0.5670 H     1 <1>   0.0800 
 50 H        9.3920    -0.5810    -0.5560 H     1 <1>   0.0800 
 51 H        8.6240    -1.1570    -2.0200 H     1 <1>   0.0800 
 52 H        8.8310     1.2560    -2.0650 H     1 <1>   0.1500 
 53 H        4.5340     4.6840    -0.1030 H     1 <1>   0.0800 
 54 H        3.9770     3.2260     0.6160 H     1 <1>   0.0800 
 55 H        3.5490     3.6000    -1.0440 H     1 <1>   0.0800 
 56 H        8.3620     3.5490    -2.6460 H     1 <1>   0.1500 
 57 H        6.9540     5.3560    -2.8270 H     1 <1>   0.0800 
 58 H        6.4860     5.7420    -1.1940 H     1 <1>   0.0800 
 59 H        5.2840     5.2510    -2.3710 H     1 <1>   0.0800 
@<TRIPOS>BOND
  1   1   2  1   
  2   1  27  1   
  3   2   3  1   
  4   2  28  1   
  5   2  29  1   
  6   3   4  1   
  7   3   5  1   
  8   3   6  1   
  9   4   7  1   
 10   4   8  1   
 11   4  30  1   
 12   5   9  1   
 13   5  31  1   
 14   5  32  1   
 15   6  10  1   
 16   6  33  1   
 17   6  34  1   
 18   7  11  1   
 19   7  12  1   
 20   7  35  1   
 21   8  13  1   
 22   8  36  1   
 23   8  37  1   
 24   9  13  1   
 25   9  38  1   
 26   9  39  1   
 27  10  11  1   
 28  10  40  1   
 29  10  41  1   
 30  11  42  1   
 31  11  43  1   
 32  12  44  1   
 33  12  45  1   
 34  12  46  1   
 35  13  14  1   
 36  14  15  ar  
 37  14  16  ar  
 38  15  17  ar  
 39  15  47  1   
 40  16  18  ar  
 41  16  48  1   
 42  17  19  ar  
 43  17  20  ar  
 44  18  19  ar  
 45  18  21  1   
 46  19  22  ar  
 47  20  23  ar  
 48  20  24  1   
 49  21  49  1   
 50  21  50  1   
 51  21  51  1   
 52  22  25  ar  
 53  22  52  1   
 54  23  25  ar  
 55  23  26  1   
 56  24  53  1   
 57  24  54  1   
 58  24  55  1   
 59  25  56  1   
 60  26  57  1   
 61  26  58  1   
 62  26  59  1   
@<TRIPOS>SUBSTRUCTURE
  1 ****  14 GROUP 4 **** **** 0

# MOE 2024.06 (io_trps.svl 2023.06)
