@<TRIPOS>MOLECULE
NONAME
40 41 1 0 0 
SMALL
USER_CHARGES


@<TRIPOS>ATOM
  1 O       -0.2160     0.0240     0.0930 O.2   1 <1>  -0.5700 
  2 C       -0.0010     1.2170     0.0310 C.2   1 <1>   0.7800 
  3 O       -0.9820     2.1040    -0.1250 O.3   1 <1>  -0.4300 
  4 N        1.2440     1.7590     0.0980 N.am  1 <1>  -0.5470 
  5 C       -2.3640     1.8360    -0.2330 C.3   1 <1>   0.2800 
  6 C        2.4890     1.1390     0.2520 C.ar  1 <1>   0.1170 
  7 C       -2.6450     0.9910    -1.4810 C.3   1 <1>  -0.2400 
  8 C       -2.8780     1.1730     1.0510 C.3   1 <1>  -0.2400 
  9 C       -3.0260     3.2050    -0.3920 C.3   1 <1>  -0.2400 
 10 C        3.6110     1.7050    -0.3420 C.ar  1 <1>  -0.1500 
 11 C        2.6450    -0.0280     0.9930 C.ar  1 <1>  -0.1500 
 12 C        4.8500     1.1010    -0.2310 C.ar  1 <1>  -0.1500 
 13 C        3.8800    -0.6370     1.1120 C.ar  1 <1>  -0.1500 
 14 C        4.9850    -0.0830     0.4760 C.ar  1 <1>   0.0820 
 15 O        6.2070    -0.6700     0.4940 O.3   1 <1>  -0.3400 
 16 C        6.2680    -2.0810     0.4520 C.3   1 <1>   0.2580 
 17 C        7.6300    -2.5630    -0.0990 C.3   1 <1>   0.4720 
 18 C        5.6510    -2.6550    -0.8490 C.3   1 <1>   0.4720 
 19 N        6.8960    -3.4720    -1.0460 N.4   1 <1>  -0.8440 
 20 H        1.2430     2.7630    -0.0630 H     1 <1>   0.3700 
 21 H       -2.2540    -0.0040    -1.3740 H     1 <1>   0.0800 
 22 H       -2.2120     1.4510    -2.3510 H     1 <1>   0.0800 
 23 H       -3.7060     0.9060    -1.6340 H     1 <1>   0.0800 
 24 H       -2.4870     0.1780     1.1570 H     1 <1>   0.0800 
 25 H       -3.9490     1.0970     1.0200 H     1 <1>   0.0800 
 26 H       -2.6020     1.7560     1.9100 H     1 <1>   0.0800 
 27 H       -2.6600     3.6970    -1.2750 H     1 <1>   0.0800 
 28 H       -2.8190     3.8220     0.4650 H     1 <1>   0.0800 
 29 H       -4.0920     3.0970    -0.4810 H     1 <1>   0.0800 
 30 H        3.5130     2.6180    -0.9000 H     1 <1>   0.1500 
 31 H        1.7910    -0.4620     1.4840 H     1 <1>   0.1500 
 32 H        5.7110     1.5460    -0.6980 H     1 <1>   0.1500 
 33 H        3.9570    -1.5270     1.7070 H     1 <1>   0.1500 
 34 H        5.9580    -2.5420     1.3730 H     1 <1>   0.0000 
 35 H        8.2210    -3.1210     0.6050 H     1 <1>   0.0000 
 36 H        8.1660    -1.8010    -0.6360 H     1 <1>   0.0000 
 37 H        5.5440    -1.9220    -1.6290 H     1 <1>   0.0000 
 38 H        4.7890    -3.2790    -0.6930 H     1 <1>   0.0000 
 39 H        6.8030    -4.4300    -0.6930 H     1 <1>   0.4500 
 40 H        7.2540    -3.4300    -2.0070 H     1 <1>   0.4500 
@<TRIPOS>BOND
  1   1   2  2   
  2   2   3  1   
  3   2   4  am  
  4   3   5  1   
  5   4   6  1   
  6   4  20  1   
  7   5   7  1   
  8   5   8  1   
  9   5   9  1   
 10   6  10  ar  
 11   6  11  ar  
 12   7  21  1   
 13   7  22  1   
 14   7  23  1   
 15   8  24  1   
 16   8  25  1   
 17   8  26  1   
 18   9  27  1   
 19   9  28  1   
 20   9  29  1   
 21  10  12  ar  
 22  10  30  1   
 23  11  13  ar  
 24  11  31  1   
 25  12  14  ar  
 26  12  32  1   
 27  13  14  ar  
 28  13  33  1   
 29  14  15  1   
 30  15  16  1   
 31  16  17  1   
 32  16  18  1   
 33  16  34  1   
 34  17  19  1   
 35  17  35  1   
 36  17  36  1   
 37  18  19  1   
 38  18  37  1   
 39  18  38  1   
 40  19  39  1   
 41  19  40  1   
@<TRIPOS>SUBSTRUCTURE
  1 ****   6 GROUP 4 **** **** 0

# MOE 2024.06 (io_trps.svl 2023.06)
