@<TRIPOS>MOLECULE
NONAME
50 53 1 0 0 
SMALL
USER_CHARGES


@<TRIPOS>ATOM
  1 O       -0.0490     0.2370    -0.3000 O.2   1 <1>  -0.5700 
  2 C       -1.1030     0.6740     0.1000 C.2   1 <1>   0.5690 
  3 N       -2.3050     0.1910    -0.3600 N.am  1 <1>  -0.6600 
  4 C       -1.0370     1.7700     1.1550 C.3   1 <1>  -0.0990 
  5 C       -2.3600    -0.8410    -1.4330 C.3   1 <1>   0.1400 
  6 C       -3.6530     0.5750     0.1420 C.3   1 <1>   0.1400 
  7 C       -1.3640     3.1740     0.6060 C.3   1 <1>  -0.0800 
  8 C       -3.0250    -2.1020    -0.8790 C.3   1 <1>  -0.1600 
  9 C       -4.3280    -0.6630     0.7320 C.3   1 <1>  -0.1600 
 10 C       -0.3360     3.6190    -0.4420 C.3   1 <1>  -0.2400 
 11 C       -1.4070     4.1930     1.7520 C.3   1 <1>  -0.2400 
 12 C       -4.4090    -1.8010    -0.2950 C.3   1 <1>   0.4600 
 13 O       -5.2140    -1.3850    -1.3790 O.3   1 <1>  -0.5600 
 14 C       -5.0060    -3.0590     0.3230 C.2   1 <1>  -0.3320 
 15 C       -6.6130    -1.4750    -1.2420 C.3   1 <1>   0.1200 
 16 N       -4.4380    -3.8350     1.2950 N.pl3 1 <1>   0.0330 
 17 C       -6.1990    -3.5820    -0.0220 C.2   1 <1>  -0.1810 
 18 C       -7.0640    -2.9360    -1.0750 C.3   1 <1>   0.0210 
 19 C       -5.2960    -4.8730     1.5650 C.ar  1 <1>  -0.1520 
 20 C       -6.4160    -4.7440     0.7480 C.ar  1 <1>   0.0000 
 21 C       -5.1870    -5.9350     2.4670 C.ar  1 <1>  -0.1500 
 22 C       -7.4450    -5.6870     0.8280 C.ar  1 <1>  -0.1500 
 23 C       -6.2070    -6.8560     2.5370 C.ar  1 <1>  -0.1500 
 24 C       -7.3360    -6.7320     1.7170 C.ar  1 <1>  -0.1500 
 25 H       -0.0440     1.7790     1.5650 H     1 <1>   0.0800 
 26 H       -1.7000     1.5170     1.9590 H     1 <1>   0.0800 
 27 H       -1.3730    -1.0790    -1.7910 H     1 <1>   0.0800 
 28 H       -2.9300    -0.4590    -2.2630 H     1 <1>   0.0800 
 29 H       -4.2380     0.9550    -0.6800 H     1 <1>   0.0800 
 30 H       -3.5950     1.3440     0.8890 H     1 <1>   0.0800 
 31 H       -2.3330     3.1540     0.1370 H     1 <1>   0.0800 
 32 H       -2.3870    -2.5120    -0.1190 H     1 <1>   0.0800 
 33 H       -3.1230    -2.8370    -1.6560 H     1 <1>   0.0800 
 34 H       -5.3090    -0.4180     1.0890 H     1 <1>   0.0800 
 35 H       -3.7550    -0.9920     1.5790 H     1 <1>   0.0800 
 36 H        0.6530     3.6370    -0.0200 H     1 <1>   0.0800 
 37 H       -0.5730     4.6030    -0.8070 H     1 <1>   0.0800 
 38 H       -0.3350     2.9440    -1.2800 H     1 <1>   0.0800 
 39 H       -0.4510     4.2510     2.2420 H     1 <1>   0.0800 
 40 H       -2.1500     3.9120     2.4780 H     1 <1>   0.0800 
 41 H       -1.6570     5.1680     1.3740 H     1 <1>   0.0800 
 42 H       -7.0560    -1.0490    -2.1240 H     1 <1>   0.0800 
 43 H       -6.9120    -0.8940    -0.3890 H     1 <1>   0.0800 
 44 H       -3.5270    -3.6920     1.7400 H     1 <1>   0.2700 
 45 H       -6.9570    -3.4630    -2.0060 H     1 <1>   0.0800 
 46 H       -8.0960    -2.9650    -0.7780 H     1 <1>   0.0800 
 47 H       -4.3170    -6.0230     3.0920 H     1 <1>   0.1500 
 48 H       -8.3040    -5.5800     0.1930 H     1 <1>   0.1500 
 49 H       -6.1470    -7.6820     3.2230 H     1 <1>   0.1500 
 50 H       -8.1190    -7.4660     1.7910 H     1 <1>   0.1500 
@<TRIPOS>BOND
  1   1   2  2   
  2   2   3  am  
  3   2   4  1   
  4   3   5  1   
  5   3   6  1   
  6   4   7  1   
  7   4  25  1   
  8   4  26  1   
  9   5   8  1   
 10   5  27  1   
 11   5  28  1   
 12   6   9  1   
 13   6  29  1   
 14   6  30  1   
 15   7  10  1   
 16   7  11  1   
 17   7  31  1   
 18   8  12  1   
 19   8  32  1   
 20   8  33  1   
 21   9  12  1   
 22   9  34  1   
 23   9  35  1   
 24  10  36  1   
 25  10  37  1   
 26  10  38  1   
 27  11  39  1   
 28  11  40  1   
 29  11  41  1   
 30  12  13  1   
 31  12  14  1   
 32  13  15  1   
 33  14  16  1   
 34  14  17  2   
 35  15  18  1   
 36  15  42  1   
 37  15  43  1   
 38  16  19  1   
 39  16  44  1   
 40  17  18  1   
 41  17  20  1   
 42  18  45  1   
 43  18  46  1   
 44  19  20  ar  
 45  19  21  ar  
 46  20  22  ar  
 47  21  23  ar  
 48  21  47  1   
 49  22  24  ar  
 50  22  48  1   
 51  23  24  ar  
 52  23  49  1   
 53  24  50  1   
@<TRIPOS>SUBSTRUCTURE
  1 ****  12 GROUP 4 **** **** 0

# MOE 2024.06 (io_trps.svl 2023.06)
