@<TRIPOS>MOLECULE
NONAME
53 55 1 0 0 
SMALL
USER_CHARGES


@<TRIPOS>ATOM
  1 S        0.8790     1.6350    -1.6920 S.o2  1 <1>   1.3330 
  2 O        1.8900     2.6250    -1.3800 O.2   1 <1>  -0.6500 
  3 O        0.7850     1.0720    -3.0150 O.2   1 <1>  -0.6500 
  4 N        1.0390     0.3710    -0.5730 N.am  1 <1>  -0.8490 
  5 C       -0.6900     2.3910    -1.2470 C.3   1 <1>  -0.0550 
  6 C        2.4280    -0.1070    -0.5060 C.3   1 <1>   0.1160 
  7 C        0.1720    -0.7770    -0.8810 C.3   1 <1>   0.1160 
  8 C       -0.8820     2.8050     0.2440 C.3   1 <1>  -0.0800 
  9 C       -1.4870     4.2090     0.3160 C.3   1 <1>   0.2000 
 10 C        0.4040     2.9840     1.0630 C.3   1 <1>   0.3430 
 11 O       -2.1790     4.3330     1.5150 O.3   1 <1>  -0.6800 
 12 C       -0.2770     5.1600     0.3080 C.3   1 <1>   0.3430 
 13 N        0.9120     4.3180     0.6670 N.4   1 <1>  -0.9590 
 14 C        1.8550     4.9460     1.6320 C.3   1 <1>   0.4860 
 15 C        2.1840     6.3440     1.1590 C.ar  1 <1>  -0.1440 
 16 C        2.9300     6.5170    -0.0150 C.ar  1 <1>   0.0000 
 17 C        1.7490     7.4550     1.8500 C.ar  1 <1>  -0.1500 
 18 C        3.1950     7.8020    -0.4800 C.ar  1 <1>  -0.1520 
 19 C        3.5370     5.6330    -0.9350 C.2   1 <1>  -0.1500 
 20 C        2.0320     8.7430     1.3830 C.ar  1 <1>  -0.1500 
 21 N        3.9200     7.7060    -1.6460 N.pl3 1 <1>   0.0480 
 22 C        2.7470     8.9240     0.2240 C.ar  1 <1>  -0.1500 
 23 C        4.1160     6.3800    -1.9020 C.2   1 <1>  -0.3020 
 24 C        4.4250     8.8260    -2.4670 C.3   1 <1>   0.0960 
 25 C        5.7630     9.3320    -1.9200 C.3   1 <1>  -0.2400 
 26 H       -0.8080     3.2530    -1.8760 H     1 <1>   0.0800 
 27 H       -1.4840     1.7210    -1.5120 H     1 <1>   0.0800 
 28 H        2.5190    -0.8980     0.2190 H     1 <1>   0.0800 
 29 H        3.0860     0.6940    -0.2140 H     1 <1>   0.0800 
 30 H        2.7460    -0.4760    -1.4690 H     1 <1>   0.0800 
 31 H        0.2780    -1.5370    -0.1240 H     1 <1>   0.0800 
 32 H        0.4310    -1.2050    -1.8370 H     1 <1>   0.0800 
 33 H       -0.8600    -0.4750    -0.9090 H     1 <1>   0.0800 
 34 H       -1.5170     2.0750     0.7160 H     1 <1>   0.0800 
 35 H       -2.1820     4.4240    -0.4790 H     1 <1>   0.0800 
 36 H        1.1330     2.2100     0.8860 H     1 <1>   0.0800 
 37 H        0.1570     2.9860     2.1120 H     1 <1>   0.0800 
 38 H       -1.6250     4.1900     2.3050 H     1 <1>   0.4000 
 39 H       -0.4290     5.9630     1.0090 H     1 <1>   0.0800 
 40 H       -0.1350     5.5770    -0.6760 H     1 <1>   0.0800 
 41 H        1.4650     4.1720    -0.2030 H     1 <1>   0.4500 
 42 H        1.4070     4.9950     2.6100 H     1 <1>   0.0800 
 43 H        2.7610     4.3660     1.6970 H     1 <1>   0.0800 
 44 H        1.1830     7.3630     2.7620 H     1 <1>   0.1500 
 45 H        3.5430     4.5590    -0.8680 H     1 <1>   0.1500 
 46 H        1.6850     9.5960     1.9410 H     1 <1>   0.1500 
 47 H        2.9670     9.9120    -0.1390 H     1 <1>   0.1500 
 48 H        4.6690     6.0440    -2.7620 H     1 <1>   0.1500 
 49 H        4.5470     8.4840    -3.4790 H     1 <1>   0.0800 
 50 H        3.6980     9.6170    -2.4610 H     1 <1>   0.0800 
 51 H        6.4960     8.5440    -1.9410 H     1 <1>   0.0800 
 52 H        5.6470     9.6810    -0.9100 H     1 <1>   0.0800 
 53 H        6.1200    10.1460    -2.5250 H     1 <1>   0.0800 
@<TRIPOS>BOND
  1   1   2  2   
  2   1   3  2   
  3   1   4  am  
  4   1   5  1   
  5   4   6  1   
  6   4   7  1   
  7   5   8  1   
  8   5  26  1   
  9   5  27  1   
 10   6  28  1   
 11   6  29  1   
 12   6  30  1   
 13   7  31  1   
 14   7  32  1   
 15   7  33  1   
 16   8   9  1   
 17   8  10  1   
 18   8  34  1   
 19   9  11  1   
 20   9  12  1   
 21   9  35  1   
 22  10  13  1   
 23  10  36  1   
 24  10  37  1   
 25  11  38  1   
 26  12  13  1   
 27  12  39  1   
 28  12  40  1   
 29  13  14  1   
 30  13  41  1   
 31  14  15  1   
 32  14  42  1   
 33  14  43  1   
 34  15  16  ar  
 35  15  17  ar  
 36  16  18  ar  
 37  16  19  1   
 38  17  20  ar  
 39  17  44  1   
 40  18  21  1   
 41  18  22  ar  
 42  19  23  2   
 43  19  45  1   
 44  20  22  ar  
 45  20  46  1   
 46  21  23  1   
 47  21  24  1   
 48  22  47  1   
 49  23  48  1   
 50  24  25  1   
 51  24  49  1   
 52  24  50  1   
 53  25  51  1   
 54  25  52  1   
 55  25  53  1   
@<TRIPOS>SUBSTRUCTURE
  1 ****  13 GROUP 4 **** **** 0

# MOE 2024.06 (io_trps.svl 2023.06)
