@<TRIPOS>MOLECULE
NONAME
46 49 1 0 0 
SMALL
USER_CHARGES


@<TRIPOS>ATOM
  1 CL      -0.3710    -0.0700    -0.8280 Cl    1 <1>  -0.1770 
  2 C       -1.0670    -1.5770    -0.2800 C.ar  1 <1>   0.1770 
  3 C       -0.5180    -2.7670    -0.6860 C.ar  1 <1>  -0.1500 
  4 C       -2.1780    -1.5240     0.5700 C.ar  1 <1>  -0.1500 
  5 C       -1.0950    -3.9590    -0.2330 C.ar  1 <1>   0.0000 
  6 C       -2.7500    -2.6910     1.0210 C.ar  1 <1>  -0.1500 
  7 C       -2.2000    -3.9110     0.6110 C.ar  1 <1>  -0.1520 
  8 C       -0.8090    -5.3210    -0.4330 C.2   1 <1>  -0.1500 
  9 N       -2.5630    -5.1970     0.9060 N.pl3 1 <1>   0.0330 
 10 C       -1.7200    -6.0660     0.2580 C.2   1 <1>  -0.2370 
 11 C       -1.8440    -7.4950     0.3760 C.2   1 <1>   0.7150 
 12 O       -0.8520    -8.1970     0.3740 O.2   1 <1>  -0.5700 
 13 N       -3.0850    -8.0740     0.4790 N.am  1 <1>  -0.6600 
 14 C       -4.2370    -7.6180    -0.3470 C.3   1 <1>   0.1400 
 15 C       -3.2720    -9.5040     0.8260 C.3   1 <1>   0.1400 
 16 C       -5.1790    -8.8250    -0.4700 C.3   1 <1>   0.2000 
 17 C       -4.2710   -10.0290    -0.2040 C.3   1 <1>  -0.0800 
 18 O       -6.1500    -8.7610     0.5350 O.3   1 <1>  -0.5600 
 19 C       -5.0070   -11.3040     0.2450 C.3   1 <1>   0.0200 
 20 C       -7.3090    -8.0650     0.1960 C.3   1 <1>   0.0400 
 21 C       -4.0950   -12.5160     0.3360 C.2   1 <1>  -0.0400 
 22 O       -4.5820   -13.6350     0.8050 O.3   1 <1>  -0.0190 
 23 C       -2.8070   -12.7340     0.0210 C.2   1 <1>  -0.1500 
 24 N       -3.6920   -14.5850     0.8240 N.2   1 <1>  -0.4100 
 25 C       -2.6120   -14.0700     0.3580 C.2   1 <1>   0.1080 
 26 C       -1.3090   -14.8210     0.2000 C.3   1 <1>  -0.0590 
 27 H        0.3360    -2.7950    -1.3370 H     1 <1>   0.1500 
 28 H       -2.5660    -0.5630     0.8580 H     1 <1>   0.1500 
 29 H       -3.6030    -2.6740     1.6760 H     1 <1>   0.1500 
 30 H        0.0050    -5.6900    -1.0340 H     1 <1>   0.1500 
 31 H       -3.3110    -5.4790     1.5490 H     1 <1>   0.2700 
 32 H       -4.7350    -6.7830     0.1110 H     1 <1>   0.0800 
 33 H       -3.8780    -7.3350    -1.3210 H     1 <1>   0.0800 
 34 H       -2.3450   -10.0510     0.7980 H     1 <1>   0.0800 
 35 H       -3.6880    -9.5660     1.8180 H     1 <1>   0.0800 
 36 H       -5.6590    -8.8860    -1.4320 H     1 <1>   0.0800 
 37 H       -3.7310   -10.2390    -1.1100 H     1 <1>   0.0800 
 38 H       -5.7950   -11.5260    -0.4530 H     1 <1>   0.0800 
 39 H       -5.4610   -11.1440     1.2070 H     1 <1>   0.0800 
 40 H       -7.9600    -8.0640     1.0530 H     1 <1>   0.0800 
 41 H       -7.7950    -8.5630    -0.6240 H     1 <1>   0.0800 
 42 H       -7.0590    -7.0520    -0.0690 H     1 <1>   0.0800 
 43 H       -2.0680   -12.0740    -0.3930 H     1 <1>   0.1500 
 44 H       -0.5390   -14.3380     0.7730 H     1 <1>   0.0800 
 45 H       -1.0230   -14.8400    -0.8350 H     1 <1>   0.0800 
 46 H       -1.4230   -15.8310     0.5500 H     1 <1>   0.0800 
@<TRIPOS>BOND
  1   1   2  1   
  2   2   3  ar  
  3   2   4  ar  
  4   3   5  ar  
  5   3  27  1   
  6   4   6  ar  
  7   4  28  1   
  8   5   7  ar  
  9   5   8  1   
 10   6   7  ar  
 11   6  29  1   
 12   7   9  1   
 13   8  10  2   
 14   8  30  1   
 15   9  10  1   
 16   9  31  1   
 17  10  11  1   
 18  11  12  2   
 19  11  13  am  
 20  13  14  1   
 21  13  15  1   
 22  14  16  1   
 23  14  32  1   
 24  14  33  1   
 25  15  17  1   
 26  15  34  1   
 27  15  35  1   
 28  16  17  1   
 29  16  18  1   
 30  16  36  1   
 31  17  19  1   
 32  17  37  1   
 33  18  20  1   
 34  19  21  1   
 35  19  38  1   
 36  19  39  1   
 37  20  40  1   
 38  20  41  1   
 39  20  42  1   
 40  21  22  1   
 41  21  23  2   
 42  22  24  1   
 43  23  25  1   
 44  23  43  1   
 45  24  25  2   
 46  25  26  1   
 47  26  44  1   
 48  26  45  1   
 49  26  46  1   
@<TRIPOS>SUBSTRUCTURE
  1 ****  13 GROUP 4 **** **** 0

# MOE 2024.06 (io_trps.svl 2023.06)
