@<TRIPOS>MOLECULE
NONAME
52 54 1 0 0 
SMALL
USER_CHARGES


@<TRIPOS>ATOM
  1 O       -0.4850     0.3750     1.1110 O.2   1 <1>  -0.5700 
  2 C       -1.3140     1.0460     0.5280 C.2   1 <1>   0.5440 
  3 N       -2.3650     0.4100    -0.0990 N.am  1 <1>  -0.6600 
  4 C       -1.1650     2.4890     0.5050 C.ar  1 <1>   0.0860 
  5 C       -2.6580    -1.0370     0.1230 C.3   1 <1>   0.1400 
  6 C       -3.2500     1.0280    -1.1290 C.3   1 <1>   0.1400 
  7 C        0.0100     3.0840     0.0520 C.ar  1 <1>  -0.1500 
  8 C       -2.1770     3.3390     0.9460 C.ar  1 <1>  -0.1500 
  9 C       -4.1650    -1.2520     0.3420 C.3   1 <1>   0.1200 
 10 C       -4.7230     0.7120    -0.8250 C.3   1 <1>   0.1200 
 11 C        0.1580     4.4580     0.0150 C.ar  1 <1>  -0.1500 
 12 C       -2.0310     4.7130     0.9060 C.ar  1 <1>  -0.1500 
 13 O       -4.9110    -0.6690    -0.6910 O.3   1 <1>  -0.5600 
 14 C       -0.8640     5.3140     0.4300 C.ar  1 <1>   0.0860 
 15 C       -0.7390     6.7620     0.3820 C.2   1 <1>   0.5440 
 16 O       -1.4510     7.4710     1.0640 O.2   1 <1>  -0.5700 
 17 N        0.1700     7.3710    -0.4420 N.am  1 <1>  -0.7300 
 18 C        0.2770     8.8430    -0.6290 C.3   1 <1>   0.1400 
 19 C        0.8650     9.5220     0.6150 C.3   1 <1>   0.2090 
 20 N        1.0600    10.9800     0.3640 N.pl3 1 <1>  -0.8690 
 21 C        2.1990    11.6680     0.0990 C.ar  1 <1>   0.1000 
 22 C        2.1890    13.0750     0.0520 C.ar  1 <1>  -0.1440 
 23 C        3.4230    11.0270    -0.1390 C.ar  1 <1>  -0.1500 
 24 C        3.3510    13.7600    -0.2100 C.ar  1 <1>   0.2110 
 25 C        0.8910    13.8410     0.2960 C.3   1 <1>  -0.0970 
 26 C        4.5580    11.7480    -0.3950 C.ar  1 <1>   0.2110 
 27 N        4.5160    13.1020    -0.4280 N.ar  1 <1>  -0.1790 
 28 H       -2.1210    -1.4040     0.9810 H     1 <1>   0.0800 
 29 H       -2.3370    -1.6010    -0.7350 H     1 <1>   0.0800 
 30 H       -3.0000     0.6210    -2.0940 H     1 <1>   0.0800 
 31 H       -3.1110     2.0920    -1.1770 H     1 <1>   0.0800 
 32 H        0.8170     2.4450    -0.2680 H     1 <1>   0.1500 
 33 H       -3.0870     2.9100     1.3280 H     1 <1>   0.1500 
 34 H       -4.4750    -0.8200     1.2770 H     1 <1>   0.0800 
 35 H       -4.3900    -2.3040     0.3570 H     1 <1>   0.0800 
 36 H       -5.3500     1.0510    -1.6310 H     1 <1>   0.0800 
 37 H       -5.0360     1.1930     0.0850 H     1 <1>   0.0800 
 38 H        1.0890     4.8670    -0.3330 H     1 <1>   0.1500 
 39 H       -2.8340     5.3420     1.2530 H     1 <1>   0.1500 
 40 H        0.6610     6.8010    -1.1330 H     1 <1>   0.3700 
 41 H       -0.7040     9.2440    -0.8200 H     1 <1>   0.0800 
 42 H        0.9060     9.0460    -1.4780 H     1 <1>   0.0800 
 43 H        1.7970     9.0570     0.8790 H     1 <1>   0.0800 
 44 H        0.1870     9.4010     1.4440 H     1 <1>   0.0800 
 45 H        0.1830    11.5020     0.4930 H     1 <1>   0.4000 
 46 H        3.4680     9.9550    -0.1220 H     1 <1>   0.1500 
 47 H        3.3600    14.8380    -0.2460 H     1 <1>   0.1500 
 48 H        0.1540    13.5620    -0.4380 H     1 <1>   0.0800 
 49 H        1.0400    14.9040     0.2330 H     1 <1>   0.0800 
 50 H        0.5060    13.6130     1.2750 H     1 <1>   0.0800 
 51 H        5.5000    11.2530    -0.5760 H     1 <1>   0.1500 
 52 H        5.3720    13.6340    -0.6200 H     1 <1>   0.4570 
@<TRIPOS>BOND
  1   1   2  2   
  2   2   3  am  
  3   2   4  1   
  4   3   5  1   
  5   3   6  1   
  6   4   7  ar  
  7   4   8  ar  
  8   5   9  1   
  9   5  28  1   
 10   5  29  1   
 11   6  10  1   
 12   6  30  1   
 13   6  31  1   
 14   7  11  ar  
 15   7  32  1   
 16   8  12  ar  
 17   8  33  1   
 18   9  13  1   
 19   9  34  1   
 20   9  35  1   
 21  10  13  1   
 22  10  36  1   
 23  10  37  1   
 24  11  14  ar  
 25  11  38  1   
 26  12  14  ar  
 27  12  39  1   
 28  14  15  1   
 29  15  16  2   
 30  15  17  am  
 31  17  18  1   
 32  17  40  1   
 33  18  19  1   
 34  18  41  1   
 35  18  42  1   
 36  19  20  1   
 37  19  43  1   
 38  19  44  1   
 39  20  21  1   
 40  20  45  1   
 41  21  22  ar  
 42  21  23  ar  
 43  22  24  ar  
 44  22  25  1   
 45  23  26  ar  
 46  23  46  1   
 47  24  27  ar  
 48  24  47  1   
 49  25  48  1   
 50  25  49  1   
 51  25  50  1   
 52  26  27  ar  
 53  26  51  1   
 54  27  52  1   
@<TRIPOS>SUBSTRUCTURE
  1 ****  15 GROUP 4 **** **** 0

# MOE 2024.06 (io_trps.svl 2023.06)
