@<TRIPOS>MOLECULE
NONAME
53 55 1 0 0 
SMALL
USER_CHARGES


@<TRIPOS>ATOM
  1 O       -0.8420    -1.1490     1.6330 O.2   1 <1>  -0.5700 
  2 C       -1.7400    -1.5610     0.9410 C.2   1 <1>   0.6900 
  3 N       -2.8880    -0.8910     0.7050 N.am  1 <1>  -0.4900 
  4 N       -1.7540    -2.7620     0.3300 N.am  1 <1>  -0.7300 
  5 C       -3.7380    -1.6350    -0.0360 C.2   1 <1>   0.5690 
  6 C       -3.0610    -2.9800    -0.3350 C.3   1 <1>   0.2810 
  7 O       -4.8320    -1.2850    -0.4040 O.2   1 <1>  -0.5700 
  8 C       -3.7500    -4.2090     0.2750 C.3   1 <1>  -0.1600 
  9 C       -5.1340    -4.4890    -0.3510 C.3   1 <1>  -0.0990 
 10 C       -5.8180    -5.7510     0.1690 C.2   1 <1>   0.5690 
 11 O       -5.1740    -6.5020     0.8630 O.2   1 <1>  -0.5700 
 12 N       -7.1290    -6.0120    -0.1500 N.am  1 <1>  -0.6600 
 13 C       -7.8140    -7.2290     0.3870 C.3   1 <1>   0.1400 
 14 C       -7.9860    -5.1230    -0.9860 C.3   1 <1>   0.1400 
 15 C       -8.9930    -6.8720     1.3070 C.3   1 <1>   0.1400 
 16 C       -8.8260    -4.2230    -0.0730 C.3   1 <1>  -0.1600 
 17 N      -10.1450    -6.3160     0.5290 N.am  1 <1>  -0.6600 
 18 C      -10.1690    -4.8290     0.3660 C.3   1 <1>   0.1400 
 19 C      -11.1710    -7.0820     0.0290 C.2   1 <1>   0.5690 
 20 O      -12.1030    -6.5880    -0.5620 O.2   1 <1>  -0.5700 
 21 C      -11.1630    -8.5950     0.2120 C.3   1 <1>  -0.0990 
 22 C      -12.2680    -9.3230    -0.5700 C.3   1 <1>  -0.0170 
 23 C      -12.1680   -10.8240    -0.3490 C.ar  1 <1>  -0.1430 
 24 C      -12.8410   -11.4330     0.7010 C.ar  1 <1>   0.1600 
 25 C      -11.4000   -11.6060    -1.1870 C.ar  1 <1>  -0.1500 
 26 N      -12.8040   -12.7270     0.9790 N.ar  1 <1>  -0.6200 
 27 C      -11.3530   -12.9570    -0.9160 C.ar  1 <1>  -0.1500 
 28 C      -12.0620   -13.4570     0.1620 C.ar  1 <1>   0.1600 
 29 H       -3.0710     0.0380     1.0660 H     1 <1>   0.3700 
 30 H       -1.1050    -3.5090     0.5800 H     1 <1>   0.3700 
 31 H       -2.9200    -3.0950    -1.3960 H     1 <1>   0.0800 
 32 H       -3.1210    -5.0680     0.1170 H     1 <1>   0.0800 
 33 H       -3.8690    -4.0690     1.3360 H     1 <1>   0.0800 
 34 H       -5.0280    -4.5870    -1.4160 H     1 <1>   0.0800 
 35 H       -5.7830    -3.6580    -0.1490 H     1 <1>   0.0800 
 36 H       -8.1590    -7.8330    -0.4330 H     1 <1>   0.0800 
 37 H       -7.1190    -7.8250     0.9510 H     1 <1>   0.0800 
 38 H       -7.3750    -4.5130    -1.6260 H     1 <1>   0.0800 
 39 H       -8.6230    -5.7140    -1.6230 H     1 <1>   0.0800 
 40 H       -8.6680    -6.1620     2.0470 H     1 <1>   0.0800 
 41 H       -9.3010    -7.7550     1.8350 H     1 <1>   0.0800 
 42 H       -8.2530    -3.9440     0.7930 H     1 <1>   0.0800 
 43 H       -9.0460    -3.3130    -0.6010 H     1 <1>   0.0800 
 44 H      -10.9050    -4.5650    -0.3750 H     1 <1>   0.0800 
 45 H      -10.4790    -4.3800     1.2930 H     1 <1>   0.0800 
 46 H      -10.2140    -8.9790    -0.1090 H     1 <1>   0.0800 
 47 H      -11.2820    -8.8090     1.2570 H     1 <1>   0.0800 
 48 H      -12.1760    -9.1020    -1.6190 H     1 <1>   0.0800 
 49 H      -13.2340    -8.9710    -0.2490 H     1 <1>   0.0800 
 50 H      -13.4420   -10.8220     1.3520 H     1 <1>   0.1500 
 51 H      -10.8600   -11.1860    -2.0180 H     1 <1>   0.1500 
 52 H      -10.7730   -13.6180    -1.5330 H     1 <1>   0.1500 
 53 H      -12.0180   -14.5140     0.3630 H     1 <1>   0.1500 
@<TRIPOS>BOND
  1   1   2  2   
  2   2   3  am  
  3   2   4  am  
  4   3   5  am  
  5   3  29  1   
  6   4   6  1   
  7   4  30  1   
  8   5   6  1   
  9   5   7  2   
 10   6   8  1   
 11   6  31  1   
 12   8   9  1   
 13   8  32  1   
 14   8  33  1   
 15   9  10  1   
 16   9  34  1   
 17   9  35  1   
 18  10  11  2   
 19  10  12  am  
 20  12  13  1   
 21  12  14  1   
 22  13  15  1   
 23  13  36  1   
 24  13  37  1   
 25  14  16  1   
 26  14  38  1   
 27  14  39  1   
 28  15  17  1   
 29  15  40  1   
 30  15  41  1   
 31  16  18  1   
 32  16  42  1   
 33  16  43  1   
 34  17  18  1   
 35  17  19  am  
 36  18  44  1   
 37  18  45  1   
 38  19  20  2   
 39  19  21  1   
 40  21  22  1   
 41  21  46  1   
 42  21  47  1   
 43  22  23  1   
 44  22  48  1   
 45  22  49  1   
 46  23  24  ar  
 47  23  25  ar  
 48  24  26  ar  
 49  24  50  1   
 50  25  27  ar  
 51  25  51  1   
 52  26  28  ar  
 53  27  28  ar  
 54  27  52  1   
 55  28  53  1   
@<TRIPOS>SUBSTRUCTURE
  1 ****  12 GROUP 4 **** **** 0

# MOE 2024.06 (io_trps.svl 2023.06)
