@<TRIPOS>MOLECULE
NONAME
44 45 1 0 0 
SMALL
USER_CHARGES


@<TRIPOS>ATOM
  1 S       -0.1610     0.3200    -0.8390 S.o2  1 <1>   1.5760 
  2 O       -1.0310    -0.2190    -1.8610 O.2   1 <1>  -0.6500 
  3 O        0.9930     1.1140    -1.1990 O.2   1 <1>  -0.6500 
  4 N       -1.1140     1.1860     0.2540 N.am  1 <1>  -0.8490 
  5 N        0.3640    -0.9440     0.1570 N.am  1 <1>  -0.8490 
  6 C       -1.4800     2.5210    -0.2470 C.3   1 <1>   0.1960 
  7 C       -2.2380     0.3830     0.7640 C.3   1 <1>   0.1960 
  8 C        1.3080    -0.4880     1.1810 C.3   1 <1>   0.1160 
  9 C        0.9550    -2.0300    -0.6240 C.3   1 <1>   0.1160 
 10 C       -2.8880     2.5150    -0.8410 C.3   1 <1>  -0.1600 
 11 C       -3.3440     1.2740     1.3310 C.3   1 <1>  -0.1600 
 12 C       -3.9430     2.1980     0.2450 C.3   1 <1>   0.2800 
 13 O       -4.2470     3.3750     0.9390 O.3   1 <1>  -0.5600 
 14 C       -5.2390     1.5880    -0.3800 C.3   1 <1>  -0.1600 
 15 C       -5.0490     4.3390     0.3140 C.3   1 <1>   0.1200 
 16 C       -6.5870     2.2880     0.1120 C.3   1 <1>   0.2800 
 17 C       -6.1100     3.6730    -0.5660 C.3   1 <1>   0.2000 
 18 O       -7.7550     2.8760     0.6120 O.3   1 <1>  -0.6800 
 19 C       -7.1120     0.9330     0.7380 C.3   1 <1>  -0.2400 
 20 O       -7.0920     4.6290    -0.8570 O.3   1 <1>  -0.6800 
 21 H       -1.4520     3.2180     0.5750 H     1 <1>   0.0800 
 22 H       -0.7680     2.8640    -0.9800 H     1 <1>   0.0800 
 23 H       -2.6540    -0.2240    -0.0230 H     1 <1>   0.0800 
 24 H       -1.8730    -0.2800     1.5310 H     1 <1>   0.0800 
 25 H        1.5660    -1.3030     1.8350 H     1 <1>   0.0800 
 26 H        0.8620     0.2930     1.7730 H     1 <1>   0.0800 
 27 H        2.2060    -0.1030     0.7250 H     1 <1>   0.0800 
 28 H        1.2530    -2.8350     0.0260 H     1 <1>   0.0800 
 29 H        1.8150    -1.6760    -1.1690 H     1 <1>   0.0800 
 30 H        0.2330    -2.4130    -1.3260 H     1 <1>   0.0800 
 31 H       -2.9100     1.7680    -1.6150 H     1 <1>   0.0800 
 32 H       -3.0870     3.4580    -1.3120 H     1 <1>   0.0800 
 33 H       -2.9100     1.8620     2.1220 H     1 <1>   0.0800 
 34 H       -4.1030     0.6610     1.7750 H     1 <1>   0.0800 
 35 H       -5.1860     1.6230    -1.4540 H     1 <1>   0.0800 
 36 H       -5.1360     0.5250    -0.2410 H     1 <1>   0.0800 
 37 H       -5.5200     4.9090     1.0950 H     1 <1>   0.0800 
 38 H       -4.4220     4.9870    -0.2700 H     1 <1>   0.0800 
 39 H       -5.6590     3.5270    -1.5310 H     1 <1>   0.0800 
 40 H       -7.7400     2.8150     1.5870 H     1 <1>   0.4000 
 41 H       -7.1870     0.1800    -0.0300 H     1 <1>   0.0800 
 42 H       -8.0890     0.8850     1.2080 H     1 <1>   0.0800 
 43 H       -6.4350     0.5840     1.4980 H     1 <1>   0.0800 
 44 H       -7.8850     4.3090    -0.3640 H     1 <1>   0.4000 
@<TRIPOS>BOND
  1   1   2  2   
  2   1   3  2   
  3   1   4  am  
  4   1   5  am  
  5   4   6  1   
  6   4   7  1   
  7   5   8  1   
  8   5   9  1   
  9   6  10  1   
 10   6  21  1   
 11   6  22  1   
 12   7  11  1   
 13   7  23  1   
 14   7  24  1   
 15   8  25  1   
 16   8  26  1   
 17   8  27  1   
 18   9  28  1   
 19   9  29  1   
 20   9  30  1   
 21  10  12  1   
 22  10  31  1   
 23  10  32  1   
 24  11  12  1   
 25  11  33  1   
 26  11  34  1   
 27  12  13  1   
 28  12  14  1   
 29  13  15  1   
 30  14  16  1   
 31  14  35  1   
 32  14  36  1   
 33  15  17  1   
 34  15  37  1   
 35  15  38  1   
 36  16  17  1   
 37  16  18  1   
 38  16  19  1   
 39  17  20  1   
 40  17  39  1   
 41  18  40  1   
 42  19  41  1   
 43  19  42  1   
 44  19  43  1   
 45  20  44  1   
@<TRIPOS>SUBSTRUCTURE
  1 ****  12 GROUP 4 **** **** 0

# MOE 2024.06 (io_trps.svl 2023.06)
