@<TRIPOS>MOLECULE
NONAME
49 51 1 0 0 
SMALL
USER_CHARGES


@<TRIPOS>ATOM
  1 S       -1.1130    -0.2350    -0.5820 S.o2  1 <1>   1.3330 
  2 O       -0.9420     1.1210    -0.1300 O.2   1 <1>  -0.6500 
  3 O       -1.7650    -0.5240    -1.8330 O.2   1 <1>  -0.6500 
  4 N        0.4340    -0.7680    -0.8150 N.am  1 <1>  -0.9780 
  5 C       -1.7630    -1.2680     0.7370 C.3   1 <1>  -0.0550 
  6 C       -1.8430    -2.7640     0.3830 C.3   1 <1>  -0.1600 
  7 C       -2.4620    -3.5870     1.5250 C.3   1 <1>  -0.0990 
  8 C       -2.5060    -5.0690     1.1900 C.2   1 <1>   0.5690 
  9 O       -1.5440    -5.7370     1.4800 O.2   1 <1>  -0.5700 
 10 N       -3.5960    -5.6160     0.5710 N.am  1 <1>  -0.6600 
 11 C       -4.8090    -4.9060     0.0950 C.3   1 <1>   0.1400 
 12 C       -3.6480    -7.0510     0.2070 C.3   1 <1>   0.1400 
 13 C       -5.5560    -5.9320    -0.7570 C.3   1 <1>   0.2000 
 14 C       -5.0780    -7.3000    -0.2730 C.3   1 <1>  -0.0800 
 15 O       -6.9290    -5.8260    -0.5970 O.3   1 <1>  -0.6800 
 16 C       -5.1800    -8.3860    -1.3570 C.3   1 <1>  -0.0170 
 17 C       -4.7370    -9.7420    -0.8190 C.ar  1 <1>  -0.1430 
 18 C       -5.5720   -10.5450    -0.0070 C.ar  1 <1>   0.0000 
 19 C       -3.4920   -10.2200    -1.1090 C.ar  1 <1>  -0.1500 
 20 C       -5.0510   -11.7770     0.4570 C.ar  1 <1>   0.3100 
 21 C       -6.8920   -10.2010     0.3710 C.ar  1 <1>  -0.1500 
 22 C       -3.0760   -11.4570    -0.6040 C.ar  1 <1>   0.1600 
 23 N       -3.8050   -12.2190     0.1490 N.ar  1 <1>  -0.6200 
 24 C       -5.8520   -12.5900     1.2750 C.ar  1 <1>  -0.1500 
 25 C       -7.6470   -11.0170     1.1670 C.ar  1 <1>  -0.1500 
 26 C       -7.1230   -12.2260     1.6280 C.ar  1 <1>  -0.1500 
 27 H        0.9910     0.0830    -0.7660 H     1 <1>   0.4200 
 28 H        0.4440    -1.0540    -1.7920 H     1 <1>   0.4200 
 29 H       -1.1450    -1.1480     1.6070 H     1 <1>   0.0800 
 30 H       -2.7460    -0.9190     0.9870 H     1 <1>   0.0800 
 31 H       -2.4300    -2.8900    -0.5110 H     1 <1>   0.0800 
 32 H       -0.8520    -3.1360     0.1790 H     1 <1>   0.0800 
 33 H       -3.4500    -3.2350     1.7520 H     1 <1>   0.0800 
 34 H       -1.8650    -3.4690     2.4120 H     1 <1>   0.0800 
 35 H       -5.4010    -4.6100     0.9430 H     1 <1>   0.0800 
 36 H       -4.5420    -4.0480    -0.4950 H     1 <1>   0.0800 
 37 H       -2.9360    -7.2330    -0.5800 H     1 <1>   0.0800 
 38 H       -3.4030    -7.6710     1.0550 H     1 <1>   0.0800 
 39 H       -5.3230    -5.7790    -1.7970 H     1 <1>   0.0800 
 40 H       -5.6500    -7.5920     0.5900 H     1 <1>   0.0800 
 41 H       -7.1850    -6.0330     0.3220 H     1 <1>   0.4000 
 42 H       -4.5650    -8.1110    -2.1960 H     1 <1>   0.0800 
 43 H       -6.1900    -8.4490    -1.7240 H     1 <1>   0.0800 
 44 H       -2.8030    -9.6690    -1.7220 H     1 <1>   0.1500 
 45 H       -7.3170    -9.2780     0.0240 H     1 <1>   0.1500 
 46 H       -2.0860   -11.7960    -0.8560 H     1 <1>   0.1500 
 47 H       -5.4280   -13.5160     1.6160 H     1 <1>   0.1500 
 48 H       -8.6500   -10.7420     1.4470 H     1 <1>   0.1500 
 49 H       -7.7260   -12.8600     2.2560 H     1 <1>   0.1500 
@<TRIPOS>BOND
  1   1   2  2   
  2   1   3  2   
  3   1   4  am  
  4   1   5  1   
  5   4  27  1   
  6   4  28  1   
  7   5   6  1   
  8   5  29  1   
  9   5  30  1   
 10   6   7  1   
 11   6  31  1   
 12   6  32  1   
 13   7   8  1   
 14   7  33  1   
 15   7  34  1   
 16   8   9  2   
 17   8  10  am  
 18  10  11  1   
 19  10  12  1   
 20  11  13  1   
 21  11  35  1   
 22  11  36  1   
 23  12  14  1   
 24  12  37  1   
 25  12  38  1   
 26  13  14  1   
 27  13  15  1   
 28  13  39  1   
 29  14  16  1   
 30  14  40  1   
 31  15  41  1   
 32  16  17  1   
 33  16  42  1   
 34  16  43  1   
 35  17  18  ar  
 36  17  19  ar  
 37  18  20  ar  
 38  18  21  ar  
 39  19  22  ar  
 40  19  44  1   
 41  20  23  ar  
 42  20  24  ar  
 43  21  25  ar  
 44  21  45  1   
 45  22  23  ar  
 46  22  46  1   
 47  24  26  ar  
 48  24  47  1   
 49  25  26  ar  
 50  25  48  1   
 51  26  49  1   
@<TRIPOS>SUBSTRUCTURE
  1 ****  12 GROUP 4 **** **** 0

# MOE 2024.06 (io_trps.svl 2023.06)
