@<TRIPOS>MOLECULE
NONAME
42 43 1 0 0 
SMALL
USER_CHARGES


@<TRIPOS>ATOM
  1 S       -0.4810     0.1730     1.7080 S.o2  1 <1>   1.5000 
  2 O       -1.0760     1.2490     2.4620 O.2   1 <1>  -0.6500 
  3 O       -0.3780    -1.1370     2.3070 O.2   1 <1>  -0.6500 
  4 N       -1.4960     0.0430     0.3730 N.am  1 <1>  -0.9140 
  5 C        1.0850     0.7170     0.9840 C.2   1 <1>  -0.0220 
  6 C       -1.5980    -1.2210    -0.3650 C.3   1 <1>   0.2760 
  7 S        2.5550    -0.1470     1.4290 S.3   1 <1>  -0.0800 
  8 C        1.3960     1.7100     0.1230 C.2   1 <1>  -0.1500 
  9 C       -2.3770    -2.3130     0.3750 C.3   1 <1>  -0.0800 
 10 C       -0.2830    -1.8970    -0.7690 C.3   1 <1>   0.1200 
 11 C        3.5430     0.8800     0.4080 C.2   1 <1>  -0.1100 
 12 C        2.7850     1.8050    -0.2080 C.2   1 <1>  -0.1810 
 13 C       -1.3940    -3.4890     0.3720 C.3   1 <1>   0.1200 
 14 C       -3.6800    -2.6620    -0.3710 C.3   1 <1>  -0.0550 
 15 O       -0.5640    -3.2570    -0.7170 O.3   1 <1>  -0.5600 
 16 C        3.2850     2.8690    -1.1650 C.3   1 <1>  -0.0590 
 17 S       -4.8130    -3.6680     0.5870 S.o2  1 <1>   1.3330 
 18 O       -5.2550    -2.8640     1.7030 O.2   1 <1>  -0.6500 
 19 O       -4.2400    -4.9740     0.8210 O.2   1 <1>  -0.6500 
 20 N       -6.1200    -3.8580    -0.4780 N.am  1 <1>  -0.8490 
 21 C       -7.3920    -4.0340     0.2310 C.3   1 <1>   0.1160 
 22 C       -5.9330    -4.9530    -1.4380 C.3   1 <1>   0.1160 
 23 H       -2.4110     0.2780     0.7560 H     1 <1>   0.4200 
 24 H       -2.1120    -0.9980    -1.2850 H     1 <1>   0.0800 
 25 H        0.6800     2.3940    -0.3000 H     1 <1>   0.1500 
 26 H       -2.6090    -2.0350     1.3890 H     1 <1>   0.0800 
 27 H        0.5200    -1.7130    -0.0810 H     1 <1>   0.0800 
 28 H        0.0160    -1.6430    -1.7700 H     1 <1>   0.0800 
 29 H        4.5990     0.6800     0.3800 H     1 <1>   0.1500 
 30 H       -1.8600    -4.4530     0.2600 H     1 <1>   0.0800 
 31 H       -0.7860    -3.4870     1.2620 H     1 <1>   0.0800 
 32 H       -3.4380    -3.1620    -1.2890 H     1 <1>   0.0800 
 33 H       -4.1890    -1.7510    -0.6200 H     1 <1>   0.0800 
 34 H        2.8120     2.7530    -2.1240 H     1 <1>   0.0800 
 35 H        4.3490     2.7890    -1.2930 H     1 <1>   0.0800 
 36 H        3.0570     3.8470    -0.7790 H     1 <1>   0.0800 
 37 H       -8.2010    -4.1360    -0.4720 H     1 <1>   0.0800 
 38 H       -7.5920    -3.1750     0.8490 H     1 <1>   0.0800 
 39 H       -7.3530    -4.9100     0.8580 H     1 <1>   0.0800 
 40 H       -6.7450    -4.9670    -2.1450 H     1 <1>   0.0800 
 41 H       -5.8970    -5.9010    -0.9270 H     1 <1>   0.0800 
 42 H       -5.0130    -4.8190    -1.9810 H     1 <1>   0.0800 
@<TRIPOS>BOND
  1   1   2  2   
  2   1   3  2   
  3   1   4  am  
  4   1   5  1   
  5   4   6  1   
  6   4  23  1   
  7   5   7  1   
  8   5   8  2   
  9   6   9  1   
 10   6  10  1   
 11   6  24  1   
 12   7  11  1   
 13   8  12  1   
 14   8  25  1   
 15   9  13  1   
 16   9  14  1   
 17   9  26  1   
 18  10  15  1   
 19  10  27  1   
 20  10  28  1   
 21  11  12  2   
 22  11  29  1   
 23  12  16  1   
 24  13  15  1   
 25  13  30  1   
 26  13  31  1   
 27  14  17  1   
 28  14  32  1   
 29  14  33  1   
 30  16  34  1   
 31  16  35  1   
 32  16  36  1   
 33  17  18  2   
 34  17  19  2   
 35  17  20  am  
 36  20  21  1   
 37  20  22  1   
 38  21  37  1   
 39  21  38  1   
 40  21  39  1   
 41  22  40  1   
 42  22  41  1   
 43  22  42  1   
@<TRIPOS>SUBSTRUCTURE
  1 ****   6 GROUP 4 **** **** 0

# MOE 2024.06 (io_trps.svl 2023.06)
