@<TRIPOS>MOLECULE
NONAME
37 38 1 0 0 
SMALL
USER_CHARGES


@<TRIPOS>ATOM
  1 CL       0.8490     0.3440    -1.3930 Cl    1 <1>  -0.1770 
  2 C        1.6240    -1.0150    -0.6000 C.ar  1 <1>   0.1770 
  3 C        1.0290    -2.2710    -0.5920 C.ar  1 <1>   0.4100 
  4 C        2.8310    -0.8650     0.0240 C.ar  1 <1>   0.1600 
  5 N        1.6190    -3.2960     0.0040 N.ar  1 <1>  -0.6200 
  6 N       -0.1900    -2.5010    -1.1960 N.pl3 1 <1>  -0.8690 
  7 N        3.4290    -1.8800     0.6230 N.ar  1 <1>  -0.6200 
  8 C        2.7860    -3.0340     0.5750 C.ar  1 <1>   0.4770 
  9 C       -0.6950    -3.8590    -1.5220 C.3   1 <1>   0.2090 
 10 C        3.4680    -4.1970     1.2560 C.3   1 <1>  -0.0970 
 11 C       -1.1900    -4.5660    -0.2360 C.3   1 <1>   0.4230 
 12 N       -0.9600    -6.0360    -0.2120 N.4   1 <1>  -0.9590 
 13 C       -2.6850    -4.4130     0.0270 C.3   1 <1>  -0.1600 
 14 C       -1.8570    -6.5570     0.8510 C.3   1 <1>   0.3430 
 15 C        0.4750    -6.3510     0.0160 C.3   1 <1>   0.3430 
 16 C       -3.1000    -5.6780     0.7850 C.3   1 <1>  -0.1600 
 17 C        0.7140    -7.8370    -0.2140 C.3   1 <1>  -0.2400 
 18 H        3.3170     0.0950     0.0370 H     1 <1>   0.1500 
 19 H       -0.5510    -1.7330    -1.7790 H     1 <1>   0.4000 
 20 H        0.1110    -4.4170    -1.9660 H     1 <1>   0.0800 
 21 H       -1.4880    -3.7820    -2.2450 H     1 <1>   0.0800 
 22 H        2.8450    -4.5690     2.0460 H     1 <1>   0.0800 
 23 H        4.4090    -3.8880     1.6760 H     1 <1>   0.0800 
 24 H        3.6510    -4.9780     0.5420 H     1 <1>   0.0800 
 25 H       -0.6560    -4.1370     0.5970 H     1 <1>   0.0800 
 26 H       -1.2620    -6.4260    -1.1110 H     1 <1>   0.4500 
 27 H       -3.2330    -4.3420    -0.8970 H     1 <1>   0.0800 
 28 H       -2.8700    -3.5210     0.6010 H     1 <1>   0.0800 
 29 H       -1.3870    -6.4380     1.8140 H     1 <1>   0.0800 
 30 H       -2.0950    -7.5980     0.6970 H     1 <1>   0.0800 
 31 H        0.7610    -6.0760     1.0190 H     1 <1>   0.0800 
 32 H        1.0880    -5.7840    -0.6680 H     1 <1>   0.0800 
 33 H       -3.8870    -6.1920     0.2600 H     1 <1>   0.0800 
 34 H       -3.4450    -5.4490     1.7780 H     1 <1>   0.0800 
 35 H        0.1780    -8.4360     0.5010 H     1 <1>   0.0800 
 36 H        1.7630    -8.0470    -0.0960 H     1 <1>   0.0800 
 37 H        0.4310    -8.1210    -1.2110 H     1 <1>   0.0800 
@<TRIPOS>BOND
  1   1   2  1   
  2   2   3  ar  
  3   2   4  ar  
  4   3   5  ar  
  5   3   6  1   
  6   4   7  ar  
  7   4  18  1   
  8   5   8  ar  
  9   6   9  1   
 10   6  19  1   
 11   7   8  ar  
 12   8  10  1   
 13   9  11  1   
 14   9  20  1   
 15   9  21  1   
 16  10  22  1   
 17  10  23  1   
 18  10  24  1   
 19  11  12  1   
 20  11  13  1   
 21  11  25  1   
 22  12  14  1   
 23  12  15  1   
 24  12  26  1   
 25  13  16  1   
 26  13  27  1   
 27  13  28  1   
 28  14  16  1   
 29  14  29  1   
 30  14  30  1   
 31  15  17  1   
 32  15  31  1   
 33  15  32  1   
 34  16  33  1   
 35  16  34  1   
 36  17  35  1   
 37  17  36  1   
 38  17  37  1   
@<TRIPOS>SUBSTRUCTURE
  1 ****   5 GROUP 4 **** **** 0

# MOE 2024.06 (io_trps.svl 2023.06)
