@<TRIPOS>MOLECULE
NONAME
37 38 1 0 0 
SMALL
USER_CHARGES


@<TRIPOS>ATOM
  1 S       -1.2970     0.1050     0.0200 S.3   1 <1>  -0.0800 
  2 C       -0.2530    -1.2710    -0.1100 C.2   1 <1>   0.4420 
  3 C        0.0770     1.0920    -0.3590 C.2   1 <1>   0.1980 
  4 N        0.9520    -0.9410    -0.4040 N.2   1 <1>  -0.3380 
  5 N       -0.8260    -2.5010     0.1110 N.am  1 <1>  -0.4940 
  6 N        1.1330     0.4080    -0.5440 N.2   1 <1>  -0.3380 
  7 C       -0.0930     2.6090    -0.4240 C.3   1 <1>   0.3800 
  8 C       -0.2920    -3.7600     0.0870 C.2   1 <1>   0.7160 
  9 O       -0.6220     3.1080     0.7710 O.3   1 <1>  -0.5600 
 10 C       -1.0390     3.0400    -1.5440 C.3   1 <1>  -0.2400 
 11 O        0.8860    -3.9390    -0.1600 O.2   1 <1>  -0.5700 
 12 C       -1.1960    -4.8580     0.3690 C.2   1 <1>   0.2030 
 13 C        0.2430     3.0530     1.8650 C.3   1 <1>   0.0400 
 14 N       -2.4840    -4.7210     0.6450 N.2   1 <1>  -0.7070 
 15 C       -0.8390    -6.2100     0.3910 C.2   1 <1>  -0.1500 
 16 N       -2.9470    -5.9670     0.8400 N.pl3 1 <1>   0.3140 
 17 C       -1.9660    -6.8810     0.6910 C.2   1 <1>  -0.3020 
 18 C       -4.3740    -6.2360     1.1760 C.3   1 <1>   0.1760 
 19 C       -4.4930    -6.9080     2.5520 C.3   1 <1>  -0.2400 
 20 C       -5.0390    -7.0900     0.0880 C.3   1 <1>  -0.2400 
 21 H       -1.8210    -2.5210     0.3350 H     1 <1>   0.3700 
 22 H        0.8690     3.0660    -0.5840 H     1 <1>   0.0800 
 23 H       -2.0260     2.6480    -1.3740 H     1 <1>   0.0800 
 24 H       -0.6780     2.6720    -2.4860 H     1 <1>   0.0800 
 25 H       -1.0860     4.1130    -1.5880 H     1 <1>   0.0800 
 26 H       -0.2610     3.4890     2.7100 H     1 <1>   0.0800 
 27 H        1.1340     3.6170     1.6460 H     1 <1>   0.0800 
 28 H        0.4890     2.0280     2.0840 H     1 <1>   0.0800 
 29 H        0.1500    -6.5900     0.2000 H     1 <1>   0.1500 
 30 H       -2.1250    -7.9380     0.8050 H     1 <1>   0.1500 
 31 H       -4.8740    -5.2850     1.2170 H     1 <1>   0.0800 
 32 H       -4.0200    -7.8740     2.5490 H     1 <1>   0.0800 
 33 H       -5.5280    -7.0360     2.8100 H     1 <1>   0.0800 
 34 H       -4.0320    -6.2910     3.3030 H     1 <1>   0.0800 
 35 H       -4.5790    -8.0610     0.0270 H     1 <1>   0.0800 
 36 H       -4.9560    -6.5990    -0.8660 H     1 <1>   0.0800 
 37 H       -6.0830    -7.2210     0.3100 H     1 <1>   0.0800 
@<TRIPOS>BOND
  1   1   2  1   
  2   1   3  1   
  3   2   4  2   
  4   2   5  1   
  5   3   6  2   
  6   3   7  1   
  7   4   6  1   
  8   5   8  am  
  9   5  21  1   
 10   7   9  1   
 11   7  10  1   
 12   7  22  1   
 13   8  11  2   
 14   8  12  1   
 15   9  13  1   
 16  10  23  1   
 17  10  24  1   
 18  10  25  1   
 19  12  14  2   
 20  12  15  1   
 21  13  26  1   
 22  13  27  1   
 23  13  28  1   
 24  14  16  1   
 25  15  17  2   
 26  15  29  1   
 27  16  17  1   
 28  16  18  1   
 29  17  30  1   
 30  18  19  1   
 31  18  20  1   
 32  18  31  1   
 33  19  32  1   
 34  19  33  1   
 35  19  34  1   
 36  20  35  1   
 37  20  36  1   
 38  20  37  1   
@<TRIPOS>SUBSTRUCTURE
  1 ****   5 GROUP 4 **** **** 0

# MOE 2024.06 (io_trps.svl 2023.06)
