@<TRIPOS>MOLECULE
NONAME
54 56 1 0 0 
SMALL
USER_CHARGES


@<TRIPOS>ATOM
  1 O       -1.4940     1.5350     3.0500 O.2   1 <1>  -0.5700 
  2 C       -1.6830     1.8300     1.8840 C.2   1 <1>   0.5440 
  3 N       -2.4860     0.9920     1.1300 N.am  1 <1>  -0.6600 
  4 C       -1.0910     3.0480     1.3780 C.ar  1 <1>   0.0860 
  5 C       -3.2540     1.4270    -0.0790 C.3   1 <1>   0.2200 
  6 C       -2.3560    -0.4810     1.3530 C.3   1 <1>   0.0600 
  7 C       -0.3420     3.0910     0.1940 C.ar  1 <1>   0.3920 
  8 C       -1.2460     4.2390     2.0760 C.ar  1 <1>  -0.1500 
  9 C       -3.9070     2.8000     0.0950 C.3   1 <1>  -0.1600 
 10 C       -4.4550     0.5230    -0.3620 C.3   1 <1>  -0.1600 
 11 O       -0.1370     1.9350    -0.4700 O.3   1 <1>  -0.3630 
 12 N        0.1910     4.1960    -0.3300 N.ar  1 <1>  -0.6200 
 13 C       -0.6870     5.3830     1.5520 C.ar  1 <1>  -0.1500 
 14 C       -5.0980     2.8300    -0.8720 C.3   1 <1>  -0.0800 
 15 C       -5.4260     1.3660    -1.1970 C.3   1 <1>  -0.0800 
 16 C        0.6220     1.8710    -1.6570 C.3   1 <1>   0.1200 
 17 C        0.0090     5.3070     0.3590 C.ar  1 <1>   0.1600 
 18 C       -6.3680     3.4380    -0.2620 C.3   1 <1>  -0.1600 
 19 C       -6.8950     1.1530    -0.8120 C.3   1 <1>  -0.1600 
 20 C        0.5970     0.4290    -2.1530 C.3   1 <1>  -0.2400 
 21 C       -7.1640     2.2310     0.2320 C.3   1 <1>   0.4230 
 22 N       -8.6220     2.4840     0.4530 N.4   1 <1>  -0.9590 
 23 C       -9.3680     3.0180    -0.7350 C.3   1 <1>   0.2630 
 24 C       -8.8240     3.3800     1.6330 C.3   1 <1>   0.2630 
 25 H       -2.6070     1.4360    -0.9420 H     1 <1>   0.0800 
 26 H       -2.1740    -0.9820     0.4190 H     1 <1>   0.0800 
 27 H       -3.2530    -0.8650     1.8040 H     1 <1>   0.0800 
 28 H       -1.5300    -0.6910     2.0110 H     1 <1>   0.0800 
 29 H       -1.7880     4.2540     3.0060 H     1 <1>   0.1500 
 30 H       -4.2420     2.8990     1.1130 H     1 <1>   0.0800 
 31 H       -3.2240     3.5960    -0.1390 H     1 <1>   0.0800 
 32 H       -4.1620    -0.3660    -0.8920 H     1 <1>   0.0800 
 33 H       -4.9150     0.2510     0.5720 H     1 <1>   0.0800 
 34 H       -0.7860     6.3240     2.0610 H     1 <1>   0.1500 
 35 H       -4.8170     3.3550    -1.7720 H     1 <1>   0.0800 
 36 H       -5.2660     1.1700    -2.2450 H     1 <1>   0.0800 
 37 H        0.1820     2.5350    -2.3820 H     1 <1>   0.0800 
 38 H        1.6270     2.1890    -1.4350 H     1 <1>   0.0800 
 39 H        0.4400     6.2080    -0.0460 H     1 <1>   0.1500 
 40 H       -6.8930     3.9560    -1.0430 H     1 <1>   0.0800 
 41 H       -6.1410     4.1280     0.5320 H     1 <1>   0.0800 
 42 H       -7.0710     0.1640    -0.4290 H     1 <1>   0.0800 
 43 H       -7.4930     1.3070    -1.6910 H     1 <1>   0.0800 
 44 H       -0.4130     0.1240    -2.3550 H     1 <1>   0.0800 
 45 H        1.0310    -0.2220    -1.4150 H     1 <1>   0.0800 
 46 H        1.1690     0.3480    -3.0600 H     1 <1>   0.0800 
 47 H       -6.7170     1.9010     1.1580 H     1 <1>   0.0800 
 48 H       -9.0330     1.5680     0.6870 H     1 <1>   0.4500 
 49 H       -8.9920     3.9880    -1.0130 H     1 <1>   0.0800 
 50 H      -10.4170     3.1130    -0.5020 H     1 <1>   0.0800 
 51 H       -9.2680     2.3530    -1.5770 H     1 <1>   0.0800 
 52 H       -8.4090     4.3560     1.4380 H     1 <1>   0.0800 
 53 H       -8.3400     2.9680     2.5040 H     1 <1>   0.0800 
 54 H       -9.8750     3.4890     1.8450 H     1 <1>   0.0800 
@<TRIPOS>BOND
  1   1   2  2   
  2   2   3  am  
  3   2   4  1   
  4   3   5  1   
  5   3   6  1   
  6   4   7  ar  
  7   4   8  ar  
  8   5   9  1   
  9   5  10  1   
 10   5  25  1   
 11   6  26  1   
 12   6  27  1   
 13   6  28  1   
 14   7  11  1   
 15   7  12  ar  
 16   8  13  ar  
 17   8  29  1   
 18   9  14  1   
 19   9  30  1   
 20   9  31  1   
 21  10  15  1   
 22  10  32  1   
 23  10  33  1   
 24  11  16  1   
 25  12  17  ar  
 26  13  17  ar  
 27  13  34  1   
 28  14  15  1   
 29  14  18  1   
 30  14  35  1   
 31  15  19  1   
 32  15  36  1   
 33  16  20  1   
 34  16  37  1   
 35  16  38  1   
 36  17  39  1   
 37  18  21  1   
 38  18  40  1   
 39  18  41  1   
 40  19  21  1   
 41  19  42  1   
 42  19  43  1   
 43  20  44  1   
 44  20  45  1   
 45  20  46  1   
 46  21  22  1   
 47  21  47  1   
 48  22  23  1   
 49  22  24  1   
 50  22  48  1   
 51  23  49  1   
 52  23  50  1   
 53  23  51  1   
 54  24  52  1   
 55  24  53  1   
 56  24  54  1   
@<TRIPOS>SUBSTRUCTURE
  1 ****   9 GROUP 4 **** **** 0

# MOE 2024.06 (io_trps.svl 2023.06)
