@<TRIPOS>MOLECULE
NONAME
49 53 1 0 0 
SMALL
USER_CHARGES


@<TRIPOS>ATOM
  1 O       -4.2870    -1.7620    -1.8050 O.2   1 <1>  -0.5700 
  2 C       -3.3090    -1.4890    -1.1310 C.2   1 <1>   0.7150 
  3 N       -2.4780    -2.5350    -0.7910 N.am  1 <1>  -0.6600 
  4 C       -3.1030    -0.1380    -0.6540 C.2   1 <1>   0.0550 
  5 C       -2.3220    -2.8860     0.6560 C.3   1 <1>   0.2200 
  6 C       -2.1780    -3.5770    -1.8080 C.3   1 <1>   0.1400 
  7 O       -2.0590     0.1880     0.1060 O.3   1 <1>  -0.2800 
  8 C       -3.8500     0.9830    -0.8560 C.2   1 <1>  -0.1500 
  9 C       -1.1450    -3.8580     0.9310 C.3   1 <1>   0.1200 
 10 C       -3.6820    -3.3920     1.2080 C.3   1 <1>   0.3430 
 11 C       -2.6700    -4.9620    -1.3790 C.3   1 <1>  -0.0800 
 12 C       -2.1190     1.4710     0.3850 C.2   1 <1>  -0.0100 
 13 C       -3.2120     2.0250    -0.1820 C.2   1 <1>  -0.1500 
 14 O       -1.5020    -5.2080     0.7730 O.3   1 <1>  -0.5600 
 15 N       -4.1020    -4.7460     0.7060 N.4   1 <1>  -0.9590 
 16 C       -1.6040    -5.6980    -0.5340 C.3   1 <1>   0.1200 
 17 C       -4.0950    -4.9140    -0.7840 C.3   1 <1>   0.3430 
 18 C       -5.3760    -5.2110     1.3020 C.3   1 <1>   0.5240 
 19 C       -5.4340    -6.7130     1.1870 C.2   1 <1>  -0.1810 
 20 C       -6.0560    -7.4180     0.2100 C.2   1 <1>  -0.0260 
 21 C       -4.8870    -7.6660     2.0310 C.2   1 <1>   0.1390 
 22 N       -6.7470    -6.9790    -0.8980 N.2   1 <1>  -0.5760 
 23 N       -5.8650    -8.7460     0.5200 N.pl3 1 <1>   0.6010 
 24 N       -5.1290    -8.8850     1.6400 N.2   1 <1>  -0.7070 
 25 C       -7.2530    -7.9040    -1.6510 C.2   1 <1>   0.3760 
 26 C       -6.4080    -9.7110    -0.3010 C.2   1 <1>  -0.1810 
 27 C       -7.1080    -9.2980    -1.3900 C.2   1 <1>  -0.1360 
 28 H       -2.0860    -1.9790     1.1810 H     1 <1>   0.0800 
 29 H       -2.6510    -3.3120    -2.7400 H     1 <1>   0.0800 
 30 H       -1.1170    -3.5950    -1.9940 H     1 <1>   0.0800 
 31 H       -4.7580     1.0680    -1.4280 H     1 <1>   0.1500 
 32 H       -0.8410    -3.7470     1.9580 H     1 <1>   0.0800 
 33 H       -0.2930    -3.6320     0.3130 H     1 <1>   0.0800 
 34 H       -4.4410    -2.6670     0.9620 H     1 <1>   0.0800 
 35 H       -3.6060    -3.4320     2.2810 H     1 <1>   0.0800 
 36 H       -2.7490    -5.5210    -2.2940 H     1 <1>   0.0800 
 37 H       -1.3480     1.9170     0.9890 H     1 <1>   0.1500 
 38 H       -3.5430     3.0480    -0.1450 H     1 <1>   0.1500 
 39 H       -3.3480    -5.3830     1.0260 H     1 <1>   0.4500 
 40 H       -0.6320    -5.6310    -0.9950 H     1 <1>   0.0800 
 41 H       -1.8590    -6.7420    -0.4580 H     1 <1>   0.0800 
 42 H       -4.5780    -5.8440    -1.0320 H     1 <1>   0.0800 
 43 H       -4.6610    -4.1230    -1.2510 H     1 <1>   0.0800 
 44 H       -5.4290    -4.9320     2.3420 H     1 <1>   0.0800 
 45 H       -6.2120    -4.7730     0.7810 H     1 <1>   0.0800 
 46 H       -4.3170    -7.4540     2.9230 H     1 <1>   0.1500 
 47 H       -7.8130    -7.6190    -2.5260 H     1 <1>   0.0600 
 48 H       -6.2400   -10.7330    -0.0160 H     1 <1>   0.1500 
 49 H       -7.5650    -9.9890    -2.0760 H     1 <1>   0.1500 
@<TRIPOS>BOND
  1   1   2  2   
  2   2   3  am  
  3   2   4  1   
  4   3   5  1   
  5   3   6  1   
  6   4   7  1   
  7   4   8  2   
  8   5   9  1   
  9   5  10  1   
 10   5  28  1   
 11   6  11  1   
 12   6  29  1   
 13   6  30  1   
 14   7  12  1   
 15   8  13  1   
 16   8  31  1   
 17   9  14  1   
 18   9  32  1   
 19   9  33  1   
 20  10  15  1   
 21  10  34  1   
 22  10  35  1   
 23  11  16  1   
 24  11  17  1   
 25  11  36  1   
 26  12  13  2   
 27  12  37  1   
 28  13  38  1   
 29  14  16  1   
 30  15  17  1   
 31  15  18  1   
 32  15  39  1   
 33  16  40  1   
 34  16  41  1   
 35  17  42  1   
 36  17  43  1   
 37  18  19  1   
 38  18  44  1   
 39  18  45  1   
 40  19  20  2   
 41  19  21  1   
 42  20  22  1   
 43  20  23  1   
 44  21  24  2   
 45  21  46  1   
 46  22  25  2   
 47  23  24  1   
 48  23  26  1   
 49  25  27  1   
 50  25  47  1   
 51  26  27  2   
 52  26  48  1   
 53  27  49  1   
@<TRIPOS>SUBSTRUCTURE
  1 ****  17 GROUP 4 **** **** 0

# MOE 2024.06 (io_trps.svl 2023.06)
