@<TRIPOS>MOLECULE
NONAME
52 54 1 0 0 
SMALL
USER_CHARGES


@<TRIPOS>ATOM
  1 O       -1.0020     0.8410    -1.9250 O.2   1 <1>  -0.5700 
  2 C       -0.7470     1.9110    -1.4220 C.2   1 <1>   0.5690 
  3 N       -1.5660     2.5180    -0.5050 N.am  1 <1>  -0.5090 
  4 C        0.5350     2.6140    -1.8770 C.3   1 <1>   0.1810 
  5 C       -1.3000     3.9110    -0.0240 C.3   1 <1>   0.3640 
  6 C       -2.7430     1.8360     0.0900 C.3   1 <1>   0.0490 
  7 O        0.9140     3.6850    -1.0460 O.3   1 <1>  -0.5600 
  8 C       -2.5500     4.7790    -0.1730 C.ar  1 <1>  -0.1440 
  9 C       -0.1310     4.5940    -0.7710 C.3   1 <1>   0.2610 
 10 C       -2.8120     1.6840     1.5790 C.3   1 <1>  -0.2000 
 11 C       -2.5750     0.4870     0.7160 C.3   1 <1>  -0.2000 
 12 C       -2.9280     5.6260     0.8600 C.ar  1 <1>   0.1600 
 13 C       -3.3160     4.7630    -1.3260 C.ar  1 <1>  -0.1500 
 14 C        0.3870     5.8100     0.0060 C.2   1 <1>   0.5690 
 15 N       -3.9780     6.4320     0.8350 N.ar  1 <1>  -0.6200 
 16 C       -4.4120     5.5960    -1.3670 C.ar  1 <1>  -0.1500 
 17 O        0.2340     5.8580     1.2060 O.2   1 <1>  -0.5700 
 18 N        0.9780     6.8180    -0.6960 N.am  1 <1>  -0.7300 
 19 C       -4.6950     6.3980    -0.2750 C.ar  1 <1>   0.1600 
 20 C        1.3880     8.1500    -0.2180 C.3   1 <1>   0.3000 
 21 C        0.1920     8.8810     0.4400 C.3   1 <1>  -0.1600 
 22 C        2.5660     7.9660     0.7670 C.3   1 <1>  -0.1600 
 23 C        1.8520     8.9030    -1.4700 C.3   1 <1>  -0.2400 
 24 C       -1.1070     8.9430    -0.3870 C.3   1 <1>  -0.2400 
 25 C        3.2290     9.2590     1.2760 C.3   1 <1>  -0.2400 
 26 H        0.4020     2.9880    -2.8750 H     1 <1>   0.0800 
 27 H        1.3420     1.9050    -1.8800 H     1 <1>   0.0800 
 28 H       -1.0450     3.8380     1.0190 H     1 <1>   0.0800 
 29 H       -3.6540     2.0310    -0.4510 H     1 <1>   0.1000 
 30 H       -0.4940     4.9520    -1.7170 H     1 <1>   0.0800 
 31 H       -1.9990     2.0200     2.1970 H     1 <1>   0.1000 
 32 H       -3.7680     1.7800     2.0620 H     1 <1>   0.1000 
 33 H       -3.3670    -0.2320     0.6010 H     1 <1>   0.1000 
 34 H       -1.6000     0.0320     0.6990 H     1 <1>   0.1000 
 35 H       -2.3320     5.6510     1.7590 H     1 <1>   0.1500 
 36 H       -3.0770     4.1260    -2.1610 H     1 <1>   0.1500 
 37 H       -5.0470     5.6250    -2.2340 H     1 <1>   0.1500 
 38 H        1.2020     6.6650    -1.6770 H     1 <1>   0.3700 
 39 H       -5.5550     7.0440    -0.3160 H     1 <1>   0.1500 
 40 H       -0.0280     8.4110     1.3820 H     1 <1>   0.0800 
 41 H        0.4850     9.8900     0.6670 H     1 <1>   0.0800 
 42 H        2.2180     7.4210     1.6260 H     1 <1>   0.0800 
 43 H        3.3230     7.3650     0.2940 H     1 <1>   0.0800 
 44 H        2.0630     9.9290    -1.2320 H     1 <1>   0.0800 
 45 H        1.0930     8.8940    -2.2310 H     1 <1>   0.0800 
 46 H        2.7480     8.4610    -1.8670 H     1 <1>   0.0800 
 47 H       -1.4730     7.9560    -0.6050 H     1 <1>   0.0800 
 48 H       -0.9570     9.4740    -1.3090 H     1 <1>   0.0800 
 49 H       -1.8670     9.4560     0.1760 H     1 <1>   0.0800 
 50 H        2.5190     9.8780     1.7930 H     1 <1>   0.0800 
 51 H        3.6620     9.8200     0.4670 H     1 <1>   0.0800 
 52 H        4.0160     9.0100     1.9650 H     1 <1>   0.0800 
@<TRIPOS>BOND
  1   1   2  2   
  2   2   3  am  
  3   2   4  1   
  4   3   5  1   
  5   3   6  1   
  6   4   7  1   
  7   4  26  1   
  8   4  27  1   
  9   5   8  1   
 10   5   9  1   
 11   5  28  1   
 12   6  10  1   
 13   6  11  1   
 14   6  29  1   
 15   7   9  1   
 16   8  12  ar  
 17   8  13  ar  
 18   9  14  1   
 19   9  30  1   
 20  10  11  1   
 21  10  31  1   
 22  10  32  1   
 23  11  33  1   
 24  11  34  1   
 25  12  15  ar  
 26  12  35  1   
 27  13  16  ar  
 28  13  36  1   
 29  14  17  2   
 30  14  18  am  
 31  15  19  ar  
 32  16  19  ar  
 33  16  37  1   
 34  18  20  1   
 35  18  38  1   
 36  19  39  1   
 37  20  21  1   
 38  20  22  1   
 39  20  23  1   
 40  21  24  1   
 41  21  40  1   
 42  21  41  1   
 43  22  25  1   
 44  22  42  1   
 45  22  43  1   
 46  23  44  1   
 47  23  45  1   
 48  23  46  1   
 49  24  47  1   
 50  24  48  1   
 51  24  49  1   
 52  25  50  1   
 53  25  51  1   
 54  25  52  1   
@<TRIPOS>SUBSTRUCTURE
  1 ****   9 GROUP 4 **** **** 0

# MOE 2024.06 (io_trps.svl 2023.06)
