@<TRIPOS>MOLECULE
NONAME
56 59 1 0 0 
SMALL
USER_CHARGES


@<TRIPOS>ATOM
  1 O       -0.6610     0.3210    -1.2700 O.2   1 <1>  -0.5700 
  2 C       -1.4260     0.9160    -0.5370 C.2   1 <1>   0.5440 
  3 N       -2.4640     0.2070     0.0410 N.am  1 <1>  -0.6600 
  4 C       -1.2650     2.3450    -0.3360 C.ar  1 <1>   0.0860 
  5 C       -3.7870     0.8210     0.3550 C.3   1 <1>   0.1400 
  6 C       -2.4010    -1.2800     0.1650 C.3   1 <1>   0.1400 
  7 C       -1.5100     2.9400     0.8930 C.ar  1 <1>  -0.1500 
  8 C       -0.8690     3.1760    -1.4070 C.ar  1 <1>  -0.1500 
  9 C       -4.8940     0.1770    -0.5170 C.3   1 <1>   0.4230 
 10 C       -3.5110    -1.9130    -0.6820 C.3   1 <1>  -0.1600 
 11 C       -1.4300     4.3180     1.0360 C.ar  1 <1>   0.2270 
 12 C       -0.7610     4.5410    -1.2730 C.ar  1 <1>  -0.1500 
 13 N       -6.2670     0.7780    -0.3140 N.4   1 <1>  -0.9590 
 14 C       -4.9210    -1.3670    -0.3390 C.3   1 <1>   0.0000 
 15 N       -1.6880     5.0840     2.1300 N.2   1 <1>  -0.5650 
 16 C       -1.0570     5.1090    -0.0340 C.ar  1 <1>  -0.1520 
 17 C       -7.2390     0.2300    -1.3140 C.3   1 <1>   0.3430 
 18 C       -6.2850     2.2650    -0.3810 C.3   1 <1>   0.4810 
 19 C       -5.9370    -1.9540    -1.3480 C.3   1 <1>  -0.1600 
 20 C       -5.3080    -1.7480     1.1210 C.3   1 <1>   0.1200 
 21 C       -1.4580     6.2880     1.7340 C.2   1 <1>   0.0360 
 22 N       -1.0700     6.3790     0.4370 N.pl3 1 <1>   0.0330 
 23 C       -7.3190    -1.2950    -1.2210 C.3   1 <1>  -0.1600 
 24 C       -7.6600     2.7330     0.0340 C.2   1 <1>  -0.2880 
 25 O       -5.2650    -3.1180     1.3110 O.3   1 <1>  -0.6800 
 26 C       -8.5510     3.3120    -0.7770 C.2   1 <1>  -0.2880 
 27 C       -9.9270     3.7840    -0.3410 C.3   1 <1>  -0.1020 
 28 H       -3.9920     0.6940     1.4030 H     1 <1>   0.0800 
 29 H       -3.7430     1.8710     0.1420 H     1 <1>   0.0800 
 30 H       -1.4430    -1.6480    -0.1650 H     1 <1>   0.0800 
 31 H       -2.5080    -1.5590     1.2000 H     1 <1>   0.0800 
 32 H       -1.7660     2.3570     1.7570 H     1 <1>   0.1500 
 33 H       -0.6440     2.7100    -2.3530 H     1 <1>   0.1500 
 34 H       -4.6090     0.3670    -1.5390 H     1 <1>   0.0800 
 35 H       -3.2780    -1.7240    -1.7160 H     1 <1>   0.0800 
 36 H       -3.4760    -2.9800    -0.5470 H     1 <1>   0.0800 
 37 H       -0.4550     5.1620    -2.0980 H     1 <1>   0.1500 
 38 H       -6.6110     0.5200     0.6170 H     1 <1>   0.4500 
 39 H       -8.2200     0.6460    -1.1470 H     1 <1>   0.0800 
 40 H       -6.9260     0.5070    -2.3080 H     1 <1>   0.0800 
 41 H       -5.5560     2.6940     0.2860 H     1 <1>   0.0800 
 42 H       -6.0710     2.5940    -1.3850 H     1 <1>   0.0800 
 43 H       -5.5760    -1.7920    -2.3500 H     1 <1>   0.0800 
 44 H       -6.0280    -3.0200    -1.2220 H     1 <1>   0.0800 
 45 H       -6.2990    -1.4190     1.3760 H     1 <1>   0.0800 
 46 H       -4.6240    -1.3240     1.8340 H     1 <1>   0.0800 
 47 H       -1.5580     7.1610     2.3570 H     1 <1>   0.1500 
 48 H       -0.8290     7.2290    -0.0800 H     1 <1>   0.2700 
 49 H       -7.7950    -1.5760    -0.2980 H     1 <1>   0.0800 
 50 H       -7.9510    -1.6530    -2.0160 H     1 <1>   0.0800 
 51 H       -7.8620     2.5600     1.0780 H     1 <1>   0.1500 
 52 H       -5.9250    -3.5890     0.7660 H     1 <1>   0.4000 
 53 H       -8.3710     3.5050    -1.8240 H     1 <1>   0.1500 
 54 H      -10.6900     3.2790    -0.9060 H     1 <1>   0.0800 
 55 H      -10.0220     4.8430    -0.5080 H     1 <1>   0.0800 
 56 H      -10.0900     3.5890     0.7050 H     1 <1>   0.0800 
@<TRIPOS>BOND
  1   1   2  2   
  2   2   3  am  
  3   2   4  1   
  4   3   5  1   
  5   3   6  1   
  6   4   7  ar  
  7   4   8  ar  
  8   5   9  1   
  9   5  28  1   
 10   5  29  1   
 11   6  10  1   
 12   6  30  1   
 13   6  31  1   
 14   7  11  ar  
 15   7  32  1   
 16   8  12  ar  
 17   8  33  1   
 18   9  13  1   
 19   9  14  1   
 20   9  34  1   
 21  10  14  1   
 22  10  35  1   
 23  10  36  1   
 24  11  15  1   
 25  11  16  ar  
 26  12  16  ar  
 27  12  37  1   
 28  13  17  1   
 29  13  18  1   
 30  13  38  1   
 31  14  19  1   
 32  14  20  1   
 33  15  21  2   
 34  16  22  1   
 35  17  23  1   
 36  17  39  1   
 37  17  40  1   
 38  18  24  1   
 39  18  41  1   
 40  18  42  1   
 41  19  23  1   
 42  19  43  1   
 43  19  44  1   
 44  20  25  1   
 45  20  45  1   
 46  20  46  1   
 47  21  22  1   
 48  21  47  1   
 49  22  48  1   
 50  23  49  1   
 51  23  50  1   
 52  24  26  2   
 53  24  51  1   
 54  25  52  1   
 55  26  27  1   
 56  26  53  1   
 57  27  54  1   
 58  27  55  1   
 59  27  56  1   
@<TRIPOS>SUBSTRUCTURE
  1 ****   5 GROUP 4 **** **** 0

# MOE 2024.06 (io_trps.svl 2023.06)
