@<TRIPOS>MOLECULE
NONAME
48 50 1 0 0 
SMALL
USER_CHARGES


@<TRIPOS>ATOM
  1 CL      -1.4310    -0.5010    -2.4490 Cl    1 <1>  -0.1770 
  2 C       -1.8450    -2.0190    -1.6960 C.ar  1 <1>   0.1770 
  3 C       -0.8440    -2.8090    -1.1640 C.ar  1 <1>  -0.1500 
  4 C       -3.1660    -2.4160    -1.6400 C.ar  1 <1>  -0.1500 
  5 C       -1.1780    -4.0130    -0.5690 C.ar  1 <1>  -0.1500 
  6 C       -3.4850    -3.6240    -1.0460 C.ar  1 <1>  -0.1500 
  7 C       -2.5040    -4.4500    -0.4950 C.ar  1 <1>   0.0530 
  8 C       -2.8170    -5.7210     0.1140 C.2   1 <1>   0.0870 
  9 O       -1.9750    -6.7180    -0.0460 O.3   1 <1>  -0.0190 
 10 C       -3.8510    -6.1980     0.8600 C.2   1 <1>  -0.2330 
 11 N       -2.3710    -7.8210     0.5320 N.2   1 <1>  -0.4100 
 12 C       -3.4860    -7.5220     1.0930 C.2   1 <1>   0.3720 
 13 C       -5.0670    -5.6030     1.3340 C.2   1 <1>   1.0330 
 14 N       -4.2440    -8.4250     1.8210 N.pl3 1 <1>  -0.8520 
 15 O       -5.2680    -4.3840     1.2630 O.co2 1 <1>  -0.9000 
 16 O       -5.9810    -6.3200     1.7920 O.co2 1 <1>  -0.9000 
 17 C       -4.6230    -9.6370     1.0830 C.3   1 <1>   0.2090 
 18 C       -5.9880   -10.1280     1.5800 C.3   1 <1>  -0.0800 
 19 C       -6.4630   -11.3550     0.8050 C.3   1 <1>   0.3430 
 20 C       -7.1050    -9.0900     1.4070 C.3   1 <1>  -0.1600 
 21 N       -7.7040   -10.9370     0.0920 N.4   1 <1>  -0.9590 
 22 C       -8.3080    -9.8680     0.9280 C.3   1 <1>   0.3430 
 23 C       -8.6200   -12.0870    -0.1920 C.3   1 <1>   0.3430 
 24 C       -9.8200   -11.6910    -1.0600 C.3   1 <1>   0.1200 
 25 O      -10.5580   -12.8430    -1.2890 O.3   1 <1>  -0.5600 
 26 C      -11.6910   -12.6580    -2.0800 C.3   1 <1>   0.0400 
 27 H        0.1790    -2.4830    -1.2150 H     1 <1>   0.1500 
 28 H       -3.9360    -1.7900    -2.0520 H     1 <1>   0.1500 
 29 H       -0.4030    -4.6300    -0.1500 H     1 <1>   0.1500 
 30 H       -4.5160    -3.9310    -1.0000 H     1 <1>   0.1500 
 31 H       -5.0930    -7.8860     2.1030 H     1 <1>   0.4000 
 32 H       -3.8670   -10.3860     1.2470 H     1 <1>   0.0800 
 33 H       -4.6640    -9.4180     0.0290 H     1 <1>   0.0800 
 34 H       -5.8920   -10.4000     2.6180 H     1 <1>   0.0800 
 35 H       -6.6870   -12.1460     1.5030 H     1 <1>   0.0800 
 36 H       -5.7130   -11.6990     0.1110 H     1 <1>   0.0800 
 37 H       -6.8480    -8.3710     0.6490 H     1 <1>   0.0800 
 38 H       -7.3120    -8.5560     2.3190 H     1 <1>   0.0800 
 39 H       -7.4130   -10.4960    -0.7920 H     1 <1>   0.4500 
 40 H       -8.9840    -9.2420     0.3670 H     1 <1>   0.0800 
 41 H       -8.8220   -10.2990     1.7720 H     1 <1>   0.0800 
 42 H       -8.9850   -12.4970     0.7350 H     1 <1>   0.0800 
 43 H       -8.0740   -12.8590    -0.7100 H     1 <1>   0.0800 
 44 H       -9.4940   -11.3020    -2.0100 H     1 <1>   0.0800 
 45 H      -10.4490   -10.9810    -0.5520 H     1 <1>   0.0800 
 46 H      -12.1830   -13.6090    -2.1900 H     1 <1>   0.0800 
 47 H      -11.3960   -12.2930    -3.0500 H     1 <1>   0.0800 
 48 H      -12.3570   -11.9630    -1.5990 H     1 <1>   0.0800 
@<TRIPOS>BOND
  1   1   2  1   
  2   2   3  ar  
  3   2   4  ar  
  4   3   5  ar  
  5   3  27  1   
  6   4   6  ar  
  7   4  28  1   
  8   5   7  ar  
  9   5  29  1   
 10   6   7  ar  
 11   6  30  1   
 12   7   8  1   
 13   8   9  1   
 14   8  10  2   
 15   9  11  1   
 16  10  12  1   
 17  10  13  1   
 18  11  12  2   
 19  12  14  1   
 20  13  15  ar  
 21  13  16  ar  
 22  14  17  1   
 23  14  31  1   
 24  17  18  1   
 25  17  32  1   
 26  17  33  1   
 27  18  19  1   
 28  18  20  1   
 29  18  34  1   
 30  19  21  1   
 31  19  35  1   
 32  19  36  1   
 33  20  22  1   
 34  20  37  1   
 35  20  38  1   
 36  21  22  1   
 37  21  23  1   
 38  21  39  1   
 39  22  40  1   
 40  22  41  1   
 41  23  24  1   
 42  23  42  1   
 43  23  43  1   
 44  24  25  1   
 45  24  44  1   
 46  24  45  1   
 47  25  26  1   
 48  26  46  1   
 49  26  47  1   
 50  26  48  1   
@<TRIPOS>SUBSTRUCTURE
  1 ****  10 GROUP 4 **** **** 0

# MOE 2024.06 (io_trps.svl 2023.06)
