@<TRIPOS>MOLECULE
NONAME
50 54 1 0 0 
SMALL
USER_CHARGES


@<TRIPOS>ATOM
  1 F       -1.1160    -0.1420    -0.0860 F     1 <1>  -0.1900 
  2 C       -2.4230    -0.0790    -0.0160 C.ar  1 <1>   0.1900 
  3 C       -3.0340     0.6850     0.9470 C.ar  1 <1>   0.1600 
  4 C       -3.2050    -0.7740    -0.9040 C.ar  1 <1>   0.1600 
  5 N       -4.3450     0.7580     1.0270 N.ar  1 <1>  -0.6200 
  6 N       -4.5180    -0.7170    -0.8430 N.ar  1 <1>  -0.6200 
  7 C       -5.0330     0.0510     0.1230 C.ar  1 <1>   0.7200 
  8 N       -6.4020     0.1100     0.2000 N.pl3 1 <1>  -0.8380 
  9 C       -7.2720    -0.2560    -0.9530 C.3   1 <1>   0.2090 
 10 C       -7.1040     1.0840     1.0690 C.3   1 <1>   0.2090 
 11 C       -8.6050     0.4530    -0.7020 C.3   1 <1>   0.2800 
 12 C       -8.5970     0.9160     0.7510 C.3   1 <1>  -0.0800 
 13 O       -8.7240     1.6650    -1.3630 O.3   1 <1>  -0.5600 
 14 C       -9.9230    -0.2240    -1.0790 C.3   1 <1>  -0.1600 
 15 C       -9.5200     2.1530     0.6830 C.3   1 <1>  -0.0800 
 16 C       -9.8920     2.1380    -0.8080 C.3   1 <1>   0.2000 
 17 C      -10.8580     0.9890    -1.1290 C.3   1 <1>  -0.1600 
 18 C       -8.8670     3.4800     1.0930 C.3   1 <1>   0.1400 
 19 N       -9.8590     4.5750     1.0280 N.am  1 <1>  -0.7300 
 20 C      -10.6920     4.9390     2.0380 C.2   1 <1>   0.5690 
 21 O      -10.7060     4.3520     3.0920 O.2   1 <1>  -0.5700 
 22 C      -11.6400     6.1130     1.8500 C.3   1 <1>   0.0440 
 23 C      -11.5990     6.6940     0.4400 C.ar  1 <1>  -0.1430 
 24 C      -10.6200     7.6140     0.0890 C.ar  1 <1>   0.1600 
 25 C      -12.5160     6.3010    -0.5140 C.ar  1 <1>  -0.1500 
 26 N      -10.4830     8.1490    -1.1130 N.ar  1 <1>  -0.6200 
 27 C      -12.3920     6.8570    -1.7690 C.ar  1 <1>  -0.1500 
 28 C      -11.3730     7.7620    -2.0120 C.ar  1 <1>   0.1600 
 29 H       -2.4390     1.2370     1.6530 H     1 <1>   0.1500 
 30 H       -2.7460    -1.3790    -1.6660 H     1 <1>   0.1500 
 31 H       -6.8440     0.0590    -1.8890 H     1 <1>   0.0800 
 32 H       -7.4100    -1.3230    -0.9550 H     1 <1>   0.0800 
 33 H       -6.8990     0.8830     2.1070 H     1 <1>   0.0800 
 34 H       -6.7440     2.0650     0.8180 H     1 <1>   0.0800 
 35 H       -9.0030     0.1530     1.3910 H     1 <1>   0.0800 
 36 H       -9.8380    -0.6880    -2.0460 H     1 <1>   0.0800 
 37 H      -10.2230    -0.9560    -0.3500 H     1 <1>   0.0800 
 38 H      -10.3910     1.9990     1.2950 H     1 <1>   0.0800 
 39 H      -10.1700     3.0900    -1.2280 H     1 <1>   0.0800 
 40 H      -11.6600     0.9280    -0.4150 H     1 <1>   0.0800 
 41 H      -11.2670     1.1190    -2.1160 H     1 <1>   0.0800 
 42 H       -8.0460     3.7170     0.4370 H     1 <1>   0.0800 
 43 H       -8.4930     3.4040     2.1010 H     1 <1>   0.0800 
 44 H       -9.8990     5.0930     0.1430 H     1 <1>   0.3700 
 45 H      -12.6350     5.7810     2.0810 H     1 <1>   0.0800 
 46 H      -11.3800     6.8720     2.5650 H     1 <1>   0.0800 
 47 H       -9.9050     7.9220     0.8330 H     1 <1>   0.1500 
 48 H      -13.2960     5.5910    -0.2960 H     1 <1>   0.1500 
 49 H      -13.0770     6.5940    -2.5540 H     1 <1>   0.1500 
 50 H      -11.2850     8.1890    -2.9970 H     1 <1>   0.1500 
@<TRIPOS>BOND
  1   1   2  1   
  2   2   3  ar  
  3   2   4  ar  
  4   3   5  ar  
  5   3  29  1   
  6   4   6  ar  
  7   4  30  1   
  8   5   7  ar  
  9   6   7  ar  
 10   7   8  1   
 11   8   9  1   
 12   8  10  1   
 13   9  11  1   
 14   9  31  1   
 15   9  32  1   
 16  10  12  1   
 17  10  33  1   
 18  10  34  1   
 19  11  12  1   
 20  11  13  1   
 21  11  14  1   
 22  12  15  1   
 23  12  35  1   
 24  13  16  1   
 25  14  17  1   
 26  14  36  1   
 27  14  37  1   
 28  15  16  1   
 29  15  18  1   
 30  15  38  1   
 31  16  17  1   
 32  16  39  1   
 33  17  40  1   
 34  17  41  1   
 35  18  19  1   
 36  18  42  1   
 37  18  43  1   
 38  19  20  am  
 39  19  44  1   
 40  20  21  2   
 41  20  22  1   
 42  22  23  1   
 43  22  45  1   
 44  22  46  1   
 45  23  24  ar  
 46  23  25  ar  
 47  24  26  ar  
 48  24  47  1   
 49  25  27  ar  
 50  25  48  1   
 51  26  28  ar  
 52  27  28  ar  
 53  27  49  1   
 54  28  50  1   
@<TRIPOS>SUBSTRUCTURE
  1 ****  18 GROUP 4 **** **** 0

# MOE 2024.06 (io_trps.svl 2023.06)
