@<TRIPOS>MOLECULE
NONAME
49 51 1 0 0 
SMALL
USER_CHARGES


@<TRIPOS>ATOM
  1 CL      -0.1470     0.5940    -2.0750 Cl    1 <1>  -0.1770 
  2 C       -1.4830     1.3660    -1.2650 C.ar  1 <1>   0.1770 
  3 C       -1.5380     2.7300    -1.1910 C.ar  1 <1>  -0.1500 
  4 C       -2.4750     0.5670    -0.7070 C.ar  1 <1>  -0.1500 
  5 C       -2.6090     3.3770    -0.5410 C.ar  1 <1>   0.0000 
  6 C       -3.5400     1.1520    -0.0630 C.ar  1 <1>  -0.1440 
  7 C       -3.6150     2.5590     0.0270 C.ar  1 <1>   0.3610 
  8 C       -2.7150     4.8030    -0.4390 C.ar  1 <1>   0.1000 
  9 C       -4.6130     0.2460     0.5400 C.3   1 <1>  -0.0970 
 10 N       -4.6710     3.1660     0.6690 N.ar  1 <1>  -0.1790 
 11 N       -1.7690     5.5990    -0.9950 N.pl3 1 <1>  -0.8690 
 12 C       -3.8210     5.3200     0.2390 C.ar  1 <1>  -0.1500 
 13 C       -4.7790     4.5020     0.7780 C.ar  1 <1>   0.2110 
 14 C       -1.7040     7.0860    -1.1180 C.3   1 <1>   0.2090 
 15 C       -0.6910     7.6750    -0.1120 C.3   1 <1>   0.3430 
 16 N       -0.3600     9.1230    -0.3570 N.4   1 <1>  -0.9590 
 17 C        0.7920     9.5490     0.5130 C.3   1 <1>   0.3430 
 18 C       -1.5220    10.0450    -0.1880 C.3   1 <1>   0.3430 
 19 C        0.9600    11.0800     0.5850 C.3   1 <1>  -0.0800 
 20 C       -1.1610    11.4190    -0.7670 C.3   1 <1>  -0.1600 
 21 C        0.3290    11.7860    -0.6320 C.3   1 <1>  -0.1600 
 22 C        2.4460    11.4260     0.7630 C.3   1 <1>   0.1200 
 23 O        2.5660    12.7690     1.0600 O.3   1 <1>  -0.6800 
 24 H       -0.7430     3.2930    -1.6420 H     1 <1>   0.1500 
 25 H       -2.3750    -0.5020    -0.8000 H     1 <1>   0.1500 
 26 H       -4.3750    -0.7910     0.3670 H     1 <1>   0.0800 
 27 H       -5.5710     0.4340     0.0880 H     1 <1>   0.0800 
 28 H       -4.6800     0.3860     1.6050 H     1 <1>   0.0800 
 29 H       -5.3840     2.5500     1.0670 H     1 <1>   0.4570 
 30 H       -1.0030     5.1370    -1.5060 H     1 <1>   0.4000 
 31 H       -3.9360     6.3810     0.3450 H     1 <1>   0.1500 
 32 H       -5.6310     4.9150     1.2960 H     1 <1>   0.1500 
 33 H       -2.6760     7.5150    -0.9620 H     1 <1>   0.0800 
 34 H       -1.3920     7.3230    -2.1220 H     1 <1>   0.0800 
 35 H        0.2150     7.0970    -0.1820 H     1 <1>   0.0800 
 36 H       -1.0840     7.5580     0.8840 H     1 <1>   0.0800 
 37 H       -0.0430     9.2360    -1.3310 H     1 <1>   0.4500 
 38 H        1.6990     9.1140     0.1240 H     1 <1>   0.0800 
 39 H        0.6560     9.1750     1.5150 H     1 <1>   0.0800 
 40 H       -1.7480    10.1470     0.8620 H     1 <1>   0.0800 
 41 H       -2.3970     9.6660    -0.6900 H     1 <1>   0.0800 
 42 H        0.4520    11.4120     1.4760 H     1 <1>   0.0800 
 43 H       -1.7560    12.1560    -0.2530 H     1 <1>   0.0800 
 44 H       -1.4470    11.4610    -1.8040 H     1 <1>   0.0800 
 45 H        0.8550    11.4930    -1.5260 H     1 <1>   0.0800 
 46 H        0.4200    12.8560    -0.5390 H     1 <1>   0.0800 
 47 H        3.0210    11.2200    -0.1240 H     1 <1>   0.0800 
 48 H        2.8680    10.8820     1.5930 H     1 <1>   0.0800 
 49 H        2.4210    13.3310     0.2730 H     1 <1>   0.4000 
@<TRIPOS>BOND
  1   1   2  1   
  2   2   3  ar  
  3   2   4  ar  
  4   3   5  ar  
  5   3  24  1   
  6   4   6  ar  
  7   4  25  1   
  8   5   7  ar  
  9   5   8  ar  
 10   6   7  ar  
 11   6   9  1   
 12   7  10  ar  
 13   8  11  1   
 14   8  12  ar  
 15   9  26  1   
 16   9  27  1   
 17   9  28  1   
 18  10  13  ar  
 19  10  29  1   
 20  11  14  1   
 21  11  30  1   
 22  12  13  ar  
 23  12  31  1   
 24  13  32  1   
 25  14  15  1   
 26  14  33  1   
 27  14  34  1   
 28  15  16  1   
 29  15  35  1   
 30  15  36  1   
 31  16  17  1   
 32  16  18  1   
 33  16  37  1   
 34  17  19  1   
 35  17  38  1   
 36  17  39  1   
 37  18  20  1   
 38  18  40  1   
 39  18  41  1   
 40  19  21  1   
 41  19  22  1   
 42  19  42  1   
 43  20  21  1   
 44  20  43  1   
 45  20  44  1   
 46  21  45  1   
 47  21  46  1   
 48  22  23  1   
 49  22  47  1   
 50  22  48  1   
 51  23  49  1   
@<TRIPOS>SUBSTRUCTURE
  1 ****  11 GROUP 4 **** **** 0

# MOE 2024.06 (io_trps.svl 2023.06)
