@<TRIPOS>MOLECULE
NONAME
55 57 1 0 0 
SMALL
USER_CHARGES


@<TRIPOS>ATOM
  1 O        1.4630    -0.2630     2.7480 O.2   1 <1>  -0.5700 
  2 C        1.3120    -0.7190     1.6400 C.2   1 <1>   0.5690 
  3 N        1.3580     0.0540     0.5250 N.am  1 <1>  -0.7300 
  4 C        1.0690    -2.2240     1.4710 C.3   1 <1>   0.1710 
  5 C        1.5730     1.5180     0.4870 C.3   1 <1>   0.1400 
  6 N        0.3000    -2.5990     0.2430 N.3   1 <1>  -0.8100 
  7 C        3.0120     1.8230     0.0730 C.3   1 <1>  -0.0170 
  8 C       -1.1060    -2.1930     0.3720 C.3   1 <1>   0.1100 
  9 C        0.4110    -4.0390    -0.0080 C.3   1 <1>   0.1100 
 10 C        3.2280     3.3250    -0.0210 C.ar  1 <1>  -0.1430 
 11 C       -1.8520    -2.5000    -0.9320 C.3   1 <1>  -0.1600 
 12 C       -0.2410    -4.3500    -1.3530 C.3   1 <1>  -0.1600 
 13 C        3.1690     3.9710    -1.2470 C.ar  1 <1>  -0.1500 
 14 C        3.4820     4.0630     1.1240 C.ar  1 <1>  -0.1500 
 15 C       -1.7430    -3.9850    -1.3560 C.3   1 <1>   0.3430 
 16 C        3.3620     5.3400    -1.3300 C.ar  1 <1>  -0.1500 
 17 C        3.6750     5.4310     1.0440 C.ar  1 <1>  -0.1500 
 18 C       -2.2640    -4.1030    -2.7600 C.1   1 <1>   0.3570 
 19 C       -2.5490    -4.9680    -0.4650 C.ar  1 <1>  -0.1430 
 20 C        3.6170     6.0790    -0.1790 C.ar  1 <1>   0.0820 
 21 N       -2.6310    -4.1790    -3.8360 N.1   1 <1>  -0.5570 
 22 C       -2.4590    -6.3360    -0.7150 C.ar  1 <1>  -0.1500 
 23 C       -3.3900    -4.5610     0.5700 C.ar  1 <1>  -0.1500 
 24 O        3.8170     7.4210    -0.1710 O.3   1 <1>  -0.3620 
 25 C       -3.1510    -7.2590     0.0490 C.ar  1 <1>  -0.1500 
 26 C       -4.0830    -5.4810     1.3370 C.ar  1 <1>  -0.1500 
 27 C        3.7880     8.1730    -1.3630 C.3   1 <1>   0.0400 
 28 C       -3.9630    -6.8330     1.0810 C.ar  1 <1>  -0.1500 
 29 H        1.1760    -0.4270    -0.3620 H     1 <1>   0.3700 
 30 H        0.5620    -2.5900     2.3470 H     1 <1>   0.0800 
 31 H        2.0370    -2.6880     1.4370 H     1 <1>   0.0800 
 32 H        1.3830     1.9380     1.4610 H     1 <1>   0.0800 
 33 H        0.8860     1.9630    -0.2120 H     1 <1>   0.0800 
 34 H        3.2210     1.3650    -0.8770 H     1 <1>   0.0800 
 35 H        3.6860     1.4110     0.8040 H     1 <1>   0.0800 
 36 H       -1.1650    -1.1350     0.5660 H     1 <1>   0.0800 
 37 H       -1.5530    -2.7070     1.2060 H     1 <1>   0.0800 
 38 H       -0.0630    -4.5980     0.7830 H     1 <1>   0.0800 
 39 H        1.4500    -4.3190    -0.0500 H     1 <1>   0.0800 
 40 H       -1.4190    -1.8810    -1.7000 H     1 <1>   0.0800 
 41 H       -2.8820    -2.2070    -0.8490 H     1 <1>   0.0800 
 42 H       -0.0920    -5.3870    -1.5850 H     1 <1>   0.0800 
 43 H        0.2720    -3.7840    -2.1110 H     1 <1>   0.0800 
 44 H        2.9730     3.4110    -2.1440 H     1 <1>   0.1500 
 45 H        3.5300     3.5760     2.0830 H     1 <1>   0.1500 
 46 H        3.3100     5.8090    -2.2930 H     1 <1>   0.1500 
 47 H        3.8720     6.0050     1.9310 H     1 <1>   0.1500 
 48 H       -1.8530    -6.7120    -1.5210 H     1 <1>   0.1500 
 49 H       -3.5390    -3.5250     0.8070 H     1 <1>   0.1500 
 50 H       -3.0620    -8.3110    -0.1640 H     1 <1>   0.1500 
 51 H       -4.7220    -5.1440     2.1350 H     1 <1>   0.1500 
 52 H        3.9750     9.2020    -1.1140 H     1 <1>   0.0800 
 53 H        2.8160     8.0760    -1.8130 H     1 <1>   0.0800 
 54 H        4.5570     7.8110    -2.0220 H     1 <1>   0.0800 
 55 H       -4.5020    -7.5480     1.6770 H     1 <1>   0.1500 
@<TRIPOS>BOND
  1   1   2  2   
  2   2   3  am  
  3   2   4  1   
  4   3   5  1   
  5   3  29  1   
  6   4   6  1   
  7   4  30  1   
  8   4  31  1   
  9   5   7  1   
 10   5  32  1   
 11   5  33  1   
 12   6   8  1   
 13   6   9  1   
 14   7  10  1   
 15   7  34  1   
 16   7  35  1   
 17   8  11  1   
 18   8  36  1   
 19   8  37  1   
 20   9  12  1   
 21   9  38  1   
 22   9  39  1   
 23  10  13  ar  
 24  10  14  ar  
 25  11  15  1   
 26  11  40  1   
 27  11  41  1   
 28  12  15  1   
 29  12  42  1   
 30  12  43  1   
 31  13  16  ar  
 32  13  44  1   
 33  14  17  ar  
 34  14  45  1   
 35  15  18  1   
 36  15  19  1   
 37  16  20  ar  
 38  16  46  1   
 39  17  20  ar  
 40  17  47  1   
 41  18  21  3   
 42  19  22  ar  
 43  19  23  ar  
 44  20  24  1   
 45  22  25  ar  
 46  22  48  1   
 47  23  26  ar  
 48  23  49  1   
 49  24  27  1   
 50  25  28  ar  
 51  25  50  1   
 52  26  28  ar  
 53  26  51  1   
 54  27  52  1   
 55  27  53  1   
 56  27  54  1   
 57  28  55  1   
@<TRIPOS>SUBSTRUCTURE
  1 ****   3 GROUP 4 **** **** 0

# MOE 2024.06 (io_trps.svl 2023.06)
