@<TRIPOS>MOLECULE
NONAME
42 43 1 0 0 
SMALL
USER_CHARGES


@<TRIPOS>ATOM
  1 S        0.1990    -0.2490    -1.7230 S.o2  1 <1>   1.5000 
  2 O        0.9190    -1.1270    -2.6210 O.2   1 <1>  -0.6500 
  3 O       -0.7820     0.6730    -2.2570 O.2   1 <1>  -0.6500 
  4 N       -0.5880    -1.2010    -0.5630 N.am  1 <1>  -0.8490 
  5 C        1.4130     0.6310    -0.7080 C.2   1 <1>  -0.0220 
  6 C       -1.3060    -2.3410    -1.1670 C.3   1 <1>   0.1960 
  7 C       -1.4870    -0.4130     0.2790 C.3   1 <1>   0.1960 
  8 S        1.4550     2.3910    -0.7820 S.3   1 <1>  -0.0800 
  9 C        2.3570     0.2000     0.1550 C.2   1 <1>  -0.1500 
 10 C       -1.8560    -3.3300    -0.1130 C.3   1 <1>  -0.1060 
 11 C       -1.9850    -1.2580     1.4480 C.3   1 <1>  -0.1600 
 12 C        2.7690     2.4740     0.3770 C.2   1 <1>  -0.1400 
 13 C        3.1250     1.2390     0.7700 C.2   1 <1>  -0.1500 
 14 C       -2.8770    -4.2390    -0.8050 C.2   1 <1>   0.9060 
 15 C       -2.6660    -2.5220     0.9280 C.3   1 <1>   0.2000 
 16 C       -0.7290    -4.2650     0.4410 C.3   1 <1>  -0.1600 
 17 C        3.2840     3.8510     0.7430 C.3   1 <1>  -0.0600 
 18 O       -2.9540    -4.2650    -2.0380 O.co2 1 <1>  -0.9000 
 19 O       -3.6250    -4.9310    -0.0960 O.co2 1 <1>  -0.9000 
 20 O       -3.0070    -3.3250     1.9960 O.3   1 <1>  -0.6800 
 21 C        0.3760    -3.6620     1.3230 C.3   1 <1>  -0.1600 
 22 C        1.4670    -4.6950     1.6160 C.3   1 <1>  -0.2400 
 23 H       -2.1180    -1.9610    -1.7670 H     1 <1>   0.0800 
 24 H       -0.6520    -2.8840    -1.8310 H     1 <1>   0.0800 
 25 H       -0.9680     0.4470     0.6690 H     1 <1>   0.0800 
 26 H       -2.3250    -0.0650    -0.3050 H     1 <1>   0.0800 
 27 H        2.5420    -0.8350     0.3850 H     1 <1>   0.1500 
 28 H       -2.6950    -0.6880     2.0180 H     1 <1>   0.0800 
 29 H       -1.1590    -1.4940     2.0880 H     1 <1>   0.0800 
 30 H        3.9050     1.0060     1.4740 H     1 <1>   0.1500 
 31 H       -3.5930    -2.2240     0.4650 H     1 <1>   0.0800 
 32 H       -1.1970    -5.0530     1.0070 H     1 <1>   0.0800 
 33 H       -0.2640    -4.7410    -0.4060 H     1 <1>   0.0800 
 34 H        4.0850     3.7700     1.4560 H     1 <1>   0.0800 
 35 H        2.4920     4.4360     1.1730 H     1 <1>   0.0800 
 36 H        3.6500     4.3500    -0.1350 H     1 <1>   0.0800 
 37 H       -3.3790    -4.1530     1.5810 H     1 <1>   0.4000 
 38 H        0.8240    -2.8140     0.8400 H     1 <1>   0.0800 
 39 H       -0.0500    -3.3460     2.2580 H     1 <1>   0.0800 
 40 H        1.9310    -5.0180     0.7010 H     1 <1>   0.0800 
 41 H        1.0440    -5.5510     2.1130 H     1 <1>   0.0800 
 42 H        2.2200    -4.2650     2.2520 H     1 <1>   0.0800 
@<TRIPOS>BOND
  1   1   2  2   
  2   1   3  2   
  3   1   4  am  
  4   1   5  1   
  5   4   6  1   
  6   4   7  1   
  7   5   8  1   
  8   5   9  2   
  9   6  10  1   
 10   6  23  1   
 11   6  24  1   
 12   7  11  1   
 13   7  25  1   
 14   7  26  1   
 15   8  12  1   
 16   9  13  1   
 17   9  27  1   
 18  10  14  1   
 19  10  15  1   
 20  10  16  1   
 21  11  15  1   
 22  11  28  1   
 23  11  29  1   
 24  12  13  2   
 25  12  17  1   
 26  13  30  1   
 27  14  18  ar  
 28  14  19  ar  
 29  15  20  1   
 30  15  31  1   
 31  16  21  1   
 32  16  32  1   
 33  16  33  1   
 34  17  34  1   
 35  17  35  1   
 36  17  36  1   
 37  20  37  1   
 38  21  22  1   
 39  21  38  1   
 40  21  39  1   
 41  22  40  1   
 42  22  41  1   
 43  22  42  1   
@<TRIPOS>SUBSTRUCTURE
  1 ****   4 GROUP 4 **** **** 0

# MOE 2024.06 (io_trps.svl 2023.06)
