@<TRIPOS>MOLECULE
NONAME
43 45 1 0 0 
SMALL
USER_CHARGES


@<TRIPOS>ATOM
  1 S       -0.7510     0.4700     0.6370 S.o2  1 <1>   1.5010 
  2 O       -1.5770     1.6370     0.8550 O.2   1 <1>  -0.6500 
  3 O       -0.8200    -0.5850     1.6260 O.2   1 <1>  -0.6500 
  4 N       -1.3720    -0.1370    -0.8070 N.am  1 <1>  -0.9140 
  5 C        0.9790     0.9900     0.2820 C.2   1 <1>   0.1640 
  6 C       -1.3530    -1.5770    -1.0760 C.3   1 <1>   0.2760 
  7 N        1.8850     0.2510    -0.4230 N.2   1 <1>  -0.5650 
  8 C        1.5790     2.1420     0.6790 C.2   1 <1>  -0.3020 
  9 C       -2.3800    -2.3740    -0.2650 C.3   1 <1>  -0.0800 
 10 C       -0.0330    -2.3230    -0.8480 C.3   1 <1>   0.1200 
 11 C        2.9640     0.9590    -0.4300 C.2   1 <1>   0.0060 
 12 N        2.8430     2.1330     0.2290 N.pl3 1 <1>   0.0480 
 13 C       -1.5440    -3.5250     0.3070 C.3   1 <1>   0.1200 
 14 C       -3.5360    -2.8720    -1.1520 C.3   1 <1>  -0.0170 
 15 O       -0.4280    -3.6160    -0.5160 O.3   1 <1>  -0.5600 
 16 C        4.2400     0.5090    -1.1120 C.3   1 <1>  -0.0600 
 17 C        3.8550     3.1860     0.4270 C.3   1 <1>   0.0160 
 18 C       -4.5550    -3.6760    -0.3590 C.ar  1 <1>  -0.1430 
 19 C       -4.6750    -5.0450    -0.4980 C.ar  1 <1>  -0.1500 
 20 C       -5.4160    -3.0800     0.5410 C.ar  1 <1>  -0.1500 
 21 C       -5.6200    -5.7300     0.2470 C.ar  1 <1>   0.1600 
 22 C       -6.3260    -3.8570     1.2380 C.ar  1 <1>   0.1600 
 23 N       -6.4490    -5.1690     1.1120 N.ar  1 <1>  -0.6200 
 24 H       -2.3300     0.1970    -0.8130 H     1 <1>   0.4200 
 25 H       -1.5790    -1.6980    -2.1220 H     1 <1>   0.0800 
 26 H        1.1600     2.9500     1.2520 H     1 <1>   0.1500 
 27 H       -2.7840    -1.8030     0.5510 H     1 <1>   0.0800 
 28 H        0.5320    -1.9410    -0.0190 H     1 <1>   0.0800 
 29 H        0.5770    -2.3560    -1.7330 H     1 <1>   0.0800 
 30 H       -2.0550    -4.4710     0.3150 H     1 <1>   0.0800 
 31 H       -1.2020    -3.2890     1.3010 H     1 <1>   0.0800 
 32 H       -3.1420    -3.4780    -1.9500 H     1 <1>   0.0800 
 33 H       -4.0340    -2.0300    -1.5990 H     1 <1>   0.0800 
 34 H        4.0910    -0.4560    -1.5610 H     1 <1>   0.0800 
 35 H        5.0360     0.4350    -0.3950 H     1 <1>   0.0800 
 36 H        4.5140     1.2070    -1.8810 H     1 <1>   0.0800 
 37 H        3.4260     3.9970     0.9860 H     1 <1>   0.0800 
 38 H        4.1840     3.5470    -0.5300 H     1 <1>   0.0800 
 39 H        4.6890     2.7790     0.9680 H     1 <1>   0.0800 
 40 H       -4.0420    -5.5860    -1.1780 H     1 <1>   0.1500 
 41 H       -5.3880    -2.0190     0.7080 H     1 <1>   0.1500 
 42 H       -5.6980    -6.7970     0.1250 H     1 <1>   0.1500 
 43 H       -6.9880    -3.3750     1.9360 H     1 <1>   0.1500 
@<TRIPOS>BOND
  1   1   2  2   
  2   1   3  2   
  3   1   4  am  
  4   1   5  1   
  5   4   6  1   
  6   4  24  1   
  7   5   7  1   
  8   5   8  2   
  9   6   9  1   
 10   6  10  1   
 11   6  25  1   
 12   7  11  2   
 13   8  12  1   
 14   8  26  1   
 15   9  13  1   
 16   9  14  1   
 17   9  27  1   
 18  10  15  1   
 19  10  28  1   
 20  10  29  1   
 21  11  12  1   
 22  11  16  1   
 23  12  17  1   
 24  13  15  1   
 25  13  30  1   
 26  13  31  1   
 27  14  18  1   
 28  14  32  1   
 29  14  33  1   
 30  16  34  1   
 31  16  35  1   
 32  16  36  1   
 33  17  37  1   
 34  17  38  1   
 35  17  39  1   
 36  18  19  ar  
 37  18  20  ar  
 38  19  21  ar  
 39  19  40  1   
 40  20  22  ar  
 41  20  41  1   
 42  21  23  ar  
 43  21  42  1   
 44  22  23  ar  
 45  22  43  1   
@<TRIPOS>SUBSTRUCTURE
  1 ****   6 GROUP 4 **** **** 0

# MOE 2024.06 (io_trps.svl 2023.06)
