@<TRIPOS>MOLECULE
NONAME
43 45 1 0 0 
SMALL
USER_CHARGES


@<TRIPOS>ATOM
  1 CL      -3.2360     0.1730     1.6220 Cl    1 <1>  -0.1770 
  2 C       -3.0430    -0.9600     0.3030 C.ar  1 <1>   0.1770 
  3 C       -3.0550    -2.3250     0.5320 C.ar  1 <1>   0.1900 
  4 C       -2.8790    -0.4690    -0.9790 C.ar  1 <1>  -0.1500 
  5 F       -3.2020    -2.7550     1.7580 F     1 <1>  -0.1900 
  6 C       -2.9130    -3.2470    -0.5020 C.ar  1 <1>   0.0860 
  7 C       -2.7260    -1.3630    -2.0270 C.ar  1 <1>  -0.1500 
  8 C       -2.9350    -4.6740    -0.2800 C.2   1 <1>   0.5440 
  9 C       -2.7410    -2.7280    -1.7880 C.ar  1 <1>  -0.1500 
 10 O       -1.9250    -5.3230    -0.4760 O.2   1 <1>  -0.5700 
 11 N       -4.0810    -5.3240     0.1070 N.am  1 <1>  -0.6600 
 12 C       -5.4220    -4.7050     0.2110 C.3   1 <1>   0.1400 
 13 C       -4.1650    -6.7930     0.2360 C.3   1 <1>   0.1400 
 14 C       -6.3540    -5.8260     0.6950 C.3   1 <1>  -0.0800 
 15 C       -5.6580    -7.1270     0.2490 C.3   1 <1>  -0.0800 
 16 C       -7.8530    -5.7030     0.2790 C.3   1 <1>   0.2800 
 17 C       -6.1740    -7.5800    -1.1250 C.3   1 <1>  -0.1600 
 18 O       -7.9710    -4.9890    -0.8990 O.3   1 <1>  -0.6800 
 19 C       -8.4420    -7.0990     0.0020 C.3   1 <1>  -0.1600 
 20 C       -8.7070    -4.9690     1.3370 C.3   1 <1>  -0.1600 
 21 C       -7.6840    -7.8830    -1.0920 C.3   1 <1>  -0.1600 
 22 C       -8.2820    -3.5240     1.6510 C.3   1 <1>  -0.2400 
 23 H       -2.8710     0.5930    -1.1510 H     1 <1>   0.1500 
 24 H       -2.5930    -0.9950    -3.0320 H     1 <1>   0.1500 
 25 H       -2.6160    -3.4180    -2.6060 H     1 <1>   0.1500 
 26 H       -5.4140    -3.8850     0.9050 H     1 <1>   0.0800 
 27 H       -5.6970    -4.3450    -0.7640 H     1 <1>   0.0800 
 28 H       -3.6500    -7.2780    -0.5770 H     1 <1>   0.0800 
 29 H       -3.7060    -7.0830     1.1660 H     1 <1>   0.0800 
 30 H       -6.3090    -5.8240     1.7690 H     1 <1>   0.0800 
 31 H       -5.8380    -7.9160     0.9580 H     1 <1>   0.0800 
 32 H       -5.9910    -6.7940    -1.8380 H     1 <1>   0.0800 
 33 H       -5.6380    -8.4520    -1.4590 H     1 <1>   0.0800 
 34 H       -8.9010    -4.9980    -1.1870 H     1 <1>   0.4000 
 35 H       -8.3930    -7.6650     0.9150 H     1 <1>   0.0800 
 36 H       -9.4830    -7.0260    -0.2610 H     1 <1>   0.0800 
 37 H       -9.7320    -4.9600     1.0110 H     1 <1>   0.0800 
 38 H       -8.6800    -5.5340     2.2530 H     1 <1>   0.0800 
 39 H       -7.8360    -8.9360    -0.9290 H     1 <1>   0.0800 
 40 H       -8.0980    -7.6430    -2.0570 H     1 <1>   0.0800 
 41 H       -8.2440    -2.9330     0.7520 H     1 <1>   0.0800 
 42 H       -7.3170    -3.5010     2.1230 H     1 <1>   0.0800 
 43 H       -8.9910    -3.0730     2.3220 H     1 <1>   0.0800 
@<TRIPOS>BOND
  1   1   2  1   
  2   2   3  ar  
  3   2   4  ar  
  4   3   5  1   
  5   3   6  ar  
  6   4   7  ar  
  7   4  23  1   
  8   6   8  1   
  9   6   9  ar  
 10   7   9  ar  
 11   7  24  1   
 12   8  10  2   
 13   8  11  am  
 14   9  25  1   
 15  11  12  1   
 16  11  13  1   
 17  12  14  1   
 18  12  26  1   
 19  12  27  1   
 20  13  15  1   
 21  13  28  1   
 22  13  29  1   
 23  14  15  1   
 24  14  16  1   
 25  14  30  1   
 26  15  17  1   
 27  15  31  1   
 28  16  18  1   
 29  16  19  1   
 30  16  20  1   
 31  17  21  1   
 32  17  32  1   
 33  17  33  1   
 34  18  34  1   
 35  19  21  1   
 36  19  35  1   
 37  19  36  1   
 38  20  22  1   
 39  20  37  1   
 40  20  38  1   
 41  21  39  1   
 42  21  40  1   
 43  22  41  1   
 44  22  42  1   
 45  22  43  1   
@<TRIPOS>SUBSTRUCTURE
  1 ****  12 GROUP 4 **** **** 0

# MOE 2024.06 (io_trps.svl 2023.06)
