@<TRIPOS>MOLECULE
NONAME
39 42 1 0 0 
SMALL
USER_CHARGES


@<TRIPOS>ATOM
  1 O        0.6190     1.3030     0.9650 O.3   1 <1>  -0.0190 
  2 N        1.3380     0.2560     1.2490 N.2   1 <1>  -0.4100 
  3 C        0.8980     1.7760    -0.2210 C.2   1 <1>  -0.0400 
  4 C        2.0890     0.0500     0.2280 C.2   1 <1>   0.1080 
  5 C        1.8510     1.0020    -0.7600 C.2   1 <1>  -0.1500 
  6 C        0.1770     3.0060    -0.7370 C.3   1 <1>   0.0200 
  7 C        3.0940    -1.0750     0.1240 C.3   1 <1>  -0.0590 
  8 C        0.4630     4.2260     0.1510 C.3   1 <1>  -0.0800 
  9 C       -0.1570     5.5140    -0.3890 C.3   1 <1>   0.2000 
 10 C        1.9520     4.5490     0.2850 C.3   1 <1>   0.2090 
 11 O       -1.4790     5.6130     0.0190 O.3   1 <1>  -0.6800 
 12 C        0.7050     6.6480     0.1690 C.3   1 <1>   0.2090 
 13 N        2.0150     6.0170     0.4570 N.pl3 1 <1>  -0.8220 
 14 C        3.2040     6.6910     0.3350 C.2   1 <1>   0.5620 
 15 O        3.1920     8.0190     0.3010 O.3   1 <1>  -0.2800 
 16 N        4.3700     6.1490     0.2420 N.2   1 <1>  -0.5650 
 17 C        4.4580     8.3700     0.1810 C.ar  1 <1>   0.1400 
 18 C        5.1990     7.2160     0.1440 C.ar  1 <1>   0.2270 
 19 C        5.0320     9.6290     0.1000 C.ar  1 <1>  -0.1500 
 20 C        6.5820     7.2910     0.0210 C.ar  1 <1>  -0.1500 
 21 C        6.4080     9.7020    -0.0230 C.ar  1 <1>  -0.1500 
 22 C        7.1790     8.5360    -0.0630 C.ar  1 <1>  -0.1500 
 23 H        2.3390     1.0680    -1.7150 H     1 <1>   0.1500 
 24 H        0.4940     3.2020    -1.7450 H     1 <1>   0.0800 
 25 H       -0.8820     2.8120    -0.7520 H     1 <1>   0.0800 
 26 H        2.8650    -1.6920    -0.7250 H     1 <1>   0.0800 
 27 H        3.0610    -1.6790     1.0130 H     1 <1>   0.0800 
 28 H        4.0830    -0.6710     0.0140 H     1 <1>   0.0800 
 29 H        0.0940     4.0400     1.1440 H     1 <1>   0.0800 
 30 H       -0.1310     5.5420    -1.4650 H     1 <1>   0.0800 
 31 H        2.4900     4.2740    -0.6070 H     1 <1>   0.0800 
 32 H        2.3890     4.0470     1.1320 H     1 <1>   0.0800 
 33 H       -1.5400     5.5450     0.9920 H     1 <1>   0.4000 
 34 H        0.2940     7.0340     1.0850 H     1 <1>   0.0800 
 35 H        0.8100     7.4390    -0.5530 H     1 <1>   0.0800 
 36 H        4.4140    10.5080     0.1340 H     1 <1>   0.1500 
 37 H        7.1540     6.3820    -0.0070 H     1 <1>   0.1500 
 38 H        6.8940    10.6610    -0.0890 H     1 <1>   0.1500 
 39 H        8.2490     8.6130    -0.1590 H     1 <1>   0.1500 
@<TRIPOS>BOND
  1   1   2  1   
  2   1   3  1   
  3   2   4  2   
  4   3   5  2   
  5   3   6  1   
  6   4   5  1   
  7   4   7  1   
  8   5  23  1   
  9   6   8  1   
 10   6  24  1   
 11   6  25  1   
 12   7  26  1   
 13   7  27  1   
 14   7  28  1   
 15   8   9  1   
 16   8  10  1   
 17   8  29  1   
 18   9  11  1   
 19   9  12  1   
 20   9  30  1   
 21  10  13  1   
 22  10  31  1   
 23  10  32  1   
 24  11  33  1   
 25  12  13  1   
 26  12  34  1   
 27  12  35  1   
 28  13  14  1   
 29  14  15  1   
 30  14  16  2   
 31  15  17  1   
 32  16  18  1   
 33  17  18  ar  
 34  17  19  ar  
 35  18  20  ar  
 36  19  21  ar  
 37  19  36  1   
 38  20  22  ar  
 39  20  37  1   
 40  21  22  ar  
 41  21  38  1   
 42  22  39  1   
@<TRIPOS>SUBSTRUCTURE
  1 ****  10 GROUP 4 **** **** 0

# MOE 2024.06 (io_trps.svl 2023.06)
