@<TRIPOS>MOLECULE
NONAME
49 51 1 0 0 
SMALL
USER_CHARGES


@<TRIPOS>ATOM
  1 O        0.1870    -0.1730    -0.3160 O.2   1 <1>  -0.5700 
  2 C        1.1620    -0.8690    -0.0980 C.2   1 <1>   0.6900 
  3 N        2.4210    -0.4730    -0.4780 N.am  1 <1>  -0.6600 
  4 N        0.9970    -2.0630     0.5110 N.am  1 <1>  -0.7300 
  5 C        2.6310     0.7440    -1.3090 C.3   1 <1>   0.0600 
  6 C        3.6700    -1.1570    -0.0460 C.3   1 <1>   0.0600 
  7 C       -0.3260    -2.6960     0.7640 C.3   1 <1>   0.2010 
  8 C       -0.2880    -4.2280     0.6750 C.2   1 <1>   0.5690 
  9 O        0.7870    -4.7660     0.5220 O.2   1 <1>  -0.5700 
 10 N       -1.4440    -4.9660     0.7670 N.am  1 <1>  -0.6600 
 11 C       -1.4300    -6.4620     0.6810 C.3   1 <1>   0.1400 
 12 C       -2.8300    -4.4120     0.8910 C.3   1 <1>   0.1400 
 13 C       -2.4460    -6.9730    -0.3590 C.3   1 <1>   0.3430 
 14 C       -3.7670    -5.0330    -0.1660 C.3   1 <1>   0.2950 
 15 O       -3.7150    -6.4280    -0.1040 O.3   1 <1>  -0.5600 
 16 C       -2.5260    -8.4960    -0.3260 C.ar  1 <1>  -0.1430 
 17 C       -5.2230    -4.6170     0.0640 C.3   1 <1>  -0.1950 
 18 C       -3.3980    -9.1580     0.5280 C.ar  1 <1>  -0.1500 
 19 C       -1.6990    -9.2430    -1.1540 C.ar  1 <1>  -0.1500 
 20 C       -6.2230    -4.6590    -1.0480 C.3   1 <1>  -0.2000 
 21 C       -5.7610    -3.3380    -0.5000 C.3   1 <1>  -0.2000 
 22 C       -3.4440   -10.5410     0.5540 C.ar  1 <1>  -0.1500 
 23 C       -1.7440   -10.6260    -1.1290 C.ar  1 <1>  -0.1500 
 24 C       -2.6160   -11.2760    -0.2740 C.ar  1 <1>  -0.1500 
 25 H        1.7560    -2.7420     0.4320 H     1 <1>   0.3700 
 26 H        3.2970     0.5200    -2.1220 H     1 <1>   0.0800 
 27 H        3.0550     1.5260    -0.7030 H     1 <1>   0.0800 
 28 H        1.6980     1.0930    -1.7180 H     1 <1>   0.0800 
 29 H        4.4400    -0.4290     0.1420 H     1 <1>   0.0800 
 30 H        4.0010    -1.8280    -0.8200 H     1 <1>   0.0800 
 31 H        3.5080    -1.7140     0.8610 H     1 <1>   0.0800 
 32 H       -0.6600    -2.4140     1.7450 H     1 <1>   0.0800 
 33 H       -1.0310    -2.3250     0.0420 H     1 <1>   0.0800 
 34 H       -0.4510    -6.8210     0.4130 H     1 <1>   0.0800 
 35 H       -1.6750    -6.8760     1.6430 H     1 <1>   0.0800 
 36 H       -3.2120    -4.6400     1.8710 H     1 <1>   0.0800 
 37 H       -2.8390    -3.3450     0.7740 H     1 <1>   0.0800 
 38 H       -2.1430    -6.6580    -1.3420 H     1 <1>   0.0800 
 39 H       -3.4590    -4.7290    -1.1520 H     1 <1>   0.0800 
 40 H       -5.5730    -4.9060     1.0400 H     1 <1>   0.1000 
 41 H       -4.0500    -8.5950     1.1740 H     1 <1>   0.1500 
 42 H       -1.0140    -8.7530    -1.8240 H     1 <1>   0.1500 
 43 H       -5.8950    -4.9670    -2.0260 H     1 <1>   0.1000 
 44 H       -7.2190    -5.0000    -0.8250 H     1 <1>   0.1000 
 45 H       -6.4520    -2.7600     0.0890 H     1 <1>   0.1000 
 46 H       -5.1370    -2.7220    -1.1240 H     1 <1>   0.1000 
 47 H       -4.1260   -11.0420     1.2180 H     1 <1>   0.1500 
 48 H       -1.1000   -11.1970    -1.7750 H     1 <1>   0.1500 
 49 H       -2.6510   -12.3510    -0.2550 H     1 <1>   0.1500 
@<TRIPOS>BOND
  1   1   2  2   
  2   2   3  am  
  3   2   4  am  
  4   3   5  1   
  5   3   6  1   
  6   4   7  1   
  7   4  25  1   
  8   5  26  1   
  9   5  27  1   
 10   5  28  1   
 11   6  29  1   
 12   6  30  1   
 13   6  31  1   
 14   7   8  1   
 15   7  32  1   
 16   7  33  1   
 17   8   9  2   
 18   8  10  am  
 19  10  11  1   
 20  10  12  1   
 21  11  13  1   
 22  11  34  1   
 23  11  35  1   
 24  12  14  1   
 25  12  36  1   
 26  12  37  1   
 27  13  15  1   
 28  13  16  1   
 29  13  38  1   
 30  14  15  1   
 31  14  17  1   
 32  14  39  1   
 33  16  18  ar  
 34  16  19  ar  
 35  17  20  1   
 36  17  21  1   
 37  17  40  1   
 38  18  22  ar  
 39  18  41  1   
 40  19  23  ar  
 41  19  42  1   
 42  20  21  1   
 43  20  43  1   
 44  20  44  1   
 45  21  45  1   
 46  21  46  1   
 47  22  24  ar  
 48  22  47  1   
 49  23  24  ar  
 50  23  48  1   
 51  24  49  1   
@<TRIPOS>SUBSTRUCTURE
  1 ****  10 GROUP 4 **** **** 0

# MOE 2024.06 (io_trps.svl 2023.06)
