@<TRIPOS>MOLECULE
NONAME
54 56 1 0 0 
SMALL
USER_CHARGES


@<TRIPOS>ATOM
  1 O        0.4120     0.8080     0.6480 O.2   1 <1>  -0.5700 
  2 C        1.5990     0.5720     0.6900 C.2   1 <1>   0.7150 
  3 N        1.9210    -0.6530     1.1790 N.am  1 <1>  -0.7300 
  4 C        2.5380     1.5560     0.2370 C.2   1 <1>  -0.2370 
  5 C        3.1740    -1.2450     1.7240 C.3   1 <1>   0.1400 
  6 N        3.8430     1.3530    -0.0560 N.pl3 1 <1>   0.3140 
  7 C        2.3250     2.8720    -0.0170 C.2   1 <1>  -0.1500 
  8 C        4.4580    -0.4340     1.4940 C.3   1 <1>   0.2000 
  9 N        4.4530     2.4640    -0.4730 N.2   1 <1>  -0.7070 
 10 C        4.5990     0.1000     0.0710 C.3   1 <1>   0.0960 
 11 C        3.5300     3.4150    -0.4570 C.2   1 <1>   0.2030 
 12 O        5.5420    -1.2600     1.7650 O.3   1 <1>  -0.6800 
 13 C        3.6830     4.8290    -0.8050 C.2   1 <1>   0.7160 
 14 O        2.8910     5.6330    -0.3370 O.2   1 <1>  -0.5700 
 15 N        4.6770     5.3340    -1.6360 N.am  1 <1>  -0.6600 
 16 C        4.8690     6.8080    -1.7910 C.3   1 <1>   0.1400 
 17 C        5.5230     4.4880    -2.5180 C.3   1 <1>   0.1400 
 18 C        5.4990     7.4030    -0.5310 C.3   1 <1>   0.1200 
 19 C        6.9200     4.3470    -1.9170 C.3   1 <1>  -0.2400 
 20 O        5.8830     8.7330    -0.8080 O.3   1 <1>  -0.3630 
 21 C        6.5040     9.4910     0.1300 C.ar  1 <1>   0.0820 
 22 C        6.8980    10.7620    -0.2560 C.ar  1 <1>  -0.1500 
 23 C        6.7580     9.0620     1.4300 C.ar  1 <1>  -0.1500 
 24 C        7.5430    11.6070     0.6320 C.ar  1 <1>  -0.1430 
 25 C        7.4010     9.9030     2.3210 C.ar  1 <1>  -0.1500 
 26 C        7.7910    11.1700     1.9240 C.ar  1 <1>  -0.1500 
 27 C        7.9690    12.9990     0.1940 C.3   1 <1>  -0.0170 
 28 C        6.8520    14.0100     0.4620 C.3   1 <1>  -0.2400 
 29 H        1.0780    -1.1880     1.4050 H     1 <1>   0.3700 
 30 H        3.2930    -2.2150     1.2720 H     1 <1>   0.0800 
 31 H        3.0490    -1.3870     2.7840 H     1 <1>   0.0800 
 32 H        1.4040     3.4180     0.0950 H     1 <1>   0.1500 
 33 H        4.5120     0.3800     2.1980 H     1 <1>   0.0800 
 34 H        5.6310     0.3200    -0.1360 H     1 <1>   0.0800 
 35 H        4.2290    -0.6030    -0.6500 H     1 <1>   0.0800 
 36 H        5.6030    -2.0030     1.1330 H     1 <1>   0.4000 
 37 H        3.9160     7.2770    -1.9680 H     1 <1>   0.0800 
 38 H        5.5090     7.0070    -2.6320 H     1 <1>   0.0800 
 39 H        5.5890     4.9390    -3.4940 H     1 <1>   0.0800 
 40 H        5.0790     3.5170    -2.6490 H     1 <1>   0.0800 
 41 H        6.3790     6.8500    -0.2560 H     1 <1>   0.0800 
 42 H        4.7870     7.4120     0.2750 H     1 <1>   0.0800 
 43 H        7.4080     5.3020    -1.8600 H     1 <1>   0.0800 
 44 H        7.5130     3.6980    -2.5340 H     1 <1>   0.0800 
 45 H        6.8560     3.9150    -0.9330 H     1 <1>   0.0800 
 46 H        6.6920    11.0830    -1.2610 H     1 <1>   0.1500 
 47 H        6.4640     8.0860     1.7650 H     1 <1>   0.1500 
 48 H        7.5970     9.5720     3.3250 H     1 <1>   0.1500 
 49 H        8.2890    11.8160     2.6250 H     1 <1>   0.1500 
 50 H        8.2050    12.9910    -0.8550 H     1 <1>   0.0800 
 51 H        8.8570    13.2910     0.7260 H     1 <1>   0.0800 
 52 H        5.9640    13.7310    -0.0770 H     1 <1>   0.0800 
 53 H        7.1560    14.9920     0.1460 H     1 <1>   0.0800 
 54 H        6.6220    14.0390     1.5120 H     1 <1>   0.0800 
@<TRIPOS>BOND
  1   1   2  2   
  2   2   3  am  
  3   2   4  1   
  4   3   5  1   
  5   3  29  1   
  6   4   6  1   
  7   4   7  2   
  8   5   8  1   
  9   5  30  1   
 10   5  31  1   
 11   6   9  1   
 12   6  10  1   
 13   7  11  1   
 14   7  32  1   
 15   8  10  1   
 16   8  12  1   
 17   8  33  1   
 18   9  11  2   
 19  10  34  1   
 20  10  35  1   
 21  11  13  1   
 22  12  36  1   
 23  13  14  2   
 24  13  15  am  
 25  15  16  1   
 26  15  17  1   
 27  16  18  1   
 28  16  37  1   
 29  16  38  1   
 30  17  19  1   
 31  17  39  1   
 32  17  40  1   
 33  18  20  1   
 34  18  41  1   
 35  18  42  1   
 36  19  43  1   
 37  19  44  1   
 38  19  45  1   
 39  20  21  1   
 40  21  22  ar  
 41  21  23  ar  
 42  22  24  ar  
 43  22  46  1   
 44  23  25  ar  
 45  23  47  1   
 46  24  26  ar  
 47  24  27  1   
 48  25  26  ar  
 49  25  48  1   
 50  26  49  1   
 51  27  28  1   
 52  27  50  1   
 53  27  51  1   
 54  28  52  1   
 55  28  53  1   
 56  28  54  1   
@<TRIPOS>SUBSTRUCTURE
  1 ****  13 GROUP 4 **** **** 0

# MOE 2024.06 (io_trps.svl 2023.06)
