@<TRIPOS>MOLECULE
NONAME
49 52 1 0 0 
SMALL
USER_CHARGES


@<TRIPOS>ATOM
  1 CL       0.4820     1.3490    -2.4190 Cl    1 <1>  -0.1770 
  2 C       -0.8840     2.0010    -1.5400 C.ar  1 <1>   0.1770 
  3 C       -1.1730     3.3630    -1.5760 C.ar  1 <1>  -0.1440 
  4 C       -1.6510     1.1130    -0.8090 C.ar  1 <1>  -0.1500 
  5 C       -2.2680     3.8240    -0.8560 C.ar  1 <1>  -0.1500 
  6 C       -0.3360     4.3690    -2.3680 C.3   1 <1>   0.0450 
  7 C       -2.7350     1.5850    -0.0940 C.ar  1 <1>   0.0830 
  8 C       -3.0400     2.9480    -0.1110 C.ar  1 <1>   0.0830 
  9 C        0.1810     5.5160    -1.5070 C.2   1 <1>   0.5690 
 10 O       -3.4880     0.7060     0.6130 O.3   1 <1>  -0.3630 
 11 O       -4.0840     3.4420     0.6010 O.3   1 <1>  -0.3630 
 12 O       -0.0170     6.6420    -1.9000 O.2   1 <1>  -0.5700 
 13 N        0.8770     5.3080    -0.3400 N.am  1 <1>  -0.6600 
 14 C       -4.7510     1.1590     1.0620 C.3   1 <1>   0.1200 
 15 C       -4.6450     2.5970     1.5880 C.3   1 <1>   0.1200 
 16 C        0.9490     6.3920     0.6950 C.3   1 <1>   0.1400 
 17 C        1.5900     4.0470     0.0170 C.3   1 <1>   0.1400 
 18 C        2.3710     6.9470     0.9830 C.3   1 <1>   0.4230 
 19 C        3.1170     4.2650     0.0810 C.3   1 <1>  -0.0800 
 20 N        3.3670     6.8370    -0.1580 N.4   1 <1>  -0.9590 
 21 C        2.9510     6.3770     2.2960 C.3   1 <1>   0.1200 
 22 C        3.6800     4.2560     1.5110 C.3   1 <1>   0.1200 
 23 C        3.5790     5.4700    -0.7560 C.3   1 <1>   0.3430 
 24 C        2.9870     7.7910    -1.2490 C.3   1 <1>   0.2630 
 25 O        2.8710     4.9880     2.3700 O.3   1 <1>  -0.5600 
 26 H       -1.4130     0.0660    -0.7960 H     1 <1>   0.1500 
 27 H       -2.5340     4.8670    -0.8580 H     1 <1>   0.1500 
 28 H       -0.9570     4.7810    -3.1440 H     1 <1>   0.0800 
 29 H        0.5020     3.9090    -2.8530 H     1 <1>   0.0800 
 30 H       -5.4360     1.1150     0.2330 H     1 <1>   0.0800 
 31 H       -5.0880     0.4930     1.8350 H     1 <1>   0.0800 
 32 H       -4.0110     2.6310     2.4570 H     1 <1>   0.0800 
 33 H       -5.6150     2.9840     1.8430 H     1 <1>   0.0800 
 34 H        0.3270     7.2170     0.3950 H     1 <1>   0.0800 
 35 H        0.5190     6.0200     1.6100 H     1 <1>   0.0800 
 36 H        1.2130     3.6700     0.9540 H     1 <1>   0.0800 
 37 H        1.3930     3.2960    -0.7240 H     1 <1>   0.0800 
 38 H        2.2390     7.9980     1.1810 H     1 <1>   0.0800 
 39 H        3.5520     3.4040    -0.3940 H     1 <1>   0.0800 
 40 H        4.2730     7.1410     0.2200 H     1 <1>   0.4500 
 41 H        2.3720     6.7540     3.1210 H     1 <1>   0.0800 
 42 H        3.9720     6.6800     2.4450 H     1 <1>   0.0800 
 43 H        4.6890     4.6290     1.5590 H     1 <1>   0.0800 
 44 H        3.6790     3.2450     1.8850 H     1 <1>   0.0800 
 45 H        3.0550     5.4200    -1.6970 H     1 <1>   0.0800 
 46 H        4.6270     5.3520    -0.9770 H     1 <1>   0.0800 
 47 H        2.0430     7.5070    -1.6820 H     1 <1>   0.0800 
 48 H        3.7330     7.7900    -2.0270 H     1 <1>   0.0800 
 49 H        2.8960     8.7920    -0.8620 H     1 <1>   0.0800 
@<TRIPOS>BOND
  1   1   2  1   
  2   2   3  ar  
  3   2   4  ar  
  4   3   5  ar  
  5   3   6  1   
  6   4   7  ar  
  7   4  26  1   
  8   5   8  ar  
  9   5  27  1   
 10   6   9  1   
 11   6  28  1   
 12   6  29  1   
 13   7   8  ar  
 14   7  10  1   
 15   8  11  1   
 16   9  12  2   
 17   9  13  am  
 18  10  14  1   
 19  11  15  1   
 20  13  16  1   
 21  13  17  1   
 22  14  15  1   
 23  14  30  1   
 24  14  31  1   
 25  15  32  1   
 26  15  33  1   
 27  16  18  1   
 28  16  34  1   
 29  16  35  1   
 30  17  19  1   
 31  17  36  1   
 32  17  37  1   
 33  18  20  1   
 34  18  21  1   
 35  18  38  1   
 36  19  22  1   
 37  19  23  1   
 38  19  39  1   
 39  20  23  1   
 40  20  24  1   
 41  20  40  1   
 42  21  25  1   
 43  21  41  1   
 44  21  42  1   
 45  22  25  1   
 46  22  43  1   
 47  22  44  1   
 48  23  45  1   
 49  23  46  1   
 50  24  47  1   
 51  24  48  1   
 52  24  49  1   
@<TRIPOS>SUBSTRUCTURE
  1 ****  13 GROUP 4 **** **** 0

# MOE 2024.06 (io_trps.svl 2023.06)
