@<TRIPOS>MOLECULE
NONAME
51 53 1 0 0 
SMALL
USER_CHARGES


@<TRIPOS>ATOM
  1 S        0.1970     0.4230    -0.8910 S.o2  1 <1>   1.3330 
  2 O       -0.8760     1.3390    -1.2050 O.2   1 <1>  -0.6500 
  3 O        0.2430    -0.8700    -1.5370 O.2   1 <1>  -0.6500 
  4 N        0.1510     0.1600     0.7860 N.am  1 <1>  -0.8490 
  5 C        1.7700     1.2390    -1.1670 C.3   1 <1>  -0.0550 
  6 C       -0.8240    -0.8720     1.1480 C.3   1 <1>   0.1160 
  7 C       -0.1080     1.3810     1.5610 C.3   1 <1>   0.1160 
  8 C        3.0100     0.3420    -0.9490 C.3   1 <1>  -0.0800 
  9 C        4.3430     1.0170    -1.2370 C.3   1 <1>   0.2200 
 10 C        3.2030    -0.1650     0.4850 C.3   1 <1>   0.1200 
 11 N        4.3560     2.3820    -0.6630 N.am  1 <1>  -0.7300 
 12 C        5.2890     0.1310    -0.4390 C.3   1 <1>   0.1200 
 13 O        4.5820    -0.2400     0.7070 O.3   1 <1>  -0.5600 
 14 C        4.1810     3.5440    -1.3540 C.2   1 <1>   0.6160 
 15 O        4.2330     3.4910    -2.5690 O.2   1 <1>  -0.5700 
 16 C        3.9360     4.7970    -0.6900 C.2   1 <1>   0.0290 
 17 C        3.2900     4.8140     0.5900 C.2   1 <1>   0.6160 
 18 C        4.2900     6.0020    -1.2500 C.2   1 <1>  -0.1500 
 19 O        2.8810     3.8210     1.1820 O.2   1 <1>  -0.5700 
 20 N        3.0900     6.0170     1.2090 N.am  1 <1>  -0.5390 
 21 C        4.0470     7.2220    -0.5820 C.2   1 <1>  -0.1380 
 22 C        3.4560     7.2110     0.6490 C.2   1 <1>  -0.0290 
 23 C        4.4680     8.5160    -1.2680 C.3   1 <1>  -0.0220 
 24 C        3.1610     8.4720     1.4480 C.3   1 <1>  -0.0220 
 25 C        3.8050     9.7480    -0.6360 C.3   1 <1>  -0.1600 
 26 C        3.9030     9.6960     0.8930 C.3   1 <1>  -0.1600 
 27 H        1.7940     1.5910    -2.1810 H     1 <1>   0.0800 
 28 H        1.8230     2.1000    -0.5340 H     1 <1>   0.0800 
 29 H       -0.8150    -1.0370     2.2120 H     1 <1>   0.0800 
 30 H       -0.5740    -1.8010     0.6620 H     1 <1>   0.0800 
 31 H       -1.8130    -0.5770     0.8410 H     1 <1>   0.0800 
 32 H       -0.0690     1.1630     2.6150 H     1 <1>   0.0800 
 33 H       -1.0790     1.7820     1.3220 H     1 <1>   0.0800 
 34 H        0.6380     2.1270     1.3470 H     1 <1>   0.0800 
 35 H        2.9250    -0.5190    -1.5890 H     1 <1>   0.0800 
 36 H        4.5890     1.0370    -2.2860 H     1 <1>   0.0800 
 37 H        2.7670    -1.1390     0.6310 H     1 <1>   0.0800 
 38 H        2.8010     0.5250     1.2060 H     1 <1>   0.0800 
 39 H        4.1960     2.4020     0.3530 H     1 <1>   0.3700 
 40 H        6.1960     0.6380    -0.1580 H     1 <1>   0.0800 
 41 H        5.5210    -0.7660    -0.9850 H     1 <1>   0.0800 
 42 H        4.7620     6.0280    -2.2180 H     1 <1>   0.1500 
 43 H        2.6360     5.9630     2.1200 H     1 <1>   0.3700 
 44 H        5.5370     8.6090    -1.1940 H     1 <1>   0.0800 
 45 H        4.2100     8.4770    -2.3120 H     1 <1>   0.0800 
 46 H        2.1010     8.6540     1.4150 H     1 <1>   0.0800 
 47 H        3.4440     8.3280     2.4750 H     1 <1>   0.0800 
 48 H        4.2810    10.6400    -1.0050 H     1 <1>   0.0800 
 49 H        2.7680     9.7800    -0.9250 H     1 <1>   0.0800 
 50 H        3.4890    10.5920     1.3200 H     1 <1>   0.0800 
 51 H        4.9400     9.6410     1.1780 H     1 <1>   0.0800 
@<TRIPOS>BOND
  1   1   2  2   
  2   1   3  2   
  3   1   4  am  
  4   1   5  1   
  5   4   6  1   
  6   4   7  1   
  7   5   8  1   
  8   5  27  1   
  9   5  28  1   
 10   6  29  1   
 11   6  30  1   
 12   6  31  1   
 13   7  32  1   
 14   7  33  1   
 15   7  34  1   
 16   8   9  1   
 17   8  10  1   
 18   8  35  1   
 19   9  11  1   
 20   9  12  1   
 21   9  36  1   
 22  10  13  1   
 23  10  37  1   
 24  10  38  1   
 25  11  14  am  
 26  11  39  1   
 27  12  13  1   
 28  12  40  1   
 29  12  41  1   
 30  14  15  2   
 31  14  16  1   
 32  16  17  1   
 33  16  18  2   
 34  17  19  2   
 35  17  20  am  
 36  18  21  1   
 37  18  42  1   
 38  20  22  1   
 39  20  43  1   
 40  21  22  2   
 41  21  23  1   
 42  22  24  1   
 43  23  25  1   
 44  23  44  1   
 45  23  45  1   
 46  24  26  1   
 47  24  46  1   
 48  24  47  1   
 49  25  26  1   
 50  25  48  1   
 51  25  49  1   
 52  26  50  1   
 53  26  51  1   
@<TRIPOS>SUBSTRUCTURE
  1 ****  19 GROUP 4 **** **** 0

# MOE 2024.06 (io_trps.svl 2023.06)
