@<TRIPOS>MOLECULE
NONAME
50 53 1 0 0 
SMALL
USER_CHARGES


@<TRIPOS>ATOM
  1 O       -1.2150    -0.1690    -1.9930 O.2   1 <1>  -0.5700 
  2 C       -1.4840     0.1710    -0.8560 C.2   1 <1>   0.7150 
  3 N       -1.8480    -0.7880     0.0420 N.am  1 <1>  -0.7300 
  4 C       -1.4450     1.5550    -0.4680 C.2   1 <1>   0.0550 
  5 C       -1.9830    -2.2370    -0.2350 C.3   1 <1>   0.2200 
  6 O       -1.8000     1.9350     0.7380 O.3   1 <1>  -0.0190 
  7 C       -1.0980     2.6820    -1.1300 C.2   1 <1>  -0.1500 
  8 C       -3.4480    -2.6450    -0.2980 C.3   1 <1>  -0.0800 
  9 C       -1.5300    -3.0170     0.9920 C.3   1 <1>   0.1200 
 10 N       -1.7140     3.2170     0.9130 N.2   1 <1>  -0.4100 
 11 C       -1.2880     3.6990    -0.2050 C.2   1 <1>   0.1080 
 12 C       -3.8120    -2.8360     1.1780 C.3   1 <1>   0.1200 
 13 C       -4.3760    -1.7020    -1.0910 C.3   1 <1>  -0.0160 
 14 O       -2.6070    -2.9620     1.8780 O.3   1 <1>  -0.5600 
 15 C       -1.0300     5.1770    -0.4770 C.3   1 <1>   0.1010 
 16 C       -5.8000    -2.2500    -1.1460 C.ar  1 <1>  -0.1440 
 17 C        0.0520     5.7220     0.4630 C.3   1 <1>  -0.2400 
 18 C       -2.3220     5.9900    -0.3340 C.3   1 <1>  -0.2400 
 19 C       -6.8330    -1.8450    -0.2630 C.ar  1 <1>   0.0000 
 20 C       -6.1090    -3.1880    -2.0870 C.ar  1 <1>  -0.1500 
 21 C       -8.0990    -2.4650    -0.4100 C.ar  1 <1>   0.3100 
 22 C       -6.6960    -0.8660     0.7500 C.ar  1 <1>  -0.1500 
 23 C       -7.3980    -3.7290    -2.1520 C.ar  1 <1>   0.1600 
 24 N       -8.3640    -3.4000    -1.3560 N.ar  1 <1>  -0.6200 
 25 C       -9.1420    -2.1030     0.4580 C.ar  1 <1>  -0.1500 
 26 C       -7.7330    -0.5340     1.5790 C.ar  1 <1>  -0.1500 
 27 C       -8.9730    -1.1610     1.4350 C.ar  1 <1>  -0.1500 
 28 H       -2.0680    -0.5160     1.0030 H     1 <1>   0.3700 
 29 H       -1.4330    -2.5130    -1.1200 H     1 <1>   0.0800 
 30 H       -0.7530     2.7780    -2.1430 H     1 <1>   0.1500 
 31 H       -3.4940    -3.6160    -0.7600 H     1 <1>   0.0800 
 32 H       -0.6550    -2.5980     1.4550 H     1 <1>   0.0800 
 33 H       -1.3580    -4.0500     0.7460 H     1 <1>   0.0800 
 34 H       -4.4060    -3.7200     1.3350 H     1 <1>   0.0800 
 35 H       -4.3240    -1.9800     1.5790 H     1 <1>   0.0800 
 36 H       -3.9980    -1.6210    -2.0960 H     1 <1>   0.0800 
 37 H       -4.3660    -0.7090    -0.6870 H     1 <1>   0.0800 
 38 H       -0.6780     5.2780    -1.4890 H     1 <1>   0.0800 
 39 H       -0.2710     5.6470     1.4870 H     1 <1>   0.0800 
 40 H        0.2610     6.7530     0.2400 H     1 <1>   0.0800 
 41 H        0.9580     5.1540     0.3500 H     1 <1>   0.0800 
 42 H       -2.6980     5.9210     0.6720 H     1 <1>   0.0800 
 43 H       -3.0720     5.6100    -1.0050 H     1 <1>   0.0800 
 44 H       -2.1440     7.0250    -0.5670 H     1 <1>   0.0800 
 45 H       -5.3790    -3.5360    -2.7940 H     1 <1>   0.1500 
 46 H       -5.7590    -0.3610     0.8830 H     1 <1>   0.1500 
 47 H       -7.5970    -4.4660    -2.9110 H     1 <1>   0.1500 
 48 H      -10.0870    -2.5960     0.3260 H     1 <1>   0.1500 
 49 H       -7.6110     0.2110     2.3460 H     1 <1>   0.1500 
 50 H       -9.7820    -0.8930     2.0940 H     1 <1>   0.1500 
@<TRIPOS>BOND
  1   1   2  2   
  2   2   3  am  
  3   2   4  1   
  4   3   5  1   
  5   3  28  1   
  6   4   6  1   
  7   4   7  2   
  8   5   8  1   
  9   5   9  1   
 10   5  29  1   
 11   6  10  1   
 12   7  11  1   
 13   7  30  1   
 14   8  12  1   
 15   8  13  1   
 16   8  31  1   
 17   9  14  1   
 18   9  32  1   
 19   9  33  1   
 20  10  11  2   
 21  11  15  1   
 22  12  14  1   
 23  12  34  1   
 24  12  35  1   
 25  13  16  1   
 26  13  36  1   
 27  13  37  1   
 28  15  17  1   
 29  15  18  1   
 30  15  38  1   
 31  16  19  ar  
 32  16  20  ar  
 33  17  39  1   
 34  17  40  1   
 35  17  41  1   
 36  18  42  1   
 37  18  43  1   
 38  18  44  1   
 39  19  21  ar  
 40  19  22  ar  
 41  20  23  ar  
 42  20  45  1   
 43  21  24  ar  
 44  21  25  ar  
 45  22  26  ar  
 46  22  46  1   
 47  23  24  ar  
 48  23  47  1   
 49  25  27  ar  
 50  25  48  1   
 51  26  27  ar  
 52  26  49  1   
 53  27  50  1   
@<TRIPOS>SUBSTRUCTURE
  1 ****  13 GROUP 4 **** **** 0

# MOE 2024.06 (io_trps.svl 2023.06)
