@<TRIPOS>MOLECULE
NONAME
34 36 1 0 0 
SMALL
USER_CHARGES


@<TRIPOS>ATOM
  1 N        0.4140     0.2750    -0.3730 N.ar  1 <1>  -0.6200 
  2 C        1.5270    -0.3010     0.0440 C.ar  1 <1>   0.1600 
  3 C        0.5430     1.5100    -0.8210 C.ar  1 <1>   0.1600 
  4 C        2.7710     0.3080     0.0480 C.ar  1 <1>  -0.1500 
  5 C        1.7390     2.2090    -0.8590 C.ar  1 <1>  -0.1500 
  6 C        2.8990     1.6090    -0.4040 C.ar  1 <1>  -0.1080 
  7 C        4.2420     2.3330    -0.4180 C.3   1 <1>   0.1080 
  8 C        5.1190     2.0960     0.8370 C.3   1 <1>   0.4720 
  9 C        4.1840     3.8120     0.0380 C.3   1 <1>   0.4720 
 10 N        5.4080     3.5680     0.8760 N.4   1 <1>  -0.8970 
 11 C        6.6740     3.9890     0.2410 C.3   1 <1>   0.5230 
 12 C        6.7540     5.4980     0.2780 C.2   1 <1>  -0.3320 
 13 N        7.7050     6.1870    -0.3980 N.pl3 1 <1>   0.3140 
 14 C        5.9960     6.4200     0.9220 C.2   1 <1>  -0.1500 
 15 N        7.5690     7.5040    -0.2140 N.2   1 <1>  -0.7070 
 16 C        8.7940     5.6750    -1.2480 C.3   1 <1>   0.0160 
 17 C        6.5530     7.6430     0.5750 C.2   1 <1>   0.1390 
 18 H        1.4410    -1.3140     0.4010 H     1 <1>   0.1500 
 19 H       -0.3530     1.9900    -1.1770 H     1 <1>   0.1500 
 20 H        3.6130    -0.2580     0.4020 H     1 <1>   0.1500 
 21 H        1.7320     3.2090    -1.2530 H     1 <1>   0.1500 
 22 H        4.7870     2.2030    -1.3360 H     1 <1>   0.0000 
 23 H        6.0010     1.5100     0.6560 H     1 <1>   0.0000 
 24 H        4.5500     1.7940     1.6980 H     1 <1>   0.0000 
 25 H        3.3320     4.0300     0.6560 H     1 <1>   0.0000 
 26 H        4.3590     4.5240    -0.7480 H     1 <1>   0.0000 
 27 H        5.3110     3.9720     1.8140 H     1 <1>   0.4500 
 28 H        6.7110     3.6450    -0.7800 H     1 <1>   0.0800 
 29 H        7.5120     3.5730     0.7770 H     1 <1>   0.0800 
 30 H        5.1460     6.3130     1.5710 H     1 <1>   0.1500 
 31 H        9.4130     5.0080    -0.6780 H     1 <1>   0.0800 
 32 H        9.3900     6.5030    -1.5870 H     1 <1>   0.0800 
 33 H        8.3800     5.1700    -2.1000 H     1 <1>   0.0800 
 34 H        6.1950     8.6030     0.9130 H     1 <1>   0.1500 
@<TRIPOS>BOND
  1   1   2  ar  
  2   1   3  ar  
  3   2   4  ar  
  4   2  18  1   
  5   3   5  ar  
  6   3  19  1   
  7   4   6  ar  
  8   4  20  1   
  9   5   6  ar  
 10   5  21  1   
 11   6   7  1   
 12   7   8  1   
 13   7   9  1   
 14   7  22  1   
 15   8  10  1   
 16   8  23  1   
 17   8  24  1   
 18   9  10  1   
 19   9  25  1   
 20   9  26  1   
 21  10  11  1   
 22  10  27  1   
 23  11  12  1   
 24  11  28  1   
 25  11  29  1   
 26  12  13  1   
 27  12  14  2   
 28  13  15  1   
 29  13  16  1   
 30  14  17  1   
 31  14  30  1   
 32  15  17  2   
 33  16  31  1   
 34  16  32  1   
 35  16  33  1   
 36  17  34  1   
@<TRIPOS>SUBSTRUCTURE
  1 ****   9 GROUP 4 **** **** 0

# MOE 2024.06 (io_trps.svl 2023.06)
