@<TRIPOS>MOLECULE
NONAME
49 50 1 0 0 
SMALL
USER_CHARGES


@<TRIPOS>ATOM
  1 O       -1.6730     0.7660     1.1110 O.2   1 <1>  -0.5700 
  2 C       -2.4780     1.2890     0.3680 C.2   1 <1>   0.5690 
  3 N       -3.8070     0.9350     0.4360 N.am  1 <1>  -0.6600 
  4 C       -1.9080     2.3120    -0.6390 C.3   1 <1>   0.2610 
  5 C       -4.2570    -0.0450     1.4690 C.3   1 <1>   0.3200 
  6 C       -4.8890     1.3730    -0.5050 C.3   1 <1>   0.1400 
  7 O       -2.7120     3.4840    -0.7310 O.3   1 <1>  -0.3630 
  8 C       -1.7150     1.7270    -2.0630 C.3   1 <1>  -0.0800 
  9 C       -4.0060    -1.4600     0.9790 C.2   1 <1>   0.0060 
 10 C       -6.0420     2.1380     0.1770 C.3   1 <1>   0.1200 
 11 C       -2.8830     4.3510     0.3000 C.ar  1 <1>   0.0820 
 12 C       -0.7890     0.4990    -2.0550 C.3   1 <1>  -0.2400 
 13 C       -1.1450     2.7710    -3.0390 C.3   1 <1>  -0.2400 
 14 N       -4.9200    -2.3240     0.6690 N.2   1 <1>  -0.5650 
 15 N       -2.7490    -1.9240     0.8250 N.pl3 1 <1>   0.0330 
 16 O       -5.5960     2.9510     1.2120 O.3   1 <1>  -0.6800 
 17 C       -3.7720     5.4040     0.1010 C.ar  1 <1>  -0.1440 
 18 C       -2.2310     4.2220     1.5240 C.ar  1 <1>  -0.1500 
 19 C       -4.2170    -3.4110     0.2930 C.2   1 <1>   0.0770 
 20 C       -2.8880    -3.1850     0.3810 C.2   1 <1>  -0.3020 
 21 C       -4.0090     6.3030     1.1280 C.ar  1 <1>  -0.1500 
 22 C       -4.4880     5.5800    -1.2310 C.3   1 <1>  -0.0970 
 23 C       -2.4760     5.1260     2.5410 C.ar  1 <1>  -0.1500 
 24 C       -3.3660     6.1650     2.3450 C.ar  1 <1>  -0.1500 
 25 H       -0.9430     2.6270    -0.2850 H     1 <1>   0.0800 
 26 H       -5.3040     0.0790     1.6810 H     1 <1>   0.0800 
 27 H       -3.7210     0.1200     2.3880 H     1 <1>   0.0800 
 28 H       -5.2950     0.5010    -0.9890 H     1 <1>   0.0800 
 29 H       -4.4910     1.9930    -1.2830 H     1 <1>   0.0800 
 30 H       -2.6720     1.4040    -2.4350 H     1 <1>   0.0800 
 31 H       -6.7540     1.4460     0.5920 H     1 <1>   0.0800 
 32 H       -6.5520     2.7560    -0.5410 H     1 <1>   0.0800 
 33 H        0.1750     0.7520    -1.6480 H     1 <1>   0.0800 
 34 H       -0.6490     0.1290    -3.0560 H     1 <1>   0.0800 
 35 H       -1.2120    -0.2970    -1.4680 H     1 <1>   0.0800 
 36 H       -0.1910     3.1310    -2.6950 H     1 <1>   0.0800 
 37 H       -1.8120     3.6100    -3.1310 H     1 <1>   0.0800 
 38 H       -1.0170     2.3410    -4.0170 H     1 <1>   0.0800 
 39 H       -1.8970    -1.3740     1.0010 H     1 <1>   0.2700 
 40 H       -4.8110     3.4760     0.9380 H     1 <1>   0.4000 
 41 H       -1.5310     3.4300     1.7150 H     1 <1>   0.1500 
 42 H       -4.7130    -4.3130    -0.0250 H     1 <1>   0.1500 
 43 H       -2.0590    -3.8320     0.1590 H     1 <1>   0.1500 
 44 H       -4.6970     7.1190     0.9890 H     1 <1>   0.1500 
 45 H       -3.7650     5.6630    -2.0230 H     1 <1>   0.0800 
 46 H       -5.0960     6.4660    -1.2310 H     1 <1>   0.0800 
 47 H       -5.1180     4.7320    -1.4250 H     1 <1>   0.0800 
 48 H       -1.9740     5.0190     3.4880 H     1 <1>   0.1500 
 49 H       -3.5580     6.8670     3.1380 H     1 <1>   0.1500 
@<TRIPOS>BOND
  1   1   2  2   
  2   2   3  am  
  3   2   4  1   
  4   3   5  1   
  5   3   6  1   
  6   4   7  1   
  7   4   8  1   
  8   4  25  1   
  9   5   9  1   
 10   5  26  1   
 11   5  27  1   
 12   6  10  1   
 13   6  28  1   
 14   6  29  1   
 15   7  11  1   
 16   8  12  1   
 17   8  13  1   
 18   8  30  1   
 19   9  14  2   
 20   9  15  1   
 21  10  16  1   
 22  10  31  1   
 23  10  32  1   
 24  11  17  ar  
 25  11  18  ar  
 26  12  33  1   
 27  12  34  1   
 28  12  35  1   
 29  13  36  1   
 30  13  37  1   
 31  13  38  1   
 32  14  19  1   
 33  15  20  1   
 34  15  39  1   
 35  16  40  1   
 36  17  21  ar  
 37  17  22  1   
 38  18  23  ar  
 39  18  41  1   
 40  19  20  2   
 41  19  42  1   
 42  20  43  1   
 43  21  24  ar  
 44  21  44  1   
 45  22  45  1   
 46  22  46  1   
 47  22  47  1   
 48  23  24  ar  
 49  23  48  1   
 50  24  49  1   
@<TRIPOS>SUBSTRUCTURE
  1 ****   2 GROUP 4 **** **** 0

# MOE 2024.06 (io_trps.svl 2023.06)
