@<TRIPOS>MOLECULE
NONAME
55 57 1 0 0 
SMALL
USER_CHARGES


@<TRIPOS>ATOM
  1 O        0.1480     0.9340    -0.2360 O.2   1 <1>  -0.5700 
  2 C       -0.0590     2.1160    -0.3820 C.2   1 <1>   0.5690 
  3 N       -0.8480     2.8350     0.4760 N.am  1 <1>  -0.6600 
  4 C        0.5790     2.8170    -1.5820 C.3   1 <1>   0.1810 
  5 C       -1.0960     4.2990     0.2610 C.3   1 <1>   0.3640 
  6 C       -1.4550     2.2360     1.7000 C.3   1 <1>   0.0600 
  7 O        0.7650     4.1930    -1.3610 O.3   1 <1>  -0.5600 
  8 C       -2.5950     4.6350     0.2990 C.ar  1 <1>  -0.1440 
  9 C       -0.4250     4.8830    -1.0080 C.3   1 <1>   0.2610 
 10 C       -3.5790     3.9810    -0.4500 C.ar  1 <1>  -0.1440 
 11 C       -2.9750     5.6740     1.1420 C.ar  1 <1>  -0.1500 
 12 C       -0.1760     6.3860    -0.8100 C.2   1 <1>   0.5690 
 13 C       -4.9040     4.3750    -0.3260 C.ar  1 <1>  -0.1500 
 14 C       -3.2890     2.8320    -1.4100 C.3   1 <1>  -0.0960 
 15 C       -4.2970     6.0590     1.2540 C.ar  1 <1>  -0.1500 
 16 O       -0.8980     7.1360    -1.4260 O.2   1 <1>  -0.5700 
 17 N        0.8010     6.8820     0.0330 N.am  1 <1>  -0.6600 
 18 C       -5.2650     5.4060     0.5190 C.ar  1 <1>  -0.1500 
 19 C        1.0780     8.3450     0.1020 C.3   1 <1>   0.1400 
 20 C        1.8310     6.0700     0.7400 C.3   1 <1>   0.1400 
 21 C        2.4350     8.6470    -0.5550 C.3   1 <1>  -0.0800 
 22 C        3.1920     6.2870     0.0670 C.3   1 <1>  -0.0800 
 23 C        3.5570     7.7870     0.0700 C.3   1 <1>  -0.1600 
 24 C        2.7250    10.1510    -0.4470 C.3   1 <1>   0.1200 
 25 C        4.2520     5.4270     0.7710 C.3   1 <1>   0.1200 
 26 O        3.9060    10.4520    -1.1020 O.3   1 <1>  -0.6800 
 27 O        5.4820     5.6000     0.1600 O.3   1 <1>  -0.6800 
 28 H       -0.0390     2.6880    -2.4510 H     1 <1>   0.0800 
 29 H        1.5430     2.3840    -1.7740 H     1 <1>   0.0800 
 30 H       -0.6440     4.7920     1.1020 H     1 <1>   0.0800 
 31 H       -1.1550     2.7930     2.5690 H     1 <1>   0.0800 
 32 H       -1.1390     1.2140     1.8210 H     1 <1>   0.0800 
 33 H       -2.5290     2.2540     1.6250 H     1 <1>   0.0800 
 34 H       -1.1000     4.7860    -1.8370 H     1 <1>   0.0800 
 35 H       -2.2410     6.2050     1.7220 H     1 <1>   0.1500 
 36 H       -5.6730     3.8790    -0.8910 H     1 <1>   0.1500 
 37 H       -4.1400     2.6310    -2.0360 H     1 <1>   0.0800 
 38 H       -3.0660     1.9370    -0.8580 H     1 <1>   0.0800 
 39 H       -2.4640     3.0640    -2.0540 H     1 <1>   0.0800 
 40 H       -4.5730     6.8660     1.9100 H     1 <1>   0.1500 
 41 H       -6.2970     5.7010     0.6020 H     1 <1>   0.1500 
 42 H        0.3030     8.9040    -0.3950 H     1 <1>   0.0800 
 43 H        1.0910     8.6490     1.1350 H     1 <1>   0.0800 
 44 H        1.8780     6.3860     1.7680 H     1 <1>   0.0800 
 45 H        1.5830     5.0250     0.7340 H     1 <1>   0.0800 
 46 H        2.3420     8.4050    -1.6000 H     1 <1>   0.0800 
 47 H        3.1050     5.9430    -0.9500 H     1 <1>   0.0800 
 48 H        3.7340     8.1070     1.0820 H     1 <1>   0.0800 
 49 H        4.4680     7.9280    -0.4850 H     1 <1>   0.0800 
 50 H        2.8230    10.4570     0.5800 H     1 <1>   0.0800 
 51 H        1.9400    10.7250    -0.9130 H     1 <1>   0.0800 
 52 H        3.9970     4.3810     0.7180 H     1 <1>   0.0800 
 53 H        4.3570     5.7130     1.8030 H     1 <1>   0.0800 
 54 H        4.6420     9.9220    -0.7390 H     1 <1>   0.4000 
 55 H        5.4360     5.3450    -0.7820 H     1 <1>   0.4000 
@<TRIPOS>BOND
  1   1   2  2   
  2   2   3  am  
  3   2   4  1   
  4   3   5  1   
  5   3   6  1   
  6   4   7  1   
  7   4  28  1   
  8   4  29  1   
  9   5   8  1   
 10   5   9  1   
 11   5  30  1   
 12   6  31  1   
 13   6  32  1   
 14   6  33  1   
 15   7   9  1   
 16   8  10  ar  
 17   8  11  ar  
 18   9  12  1   
 19   9  34  1   
 20  10  13  ar  
 21  10  14  1   
 22  11  15  ar  
 23  11  35  1   
 24  12  16  2   
 25  12  17  am  
 26  13  18  ar  
 27  13  36  1   
 28  14  37  1   
 29  14  38  1   
 30  14  39  1   
 31  15  18  ar  
 32  15  40  1   
 33  17  19  1   
 34  17  20  1   
 35  18  41  1   
 36  19  21  1   
 37  19  42  1   
 38  19  43  1   
 39  20  22  1   
 40  20  44  1   
 41  20  45  1   
 42  21  23  1   
 43  21  24  1   
 44  21  46  1   
 45  22  23  1   
 46  22  25  1   
 47  22  47  1   
 48  23  48  1   
 49  23  49  1   
 50  24  26  1   
 51  24  50  1   
 52  24  51  1   
 53  25  27  1   
 54  25  52  1   
 55  25  53  1   
 56  26  54  1   
 57  27  55  1   
@<TRIPOS>SUBSTRUCTURE
  1 ****   9 GROUP 4 **** **** 0

# MOE 2024.06 (io_trps.svl 2023.06)
