@<TRIPOS>MOLECULE
NONAME
50 52 1 0 0 
SMALL
USER_CHARGES


@<TRIPOS>ATOM
  1 O        4.4330    -3.3210     0.3900 O.2   1 <1>  -0.5700 
  2 C        3.4860    -2.6500     0.0560 C.2   1 <1>   0.5690 
  3 N        3.2070    -1.4790     0.7210 N.am  1 <1>  -0.6600 
  4 C        2.6490    -3.1330    -1.1440 C.3   1 <1>   0.1710 
  5 C        3.8400    -1.2310     2.0700 C.3   1 <1>   0.2200 
  6 C        2.3350    -0.4220     0.1200 C.3   1 <1>   0.1400 
  7 N        1.1740    -3.0260    -0.9680 N.3   1 <1>  -0.8100 
  8 C        2.8640    -0.6380     3.0990 C.3   1 <1>   0.1200 
  9 C        5.1020    -0.3530     1.9270 C.3   1 <1>   0.3430 
 10 C        2.6270     1.0090     0.6150 C.3   1 <1>  -0.0800 
 11 C        0.7000    -3.9670     0.0670 C.3   1 <1>   0.2540 
 12 C        0.4810    -3.2420    -2.2480 C.3   1 <1>   0.0300 
 13 O        2.8270     0.7550     3.0040 O.3   1 <1>  -0.5600 
 14 N        5.1280     0.3960     0.6220 N.4   1 <1>  -0.9590 
 15 C        2.0190     1.2680     2.0010 C.3   1 <1>   0.1200 
 16 C        4.0970     1.4820     0.5320 C.3   1 <1>   0.3430 
 17 C       -0.7480    -3.6870     0.4340 C.ar  1 <1>  -0.1440 
 18 C        6.4970     0.9030     0.3200 C.3   1 <1>   0.2630 
 19 C       -1.7570    -4.5500     0.0300 C.ar  1 <1>   0.1600 
 20 C       -1.0860    -2.5750     1.1780 C.ar  1 <1>  -0.1500 
 21 N       -3.0430    -4.3960     0.3000 N.ar  1 <1>  -0.6200 
 22 C       -2.4220    -2.3970     1.4700 C.ar  1 <1>  -0.1500 
 23 C       -3.3440    -3.3230     1.0130 C.ar  1 <1>   0.1600 
 24 H        2.9100    -4.1570    -1.3510 H     1 <1>   0.0800 
 25 H        2.9460    -2.5490    -1.9960 H     1 <1>   0.0800 
 26 H        4.1480    -2.1780     2.4800 H     1 <1>   0.0800 
 27 H        2.4540    -0.4420    -0.9500 H     1 <1>   0.0800 
 28 H        1.3060    -0.6670     0.3220 H     1 <1>   0.0800 
 29 H        3.2180    -0.8650     4.0890 H     1 <1>   0.0800 
 30 H        1.8740    -1.0480     2.9960 H     1 <1>   0.0800 
 31 H        5.9580    -1.0060     1.9750 H     1 <1>   0.0800 
 32 H        5.1660     0.3310     2.7570 H     1 <1>   0.0800 
 33 H        2.0730     1.6560    -0.0400 H     1 <1>   0.0800 
 34 H        0.8090    -4.9810    -0.2800 H     1 <1>   0.0800 
 35 H        1.2950    -3.8600     0.9580 H     1 <1>   0.0800 
 36 H       -0.5770    -3.0760    -2.1310 H     1 <1>   0.0800 
 37 H        0.6400    -4.2460    -2.6030 H     1 <1>   0.0800 
 38 H        0.8420    -2.5480    -2.9870 H     1 <1>   0.0800 
 39 H        4.8600    -0.3250    -0.0670 H     1 <1>   0.4500 
 40 H        1.0300     0.8480     2.0930 H     1 <1>   0.0800 
 41 H        1.9450     2.3290     2.1750 H     1 <1>   0.0800 
 42 H        4.2720     2.2080     1.3100 H     1 <1>   0.0800 
 43 H        4.2240     1.9870    -0.4120 H     1 <1>   0.0800 
 44 H        6.7970     1.6320     1.0550 H     1 <1>   0.0800 
 45 H        6.5190     1.3650    -0.6540 H     1 <1>   0.0800 
 46 H        7.2060     0.0910     0.3300 H     1 <1>   0.0800 
 47 H       -1.4940    -5.4170    -0.5500 H     1 <1>   0.1500 
 48 H       -0.3410    -1.8780     1.5120 H     1 <1>   0.1500 
 49 H       -2.7490    -1.5500     2.0450 H     1 <1>   0.1500 
 50 H       -4.3840    -3.1730     1.2470 H     1 <1>   0.1500 
@<TRIPOS>BOND
  1   1   2  2   
  2   2   3  am  
  3   2   4  1   
  4   3   5  1   
  5   3   6  1   
  6   4   7  1   
  7   4  24  1   
  8   4  25  1   
  9   5   8  1   
 10   5   9  1   
 11   5  26  1   
 12   6  10  1   
 13   6  27  1   
 14   6  28  1   
 15   7  11  1   
 16   7  12  1   
 17   8  13  1   
 18   8  29  1   
 19   8  30  1   
 20   9  14  1   
 21   9  31  1   
 22   9  32  1   
 23  10  15  1   
 24  10  16  1   
 25  10  33  1   
 26  11  17  1   
 27  11  34  1   
 28  11  35  1   
 29  12  36  1   
 30  12  37  1   
 31  12  38  1   
 32  13  15  1   
 33  14  16  1   
 34  14  18  1   
 35  14  39  1   
 36  15  40  1   
 37  15  41  1   
 38  16  42  1   
 39  16  43  1   
 40  17  19  ar  
 41  17  20  ar  
 42  18  44  1   
 43  18  45  1   
 44  18  46  1   
 45  19  21  ar  
 46  19  47  1   
 47  20  22  ar  
 48  20  48  1   
 49  21  23  ar  
 50  22  23  ar  
 51  22  49  1   
 52  23  50  1   
@<TRIPOS>SUBSTRUCTURE
  1 ****   3 GROUP 4 **** **** 0

# MOE 2024.06 (io_trps.svl 2023.06)
