@<TRIPOS>MOLECULE
NONAME
42 44 1 0 0 
SMALL
USER_CHARGES


@<TRIPOS>ATOM
  1 O       -0.0060     0.8880    -0.9810 O.co2 1 <1>  -0.9000 
  2 C       -0.6640     0.1640    -0.2160 C.2   1 <1>   0.9060 
  3 O       -0.3730    -1.0060     0.0390 O.co2 1 <1>  -0.9000 
  4 C       -1.9210     0.8020     0.4160 C.3   1 <1>   0.3170 
  5 N       -2.0000     2.2730     0.0920 N.4   1 <1>  -0.9590 
  6 C       -3.2240     0.1850    -0.1180 C.3   1 <1>  -0.1600 
  7 C       -3.1800     2.4800    -0.7780 C.3   1 <1>   0.3430 
  8 C       -1.9720     3.1390     1.2870 C.3   1 <1>   0.4860 
  9 C       -4.1490     1.3590    -0.3980 C.3   1 <1>   0.2000 
 10 C       -1.7610     4.5660     0.8240 C.ar  1 <1>  -0.1430 
 11 O       -4.7970     1.6950     0.7870 O.3   1 <1>  -0.6800 
 12 C       -0.5090     4.9310     0.3400 C.ar  1 <1>   0.0830 
 13 C       -2.7950     5.4920     0.8540 C.ar  1 <1>  -0.1500 
 14 O        0.4630     3.9910     0.3500 O.3   1 <1>  -0.3630 
 15 C       -0.2850     6.2210    -0.1290 C.ar  1 <1>  -0.1500 
 16 C       -2.5590     6.7720     0.3870 C.ar  1 <1>  -0.1430 
 17 C        1.3340     3.8670    -0.7540 C.3   1 <1>   0.0400 
 18 C       -1.3250     7.1300    -0.0990 C.ar  1 <1>  -0.1430 
 19 C       -3.5270     7.9280     0.3270 C.3   1 <1>  -0.0170 
 20 C       -1.3090     8.5700    -0.5460 C.3   1 <1>  -0.0170 
 21 C       -2.6240     9.1350     0.0190 C.3   1 <1>  -0.1600 
 22 H       -1.8610     0.6610     1.4800 H     1 <1>   0.0800 
 23 H       -1.1110     2.4350    -0.4370 H     1 <1>   0.4500 
 24 H       -3.6350    -0.5330     0.5690 H     1 <1>   0.0800 
 25 H       -3.0090    -0.3260    -1.0410 H     1 <1>   0.0800 
 26 H       -3.6220     3.4530    -0.6480 H     1 <1>   0.0800 
 27 H       -2.8820     2.3560    -1.8060 H     1 <1>   0.0800 
 28 H       -2.8960     3.0490     1.8330 H     1 <1>   0.0800 
 29 H       -1.1530     2.8520     1.9270 H     1 <1>   0.0800 
 30 H       -4.8840     1.1640    -1.1600 H     1 <1>   0.0800 
 31 H       -5.4170     0.9840     1.0500 H     1 <1>   0.4000 
 32 H       -3.7680     5.2290     1.2300 H     1 <1>   0.1500 
 33 H        0.6790     6.5150    -0.4990 H     1 <1>   0.1500 
 34 H        1.8360     2.9170    -0.6770 H     1 <1>   0.0800 
 35 H        2.0520     4.6660    -0.7300 H     1 <1>   0.0800 
 36 H        0.7580     3.8930    -1.6620 H     1 <1>   0.0800 
 37 H       -4.2310     7.7680    -0.4710 H     1 <1>   0.0800 
 38 H       -4.0510     8.0560     1.2580 H     1 <1>   0.0800 
 39 H       -0.4550     9.0960    -0.1580 H     1 <1>   0.0800 
 40 H       -1.3080     8.6130    -1.6210 H     1 <1>   0.0800 
 41 H       -2.4110     9.6500     0.9390 H     1 <1>   0.0800 
 42 H       -3.0920     9.8210    -0.6650 H     1 <1>   0.0800 
@<TRIPOS>BOND
  1   1   2  ar  
  2   2   3  ar  
  3   2   4  1   
  4   4   5  1   
  5   4   6  1   
  6   4  22  1   
  7   5   7  1   
  8   5   8  1   
  9   5  23  1   
 10   6   9  1   
 11   6  24  1   
 12   6  25  1   
 13   7   9  1   
 14   7  26  1   
 15   7  27  1   
 16   8  10  1   
 17   8  28  1   
 18   8  29  1   
 19   9  11  1   
 20   9  30  1   
 21  10  12  ar  
 22  10  13  ar  
 23  11  31  1   
 24  12  14  1   
 25  12  15  ar  
 26  13  16  ar  
 27  13  32  1   
 28  14  17  1   
 29  15  18  ar  
 30  15  33  1   
 31  16  18  ar  
 32  16  19  1   
 33  17  34  1   
 34  17  35  1   
 35  17  36  1   
 36  18  20  1   
 37  19  21  1   
 38  19  37  1   
 39  19  38  1   
 40  20  21  1   
 41  20  39  1   
 42  20  40  1   
 43  21  41  1   
 44  21  42  1   
@<TRIPOS>SUBSTRUCTURE
  1 ****  10 GROUP 4 **** **** 0

# MOE 2024.06 (io_trps.svl 2023.06)
