@<TRIPOS>MOLECULE
NONAME
46 48 1 0 0 
SMALL
USER_CHARGES


@<TRIPOS>ATOM
  1 O       -4.0170     2.5470    -0.2140 O.2   1 <1>  -0.5700 
  2 C       -3.3110     1.6090     0.0700 C.2   1 <1>   0.5690 
  3 N       -3.5260     0.3680    -0.4790 N.am  1 <1>  -0.6600 
  4 C       -2.1770     1.8970     1.0460 C.3   1 <1>  -0.0990 
  5 C       -2.7650    -0.8750    -0.0810 C.3   1 <1>   0.3640 
  6 C       -4.6900     0.2140    -1.4060 C.3   1 <1>   0.1400 
  7 C       -0.9810     2.5480     0.3310 C.3   1 <1>  -0.1600 
  8 C       -1.3100    -0.7620    -0.5490 C.ar  1 <1>  -0.1440 
  9 C       -3.3440    -2.2380    -0.5790 C.3   1 <1>   0.2000 
 10 C       -4.7360    -1.1430    -2.1080 C.3   1 <1>   0.1200 
 11 C        0.2690     2.5650     1.2220 C.3   1 <1>   0.0960 
 12 C       -0.2750    -1.0500     0.3310 C.ar  1 <1>  -0.1500 
 13 C       -0.9980    -0.3850    -1.8490 C.ar  1 <1>  -0.1500 
 14 O       -4.6180    -2.1450    -1.1540 O.3   1 <1>  -0.5600 
 15 C       -3.4560    -3.2680     0.5540 C.3   1 <1>   0.1200 
 16 N        1.4280     3.1550     0.5240 N.pl3 1 <1>   0.3140 
 17 C        1.0440    -0.9590    -0.0780 C.ar  1 <1>  -0.1500 
 18 C        0.3200    -0.2960    -2.2600 C.ar  1 <1>  -0.1500 
 19 O       -2.2220    -3.4780     1.1630 O.3   1 <1>  -0.6800 
 20 N        2.1850     4.0970     1.0680 N.2   1 <1>  -0.7070 
 21 C        1.9240     2.8570    -0.6810 C.2   1 <1>   0.0360 
 22 C        1.3430    -0.5830    -1.3750 C.ar  1 <1>  -0.1500 
 23 C        3.0760     4.3010     0.1540 C.2   1 <1>   0.3660 
 24 N        2.9650     3.5570    -0.9540 N.2   1 <1>  -0.5650 
 25 H       -2.5470     2.5720     1.7960 H     1 <1>   0.0800 
 26 H       -1.8730     1.0040     1.5530 H     1 <1>   0.0800 
 27 H       -2.7680    -0.9120     0.9940 H     1 <1>   0.0800 
 28 H       -5.5980     0.3420    -0.8420 H     1 <1>   0.0800 
 29 H       -4.6590     0.9930    -2.1480 H     1 <1>   0.0800 
 30 H       -1.2450     3.5540     0.0500 H     1 <1>   0.0800 
 31 H       -0.7690     1.9970    -0.5670 H     1 <1>   0.0800 
 32 H       -2.6980    -2.6430    -1.3380 H     1 <1>   0.0800 
 33 H       -3.9450    -1.2410    -2.8310 H     1 <1>   0.0800 
 34 H       -5.6810    -1.2690    -2.6050 H     1 <1>   0.0800 
 35 H        0.5320     1.5660     1.5140 H     1 <1>   0.0800 
 36 H        0.0800     3.1440     2.1080 H     1 <1>   0.0800 
 37 H       -0.4900    -1.3560     1.3420 H     1 <1>   0.1500 
 38 H       -1.7830    -0.1530    -2.5480 H     1 <1>   0.1500 
 39 H       -3.8090    -4.2120     0.1740 H     1 <1>   0.0800 
 40 H       -4.1370    -2.9120     1.3090 H     1 <1>   0.0800 
 41 H        1.8400    -1.1870     0.6110 H     1 <1>   0.1500 
 42 H        0.5510    -0.0040    -3.2710 H     1 <1>   0.1500 
 43 H       -1.6260    -3.9860     0.5750 H     1 <1>   0.4000 
 44 H        1.4880     2.1170    -1.3260 H     1 <1>   0.1500 
 45 H        2.3690    -0.5160    -1.6950 H     1 <1>   0.1500 
 46 H        3.8720     5.0210     0.2550 H     1 <1>   0.1500 
@<TRIPOS>BOND
  1   1   2  2   
  2   2   3  am  
  3   2   4  1   
  4   3   5  1   
  5   3   6  1   
  6   4   7  1   
  7   4  25  1   
  8   4  26  1   
  9   5   8  1   
 10   5   9  1   
 11   5  27  1   
 12   6  10  1   
 13   6  28  1   
 14   6  29  1   
 15   7  11  1   
 16   7  30  1   
 17   7  31  1   
 18   8  12  ar  
 19   8  13  ar  
 20   9  14  1   
 21   9  15  1   
 22   9  32  1   
 23  10  14  1   
 24  10  33  1   
 25  10  34  1   
 26  11  16  1   
 27  11  35  1   
 28  11  36  1   
 29  12  17  ar  
 30  12  37  1   
 31  13  18  ar  
 32  13  38  1   
 33  15  19  1   
 34  15  39  1   
 35  15  40  1   
 36  16  20  1   
 37  16  21  1   
 38  17  22  ar  
 39  17  41  1   
 40  18  22  ar  
 41  18  42  1   
 42  19  43  1   
 43  20  23  2   
 44  21  24  2   
 45  21  44  1   
 46  22  45  1   
 47  23  24  1   
 48  23  46  1   
@<TRIPOS>SUBSTRUCTURE
  1 ****   8 GROUP 4 **** **** 0

# MOE 2024.06 (io_trps.svl 2023.06)
