@<TRIPOS>MOLECULE
NONAME
36 38 1 0 0 
SMALL
USER_CHARGES


@<TRIPOS>ATOM
  1 CL       0.2600     1.2000     0.4020 Cl    1 <1>  -0.1230 
  2 C       -1.1820     2.1730     0.1770 C.2   1 <1>   0.1230 
  3 C       -1.3700     3.4500     0.5910 C.2   1 <1>  -0.3020 
  4 C       -2.3310     1.7410    -0.4680 C.2   1 <1>  -0.1500 
  5 N       -2.6160     3.8370     0.2200 N.pl3 1 <1>   0.0480 
  6 C       -3.2230     2.7860    -0.4290 C.2   1 <1>  -0.2370 
  7 C       -3.2190     5.1620     0.4760 C.3   1 <1>   0.0160 
  8 C       -4.5630     2.8780    -0.9360 C.2   1 <1>   0.7150 
  9 O       -4.8270     3.6720    -1.8200 O.2   1 <1>  -0.5700 
 10 N       -5.5680     2.1220    -0.3940 N.am  1 <1>  -0.6600 
 11 C       -6.9910     2.4690    -0.5670 C.3   1 <1>   0.3640 
 12 C       -5.3960     0.8830     0.3870 C.3   1 <1>   0.1400 
 13 C       -7.2930     3.8370     0.0380 C.ar  1 <1>  -0.1430 
 14 C       -7.7560     1.3460     0.1420 C.3   1 <1>  -0.1600 
 15 C       -6.7550     0.2010     0.3000 C.3   1 <1>  -0.1600 
 16 C       -6.8270     4.1770     1.3010 C.ar  1 <1>   0.1600 
 17 C       -8.0230     4.7730    -0.6680 C.ar  1 <1>  -0.1500 
 18 N       -7.0220     5.3410     1.9010 N.ar  1 <1>  -0.6200 
 19 C       -8.2410     5.9900    -0.0590 C.ar  1 <1>  -0.1500 
 20 C       -7.7270     6.2190     1.2060 C.ar  1 <1>   0.1600 
 21 H       -0.6840     4.0850     1.1200 H     1 <1>   0.1500 
 22 H       -2.4620     0.7700    -0.9090 H     1 <1>   0.1500 
 23 H       -2.5040     5.8000     0.9600 H     1 <1>   0.0800 
 24 H       -4.0820     5.0470     1.1070 H     1 <1>   0.0800 
 25 H       -3.5190     5.6020    -0.4580 H     1 <1>   0.0800 
 26 H       -7.2170     2.4620    -1.6200 H     1 <1>   0.0800 
 27 H       -5.1600     1.1360     1.4070 H     1 <1>   0.0800 
 28 H       -4.6200     0.2620    -0.0250 H     1 <1>   0.0800 
 29 H       -8.6230     1.0520    -0.4220 H     1 <1>   0.0800 
 30 H       -8.0800     1.6780     1.1130 H     1 <1>   0.0800 
 31 H       -6.9560    -0.4040     1.1660 H     1 <1>   0.0800 
 32 H       -6.7750    -0.4240    -0.5760 H     1 <1>   0.0800 
 33 H       -6.2550     3.4490     1.8490 H     1 <1>   0.1500 
 34 H       -8.4010     4.5700    -1.6560 H     1 <1>   0.1500 
 35 H       -8.8010     6.7580    -0.5600 H     1 <1>   0.1500 
 36 H       -7.9050     7.1740     1.6690 H     1 <1>   0.1500 
@<TRIPOS>BOND
  1   1   2  1   
  2   2   3  2   
  3   2   4  1   
  4   3   5  1   
  5   3  21  1   
  6   4   6  2   
  7   4  22  1   
  8   5   6  1   
  9   5   7  1   
 10   6   8  1   
 11   7  23  1   
 12   7  24  1   
 13   7  25  1   
 14   8   9  2   
 15   8  10  am  
 16  10  11  1   
 17  10  12  1   
 18  11  13  1   
 19  11  14  1   
 20  11  26  1   
 21  12  15  1   
 22  12  27  1   
 23  12  28  1   
 24  13  16  ar  
 25  13  17  ar  
 26  14  15  1   
 27  14  29  1   
 28  14  30  1   
 29  15  31  1   
 30  15  32  1   
 31  16  18  ar  
 32  16  33  1   
 33  17  19  ar  
 34  17  34  1   
 35  18  20  ar  
 36  19  20  ar  
 37  19  35  1   
 38  20  36  1   
@<TRIPOS>SUBSTRUCTURE
  1 ****   8 GROUP 4 **** **** 0

# MOE 2024.06 (io_trps.svl 2023.06)
