@<TRIPOS>MOLECULE
NONAME
58 60 1 0 0 
SMALL
USER_CHARGES


@<TRIPOS>ATOM
  1 O       -0.6420     0.2770     0.2160 O.2   1 <1>  -0.5700 
  2 C       -1.5540     0.9450    -0.2110 C.2   1 <1>   0.5690 
  3 N       -2.6820     0.3400    -0.7100 N.am  1 <1>  -0.6600 
  4 C       -1.4480     2.4620    -0.1590 C.3   1 <1>  -0.0990 
  5 C       -2.7390    -1.1400    -0.8600 C.3   1 <1>   0.1400 
  6 C       -3.9960     1.0150    -0.9010 C.3   1 <1>   0.1400 
  7 C       -0.0320     2.9770     0.1360 C.3   1 <1>  -0.0160 
  8 C       -3.7080    -1.7200     0.1930 C.3   1 <1>   0.4230 
  9 C       -4.9720     0.4630     0.1460 C.3   1 <1>  -0.1600 
 10 C       -0.0250     4.4970     0.1440 C.ar  1 <1>  -0.1440 
 11 N       -3.7090    -3.2420     0.2590 N.4   1 <1>  -0.9590 
 12 C       -5.1290    -1.0870     0.0960 C.3   1 <1>   0.0000 
 13 C       -0.2800     5.1910     1.3160 C.ar  1 <1>  -0.1500 
 14 C        0.2300     5.2040    -1.0190 C.ar  1 <1>  -0.1500 
 15 C       -4.9050    -3.8240     0.9530 C.3   1 <1>   0.3430 
 16 C       -3.4830    -3.9470    -1.0460 C.3   1 <1>   0.2630 
 17 C       -5.9770    -1.5420     1.3210 C.3   1 <1>  -0.1600 
 18 C       -5.8190    -1.5160    -1.2310 C.3   1 <1>   0.1200 
 19 C       -0.2830     6.5750     1.3230 C.ar  1 <1>  -0.1500 
 20 C        0.2270     6.5880    -1.0120 C.ar  1 <1>  -0.1500 
 21 C       -5.4760    -2.8440     1.9760 C.3   1 <1>  -0.1600 
 22 O       -6.9870    -0.8070    -1.4540 O.3   1 <1>  -0.6800 
 23 C       -0.0310     7.2830     0.1590 C.ar  1 <1>  -0.1440 
 24 C       -0.0340     8.8030     0.1680 C.3   1 <1>  -0.0170 
 25 C        1.3650     9.3400     0.4770 C.3   1 <1>  -0.2400 
 26 H       -1.7630     2.8620    -1.1050 H     1 <1>   0.0800 
 27 H       -2.1130     2.8260     0.6020 H     1 <1>   0.0800 
 28 H       -3.0600    -1.3670    -1.8590 H     1 <1>   0.0800 
 29 H       -1.7600    -1.5650    -0.7200 H     1 <1>   0.0800 
 30 H       -3.9120     2.0810    -0.7830 H     1 <1>   0.0800 
 31 H       -4.3610     0.8270    -1.8980 H     1 <1>   0.0800 
 32 H        0.6520     2.6130    -0.6120 H     1 <1>   0.0800 
 33 H        0.3030     2.6080     1.0900 H     1 <1>   0.0800 
 34 H       -3.3160    -1.3820     1.1390 H     1 <1>   0.0800 
 35 H       -4.6050     0.7630     1.1130 H     1 <1>   0.0800 
 36 H       -5.9250     0.9460     0.0190 H     1 <1>   0.0800 
 37 H       -2.9000    -3.4690     0.8570 H     1 <1>   0.4500 
 38 H       -0.4770     4.6570     2.2290 H     1 <1>   0.1500 
 39 H        0.4330     4.6820    -1.9370 H     1 <1>   0.1500 
 40 H       -5.6730    -4.0480     0.2300 H     1 <1>   0.0800 
 41 H       -4.6320    -4.7460     1.4420 H     1 <1>   0.0800 
 42 H       -4.2740    -3.7190    -1.7420 H     1 <1>   0.0800 
 43 H       -3.4580    -5.0140    -0.8940 H     1 <1>   0.0800 
 44 H       -2.5430    -3.6480    -1.4800 H     1 <1>   0.0800 
 45 H       -5.9800    -0.7810     2.0840 H     1 <1>   0.0800 
 46 H       -7.0050    -1.6710     1.0300 H     1 <1>   0.0800 
 47 H       -6.0740    -2.5600    -1.2260 H     1 <1>   0.0800 
 48 H       -5.1870    -1.3270    -2.0810 H     1 <1>   0.0800 
 49 H       -0.4810     7.0990     2.2410 H     1 <1>   0.1500 
 50 H        0.4290     7.1240    -1.9220 H     1 <1>   0.1500 
 51 H       -6.2940    -3.3120     2.4970 H     1 <1>   0.0800 
 52 H       -4.7210    -2.6230     2.7120 H     1 <1>   0.0800 
 53 H       -7.6690    -0.9910    -0.7780 H     1 <1>   0.4000 
 54 H       -0.3580     9.1700    -0.7900 H     1 <1>   0.0800 
 55 H       -0.7300     9.1600     0.9060 H     1 <1>   0.0800 
 56 H        2.0650     9.0010    -0.2660 H     1 <1>   0.0800 
 57 H        1.6910     8.9910     1.4410 H     1 <1>   0.0800 
 58 H        1.3570    10.4150     0.4820 H     1 <1>   0.0800 
@<TRIPOS>BOND
  1   1   2  2   
  2   2   3  am  
  3   2   4  1   
  4   3   5  1   
  5   3   6  1   
  6   4   7  1   
  7   4  26  1   
  8   4  27  1   
  9   5   8  1   
 10   5  28  1   
 11   5  29  1   
 12   6   9  1   
 13   6  30  1   
 14   6  31  1   
 15   7  10  1   
 16   7  32  1   
 17   7  33  1   
 18   8  11  1   
 19   8  12  1   
 20   8  34  1   
 21   9  12  1   
 22   9  35  1   
 23   9  36  1   
 24  10  13  ar  
 25  10  14  ar  
 26  11  15  1   
 27  11  16  1   
 28  11  37  1   
 29  12  17  1   
 30  12  18  1   
 31  13  19  ar  
 32  13  38  1   
 33  14  20  ar  
 34  14  39  1   
 35  15  21  1   
 36  15  40  1   
 37  15  41  1   
 38  16  42  1   
 39  16  43  1   
 40  16  44  1   
 41  17  21  1   
 42  17  45  1   
 43  17  46  1   
 44  18  22  1   
 45  18  47  1   
 46  18  48  1   
 47  19  23  ar  
 48  19  49  1   
 49  20  23  ar  
 50  20  50  1   
 51  21  51  1   
 52  21  52  1   
 53  22  53  1   
 54  23  24  1   
 55  24  25  1   
 56  24  54  1   
 57  24  55  1   
 58  25  56  1   
 59  25  57  1   
 60  25  58  1   
@<TRIPOS>SUBSTRUCTURE
  1 ****   2 GROUP 4 **** **** 0

# MOE 2024.06 (io_trps.svl 2023.06)
