@<TRIPOS>MOLECULE
NONAME
52 54 1 0 0 
SMALL
USER_CHARGES


@<TRIPOS>ATOM
  1 F       -0.5810    -0.5430     1.7220 F     1 <1>  -0.1900 
  2 C       -1.4220    -1.0560     0.8620 C.ar  1 <1>   0.1900 
  3 C       -1.9600    -2.3170     1.0880 C.ar  1 <1>  -0.1440 
  4 C       -1.7340    -0.2910    -0.2440 C.ar  1 <1>  -0.1500 
  5 C       -2.8610    -2.8240     0.1470 C.ar  1 <1>   0.1170 
  6 C       -1.5710    -3.1260     2.3280 C.3   1 <1>  -0.0970 
  7 C       -2.6250    -0.7980    -1.1700 C.ar  1 <1>  -0.1500 
  8 N       -3.4460    -4.0860     0.3570 N.am  1 <1>  -0.5470 
  9 C       -3.1810    -2.0490    -0.9700 C.ar  1 <1>  -0.1500 
 10 C       -3.9340    -4.9940    -0.5490 C.2   1 <1>   0.5690 
 11 O       -3.8750    -4.8490    -1.7480 O.2   1 <1>  -0.5700 
 12 C       -4.6230    -6.2790    -0.0600 C.3   1 <1>   0.4040 
 13 N       -5.4380    -6.9320    -1.1610 N.4   1 <1>  -0.9590 
 14 C       -6.9000    -6.6310    -1.1840 C.3   1 <1>   0.4230 
 15 C       -5.1660    -8.3980    -1.2700 C.3   1 <1>   0.2630 
 16 C       -7.6610    -7.1270     0.0430 C.3   1 <1>  -0.1600 
 17 C       -7.2230    -5.1420    -1.2480 C.3   1 <1>  -0.1600 
 18 C       -8.9770    -6.3370     0.0150 C.3   1 <1>  -0.0800 
 19 C       -8.6870    -5.0530    -0.7990 C.3   1 <1>  -0.0800 
 20 C       -9.5800    -6.1030     1.4160 C.3   1 <1>   0.1400 
 21 C       -9.0150    -3.7510    -0.0450 C.3   1 <1>  -0.0990 
 22 N      -10.5930    -5.0230     1.3580 N.am  1 <1>  -0.6600 
 23 C      -10.3480    -3.8700     0.6640 C.2   1 <1>   0.5690 
 24 C      -11.8500    -5.2390     2.1270 C.3   1 <1>   0.0600 
 25 O      -11.1300    -2.9540     0.5940 O.2   1 <1>  -0.5700 
 26 H       -1.2880     0.6790    -0.3740 H     1 <1>   0.1500 
 27 H       -1.2550    -4.1130     2.0460 H     1 <1>   0.0800 
 28 H       -2.4060    -3.1940     3.0010 H     1 <1>   0.0800 
 29 H       -0.7560    -2.6700     2.8610 H     1 <1>   0.0800 
 30 H       -2.8850    -0.2220    -2.0420 H     1 <1>   0.1500 
 31 H       -3.4330    -4.3560     1.3410 H     1 <1>   0.3700 
 32 H       -3.8780    -2.4150    -1.7010 H     1 <1>   0.1500 
 33 H       -5.2500    -6.0460     0.7820 H     1 <1>   0.0800 
 34 H       -3.8530    -6.9560     0.2680 H     1 <1>   0.0800 
 35 H       -5.0520    -6.4780    -2.0150 H     1 <1>   0.4500 
 36 H       -7.3400    -7.0940    -2.0540 H     1 <1>   0.0800 
 37 H       -5.5140    -8.9130    -0.3890 H     1 <1>   0.0800 
 38 H       -4.1080    -8.5760    -1.3810 H     1 <1>   0.0800 
 39 H       -5.6710    -8.8080    -2.1300 H     1 <1>   0.0800 
 40 H       -7.8500    -8.1850    -0.0040 H     1 <1>   0.0800 
 41 H       -7.1250    -6.8950     0.9450 H     1 <1>   0.0800 
 42 H       -6.6170    -4.5790    -0.5640 H     1 <1>   0.0800 
 43 H       -7.0970    -4.7500    -2.2420 H     1 <1>   0.0800 
 44 H       -9.6990    -6.9120    -0.5430 H     1 <1>   0.0800 
 45 H       -9.3170    -5.0830    -1.6750 H     1 <1>   0.0800 
 46 H       -8.8150    -5.8070     2.1130 H     1 <1>   0.0800 
 47 H      -10.0300    -7.0140     1.7750 H     1 <1>   0.0800 
 48 H       -9.0490    -2.9230    -0.7310 H     1 <1>   0.0800 
 49 H       -8.2720    -3.5380     0.7010 H     1 <1>   0.0800 
 50 H      -12.3670    -6.1010     1.7460 H     1 <1>   0.0800 
 51 H      -12.4990    -4.3840     2.0390 H     1 <1>   0.0800 
 52 H      -11.6210    -5.3900     3.1670 H     1 <1>   0.0800 
@<TRIPOS>BOND
  1   1   2  1   
  2   2   3  ar  
  3   2   4  ar  
  4   3   5  ar  
  5   3   6  1   
  6   4   7  ar  
  7   4  26  1   
  8   5   8  1   
  9   5   9  ar  
 10   6  27  1   
 11   6  28  1   
 12   6  29  1   
 13   7   9  ar  
 14   7  30  1   
 15   8  10  am  
 16   8  31  1   
 17   9  32  1   
 18  10  11  2   
 19  10  12  1   
 20  12  13  1   
 21  12  33  1   
 22  12  34  1   
 23  13  14  1   
 24  13  15  1   
 25  13  35  1   
 26  14  16  1   
 27  14  17  1   
 28  14  36  1   
 29  15  37  1   
 30  15  38  1   
 31  15  39  1   
 32  16  18  1   
 33  16  40  1   
 34  16  41  1   
 35  17  19  1   
 36  17  42  1   
 37  17  43  1   
 38  18  19  1   
 39  18  20  1   
 40  18  44  1   
 41  19  21  1   
 42  19  45  1   
 43  20  22  1   
 44  20  46  1   
 45  20  47  1   
 46  21  23  1   
 47  21  48  1   
 48  21  49  1   
 49  22  23  am  
 50  22  24  1   
 51  23  25  2   
 52  24  50  1   
 53  24  51  1   
 54  24  52  1   
@<TRIPOS>SUBSTRUCTURE
  1 ****  10 GROUP 4 **** **** 0

# MOE 2024.06 (io_trps.svl 2023.06)
