@<TRIPOS>MOLECULE
NONAME
49 52 1 0 0 
SMALL
USER_CHARGES


@<TRIPOS>ATOM
  1 S       -0.5830    -0.8730     1.3260 S.o2  1 <1>   1.0900 
  2 O       -0.6720    -0.0250     2.4910 O.2   1 <1>  -0.6500 
  3 O        0.6830    -1.1940     0.7110 O.2   1 <1>  -0.6500 
  4 C       -1.4490    -2.3940     1.5960 C.3   1 <1>  -0.0550 
  5 C       -1.6860    -0.2940     0.0440 C.3   1 <1>  -0.0550 
  6 C       -2.0190    -2.7520     0.2260 C.3   1 <1>   0.1760 
  7 C       -2.6060    -1.4570    -0.3690 C.3   1 <1>  -0.1600 
  8 N       -3.0420    -3.8230     0.3170 N.pl3 1 <1>   0.3140 
  9 N       -4.0310    -3.7680     1.2310 N.2   1 <1>  -0.7070 
 10 C       -3.1640    -4.9130    -0.4840 C.2   1 <1>  -0.3320 
 11 C       -4.7650    -4.8070     0.9870 C.2   1 <1>   0.1080 
 12 C       -4.2820    -5.5590    -0.0840 C.2   1 <1>   0.0630 
 13 C       -2.1910    -5.2790    -1.5960 C.3   1 <1>  -0.0600 
 14 C       -6.0040    -5.1360     1.7890 C.3   1 <1>  -0.0590 
 15 N       -4.8810    -6.7430    -0.5810 N.am  1 <1>  -0.4930 
 16 C       -5.1550    -7.1180    -1.8630 C.2   1 <1>   0.5690 
 17 O       -4.8200    -6.4790    -2.8340 O.2   1 <1>  -0.5700 
 18 C       -5.9280    -8.4100    -2.0880 C.3   1 <1>   0.0820 
 19 C       -6.6980    -8.8710    -0.8550 C.2   1 <1>  -0.1810 
 20 C       -6.1100    -9.4330     0.3020 C.ar  1 <1>   0.0000 
 21 C       -8.0340    -8.8100    -0.6460 C.2   1 <1>  -0.3020 
 22 C       -7.1510    -9.6750     1.1920 C.ar  1 <1>  -0.1520 
 23 C       -4.7970    -9.7410     0.6770 C.ar  1 <1>  -0.1500 
 24 N       -8.3270    -9.3000     0.5940 N.pl3 1 <1>   0.0330 
 25 C       -6.9060   -10.2120     2.4570 C.ar  1 <1>  -0.1500 
 26 C       -4.5560   -10.2690     1.9240 C.ar  1 <1>  -0.1500 
 27 C       -5.6100   -10.5040     2.8150 C.ar  1 <1>  -0.1500 
 28 H       -2.2480    -2.2310     2.2950 H     1 <1>   0.0800 
 29 H       -0.7950    -3.1600     1.9640 H     1 <1>   0.0800 
 30 H       -1.1130     0.0430    -0.7990 H     1 <1>   0.0800 
 31 H       -2.2790     0.5270     0.4020 H     1 <1>   0.0800 
 32 H       -1.2130    -3.0900    -0.3990 H     1 <1>   0.0800 
 33 H       -2.6900    -1.5270    -1.4390 H     1 <1>   0.0800 
 34 H       -3.5860    -1.2860     0.0470 H     1 <1>   0.0800 
 35 H       -1.1800    -5.2750    -1.2330 H     1 <1>   0.0800 
 36 H       -2.2820    -4.5830    -2.4110 H     1 <1>   0.0800 
 37 H       -2.4010    -6.2640    -1.9710 H     1 <1>   0.0800 
 38 H       -6.2410    -4.3210     2.4480 H     1 <1>   0.0800 
 39 H       -5.8330    -6.0210     2.3750 H     1 <1>   0.0800 
 40 H       -6.8340    -5.3010     1.1270 H     1 <1>   0.0800 
 41 H       -5.3050    -7.3410     0.1330 H     1 <1>   0.3700 
 42 H       -5.2400    -9.1750    -2.3920 H     1 <1>   0.0800 
 43 H       -6.6190    -8.2490    -2.8950 H     1 <1>   0.0800 
 44 H       -8.8020    -8.4410    -1.3050 H     1 <1>   0.1500 
 45 H       -3.9910    -9.5630    -0.0110 H     1 <1>   0.1500 
 46 H       -9.2580    -9.3830     1.0160 H     1 <1>   0.2700 
 47 H       -7.7210   -10.3930     3.1350 H     1 <1>   0.1500 
 48 H       -3.5510   -10.5090     2.2280 H     1 <1>   0.1500 
 49 H       -5.3930   -10.9180     3.7850 H     1 <1>   0.1500 
@<TRIPOS>BOND
  1   1   2  2   
  2   1   3  2   
  3   1   4  1   
  4   1   5  1   
  5   4   6  1   
  6   4  28  1   
  7   4  29  1   
  8   5   7  1   
  9   5  30  1   
 10   5  31  1   
 11   6   7  1   
 12   6   8  1   
 13   6  32  1   
 14   7  33  1   
 15   7  34  1   
 16   8   9  1   
 17   8  10  1   
 18   9  11  2   
 19  10  12  2   
 20  10  13  1   
 21  11  12  1   
 22  11  14  1   
 23  12  15  1   
 24  13  35  1   
 25  13  36  1   
 26  13  37  1   
 27  14  38  1   
 28  14  39  1   
 29  14  40  1   
 30  15  16  am  
 31  15  41  1   
 32  16  17  2   
 33  16  18  1   
 34  18  19  1   
 35  18  42  1   
 36  18  43  1   
 37  19  20  1   
 38  19  21  2   
 39  20  22  ar  
 40  20  23  ar  
 41  21  24  1   
 42  21  44  1   
 43  22  24  1   
 44  22  25  ar  
 45  23  26  ar  
 46  23  45  1   
 47  24  46  1   
 48  25  27  ar  
 49  25  47  1   
 50  26  27  ar  
 51  26  48  1   
 52  27  49  1   
@<TRIPOS>SUBSTRUCTURE
  1 ****  12 GROUP 4 **** **** 0

# MOE 2024.06 (io_trps.svl 2023.06)
