@<TRIPOS>MOLECULE
NONAME
55 57 1 0 0 
SMALL
USER_CHARGES


@<TRIPOS>ATOM
  1 O        0.0830    -0.0510     1.3050 O.2   1 <1>  -0.5700 
  2 C        0.8870    -0.5010     0.5110 C.2   1 <1>   0.7160 
  3 N        1.6740     0.3690    -0.2090 N.am  1 <1>  -0.6600 
  4 C        0.9500    -1.9320     0.3280 C.2   1 <1>  -0.0860 
  5 C        1.7660     1.8190     0.1390 C.3   1 <1>   0.1400 
  6 C        2.2970     0.0620    -1.5270 C.3   1 <1>   0.1400 
  7 C        2.0020    -2.7960     0.2750 C.2   1 <1>  -0.0400 
  8 C       -0.1800    -2.7630     0.1970 C.2   1 <1>  -0.1500 
  9 C        3.2130     2.3470     0.0000 C.3   1 <1>   0.2800 
 10 C        3.7210     0.6350    -1.6040 C.3   1 <1>   0.1200 
 11 O        1.5920    -4.0270     0.0960 O.3   1 <1>  -0.2800 
 12 C        3.4910    -2.5560     0.4250 C.3   1 <1>  -0.0600 
 13 C        0.2780    -4.0260     0.0580 C.2   1 <1>  -0.0400 
 14 O        3.7510     1.9920    -1.2520 O.3   1 <1>  -0.5600 
 15 C        4.1600     1.9120     1.1250 C.3   1 <1>  -0.1600 
 16 C        3.2920     3.8700     0.0850 C.3   1 <1>  -0.1600 
 17 C       -0.4150    -5.3680    -0.1040 C.3   1 <1>   0.5230 
 18 C        5.3150     2.9180     1.0960 C.3   1 <1>  -0.1600 
 19 C        4.7430     4.1940     0.4660 C.3   1 <1>  -0.1600 
 20 N       -1.8940    -5.1940    -0.2350 N.4   1 <1>  -0.9590 
 21 C       -2.6250    -6.4650     0.0140 C.3   1 <1>   0.3430 
 22 C       -2.2320    -4.6070    -1.5600 C.3   1 <1>   0.3430 
 23 C       -2.6270    -6.7710     1.5070 C.3   1 <1>  -0.2400 
 24 C       -3.6060    -3.9510    -1.4900 C.3   1 <1>  -0.2400 
 25 H        1.4220     1.9870     1.1450 H     1 <1>   0.0800 
 26 H        1.1250     2.3760    -0.5210 H     1 <1>   0.0800 
 27 H        1.7040     0.5100    -2.3050 H     1 <1>   0.0800 
 28 H        2.3250    -0.9970    -1.7060 H     1 <1>   0.0800 
 29 H       -1.1850    -2.3790     0.2260 H     1 <1>   0.1500 
 30 H        4.0910     0.5570    -2.6110 H     1 <1>   0.0800 
 31 H        4.3890     0.0920    -0.9620 H     1 <1>   0.0800 
 32 H        3.6850    -1.5320     0.6880 H     1 <1>   0.0800 
 33 H        3.9970    -2.7890    -0.4940 H     1 <1>   0.0800 
 34 H        3.8810    -3.1850     1.2050 H     1 <1>   0.0800 
 35 H        4.4950     0.8960     1.0400 H     1 <1>   0.0800 
 36 H        3.6470     2.0130     2.0650 H     1 <1>   0.0800 
 37 H        2.6450     4.2160     0.8720 H     1 <1>   0.0800 
 38 H        2.9970     4.3380    -0.8380 H     1 <1>   0.0800 
 39 H       -0.1840    -5.9670     0.7600 H     1 <1>   0.0800 
 40 H       -0.0220    -5.8700    -0.9730 H     1 <1>   0.0800 
 41 H        6.1060     2.5380     0.4720 H     1 <1>   0.0800 
 42 H        5.7020     3.0980     2.0840 H     1 <1>   0.0800 
 43 H        4.7860     5.0260     1.1470 H     1 <1>   0.0800 
 44 H        5.3040     4.4370    -0.4210 H     1 <1>   0.0800 
 45 H       -2.1690    -4.5200     0.4900 H     1 <1>   0.4500 
 46 H       -2.1690    -7.2750    -0.5340 H     1 <1>   0.0800 
 47 H       -3.6470    -6.3710    -0.3170 H     1 <1>   0.0800 
 48 H       -2.2200    -5.3690    -2.3240 H     1 <1>   0.0800 
 49 H       -1.5050    -3.8550    -1.8250 H     1 <1>   0.0800 
 50 H       -1.6370    -6.9640     1.8780 H     1 <1>   0.0800 
 51 H       -3.2160    -7.6540     1.6830 H     1 <1>   0.0800 
 52 H       -3.0720    -5.9640     2.0620 H     1 <1>   0.0800 
 53 H       -4.3820    -4.6710    -1.3050 H     1 <1>   0.0800 
 54 H       -3.8180    -3.4800    -2.4340 H     1 <1>   0.0800 
 55 H       -3.6300    -3.1890    -0.7310 H     1 <1>   0.0800 
@<TRIPOS>BOND
  1   1   2  2   
  2   2   3  am  
  3   2   4  1   
  4   3   5  1   
  5   3   6  1   
  6   4   7  2   
  7   4   8  1   
  8   5   9  1   
  9   5  25  1   
 10   5  26  1   
 11   6  10  1   
 12   6  27  1   
 13   6  28  1   
 14   7  11  1   
 15   7  12  1   
 16   8  13  2   
 17   8  29  1   
 18   9  14  1   
 19   9  15  1   
 20   9  16  1   
 21  10  14  1   
 22  10  30  1   
 23  10  31  1   
 24  11  13  1   
 25  12  32  1   
 26  12  33  1   
 27  12  34  1   
 28  13  17  1   
 29  15  18  1   
 30  15  35  1   
 31  15  36  1   
 32  16  19  1   
 33  16  37  1   
 34  16  38  1   
 35  17  20  1   
 36  17  39  1   
 37  17  40  1   
 38  18  19  1   
 39  18  41  1   
 40  18  42  1   
 41  19  43  1   
 42  19  44  1   
 43  20  21  1   
 44  20  22  1   
 45  20  45  1   
 46  21  23  1   
 47  21  46  1   
 48  21  47  1   
 49  22  24  1   
 50  22  48  1   
 51  22  49  1   
 52  23  50  1   
 53  23  51  1   
 54  23  52  1   
 55  24  53  1   
 56  24  54  1   
 57  24  55  1   
@<TRIPOS>SUBSTRUCTURE
  1 ****   4 GROUP 4 **** **** 0

# MOE 2024.06 (io_trps.svl 2023.06)
