@<TRIPOS>MOLECULE
NONAME
51 54 1 0 0 
SMALL
USER_CHARGES


@<TRIPOS>ATOM
  1 S       -0.0850     1.0040    -2.3580 S.3   1 <1>  -0.0800 
  2 C       -1.2540     1.3920    -1.0770 C.ar  1 <1>   0.0400 
  3 C       -1.1010    -0.2810    -2.9920 C.2   1 <1>  -0.1100 
  4 C       -1.2080     2.3770    -0.0750 C.ar  1 <1>   0.4100 
  5 C       -2.3320     0.5570    -1.2060 C.ar  1 <1>   0.3070 
  6 C       -2.2380    -0.3860    -2.2790 C.2   1 <1>  -0.1500 
  7 N       -2.2660     2.4880     0.7520 N.ar  1 <1>  -0.6200 
  8 N       -0.1810     3.2340     0.1390 N.pl3 1 <1>  -0.8380 
  9 N       -3.3520     0.7220    -0.3320 N.ar  1 <1>  -0.1250 
 10 C       -3.2810     1.6860     0.6100 C.ar  1 <1>   0.5280 
 11 C       -0.2690     4.4080     1.0560 C.3   1 <1>   0.4330 
 12 C        1.2190     3.0550    -0.3160 C.3   1 <1>   0.2090 
 13 C       -4.4490     1.8460     1.5630 C.3   1 <1>  -0.0970 
 14 C       -1.2620     5.4600     0.5520 C.ar  1 <1>  -0.1430 
 15 C        1.1490     4.9740     1.1270 C.3   1 <1>  -0.1600 
 16 C        2.0570     3.8320     0.6870 C.3   1 <1>  -0.1600 
 17 C       -1.3290     5.8030    -0.7910 C.ar  1 <1>  -0.1500 
 18 C       -2.1120     6.0920     1.4470 C.ar  1 <1>  -0.1500 
 19 C       -2.2210     6.7650    -1.2310 C.ar  1 <1>  -0.1500 
 20 C       -3.0050     7.0550     1.0110 C.ar  1 <1>  -0.1500 
 21 C       -3.0590     7.4040    -0.3300 C.ar  1 <1>  -0.1430 
 22 C       -4.0150     8.4800    -0.8070 C.3   1 <1>   0.4860 
 23 N       -3.4680     9.8100    -0.4140 N.4   1 <1>  -0.9590 
 24 C       -4.4690    10.8980    -0.6270 C.3   1 <1>   0.2630 
 25 C       -2.1810    10.1060    -1.1200 C.3   1 <1>   0.2630 
 26 H       -0.7290    -0.8260    -3.8450 H     1 <1>   0.1500 
 27 H       -3.0160    -1.1020    -2.4800 H     1 <1>   0.1500 
 28 H       -4.1740     0.1240    -0.3900 H     1 <1>   0.4570 
 29 H       -0.5580     4.0570     2.0320 H     1 <1>   0.0800 
 30 H        1.3320     3.4750    -1.3010 H     1 <1>   0.0800 
 31 H        1.5060     2.0170    -0.3210 H     1 <1>   0.0800 
 32 H       -4.2550     2.6530     2.2490 H     1 <1>   0.0800 
 33 H       -4.5930     0.9480     2.1370 H     1 <1>   0.0800 
 34 H       -5.3480     2.0760     1.0220 H     1 <1>   0.0800 
 35 H        1.3830     5.3230     2.1160 H     1 <1>   0.0800 
 36 H        1.2480     5.7950     0.4390 H     1 <1>   0.0800 
 37 H        2.9790     4.1810     0.2550 H     1 <1>   0.0800 
 38 H        2.2800     3.1950     1.5260 H     1 <1>   0.0800 
 39 H       -0.6810     5.3130    -1.4970 H     1 <1>   0.1500 
 40 H       -2.0790     5.8330     2.4920 H     1 <1>   0.1500 
 41 H       -2.2470     7.0030    -2.2810 H     1 <1>   0.1500 
 42 H       -3.6530     7.5230     1.7330 H     1 <1>   0.1500 
 43 H       -4.9790     8.3240    -0.3490 H     1 <1>   0.0800 
 44 H       -4.1320     8.4240    -1.8770 H     1 <1>   0.0800 
 45 H       -3.2540     9.7360     0.5910 H     1 <1>   0.4500 
 46 H       -4.7140    10.9840    -1.6730 H     1 <1>   0.0800 
 47 H       -4.0720    11.8420    -0.2890 H     1 <1>   0.0800 
 48 H       -5.3720    10.6910    -0.0760 H     1 <1>   0.0800 
 49 H       -2.3360    10.1470    -2.1860 H     1 <1>   0.0800 
 50 H       -1.4530     9.3390    -0.9070 H     1 <1>   0.0800 
 51 H       -1.7830    11.0520    -0.7910 H     1 <1>   0.0800 
@<TRIPOS>BOND
  1   1   2  1   
  2   1   3  1   
  3   2   4  ar  
  4   2   5  ar  
  5   3   6  2   
  6   3  26  1   
  7   4   7  ar  
  8   4   8  1   
  9   5   6  1   
 10   5   9  ar  
 11   6  27  1   
 12   7  10  ar  
 13   8  11  1   
 14   8  12  1   
 15   9  10  ar  
 16   9  28  1   
 17  10  13  1   
 18  11  14  1   
 19  11  15  1   
 20  11  29  1   
 21  12  16  1   
 22  12  30  1   
 23  12  31  1   
 24  13  32  1   
 25  13  33  1   
 26  13  34  1   
 27  14  17  ar  
 28  14  18  ar  
 29  15  16  1   
 30  15  35  1   
 31  15  36  1   
 32  16  37  1   
 33  16  38  1   
 34  17  19  ar  
 35  17  39  1   
 36  18  20  ar  
 37  18  40  1   
 38  19  21  ar  
 39  19  41  1   
 40  20  21  ar  
 41  20  42  1   
 42  21  22  1   
 43  22  23  1   
 44  22  43  1   
 45  22  44  1   
 46  23  24  1   
 47  23  25  1   
 48  23  45  1   
 49  24  46  1   
 50  24  47  1   
 51  24  48  1   
 52  25  49  1   
 53  25  50  1   
 54  25  51  1   
@<TRIPOS>SUBSTRUCTURE
  1 ****  14 GROUP 4 **** **** 0

# MOE 2024.06 (io_trps.svl 2023.06)
