@<TRIPOS>MOLECULE
NONAME
51 53 1 0 0 
SMALL
USER_CHARGES


@<TRIPOS>ATOM
  1 S        0.1710     0.1350     2.1010 S.o2  1 <1>   1.4470 
  2 O       -0.4380     1.2480     2.7980 O.2   1 <1>  -0.6500 
  3 O        0.9300    -0.8170     2.8820 O.2   1 <1>  -0.6500 
  4 N        1.3200     0.8650     1.0790 N.am  1 <1>  -0.8490 
  5 C       -1.0580    -0.5880     0.9770 C.ar  1 <1>  -0.0090 
  6 C        2.1530     1.7960     1.8750 C.3   1 <1>   0.1960 
  7 C        2.1160    -0.1260     0.3430 C.3   1 <1>   0.1960 
  8 C       -0.9610    -1.8910     0.4970 C.ar  1 <1>   0.0830 
  9 C       -2.1340     0.1800     0.5480 C.ar  1 <1>  -0.1500 
 10 C        3.3370     2.4900     1.1510 C.3   1 <1>   0.4230 
 11 C        2.8570     0.4890    -0.8640 C.3   1 <1>  -0.0800 
 12 O        0.0880    -2.6510     0.8890 O.3   1 <1>  -0.3630 
 13 C       -1.9170    -2.3930    -0.3800 C.ar  1 <1>  -0.1500 
 14 C       -3.0930    -0.3110    -0.3230 C.ar  1 <1>  -0.1430 
 15 N        3.0420     2.9620    -0.2580 N.4   1 <1>  -0.9590 
 16 C        4.6180     1.6190     1.1600 C.3   1 <1>   0.1200 
 17 C        4.3880     0.2930    -0.8000 C.3   1 <1>   0.1200 
 18 C        2.4150     1.9350    -1.1580 C.3   1 <1>   0.3430 
 19 C       -0.0640    -4.0420     1.0740 C.3   1 <1>   0.0400 
 20 C       -2.9830    -1.6130    -0.7930 C.ar  1 <1>  -0.1430 
 21 C       -4.2480     0.5900    -0.7380 C.3   1 <1>  -0.0970 
 22 C        2.2700     4.2360    -0.2860 C.3   1 <1>   0.2630 
 23 O        5.0440     1.3390    -0.1460 O.3   1 <1>  -0.5600 
 24 C       -4.0090    -2.2020    -1.7520 C.3   1 <1>  -0.0970 
 25 H        1.5170     2.5800     2.2470 H     1 <1>   0.0800 
 26 H        2.5350     1.2810     2.7420 H     1 <1>   0.0800 
 27 H        2.7910    -0.6360     1.0120 H     1 <1>   0.0800 
 28 H        1.4550    -0.8750    -0.0540 H     1 <1>   0.0800 
 29 H       -2.2240     1.1890     0.9140 H     1 <1>   0.1500 
 30 H        3.5780     3.3530     1.7480 H     1 <1>   0.0800 
 31 H        2.5340    -0.0980    -1.7060 H     1 <1>   0.0800 
 32 H       -1.8310    -3.3950    -0.7550 H     1 <1>   0.1500 
 33 H        3.9890     3.0970    -0.6510 H     1 <1>   0.4500 
 34 H        4.4900     0.6980     1.7030 H     1 <1>   0.0800 
 35 H        5.4100     2.1680     1.6390 H     1 <1>   0.0800 
 36 H        4.7880     0.2610    -1.7990 H     1 <1>   0.0800 
 37 H        4.6480    -0.6330    -0.3140 H     1 <1>   0.0800 
 38 H        1.3420     1.9840    -1.0640 H     1 <1>   0.0800 
 39 H        2.6610     2.1730    -2.1800 H     1 <1>   0.0800 
 40 H        0.7830    -4.4000     1.6320 H     1 <1>   0.0800 
 41 H       -0.0970    -4.5250     0.1140 H     1 <1>   0.0800 
 42 H       -0.9680    -4.2260     1.6270 H     1 <1>   0.0800 
 43 H       -4.1700     1.5590    -0.2810 H     1 <1>   0.0800 
 44 H       -5.1820     0.1520    -0.4350 H     1 <1>   0.0800 
 45 H       -4.2530     0.7190    -1.8050 H     1 <1>   0.0800 
 46 H        1.2860     4.0830     0.1290 H     1 <1>   0.0800 
 47 H        2.1650     4.5880    -1.3000 H     1 <1>   0.0800 
 48 H        2.7750     4.9950     0.2890 H     1 <1>   0.0800 
 49 H       -3.7650    -3.2170    -2.0060 H     1 <1>   0.0800 
 50 H       -4.0400    -1.6260    -2.6590 H     1 <1>   0.0800 
 51 H       -4.9840    -2.1940    -1.2980 H     1 <1>   0.0800 
@<TRIPOS>BOND
  1   1   2  2   
  2   1   3  2   
  3   1   4  am  
  4   1   5  1   
  5   4   6  1   
  6   4   7  1   
  7   5   8  ar  
  8   5   9  ar  
  9   6  10  1   
 10   6  25  1   
 11   6  26  1   
 12   7  11  1   
 13   7  27  1   
 14   7  28  1   
 15   8  12  1   
 16   8  13  ar  
 17   9  14  ar  
 18   9  29  1   
 19  10  15  1   
 20  10  16  1   
 21  10  30  1   
 22  11  17  1   
 23  11  18  1   
 24  11  31  1   
 25  12  19  1   
 26  13  20  ar  
 27  13  32  1   
 28  14  20  ar  
 29  14  21  1   
 30  15  18  1   
 31  15  22  1   
 32  15  33  1   
 33  16  23  1   
 34  16  34  1   
 35  16  35  1   
 36  17  23  1   
 37  17  36  1   
 38  17  37  1   
 39  18  38  1   
 40  18  39  1   
 41  19  40  1   
 42  19  41  1   
 43  19  42  1   
 44  20  24  1   
 45  21  43  1   
 46  21  44  1   
 47  21  45  1   
 48  22  46  1   
 49  22  47  1   
 50  22  48  1   
 51  24  49  1   
 52  24  50  1   
 53  24  51  1   
@<TRIPOS>SUBSTRUCTURE
  1 ****   4 GROUP 4 **** **** 0

# MOE 2024.06 (io_trps.svl 2023.06)
