@<TRIPOS>MOLECULE
NONAME
46 48 1 0 0 
SMALL
USER_CHARGES


@<TRIPOS>ATOM
  1 O       -1.4850     0.1930     2.6030 O.2   1 <1>  -0.5700 
  2 C       -1.9140     0.7510     1.6100 C.2   1 <1>   0.5440 
  3 N       -2.7920     0.0640     0.8070 N.am  1 <1>  -0.6600 
  4 C       -1.5220     2.1170     1.3340 C.ar  1 <1>   0.0860 
  5 C       -3.5390     0.6310    -0.3400 C.3   1 <1>   0.1400 
  6 C       -3.1650    -1.3550     1.0240 C.3   1 <1>   0.1400 
  7 C       -0.8680     2.4960     0.1560 C.ar  1 <1>   0.0830 
  8 C       -1.7970     3.1120     2.2730 C.ar  1 <1>  -0.1500 
  9 C       -4.7150    -0.3260    -0.5260 C.3   1 <1>   0.2000 
 10 C       -4.1720    -1.6910    -0.0890 C.3   1 <1>  -0.0800 
 11 O       -0.5620     1.5640    -0.7770 O.3   1 <1>  -0.3630 
 12 C       -0.5300     3.8300    -0.0840 C.ar  1 <1>   0.0830 
 13 C       -1.4620     4.4320     2.0470 C.ar  1 <1>  -0.1500 
 14 O       -5.7150     0.0350     0.3610 O.3   1 <1>  -0.6800 
 15 C       -3.5020    -2.4200    -1.2720 C.3   1 <1>  -0.0170 
 16 C        0.5960     0.7950    -0.5430 C.3   1 <1>   0.0400 
 17 O        0.0970     4.1300    -1.2580 O.3   1 <1>  -0.3630 
 18 C       -0.8320     4.7950     0.8700 C.ar  1 <1>  -0.1500 
 19 C       -3.1440    -3.8580    -0.9240 C.ar  1 <1>   0.1670 
 20 C        0.4390     5.4550    -1.6000 C.3   1 <1>   0.0400 
 21 N       -1.9080    -4.0830    -0.5100 N.ar  1 <1>  -0.6200 
 22 C       -4.1050    -4.8600    -1.0510 C.ar  1 <1>   0.1600 
 23 C       -1.7000    -5.3590    -0.2320 C.ar  1 <1>   0.1600 
 24 N       -3.9000    -6.1370    -0.7750 N.ar  1 <1>  -0.6200 
 25 C       -2.6640    -6.3520    -0.3600 C.ar  1 <1>   0.1600 
 26 H       -3.8660     1.6400    -0.1540 H     1 <1>   0.0800 
 27 H       -2.9100     0.6110    -1.2130 H     1 <1>   0.0800 
 28 H       -2.2870    -1.9780     0.9940 H     1 <1>   0.0800 
 29 H       -3.6260    -1.4510     1.9920 H     1 <1>   0.0800 
 30 H       -2.2820     2.8310     3.1930 H     1 <1>   0.1500 
 31 H       -5.1240    -0.3090    -1.5210 H     1 <1>   0.0800 
 32 H       -4.9660    -2.3110     0.2890 H     1 <1>   0.0800 
 33 H       -1.6890     5.1800     2.7890 H     1 <1>   0.1500 
 34 H       -5.3130     0.1620     1.2450 H     1 <1>   0.4000 
 35 H       -2.6130    -1.8960    -1.5780 H     1 <1>   0.0800 
 36 H       -4.1740    -2.4320    -2.1110 H     1 <1>   0.0800 
 37 H        0.7310     0.1280    -1.3750 H     1 <1>   0.0800 
 38 H        0.4700     0.2290     0.3640 H     1 <1>   0.0800 
 39 H        1.4390     1.4580    -0.4600 H     1 <1>   0.0800 
 40 H       -0.5860     5.8290     0.7220 H     1 <1>   0.1500 
 41 H        0.9010     5.4390    -2.5710 H     1 <1>   0.0800 
 42 H        1.1330     5.8360    -0.8730 H     1 <1>   0.0800 
 43 H       -0.4570     6.0500    -1.6330 H     1 <1>   0.0800 
 44 H       -5.0890    -4.5930    -1.3960 H     1 <1>   0.1500 
 45 H       -0.7190    -5.6330     0.1140 H     1 <1>   0.1500 
 46 H       -2.3990    -7.3640    -0.1100 H     1 <1>   0.1500 
@<TRIPOS>BOND
  1   1   2  2   
  2   2   3  am  
  3   2   4  1   
  4   3   5  1   
  5   3   6  1   
  6   4   7  ar  
  7   4   8  ar  
  8   5   9  1   
  9   5  26  1   
 10   5  27  1   
 11   6  10  1   
 12   6  28  1   
 13   6  29  1   
 14   7  11  1   
 15   7  12  ar  
 16   8  13  ar  
 17   8  30  1   
 18   9  10  1   
 19   9  14  1   
 20   9  31  1   
 21  10  15  1   
 22  10  32  1   
 23  11  16  1   
 24  12  17  1   
 25  12  18  ar  
 26  13  18  ar  
 27  13  33  1   
 28  14  34  1   
 29  15  19  1   
 30  15  35  1   
 31  15  36  1   
 32  16  37  1   
 33  16  38  1   
 34  16  39  1   
 35  17  20  1   
 36  18  40  1   
 37  19  21  ar  
 38  19  22  ar  
 39  20  41  1   
 40  20  42  1   
 41  20  43  1   
 42  21  23  ar  
 43  22  24  ar  
 44  22  44  1   
 45  23  25  ar  
 46  23  45  1   
 47  24  25  ar  
 48  25  46  1   
@<TRIPOS>SUBSTRUCTURE
  1 ****   3 GROUP 4 **** **** 0

# MOE 2024.06 (io_trps.svl 2023.06)
