@<TRIPOS>MOLECULE
NONAME
46 48 1 0 0 
SMALL
USER_CHARGES


@<TRIPOS>ATOM
  1 O       -0.5010    -0.2330    -0.4200 O.2   1 <1>  -0.5700 
  2 C       -0.4100    -1.4360    -0.2670 C.2   1 <1>   0.7800 
  3 O        0.7820    -2.0220    -0.1170 O.3   1 <1>  -0.4300 
  4 N       -1.5110    -2.2500    -0.2340 N.am  1 <1>  -0.6600 
  5 C        2.0480    -1.4000    -0.1180 C.3   1 <1>   0.2800 
  6 C       -2.8860    -1.6730    -0.3240 C.3   1 <1>   0.1400 
  7 C       -1.3980    -3.7290    -0.0770 C.3   1 <1>   0.1400 
  8 C        2.3120    -0.7330    -1.4730 C.3   1 <1>  -0.2400 
  9 C        3.0490    -2.5380     0.0860 C.3   1 <1>  -0.2400 
 10 C        2.1570    -0.4160     1.0530 C.3   1 <1>  -0.2400 
 11 C       -3.8660    -2.5520     0.4530 C.3   1 <1>  -0.1600 
 12 C       -2.5920    -4.4220    -0.7390 C.3   1 <1>  -0.1600 
 13 C       -3.9530    -3.9930    -0.1340 C.3   1 <1>   0.0000 
 14 C       -5.0800    -4.1580    -1.1900 C.3   1 <1>   0.2000 
 15 C       -4.4170    -4.9430     0.9850 C.3   1 <1>  -0.1600 
 16 O       -5.4720    -2.9400    -1.7850 O.3   1 <1>  -0.2170 
 17 C       -6.3290    -4.6310    -0.4670 C.3   1 <1>  -0.0190 
 18 C       -5.9370    -4.7850     1.0090 C.3   1 <1>  -0.1600 
 19 N       -6.7220    -2.6220    -1.5230 N.2   1 <1>  -0.5130 
 20 C       -7.2900    -3.5080    -0.7880 C.2   1 <1>   0.2420 
 21 C       -8.6470    -3.6110    -0.2520 C.2   1 <1>   0.9470 
 22 O       -9.4840    -2.6890    -0.3300 O.co2 1 <1>  -0.9000 
 23 O       -9.0120    -4.6610     0.3250 O.co2 1 <1>  -0.9000 
 24 H       -2.8950    -0.6760     0.0850 H     1 <1>   0.0800 
 25 H       -3.1830    -1.6130    -1.3580 H     1 <1>   0.0800 
 26 H       -0.4870    -4.0780    -0.5330 H     1 <1>   0.0800 
 27 H       -1.3680    -3.9690     0.9720 H     1 <1>   0.0800 
 28 H        3.3270    -0.3840    -1.5190 H     1 <1>   0.0800 
 29 H        1.6710     0.1170    -1.6180 H     1 <1>   0.0800 
 30 H        2.1540    -1.4340    -2.2720 H     1 <1>   0.0800 
 31 H        4.0540    -2.1540     0.1000 H     1 <1>   0.0800 
 32 H        2.9700    -3.2520    -0.7130 H     1 <1>   0.0800 
 33 H        2.8640    -3.0350     1.0210 H     1 <1>   0.0800 
 34 H        3.1650    -0.0520     1.1330 H     1 <1>   0.0800 
 35 H        1.8940    -0.9010     1.9750 H     1 <1>   0.0800 
 36 H        1.5170     0.4340     0.9060 H     1 <1>   0.0800 
 37 H       -3.5250    -2.5770     1.4730 H     1 <1>   0.0800 
 38 H       -4.8330    -2.0820     0.4710 H     1 <1>   0.0800 
 39 H       -2.5660    -4.1620    -1.7840 H     1 <1>   0.0800 
 40 H       -2.4680    -5.4880    -0.6790 H     1 <1>   0.0800 
 41 H       -4.8160    -4.8460    -1.9720 H     1 <1>   0.0800 
 42 H       -4.1880    -5.9630     0.7290 H     1 <1>   0.0800 
 43 H       -3.9750    -4.7260     1.9420 H     1 <1>   0.0800 
 44 H       -6.6740    -5.5640    -0.8750 H     1 <1>   0.0800 
 45 H       -6.2070    -3.8960     1.5540 H     1 <1>   0.0800 
 46 H       -6.4340    -5.6270     1.4600 H     1 <1>   0.0800 
@<TRIPOS>BOND
  1   1   2  2   
  2   2   3  1   
  3   2   4  am  
  4   3   5  1   
  5   4   6  1   
  6   4   7  1   
  7   5   8  1   
  8   5   9  1   
  9   5  10  1   
 10   6  11  1   
 11   6  24  1   
 12   6  25  1   
 13   7  12  1   
 14   7  26  1   
 15   7  27  1   
 16   8  28  1   
 17   8  29  1   
 18   8  30  1   
 19   9  31  1   
 20   9  32  1   
 21   9  33  1   
 22  10  34  1   
 23  10  35  1   
 24  10  36  1   
 25  11  13  1   
 26  11  37  1   
 27  11  38  1   
 28  12  13  1   
 29  12  39  1   
 30  12  40  1   
 31  13  14  1   
 32  13  15  1   
 33  14  16  1   
 34  14  17  1   
 35  14  41  1   
 36  15  18  1   
 37  15  42  1   
 38  15  43  1   
 39  16  19  1   
 40  17  18  1   
 41  17  20  1   
 42  17  44  1   
 43  18  45  1   
 44  18  46  1   
 45  19  20  2   
 46  20  21  1   
 47  21  22  ar  
 48  21  23  ar  
@<TRIPOS>SUBSTRUCTURE
  1 ****  11 GROUP 4 **** **** 0

# MOE 2024.06 (io_trps.svl 2023.06)
