@<TRIPOS>MOLECULE
NONAME
41 42 1 0 0 
SMALL
USER_CHARGES


@<TRIPOS>ATOM
  1 CL       0.4280     0.3170    -0.8410 Cl    1 <1>  -0.1770 
  2 C       -0.8480     1.5020    -1.0650 C.ar  1 <1>   0.1770 
  3 C       -0.9580     2.6270    -0.2290 C.ar  1 <1>   0.4100 
  4 C       -1.7300     1.3020    -2.1000 C.ar  1 <1>  -0.1500 
  5 N       -1.8910     3.5620    -0.4220 N.ar  1 <1>  -0.6200 
  6 N       -0.0940     2.8350     0.8510 N.pl3 1 <1>  -0.8380 
  7 C       -2.7070     2.2620    -2.2700 C.ar  1 <1>  -0.1500 
  8 C       -2.7390     3.3510    -1.4180 C.ar  1 <1>   0.1600 
  9 C        0.2060     4.2140     1.3070 C.3   1 <1>   0.2090 
 10 C       -0.1370     1.8300     1.9520 C.3   1 <1>   0.1290 
 11 C        1.0780     4.8990     0.2520 C.3   1 <1>  -0.1600 
 12 C        1.1920     6.4020     0.5000 C.3   1 <1>   0.4230 
 13 N        1.7720     7.0350    -0.7160 N.4   1 <1>  -0.9590 
 14 C        2.0160     6.7230     1.7530 C.3   1 <1>  -0.2400 
 15 C        3.1920     6.7220    -1.0150 C.3   1 <1>   0.3430 
 16 C        1.6550     8.5120    -0.7630 C.3   1 <1>   0.3430 
 17 C        3.5920     7.7650    -2.0500 C.3   1 <1>  -0.1600 
 18 C        2.6110     8.9290    -1.8740 C.3   1 <1>  -0.1600 
 19 H       -1.6550     0.4400    -2.7390 H     1 <1>   0.1500 
 20 H       -3.4350     2.1650    -3.0560 H     1 <1>   0.1500 
 21 H       -3.5070     4.0920    -1.5640 H     1 <1>   0.1500 
 22 H        0.7290     4.1770     2.2480 H     1 <1>   0.0800 
 23 H       -0.7160     4.7530     1.4560 H     1 <1>   0.0800 
 24 H       -0.6890     0.9570     1.6500 H     1 <1>   0.0800 
 25 H       -0.6170     2.2490     2.8190 H     1 <1>   0.0800 
 26 H        0.8650     1.5320     2.2080 H     1 <1>   0.0800 
 27 H        0.6200     4.7490    -0.7080 H     1 <1>   0.0800 
 28 H        2.0460     4.4320     0.2530 H     1 <1>   0.0800 
 29 H        0.1940     6.7900     0.6390 H     1 <1>   0.0800 
 30 H        1.2280     6.6790    -1.5130 H     1 <1>   0.4500 
 31 H        2.9800     6.2470     1.7240 H     1 <1>   0.0800 
 32 H        1.5030     6.3600     2.6250 H     1 <1>   0.0800 
 33 H        2.1420     7.7810     1.8800 H     1 <1>   0.0800 
 34 H        3.3120     5.7170    -1.3900 H     1 <1>   0.0800 
 35 H        3.7940     6.8500    -0.1310 H     1 <1>   0.0800 
 36 H        1.9850     8.9400     0.1690 H     1 <1>   0.0800 
 37 H        0.6440     8.8280    -0.9660 H     1 <1>   0.0800 
 38 H        3.5060     7.3470    -3.0380 H     1 <1>   0.0800 
 39 H        4.6120     8.0730    -1.8980 H     1 <1>   0.0800 
 40 H        3.1170     9.8410    -1.6080 H     1 <1>   0.0800 
 41 H        2.0610     9.0980    -2.7850 H     1 <1>   0.0800 
@<TRIPOS>BOND
  1   1   2  1   
  2   2   3  ar  
  3   2   4  ar  
  4   3   5  ar  
  5   3   6  1   
  6   4   7  ar  
  7   4  19  1   
  8   5   8  ar  
  9   6   9  1   
 10   6  10  1   
 11   7   8  ar  
 12   7  20  1   
 13   8  21  1   
 14   9  11  1   
 15   9  22  1   
 16   9  23  1   
 17  10  24  1   
 18  10  25  1   
 19  10  26  1   
 20  11  12  1   
 21  11  27  1   
 22  11  28  1   
 23  12  13  1   
 24  12  14  1   
 25  12  29  1   
 26  13  15  1   
 27  13  16  1   
 28  13  30  1   
 29  14  31  1   
 30  14  32  1   
 31  14  33  1   
 32  15  17  1   
 33  15  34  1   
 34  15  35  1   
 35  16  18  1   
 36  16  36  1   
 37  16  37  1   
 38  17  18  1   
 39  17  38  1   
 40  17  39  1   
 41  18  40  1   
 42  18  41  1   
@<TRIPOS>SUBSTRUCTURE
  1 ****  11 GROUP 4 **** **** 0

# MOE 2024.06 (io_trps.svl 2023.06)
