@<TRIPOS>MOLECULE
F1913-0654
28 29 1 0 0 
SMALL
USER_CHARGES


@<TRIPOS>ATOM
  1 F      -10.1610    -0.9390     1.2840 F     1 <1>  -0.3400 
  2 C      -10.0760    -0.3990     0.0720 C.3   1 <1>   1.1640 
  3 F      -10.1750    -1.4070    -0.7910 F     1 <1>  -0.3400 
  4 F      -11.1880     0.3170    -0.0830 F     1 <1>  -0.3400 
  5 C       -8.7720     0.4310    -0.1230 C.ar  1 <1>   0.1660 
  6 N       -7.5940    -0.1990    -0.0640 N.ar  1 <1>  -0.6200 
  7 C       -8.8610     1.8020    -0.3510 C.ar  1 <1>  -0.1500 
  8 C       -6.4820     0.5140    -0.2280 C.ar  1 <1>   0.3380 
  9 C       -7.7190     2.5500    -0.5280 C.ar  1 <1>  -0.1500 
 10 C       -5.2180    -0.2000    -0.1460 C.2   1 <1>  -0.1670 
 11 C       -6.5180     1.8840    -0.4640 C.ar  1 <1>  -0.1500 
 12 C       -4.0490     0.3190     0.2820 C.2   1 <1>  -0.2880 
 13 C       -5.2680    -1.6650    -0.5870 C.3   1 <1>  -0.0220 
 14 C       -2.7340    -0.4250     0.4010 C.3   1 <1>   0.4810 
 15 C       -3.8750    -2.2730    -0.7620 C.3   1 <1>   0.3430 
 16 N       -3.0080    -1.8810     0.3840 N.4   1 <1>  -0.9060 
 17 H       -9.8150     2.2990    -0.3950 H     1 <1>   0.1500 
 18 H       -7.7660     3.6120    -0.7090 H     1 <1>   0.1500 
 19 H       -5.6060     2.4320    -0.6050 H     1 <1>   0.1500 
 20 H       -3.9530     1.3450     0.5940 H     1 <1>   0.1500 
 21 H       -5.7930    -1.7430    -1.5240 H     1 <1>   0.0800 
 22 H       -5.8210    -2.2390     0.1370 H     1 <1>   0.0800 
 23 H       -2.2490    -0.1590     1.3280 H     1 <1>   0.0800 
 24 H       -2.0850    -0.1500    -0.4160 H     1 <1>   0.0800 
 25 H       -3.4430    -1.9120    -1.6820 H     1 <1>   0.0800 
 26 H       -3.9580    -3.3470    -0.8230 H     1 <1>   0.0800 
 27 H       -3.5100    -2.1060     1.2510 H     1 <1>   0.4500 
 28 H       -2.1280    -2.4090     0.3790 H     1 <1>   0.4500 
@<TRIPOS>BOND
  1   1   2  1   
  2   2   3  1   
  3   2   4  1   
  4   2   5  1   
  5   5   6  ar  
  6   5   7  ar  
  7   6   8  ar  
  8   7   9  ar  
  9   7  17  1   
 10   8  10  1   
 11   8  11  ar  
 12   9  11  ar  
 13   9  18  1   
 14  10  12  2   
 15  10  13  1   
 16  11  19  1   
 17  12  14  1   
 18  12  20  1   
 19  13  15  1   
 20  13  21  1   
 21  13  22  1   
 22  14  16  1   
 23  14  23  1   
 24  14  24  1   
 25  15  16  1   
 26  15  25  1   
 27  15  26  1   
 28  16  27  1   
 29  16  28  1   
@<TRIPOS>SUBSTRUCTURE
  1 ****   6 GROUP 4 **** **** 0

# MOE 2024.06 (io_trps.svl 2023.06)
