@<TRIPOS>MOLECULE
NONAME
50 53 1 0 0 
SMALL
USER_CHARGES


@<TRIPOS>ATOM
  1 F       -0.3400     0.4970    -1.4270 F     1 <1>  -0.1900 
  2 C       -1.3720     1.2000    -1.0490 C.ar  1 <1>   0.1900 
  3 C       -1.3140     2.5660    -1.1140 C.ar  1 <1>  -0.1500 
  4 C       -2.4960     0.5200    -0.5930 C.ar  1 <1>  -0.1500 
  5 C       -2.4200     3.3420    -0.7090 C.ar  1 <1>   0.0000 
  6 C       -3.5860     1.2530    -0.1930 C.ar  1 <1>  -0.1500 
  7 C       -3.5660     2.6590    -0.2430 C.ar  1 <1>   0.3610 
  8 C       -2.4320     4.7710    -0.7480 C.ar  1 <1>   0.1000 
  9 N       -4.6620     3.3870     0.1620 N.ar  1 <1>  -0.1790 
 10 N       -1.3530     5.4490    -1.1980 N.pl3 1 <1>  -0.8690 
 11 C       -3.5840     5.4220    -0.3040 C.ar  1 <1>  -0.1500 
 12 C       -4.6820     4.7310     0.1410 C.ar  1 <1>   0.2180 
 13 C       -1.1360     6.9120    -1.3630 C.3   1 <1>   0.2090 
 14 C       -5.9370     5.4450     0.6170 C.3   1 <1>  -0.0970 
 15 C       -0.2940     7.4630    -0.2010 C.3   1 <1>  -0.0800 
 16 C       -0.1330     8.9890    -0.3410 C.3   1 <1>  -0.1600 
 17 C        1.0930     6.7900    -0.1200 C.3   1 <1>  -0.1600 
 18 C        0.7550     9.5730     0.7620 C.3   1 <1>   0.1400 
 19 C        1.9700     7.4110     0.9720 C.3   1 <1>   0.1400 
 20 N        2.0680     8.8770     0.7480 N.am  1 <1>  -0.6600 
 21 C        3.2790     9.4860     0.5280 C.2   1 <1>   0.6300 
 22 O        4.3210     8.8730     0.5670 O.2   1 <1>  -0.5700 
 23 C        3.3500    10.9810     0.2300 C.3   1 <1>  -0.1000 
 24 C        2.8580    11.5390    -1.0770 C.3   1 <1>  -0.2000 
 25 C        4.3230    11.5260    -0.7780 C.3   1 <1>  -0.2000 
 26 H       -0.4160     3.0300    -1.4770 H     1 <1>   0.1500 
 27 H       -2.4830    -0.5580    -0.5650 H     1 <1>   0.1500 
 28 H       -4.4610     0.7370     0.1610 H     1 <1>   0.1500 
 29 H       -5.4800     2.8700     0.4900 H     1 <1>   0.4570 
 30 H       -0.5170     4.9270    -1.4850 H     1 <1>   0.4000 
 31 H       -3.6090     6.4950    -0.3100 H     1 <1>   0.1500 
 32 H       -2.0760     7.4300    -1.4160 H     1 <1>   0.0800 
 33 H       -0.6220     7.0840    -2.2940 H     1 <1>   0.0800 
 34 H       -6.1430     5.2000     1.6450 H     1 <1>   0.0800 
 35 H       -6.7820     5.1650     0.0130 H     1 <1>   0.0800 
 36 H       -5.8170     6.5120     0.5470 H     1 <1>   0.0800 
 37 H       -0.8230     7.2670     0.7160 H     1 <1>   0.0800 
 38 H       -1.0970     9.4640    -0.2970 H     1 <1>   0.0800 
 39 H        0.3070     9.2280    -1.2940 H     1 <1>   0.0800 
 40 H        1.6060     6.8850    -1.0610 H     1 <1>   0.0800 
 41 H        0.9850     5.7420     0.0920 H     1 <1>   0.0800 
 42 H        0.2920     9.4240     1.7230 H     1 <1>   0.0800 
 43 H        0.8700    10.6320     0.6140 H     1 <1>   0.0800 
 44 H        2.9460     6.9550     0.9530 H     1 <1>   0.0800 
 45 H        1.5390     7.2310     1.9410 H     1 <1>   0.0800 
 46 H        3.2090    11.5640     1.1200 H     1 <1>   0.1000 
 47 H        2.3390    12.4820    -1.0770 H     1 <1>   0.1000 
 48 H        2.4850    10.8600    -1.8240 H     1 <1>   0.1000 
 49 H        4.9580    10.8280    -1.2980 H     1 <1>   0.1000 
 50 H        4.8230    12.4520    -0.5580 H     1 <1>   0.1000 
@<TRIPOS>BOND
  1   1   2  1   
  2   2   3  ar  
  3   2   4  ar  
  4   3   5  ar  
  5   3  26  1   
  6   4   6  ar  
  7   4  27  1   
  8   5   7  ar  
  9   5   8  ar  
 10   6   7  ar  
 11   6  28  1   
 12   7   9  ar  
 13   8  10  1   
 14   8  11  ar  
 15   9  12  ar  
 16   9  29  1   
 17  10  13  1   
 18  10  30  1   
 19  11  12  ar  
 20  11  31  1   
 21  12  14  1   
 22  13  15  1   
 23  13  32  1   
 24  13  33  1   
 25  14  34  1   
 26  14  35  1   
 27  14  36  1   
 28  15  16  1   
 29  15  17  1   
 30  15  37  1   
 31  16  18  1   
 32  16  38  1   
 33  16  39  1   
 34  17  19  1   
 35  17  40  1   
 36  17  41  1   
 37  18  20  1   
 38  18  42  1   
 39  18  43  1   
 40  19  20  1   
 41  19  44  1   
 42  19  45  1   
 43  20  21  am  
 44  21  22  2   
 45  21  23  1   
 46  23  24  1   
 47  23  25  1   
 48  23  46  1   
 49  24  25  1   
 50  24  47  1   
 51  24  48  1   
 52  25  49  1   
 53  25  50  1   
@<TRIPOS>SUBSTRUCTURE
  1 ****  10 GROUP 4 **** **** 0

# MOE 2024.06 (io_trps.svl 2023.06)
