@<TRIPOS>MOLECULE
NONAME
52 54 1 0 0 
SMALL
USER_CHARGES


@<TRIPOS>ATOM
  1 O       -1.8280     1.2800    -2.3290 O.2   1 <1>  -0.5700 
  2 C       -1.6400     1.5330    -1.1530 C.2   1 <1>   0.7160 
  3 N       -2.2590     0.7480    -0.2000 N.am  1 <1>  -0.6600 
  4 C       -0.8020     2.6540    -0.7960 C.2   1 <1>  -0.0860 
  5 C       -2.9100    -0.5350    -0.6020 C.3   1 <1>   0.1400 
  6 C       -2.4450     1.1960     1.2120 C.3   1 <1>   0.1400 
  7 C        0.2530     2.7410     0.0620 C.2   1 <1>  -0.0400 
  8 C       -0.9310     3.9580    -1.3160 C.2   1 <1>  -0.1500 
  9 C       -4.3300    -0.2990    -1.1410 C.3   1 <1>   0.1400 
 10 C       -3.8840     1.0470     1.7270 C.3   1 <1>  -0.1600 
 11 O        0.7240     3.9630     0.1090 O.3   1 <1>  -0.2800 
 12 C        0.9380     1.6860     0.9060 C.3   1 <1>  -0.0600 
 13 C        0.0220     4.7020    -0.7220 C.2   1 <1>  -0.0100 
 14 N       -5.2920     0.0630    -0.0510 N.am  1 <1>  -0.6600 
 15 C       -4.9690     1.3220     0.6800 C.3   1 <1>   0.1400 
 16 C       -6.3960    -0.6790     0.3120 C.2   1 <1>   0.5690 
 17 O       -7.0480    -0.3800     1.2860 O.2   1 <1>  -0.5700 
 18 C       -6.8000    -1.9080    -0.5040 C.3   1 <1>   0.0440 
 19 C       -8.1240    -2.5710    -0.1120 C.ar  1 <1>  -0.1430 
 20 C       -8.2200    -3.4770     0.9420 C.ar  1 <1>  -0.1430 
 21 C       -9.2600    -2.2610    -0.8470 C.ar  1 <1>  -0.1500 
 22 C       -9.4440    -4.0620     1.2260 C.ar  1 <1>  -0.1500 
 23 C       -7.0190    -3.8400     1.8040 C.3   1 <1>  -0.0970 
 24 C      -10.4820    -2.8450    -0.5590 C.ar  1 <1>  -0.1430 
 25 C      -10.5670    -3.7520     0.4810 C.ar  1 <1>  -0.1500 
 26 C      -11.7090    -2.4900    -1.3770 C.3   1 <1>  -0.0970 
 27 H       -2.9380    -1.2180     0.2280 H     1 <1>   0.0800 
 28 H       -2.3210    -0.9910    -1.3790 H     1 <1>   0.0800 
 29 H       -2.1770     2.2350     1.2930 H     1 <1>   0.0800 
 30 H       -1.7810     0.6390     1.8500 H     1 <1>   0.0800 
 31 H       -1.6620     4.2540    -2.0480 H     1 <1>   0.1500 
 32 H       -4.6440    -1.1930    -1.6430 H     1 <1>   0.0800 
 33 H       -4.3090     0.4870    -1.8760 H     1 <1>   0.0800 
 34 H       -4.0110     1.7460     2.5340 H     1 <1>   0.0800 
 35 H       -4.0300     0.0680     2.1480 H     1 <1>   0.0800 
 36 H        0.5140     0.7170     0.7220 H     1 <1>   0.0800 
 37 H        0.8350     1.9290     1.9480 H     1 <1>   0.0800 
 38 H        1.9850     1.6550     0.6600 H     1 <1>   0.0800 
 39 H        0.2710     5.7430    -0.8300 H     1 <1>   0.1500 
 40 H       -4.6520     2.0840    -0.0120 H     1 <1>   0.0800 
 41 H       -5.8530     1.6870     1.1770 H     1 <1>   0.0800 
 42 H       -6.0140    -2.6330    -0.4340 H     1 <1>   0.0800 
 43 H       -6.8670    -1.6100    -1.5320 H     1 <1>   0.0800 
 44 H       -9.1990    -1.5540    -1.6550 H     1 <1>   0.1500 
 45 H       -9.5340    -4.7640     2.0350 H     1 <1>   0.1500 
 46 H       -6.5680    -2.9480     2.2010 H     1 <1>   0.0800 
 47 H       -6.2940    -4.3770     1.2220 H     1 <1>   0.0800 
 48 H       -7.3140    -4.4570     2.6320 H     1 <1>   0.0800 
 49 H      -11.5060    -4.2180     0.7200 H     1 <1>   0.1500 
 50 H      -11.7060    -1.4420    -1.6150 H     1 <1>   0.0800 
 51 H      -12.6070    -2.7100    -0.8280 H     1 <1>   0.0800 
 52 H      -11.7130    -3.0570    -2.2910 H     1 <1>   0.0800 
@<TRIPOS>BOND
  1   1   2  2   
  2   2   3  am  
  3   2   4  1   
  4   3   5  1   
  5   3   6  1   
  6   4   7  2   
  7   4   8  1   
  8   5   9  1   
  9   5  27  1   
 10   5  28  1   
 11   6  10  1   
 12   6  29  1   
 13   6  30  1   
 14   7  11  1   
 15   7  12  1   
 16   8  13  2   
 17   8  31  1   
 18   9  14  1   
 19   9  32  1   
 20   9  33  1   
 21  10  15  1   
 22  10  34  1   
 23  10  35  1   
 24  11  13  1   
 25  12  36  1   
 26  12  37  1   
 27  12  38  1   
 28  13  39  1   
 29  14  15  1   
 30  14  16  am  
 31  15  40  1   
 32  15  41  1   
 33  16  17  2   
 34  16  18  1   
 35  18  19  1   
 36  18  42  1   
 37  18  43  1   
 38  19  20  ar  
 39  19  21  ar  
 40  20  22  ar  
 41  20  23  1   
 42  21  24  ar  
 43  21  44  1   
 44  22  25  ar  
 45  22  45  1   
 46  23  46  1   
 47  23  47  1   
 48  23  48  1   
 49  24  25  ar  
 50  24  26  1   
 51  25  49  1   
 52  26  50  1   
 53  26  51  1   
 54  26  52  1   
@<TRIPOS>SUBSTRUCTURE
  1 ****  14 GROUP 4 **** **** 0

# MOE 2024.06 (io_trps.svl 2023.06)
