@<TRIPOS>MOLECULE
NONAME
50 52 1 0 0 
SMALL
USER_CHARGES


@<TRIPOS>ATOM
  1 S       -0.1340    -0.3750    -0.9460 S.o2  1 <1>   1.4470 
  2 O       -0.9660    -1.5330    -1.2090 O.2   1 <1>  -0.6500 
  3 O       -0.0390     0.6220    -1.9930 O.2   1 <1>  -0.6500 
  4 N       -0.7740     0.3760     0.4420 N.am  1 <1>  -0.8490 
  5 C        1.4860    -0.9680    -0.3780 C.ar  1 <1>  -0.0090 
  6 C       -2.1470     0.0340     0.8510 C.3   1 <1>   0.1960 
  7 C       -0.4190     1.7800     0.6490 C.3   1 <1>   0.1960 
  8 C        2.6270    -0.1670    -0.3990 C.ar  1 <1>   0.0830 
  9 C        1.6090    -2.2590     0.1260 C.ar  1 <1>  -0.1500 
 10 C       -3.2550     0.9530     0.2640 C.3   1 <1>   0.0000 
 11 C       -1.4430     2.7220     0.0060 C.3   1 <1>  -0.1600 
 12 O        2.5330     1.0960    -0.8800 O.3   1 <1>  -0.3630 
 13 C        3.8420    -0.6560     0.0720 C.ar  1 <1>  -0.1500 
 14 C        2.8150    -2.7550     0.5940 C.ar  1 <1>  -0.1430 
 15 C       -4.5910     0.5560     0.9280 C.3   1 <1>   0.2000 
 16 C       -2.8650     2.4300     0.5050 C.3   1 <1>  -0.1600 
 17 C       -3.5380     0.6610    -1.2240 C.3   1 <1>  -0.1600 
 18 C        3.6200     1.6840    -1.5610 C.3   1 <1>   0.0400 
 19 C        3.9320    -1.9420     0.5640 C.ar  1 <1>  -0.1500 
 20 C        2.9140    -4.1770     1.1480 C.3   1 <1>  -0.1230 
 21 O       -5.5370     1.5510     0.7520 O.3   1 <1>  -0.6800 
 22 C       -5.0780    -0.6680     0.1530 C.3   1 <1>  -0.1600 
 23 C       -4.4660    -0.5590    -1.2510 C.3   1 <1>  -0.1600 
 24 C        4.0520    -5.0010     0.5780 C.2   1 <1>   0.9060 
 25 O        3.8080    -5.8080    -0.3250 O.co2 1 <1>  -0.9000 
 26 O        5.1820    -4.8730     1.0650 O.co2 1 <1>  -0.9000 
 27 H       -2.3550    -0.9980     0.6300 H     1 <1>   0.0800 
 28 H       -2.1840     0.1250     1.9230 H     1 <1>   0.0800 
 29 H       -0.3870     1.9710     1.7080 H     1 <1>   0.0800 
 30 H        0.5600     1.9820     0.2540 H     1 <1>   0.0800 
 31 H        0.7420    -2.8960     0.1500 H     1 <1>   0.1500 
 32 H       -1.1820     3.7360     0.2460 H     1 <1>   0.0800 
 33 H       -1.3990     2.6250    -1.0650 H     1 <1>   0.0800 
 34 H        4.7270    -0.0490     0.0700 H     1 <1>   0.1500 
 35 H       -4.5020     0.3710     1.9860 H     1 <1>   0.0800 
 36 H       -3.5560     3.0920     0.0140 H     1 <1>   0.0800 
 37 H       -2.9140     2.6370     1.5600 H     1 <1>   0.0800 
 38 H       -4.0570     1.4960    -1.6610 H     1 <1>   0.0800 
 39 H       -2.6520     0.4960    -1.8050 H     1 <1>   0.0800 
 40 H        3.2560     2.5520    -2.0810 H     1 <1>   0.0800 
 41 H        4.0150     0.9750    -2.2670 H     1 <1>   0.0800 
 42 H        4.3680     1.9730    -0.8460 H     1 <1>   0.0800 
 43 H        4.8760    -2.3220     0.9230 H     1 <1>   0.1500 
 44 H        2.0060    -4.7140     0.9580 H     1 <1>   0.0800 
 45 H        3.0540    -4.1300     2.2100 H     1 <1>   0.0800 
 46 H       -5.6500     1.7060    -0.2050 H     1 <1>   0.4000 
 47 H       -4.7000    -1.5560     0.6280 H     1 <1>   0.0800 
 48 H       -6.1530    -0.7310     0.1300 H     1 <1>   0.0800 
 49 H       -3.8970    -1.4470    -1.4720 H     1 <1>   0.0800 
 50 H       -5.2270    -0.4400    -2.0030 H     1 <1>   0.0800 
@<TRIPOS>BOND
  1   1   2  2   
  2   1   3  2   
  3   1   4  am  
  4   1   5  1   
  5   4   6  1   
  6   4   7  1   
  7   5   8  ar  
  8   5   9  ar  
  9   6  10  1   
 10   6  27  1   
 11   6  28  1   
 12   7  11  1   
 13   7  29  1   
 14   7  30  1   
 15   8  12  1   
 16   8  13  ar  
 17   9  14  ar  
 18   9  31  1   
 19  10  15  1   
 20  10  16  1   
 21  10  17  1   
 22  11  16  1   
 23  11  32  1   
 24  11  33  1   
 25  12  18  1   
 26  13  19  ar  
 27  13  34  1   
 28  14  19  ar  
 29  14  20  1   
 30  15  21  1   
 31  15  22  1   
 32  15  35  1   
 33  16  36  1   
 34  16  37  1   
 35  17  23  1   
 36  17  38  1   
 37  17  39  1   
 38  18  40  1   
 39  18  41  1   
 40  18  42  1   
 41  19  43  1   
 42  20  24  1   
 43  20  44  1   
 44  20  45  1   
 45  21  46  1   
 46  22  23  1   
 47  22  47  1   
 48  22  48  1   
 49  23  49  1   
 50  23  50  1   
 51  24  25  ar  
 52  24  26  ar  
@<TRIPOS>SUBSTRUCTURE
  1 ****   1 GROUP 4 **** **** 0

# MOE 2024.06 (io_trps.svl 2023.06)
