@<TRIPOS>MOLECULE
NONAME
53 55 1 0 0 
SMALL
USER_CHARGES


@<TRIPOS>ATOM
  1 O        1.4280    -2.1400     0.0460 O.3   1 <1>  -0.3630 
  2 C        0.4860    -3.0050     0.5180 C.ar  1 <1>   0.0830 
  3 C        1.1630    -0.7740    -0.1710 C.3   1 <1>   0.1200 
  4 C        0.8180    -4.3550     0.7090 C.ar  1 <1>   0.0830 
  5 C       -0.8160    -2.5890     0.7940 C.ar  1 <1>  -0.1500 
  6 C        2.4420    -0.1240    -0.6890 C.3   1 <1>  -0.2400 
  7 O        2.0330    -4.9180     0.4600 O.3   1 <1>  -0.3620 
  8 C       -0.1460    -5.2390     1.1580 C.ar  1 <1>  -0.1500 
  9 C       -1.7760    -3.4930     1.2200 C.ar  1 <1>  -0.1500 
 10 C        3.2240    -4.2040     0.7210 C.3   1 <1>   0.0400 
 11 C       -1.4480    -4.8280     1.3900 C.ar  1 <1>  -0.1430 
 12 C       -2.4860    -5.8610     1.7770 C.3   1 <1>   0.4860 
 13 N       -2.7390    -6.6650     0.5610 N.4   1 <1>  -0.9590 
 14 C       -3.5140    -5.9890    -0.5170 C.3   1 <1>   0.3430 
 15 C       -3.2810    -8.0300     0.7150 C.3   1 <1>   0.3430 
 16 C       -4.1410    -7.1190    -1.3460 C.3   1 <1>   0.2000 
 17 C       -3.6770    -8.4360    -0.7060 C.3   1 <1>  -0.0800 
 18 O       -5.5270    -7.0420    -1.2580 O.3   1 <1>  -0.6800 
 19 C       -2.5140    -9.1010    -1.4850 C.3   1 <1>   0.0210 
 20 C       -1.1450    -8.4490    -1.3270 C.2   1 <1>   0.1080 
 21 N       -0.9070    -7.1940    -1.5600 N.2   1 <1>  -0.7070 
 22 C       -0.0030    -9.1250    -0.9120 C.2   1 <1>  -0.1500 
 23 N        0.4200    -7.0420    -1.3330 N.pl3 1 <1>   0.3000 
 24 C        0.9760    -8.1970    -0.9190 C.2   1 <1>  -0.3320 
 25 C        2.4440    -8.3380    -0.5580 C.3   1 <1>  -0.0600 
 26 H        0.3740    -0.6900    -0.8990 H     1 <1>   0.0800 
 27 H        0.8640    -0.3300     0.7630 H     1 <1>   0.0800 
 28 H       -1.1090    -1.5630     0.6740 H     1 <1>   0.1500 
 29 H        2.7420    -0.5850    -1.6140 H     1 <1>   0.0800 
 30 H        3.2290    -0.2270     0.0360 H     1 <1>   0.0800 
 31 H        2.2730     0.9220    -0.8670 H     1 <1>   0.0800 
 32 H        0.1410    -6.2650     1.3120 H     1 <1>   0.1500 
 33 H       -2.7760    -3.1400     1.4090 H     1 <1>   0.1500 
 34 H        4.0240    -4.9120     0.8380 H     1 <1>   0.0800 
 35 H        3.1030    -3.6320     1.6240 H     1 <1>   0.0800 
 36 H        3.4330    -3.5570    -0.1130 H     1 <1>   0.0800 
 37 H       -3.3910    -5.3890     2.1210 H     1 <1>   0.0800 
 38 H       -2.0910    -6.4840     2.5630 H     1 <1>   0.0800 
 39 H       -1.8110    -6.7960     0.0990 H     1 <1>   0.4500 
 40 H       -4.2860    -5.3580    -0.1080 H     1 <1>   0.0800 
 41 H       -2.8490    -5.4010    -1.1290 H     1 <1>   0.0800 
 42 H       -2.5490    -8.7030     1.1310 H     1 <1>   0.0800 
 43 H       -4.1540    -8.0080     1.3460 H     1 <1>   0.0800 
 44 H       -3.8720    -7.0370    -2.3860 H     1 <1>   0.0800 
 45 H       -4.4860    -9.1450    -0.6780 H     1 <1>   0.0800 
 46 H       -5.8680    -7.2350    -0.3640 H     1 <1>   0.4000 
 47 H       -2.7550    -9.1310    -2.5340 H     1 <1>   0.0800 
 48 H       -2.4300   -10.1240    -1.1610 H     1 <1>   0.0800 
 49 H        0.0700   -10.1670    -0.6540 H     1 <1>   0.1500 
 50 H        0.9150    -6.1410    -1.4320 H     1 <1>   0.2700 
 51 H        2.6610    -9.3490    -0.2630 H     1 <1>   0.0800 
 52 H        2.6940    -7.6820     0.2570 H     1 <1>   0.0800 
 53 H        3.0600    -8.0900    -1.4050 H     1 <1>   0.0800 
@<TRIPOS>BOND
  1   1   2  1   
  2   1   3  1   
  3   2   4  ar  
  4   2   5  ar  
  5   3   6  1   
  6   3  26  1   
  7   3  27  1   
  8   4   7  1   
  9   4   8  ar  
 10   5   9  ar  
 11   5  28  1   
 12   6  29  1   
 13   6  30  1   
 14   6  31  1   
 15   7  10  1   
 16   8  11  ar  
 17   8  32  1   
 18   9  11  ar  
 19   9  33  1   
 20  10  34  1   
 21  10  35  1   
 22  10  36  1   
 23  11  12  1   
 24  12  13  1   
 25  12  37  1   
 26  12  38  1   
 27  13  14  1   
 28  13  15  1   
 29  13  39  1   
 30  14  16  1   
 31  14  40  1   
 32  14  41  1   
 33  15  17  1   
 34  15  42  1   
 35  15  43  1   
 36  16  17  1   
 37  16  18  1   
 38  16  44  1   
 39  17  19  1   
 40  17  45  1   
 41  18  46  1   
 42  19  20  1   
 43  19  47  1   
 44  19  48  1   
 45  20  21  2   
 46  20  22  1   
 47  21  23  1   
 48  22  24  2   
 49  22  49  1   
 50  23  24  1   
 51  23  50  1   
 52  24  25  1   
 53  25  51  1   
 54  25  52  1   
 55  25  53  1   
@<TRIPOS>SUBSTRUCTURE
  1 ****   8 GROUP 4 **** **** 0

# MOE 2024.06 (io_trps.svl 2023.06)
