@<TRIPOS>MOLECULE
NONAME
56 58 1 0 0 
SMALL
USER_CHARGES


@<TRIPOS>ATOM
  1 O       -1.2470     0.9860     1.1630 O.2   1 <1>  -0.5700 
  2 C       -0.8780     2.1270     1.0460 C.2   1 <1>   0.5690 
  3 N       -1.7610     3.1470     1.0760 N.am  1 <1>  -0.7300 
  4 C        0.6020     2.4400     0.8220 C.3   1 <1>   0.1810 
  5 C       -1.3990     4.5660     0.8380 C.3   1 <1>   0.3640 
  6 O        0.9260     3.7700     1.1620 O.3   1 <1>  -0.5600 
  7 C       -2.2650     5.0810    -0.3110 C.ar  1 <1>  -0.1440 
  8 C        0.1150     4.7620     0.5360 C.3   1 <1>   0.2610 
  9 C       -2.4020     4.3580    -1.4900 C.ar  1 <1>  -0.1500 
 10 C       -2.9300     6.2930    -0.1880 C.ar  1 <1>  -0.1500 
 11 C        0.5690     6.1590     0.9830 C.2   1 <1>   0.5690 
 12 C       -3.1860     4.8380    -2.5240 C.ar  1 <1>  -0.1500 
 13 C       -3.7150     6.7740    -1.2210 C.ar  1 <1>  -0.1500 
 14 O       -0.0260     7.1450     0.6170 O.2   1 <1>  -0.5700 
 15 N        1.6600     6.2750     1.7910 N.am  1 <1>  -0.7300 
 16 C       -3.8430     6.0470    -2.3900 C.ar  1 <1>  -0.1500 
 17 C        2.1610     7.5380     2.3600 C.3   1 <1>   0.1400 
 18 C        2.9660     8.2780     1.2900 C.3   1 <1>  -0.1600 
 19 C        3.2420     9.7150     1.7240 C.3   1 <1>   0.3430 
 20 N        3.7870    10.5020     0.5850 N.4   1 <1>  -0.9590 
 21 C        5.1780    10.0970     0.2170 C.3   1 <1>   0.3430 
 22 C        3.7010    11.9640     0.8690 C.3   1 <1>   0.3430 
 23 C        5.6260    10.8570    -1.0320 C.3   1 <1>  -0.1600 
 24 C        4.1190    12.7590    -0.3680 C.3   1 <1>  -0.1600 
 25 C        5.5310    12.3770    -0.8360 C.3   1 <1>  -0.0800 
 26 C        5.8890    13.1130    -2.1320 C.3   1 <1>  -0.2400 
 27 H       -2.7550     2.9320     1.1600 H     1 <1>   0.3700 
 28 H        0.8530     2.2780    -0.2100 H     1 <1>   0.0800 
 29 H        1.1990     1.7880     1.4340 H     1 <1>   0.0800 
 30 H       -1.6400     5.1180     1.7300 H     1 <1>   0.0800 
 31 H        0.2760     4.6880    -0.5240 H     1 <1>   0.0800 
 32 H       -1.9030     3.4120    -1.6130 H     1 <1>   0.1500 
 33 H       -2.8350     6.8780     0.7110 H     1 <1>   0.1500 
 34 H       -3.2860     4.2710    -3.4330 H     1 <1>   0.1500 
 35 H       -4.2230     7.7170    -1.1150 H     1 <1>   0.1500 
 36 H        2.1050     5.3970     2.0870 H     1 <1>   0.3700 
 37 H       -4.4530     6.4220    -3.1940 H     1 <1>   0.1500 
 38 H        1.3150     8.1330     2.6670 H     1 <1>   0.0800 
 39 H        2.7660     7.3300     3.2270 H     1 <1>   0.0800 
 40 H        2.3890     8.2980     0.3810 H     1 <1>   0.0800 
 41 H        3.8850     7.7470     1.1190 H     1 <1>   0.0800 
 42 H        3.9290     9.7290     2.5550 H     1 <1>   0.0800 
 43 H        2.3130    10.1580     2.0470 H     1 <1>   0.0800 
 44 H        3.1890    10.3210    -0.2340 H     1 <1>   0.4500 
 45 H        5.8500    10.3170     1.0320 H     1 <1>   0.0800 
 46 H        5.2190     9.0390     0.0190 H     1 <1>   0.0800 
 47 H        2.6910    12.2300     1.1390 H     1 <1>   0.0800 
 48 H        4.3510    12.2150     1.6930 H     1 <1>   0.0800 
 49 H        6.6440    10.5890    -1.2550 H     1 <1>   0.0800 
 50 H        5.0220    10.5500    -1.8690 H     1 <1>   0.0800 
 51 H        3.4060    12.5900    -1.1570 H     1 <1>   0.0800 
 52 H        4.0940    13.8080    -0.1320 H     1 <1>   0.0800 
 53 H        6.2380    12.6720    -0.0770 H     1 <1>   0.0800 
 54 H        5.2100    12.8520    -2.9250 H     1 <1>   0.0800 
 55 H        6.8890    12.8620    -2.4420 H     1 <1>   0.0800 
 56 H        5.8450    14.1780    -1.9830 H     1 <1>   0.0800 
@<TRIPOS>BOND
  1   1   2  2   
  2   2   3  am  
  3   2   4  1   
  4   3   5  1   
  5   3  27  1   
  6   4   6  1   
  7   4  28  1   
  8   4  29  1   
  9   5   7  1   
 10   5   8  1   
 11   5  30  1   
 12   6   8  1   
 13   7   9  ar  
 14   7  10  ar  
 15   8  11  1   
 16   8  31  1   
 17   9  12  ar  
 18   9  32  1   
 19  10  13  ar  
 20  10  33  1   
 21  11  14  2   
 22  11  15  am  
 23  12  16  ar  
 24  12  34  1   
 25  13  16  ar  
 26  13  35  1   
 27  15  17  1   
 28  15  36  1   
 29  16  37  1   
 30  17  18  1   
 31  17  38  1   
 32  17  39  1   
 33  18  19  1   
 34  18  40  1   
 35  18  41  1   
 36  19  20  1   
 37  19  42  1   
 38  19  43  1   
 39  20  21  1   
 40  20  22  1   
 41  20  44  1   
 42  21  23  1   
 43  21  45  1   
 44  21  46  1   
 45  22  24  1   
 46  22  47  1   
 47  22  48  1   
 48  23  25  1   
 49  23  49  1   
 50  23  50  1   
 51  24  25  1   
 52  24  51  1   
 53  24  52  1   
 54  25  26  1   
 55  25  53  1   
 56  26  54  1   
 57  26  55  1   
 58  26  56  1   
@<TRIPOS>SUBSTRUCTURE
  1 ****  14 GROUP 4 **** **** 0

# MOE 2024.06 (io_trps.svl 2023.06)
