@<TRIPOS>MOLECULE
NONAME
56 58 1 0 0 
SMALL
USER_CHARGES


@<TRIPOS>ATOM
  1 O        0.3900     1.7010     1.4350 O.2   1 <1>  -0.5700 
  2 C        0.3170     2.7100     0.7730 C.2   1 <1>   0.5690 
  3 N       -0.8540     3.4200     0.6730 N.am  1 <1>  -0.6600 
  4 C        1.5660     3.1890     0.0390 C.3   1 <1>  -0.0990 
  5 C       -2.1130     2.9190     1.3050 C.3   1 <1>   0.1400 
  6 C       -1.0410     4.6870    -0.0860 C.3   1 <1>   0.1400 
  7 C        2.7860     2.2550     0.1620 C.3   1 <1>  -0.1600 
  8 C       -3.2150     2.6660     0.2470 C.3   1 <1>   0.0000 
  9 C       -2.0990     4.4800    -1.1740 C.3   1 <1>  -0.1600 
 10 C        3.9980     2.8000    -0.6030 C.3   1 <1>  -0.0160 
 11 C       -4.4950     2.1930     0.9690 C.3   1 <1>   0.2000 
 12 C       -3.4200     3.9530    -0.5890 C.3   1 <1>  -0.1600 
 13 C       -2.8560     1.4530    -0.6300 C.3   1 <1>  -0.1600 
 14 C        5.1830     1.8580    -0.4740 C.ar  1 <1>  -0.1440 
 15 O       -5.6000     2.3530     0.1250 O.3   1 <1>  -0.5600 
 16 C       -4.2830     0.6930     1.2160 C.3   1 <1>  -0.1600 
 17 C       -3.2620     0.2150     0.1750 C.3   1 <1>  -0.1600 
 18 C        6.0660     1.9840     0.5880 C.ar  1 <1>  -0.1500 
 19 C        5.3920     0.8620    -1.4150 C.ar  1 <1>  -0.1500 
 20 C       -6.8290     2.4520     0.7710 C.3   1 <1>   0.0400 
 21 C        7.1490     1.1300     0.7080 C.ar  1 <1>  -0.1500 
 22 C        6.4730     0.0070    -1.2970 C.ar  1 <1>  -0.1500 
 23 C        7.3590     0.1330    -0.2400 C.ar  1 <1>   0.0820 
 24 O        8.3930    -0.7450    -0.1980 O.3   1 <1>  -0.3620 
 25 C        9.3390    -0.7100     0.8460 C.3   1 <1>   0.0400 
 26 H        1.3190     3.2930    -1.0020 H     1 <1>   0.0800 
 27 H        1.8280     4.1550     0.4270 H     1 <1>   0.0800 
 28 H       -1.9200     2.0160     1.8570 H     1 <1>   0.0800 
 29 H       -2.4550     3.6570     2.0080 H     1 <1>   0.0800 
 30 H       -1.3710     5.4530     0.5960 H     1 <1>   0.0800 
 31 H       -0.1240     5.0200    -0.5350 H     1 <1>   0.0800 
 32 H        3.0430     2.1380     1.2010 H     1 <1>   0.0800 
 33 H        2.5300     1.2820    -0.2210 H     1 <1>   0.0800 
 34 H       -2.2790     5.4140    -1.6760 H     1 <1>   0.0800 
 35 H       -1.7200     3.7870    -1.9040 H     1 <1>   0.0800 
 36 H        4.2680     3.7680    -0.2170 H     1 <1>   0.0800 
 37 H        3.7490     2.9200    -1.6430 H     1 <1>   0.0800 
 38 H       -4.6640     2.7450     1.8780 H     1 <1>   0.0800 
 39 H       -4.1130     3.7680    -1.3910 H     1 <1>   0.0800 
 40 H       -3.8530     4.7110     0.0400 H     1 <1>   0.0800 
 41 H       -3.4450     1.4810    -1.5300 H     1 <1>   0.0800 
 42 H       -1.8150     1.4260    -0.9020 H     1 <1>   0.0800 
 43 H       -3.8700     0.5520     2.1990 H     1 <1>   0.0800 
 44 H       -5.2020     0.1390     1.1480 H     1 <1>   0.0800 
 45 H       -2.4000    -0.1990     0.6700 H     1 <1>   0.0800 
 46 H       -3.6860    -0.5330    -0.4720 H     1 <1>   0.0800 
 47 H        5.9110     2.7500     1.3270 H     1 <1>   0.1500 
 48 H        4.7130     0.7460    -2.2410 H     1 <1>   0.1500 
 49 H       -7.5940     2.5370     0.0200 H     1 <1>   0.0800 
 50 H       -6.8320     3.3300     1.3930 H     1 <1>   0.0800 
 51 H       -6.9990     1.5680     1.3610 H     1 <1>   0.0800 
 52 H        7.8120     1.2560     1.5420 H     1 <1>   0.1500 
 53 H        6.6370    -0.7660    -2.0260 H     1 <1>   0.1500 
 54 H       10.0540    -1.4940     0.6740 H     1 <1>   0.0800 
 55 H        8.8330    -0.8730     1.7800 H     1 <1>   0.0800 
 56 H        9.8340     0.2450     0.8360 H     1 <1>   0.0800 
@<TRIPOS>BOND
  1   1   2  2   
  2   2   3  am  
  3   2   4  1   
  4   3   5  1   
  5   3   6  1   
  6   4   7  1   
  7   4  26  1   
  8   4  27  1   
  9   5   8  1   
 10   5  28  1   
 11   5  29  1   
 12   6   9  1   
 13   6  30  1   
 14   6  31  1   
 15   7  10  1   
 16   7  32  1   
 17   7  33  1   
 18   8  11  1   
 19   8  12  1   
 20   8  13  1   
 21   9  12  1   
 22   9  34  1   
 23   9  35  1   
 24  10  14  1   
 25  10  36  1   
 26  10  37  1   
 27  11  15  1   
 28  11  16  1   
 29  11  38  1   
 30  12  39  1   
 31  12  40  1   
 32  13  17  1   
 33  13  41  1   
 34  13  42  1   
 35  14  18  ar  
 36  14  19  ar  
 37  15  20  1   
 38  16  17  1   
 39  16  43  1   
 40  16  44  1   
 41  17  45  1   
 42  17  46  1   
 43  18  21  ar  
 44  18  47  1   
 45  19  22  ar  
 46  19  48  1   
 47  20  49  1   
 48  20  50  1   
 49  20  51  1   
 50  21  23  ar  
 51  21  52  1   
 52  22  23  ar  
 53  22  53  1   
 54  23  24  1   
 55  24  25  1   
 56  25  54  1   
 57  25  55  1   
 58  25  56  1   
@<TRIPOS>SUBSTRUCTURE
  1 ****   2 GROUP 4 **** **** 0

# MOE 2024.06 (io_trps.svl 2023.06)
