@<TRIPOS>MOLECULE
NONAME
61 63 1 0 0 
SMALL
USER_CHARGES


@<TRIPOS>ATOM
  1 O        1.4200    -1.1020     0.2030 O.3   1 <1>  -0.5600 
  2 C        0.7220    -2.1700    -0.3990 C.3   1 <1>   0.4180 
  3 C        1.5540     0.0810    -0.5420 C.3   1 <1>   0.1200 
  4 C       -0.4970    -1.6610    -1.1580 C.2   1 <1>  -0.2880 
  5 C        0.2830    -3.0870     0.7510 C.3   1 <1>  -0.1600 
  6 C        1.6840    -2.9400    -1.3120 C.3   1 <1>  -0.1600 
  7 C        0.1790     0.6970    -0.8320 C.3   1 <1>  -0.0220 
  8 C       -0.7680    -0.3690    -1.3510 C.2   1 <1>  -0.2760 
  9 C        1.4270    -3.9080     1.3610 C.3   1 <1>   0.3430 
 10 C        2.9240    -3.4500    -0.5670 C.3   1 <1>   0.3430 
 11 C       -2.0010     0.1530    -2.0690 C.3   1 <1>  -0.1020 
 12 N        2.7340    -3.3690     0.9140 N.4   1 <1>  -0.9590 
 13 C        3.9010    -3.8590     1.6890 C.3   1 <1>   0.4860 
 14 C        5.1080    -3.0360     1.2880 C.ar  1 <1>  -0.1430 
 15 C        5.2250    -1.7190     1.7030 C.ar  1 <1>  -0.1500 
 16 C        6.0890    -3.5840     0.4760 C.ar  1 <1>  -0.1500 
 17 C        6.3020    -0.9500     1.3030 C.ar  1 <1>   0.0820 
 18 C        7.1830    -2.8340     0.0700 C.ar  1 <1>  -0.1430 
 19 O        6.3080     0.3400     1.7240 O.3   1 <1>  -0.3620 
 20 C        7.3040    -1.5160     0.5030 C.ar  1 <1>   0.0820 
 21 C        8.2220    -3.4930    -0.8360 C.3   1 <1>   0.1220 
 22 C        6.4380     1.3570     0.7510 C.3   1 <1>   0.0400 
 23 O        8.4030    -0.8090     0.1460 O.3   1 <1>  -0.3630 
 24 C        7.5600    -4.0230    -2.0990 C.2   1 <1>  -0.2880 
 25 C        9.3440    -0.5740     1.1680 C.3   1 <1>   0.1200 
 26 C        7.5130    -5.3060    -2.4690 C.2   1 <1>  -0.3000 
 27 C       10.5270     0.1720     0.5600 C.3   1 <1>  -0.2400 
 28 H        2.0630    -0.1450    -1.4620 H     1 <1>   0.0800 
 29 H        2.1560     0.7680     0.0270 H     1 <1>   0.0800 
 30 H       -1.1330    -2.4480    -1.5220 H     1 <1>   0.1500 
 31 H       -0.4620    -3.7750     0.3960 H     1 <1>   0.0800 
 32 H       -0.1870    -2.4890     1.5120 H     1 <1>   0.0800 
 33 H        1.9820    -2.3280    -2.1430 H     1 <1>   0.0800 
 34 H        1.1640    -3.7830    -1.7280 H     1 <1>   0.0800 
 35 H        0.3010     1.4750    -1.5640 H     1 <1>   0.0800 
 36 H       -0.2220     1.1390     0.0630 H     1 <1>   0.0800 
 37 H        1.3380    -4.9370     1.0510 H     1 <1>   0.0800 
 38 H        1.3550    -3.8690     2.4360 H     1 <1>   0.0800 
 39 H        3.7700    -2.8410    -0.8460 H     1 <1>   0.0800 
 40 H        3.1330    -4.4650    -0.8630 H     1 <1>   0.0800 
 41 H       -2.5740     0.7820    -1.4110 H     1 <1>   0.0800 
 42 H       -2.6260    -0.6610    -2.3900 H     1 <1>   0.0800 
 43 H       -1.7160     0.7240    -2.9340 H     1 <1>   0.0800 
 44 H        2.6680    -2.3460     1.0840 H     1 <1>   0.4500 
 45 H        4.0770    -4.9020     1.4830 H     1 <1>   0.0800 
 46 H        3.7230    -3.7400     2.7460 H     1 <1>   0.0800 
 47 H        4.4840    -1.2620     2.3340 H     1 <1>   0.1500 
 48 H        6.0120    -4.6060     0.1440 H     1 <1>   0.1500 
 49 H        8.6920    -4.2980    -0.3010 H     1 <1>   0.0800 
 50 H        8.9950    -2.8020    -1.1210 H     1 <1>   0.0800 
 51 H        6.0890     2.2780     1.1810 H     1 <1>   0.0800 
 52 H        5.8440     1.1010    -0.1080 H     1 <1>   0.0800 
 53 H        7.4710     1.4570     0.4760 H     1 <1>   0.0800 
 54 H        7.1230    -3.2330    -2.6870 H     1 <1>   0.1500 
 55 H        9.6530    -1.5240     1.5690 H     1 <1>   0.0800 
 56 H        8.8780     0.0110     1.9420 H     1 <1>   0.0800 
 57 H        7.0430    -5.6530    -3.3740 H     1 <1>   0.1500 
 58 H        7.9450    -6.1180    -1.9090 H     1 <1>   0.1500 
 59 H       10.9780    -0.4200    -0.2170 H     1 <1>   0.0800 
 60 H       11.2650     0.3630     1.3180 H     1 <1>   0.0800 
 61 H       10.2020     1.1120     0.1530 H     1 <1>   0.0800 
@<TRIPOS>BOND
  1   1   2  1   
  2   1   3  1   
  3   2   4  1   
  4   2   5  1   
  5   2   6  1   
  6   3   7  1   
  7   3  28  1   
  8   3  29  1   
  9   4   8  2   
 10   4  30  1   
 11   5   9  1   
 12   5  31  1   
 13   5  32  1   
 14   6  10  1   
 15   6  33  1   
 16   6  34  1   
 17   7   8  1   
 18   7  35  1   
 19   7  36  1   
 20   8  11  1   
 21   9  12  1   
 22   9  37  1   
 23   9  38  1   
 24  10  12  1   
 25  10  39  1   
 26  10  40  1   
 27  11  41  1   
 28  11  42  1   
 29  11  43  1   
 30  12  13  1   
 31  12  44  1   
 32  13  14  1   
 33  13  45  1   
 34  13  46  1   
 35  14  15  ar  
 36  14  16  ar  
 37  15  17  ar  
 38  15  47  1   
 39  16  18  ar  
 40  16  48  1   
 41  17  19  1   
 42  17  20  ar  
 43  18  20  ar  
 44  18  21  1   
 45  19  22  1   
 46  20  23  1   
 47  21  24  1   
 48  21  49  1   
 49  21  50  1   
 50  22  51  1   
 51  22  52  1   
 52  22  53  1   
 53  23  25  1   
 54  24  26  2   
 55  24  54  1   
 56  25  27  1   
 57  25  55  1   
 58  25  56  1   
 59  26  57  1   
 60  26  58  1   
 61  27  59  1   
 62  27  60  1   
 63  27  61  1   
@<TRIPOS>SUBSTRUCTURE
  1 ****  14 GROUP 4 **** **** 0

# MOE 2024.06 (io_trps.svl 2023.06)
