@<TRIPOS>MOLECULE
NONAME
48 48 1 0 0 
SMALL
USER_CHARGES


@<TRIPOS>ATOM
  1 O       -0.1220    -0.5050    -0.7000 O.2   1 <1>  -0.5700 
  2 C        1.0260    -0.8240    -0.7750 C.2   1 <1>   0.4480 
  3 C        1.4240    -2.2950    -0.7070 C.3   1 <1>  -0.0190 
  4 C        2.1280     0.2090    -0.9690 C.3   1 <1>  -0.0990 
  5 C        0.1810    -3.1750    -0.9750 C.3   1 <1>   0.3430 
  6 C        2.0970    -2.6500     0.6340 C.3   1 <1>  -0.1600 
  7 C        2.0750     1.3600     0.0540 C.3   1 <1>  -0.0800 
  8 N        0.1610    -4.4390    -0.1600 N.4   1 <1>  -0.9590 
  9 C        2.4580    -4.1470     0.7000 C.3   1 <1>  -0.1600 
 10 C        3.1500     2.4030    -0.2720 C.3   1 <1>  -0.2400 
 11 C        2.2610     0.8610     1.4930 C.3   1 <1>  -0.2400 
 12 C        1.5110    -5.0640    -0.0870 C.3   1 <1>   0.3430 
 13 C       -0.8900    -5.3680    -0.6900 C.3   1 <1>   0.3430 
 14 C       -1.2060    -6.5230     0.2670 C.3   1 <1>   0.1200 
 15 O       -2.1810    -7.2970    -0.3420 O.3   1 <1>  -0.5600 
 16 C       -2.6160    -8.3820     0.4130 C.3   1 <1>   0.1200 
 17 C       -3.6770    -9.1210    -0.3990 C.3   1 <1>  -0.1600 
 18 C       -4.2160   -10.3370     0.3610 C.3   1 <1>  -0.2400 
 19 H        2.1240    -2.4750    -1.5030 H     1 <1>   0.0800 
 20 H        2.0170     0.6180    -1.9570 H     1 <1>   0.0800 
 21 H        3.0920    -0.2640    -0.9210 H     1 <1>   0.0800 
 22 H        0.1510    -3.4130    -2.0250 H     1 <1>   0.0800 
 23 H       -0.7130    -2.6160    -0.7490 H     1 <1>   0.0800 
 24 H        1.4200    -2.4100     1.4370 H     1 <1>   0.0800 
 25 H        2.9880    -2.0610     0.7800 H     1 <1>   0.0800 
 26 H        1.1110     1.8390    -0.0180 H     1 <1>   0.0800 
 27 H       -0.1030    -4.1630     0.7960 H     1 <1>   0.4500 
 28 H        2.4810    -4.4590     1.7310 H     1 <1>   0.0800 
 29 H        3.4530    -4.2930     0.3140 H     1 <1>   0.0800 
 30 H        4.1350     1.9740    -0.2050 H     1 <1>   0.0800 
 31 H        3.0900     3.2270     0.4180 H     1 <1>   0.0800 
 32 H        3.0090     2.7910    -1.2660 H     1 <1>   0.0800 
 33 H        3.2060     0.3610     1.6070 H     1 <1>   0.0800 
 34 H        1.4680     0.1900     1.7690 H     1 <1>   0.0800 
 35 H        2.2350     1.6930     2.1750 H     1 <1>   0.0800 
 36 H        1.8930    -5.2040    -1.0860 H     1 <1>   0.0800 
 37 H        1.4650    -6.0280     0.3930 H     1 <1>   0.0800 
 38 H       -0.5700    -5.7780    -1.6340 H     1 <1>   0.0800 
 39 H       -1.8030    -4.8180    -0.8540 H     1 <1>   0.0800 
 40 H       -1.5990    -6.1520     1.1990 H     1 <1>   0.0800 
 41 H       -0.3440    -7.1430     0.4350 H     1 <1>   0.0800 
 42 H       -3.0340    -8.0220     1.3380 H     1 <1>   0.0800 
 43 H       -1.7780    -9.0290     0.6130 H     1 <1>   0.0800 
 44 H       -3.2480    -9.4480    -1.3300 H     1 <1>   0.0800 
 45 H       -4.4910    -8.4490    -0.6130 H     1 <1>   0.0800 
 46 H       -3.4240   -11.0340     0.5710 H     1 <1>   0.0800 
 47 H       -4.9610   -10.8390    -0.2320 H     1 <1>   0.0800 
 48 H       -4.6690   -10.0340     1.2890 H     1 <1>   0.0800 
@<TRIPOS>BOND
  1   1   2  2   
  2   2   3  1   
  3   2   4  1   
  4   3   5  1   
  5   3   6  1   
  6   3  19  1   
  7   4   7  1   
  8   4  20  1   
  9   4  21  1   
 10   5   8  1   
 11   5  22  1   
 12   5  23  1   
 13   6   9  1   
 14   6  24  1   
 15   6  25  1   
 16   7  10  1   
 17   7  11  1   
 18   7  26  1   
 19   8  12  1   
 20   8  13  1   
 21   8  27  1   
 22   9  12  1   
 23   9  28  1   
 24   9  29  1   
 25  10  30  1   
 26  10  31  1   
 27  10  32  1   
 28  11  33  1   
 29  11  34  1   
 30  11  35  1   
 31  12  36  1   
 32  12  37  1   
 33  13  14  1   
 34  13  38  1   
 35  13  39  1   
 36  14  15  1   
 37  14  40  1   
 38  14  41  1   
 39  15  16  1   
 40  16  17  1   
 41  16  42  1   
 42  16  43  1   
 43  17  18  1   
 44  17  44  1   
 45  17  45  1   
 46  18  46  1   
 47  18  47  1   
 48  18  48  1   
@<TRIPOS>SUBSTRUCTURE
  1 ****   8 GROUP 4 **** **** 0

# MOE 2024.06 (io_trps.svl 2023.06)
