@<TRIPOS>MOLECULE
NONAME
56 59 1 0 0 
SMALL
USER_CHARGES


@<TRIPOS>ATOM
  1 S       -2.6790     0.8840     1.0190 S.o2  1 <1>   1.0900 
  2 O       -4.0810     1.0570     0.6940 O.2   1 <1>  -0.6500 
  3 O       -2.2480     1.1060     2.3760 O.2   1 <1>  -0.6500 
  4 C       -2.1630    -0.7730     0.5460 C.3   1 <1>  -0.0550 
  5 C       -1.7210     1.9480    -0.0440 C.3   1 <1>  -0.1350 
  6 C       -2.6450    -1.2050    -0.8530 C.3   1 <1>  -0.0990 
  7 C       -3.3350    -2.5590    -0.8610 C.2   1 <1>   0.5690 
  8 O       -2.7920    -3.4590    -1.4510 O.2   1 <1>  -0.5700 
  9 N       -4.5460    -2.7290    -0.2490 N.am  1 <1>  -0.6600 
 10 C       -5.4690    -3.8280    -0.6390 C.3   1 <1>   0.1400 
 11 C       -5.2670    -1.7200     0.5560 C.3   1 <1>   0.1400 
 12 C       -6.8580    -3.3500    -0.2110 C.3   1 <1>   0.2800 
 13 C       -6.6470    -2.3130     0.8850 C.3   1 <1>  -0.0800 
 14 O       -7.5080    -2.5730    -1.1570 O.3   1 <1>  -0.5600 
 15 C       -7.9410    -4.3630     0.1550 C.3   1 <1>  -0.1600 
 16 C       -7.9030    -1.4210     0.7210 C.3   1 <1>  -0.0800 
 17 C       -8.6000    -2.1540    -0.4350 C.3   1 <1>   0.2000 
 18 C       -9.1960    -3.4940     0.0210 C.3   1 <1>  -0.1600 
 19 C       -7.5750     0.0340     0.3420 C.3   1 <1>   0.3430 
 20 N       -8.7840     0.9000     0.2250 N.4   1 <1>  -0.9590 
 21 C       -8.4090     2.1720    -0.4590 C.3   1 <1>   0.3430 
 22 C       -9.4240     1.1710     1.5470 C.3   1 <1>   0.3430 
 23 C       -9.6620     3.0130    -0.7110 C.3   1 <1>  -0.1600 
 24 C      -10.7020     1.9870     1.3430 C.3   1 <1>  -0.1600 
 25 C      -10.4260     3.2940     0.5890 C.3   1 <1>  -0.1600 
 26 H       -1.0930    -0.8470     0.5860 H     1 <1>   0.0800 
 27 H       -2.5360    -1.4690     1.2730 H     1 <1>   0.0800 
 28 H       -1.9510     1.7660    -1.0760 H     1 <1>   0.0800 
 29 H       -0.6720     1.7900     0.1120 H     1 <1>   0.0800 
 30 H       -1.9400     2.9760     0.1750 H     1 <1>   0.0800 
 31 H       -3.3300    -0.4890    -1.2680 H     1 <1>   0.0800 
 32 H       -1.8000    -1.2500    -1.5170 H     1 <1>   0.0800 
 33 H       -5.4300    -4.0220    -1.6970 H     1 <1>   0.0800 
 34 H       -5.1950    -4.7170    -0.0980 H     1 <1>   0.0800 
 35 H       -4.7310    -1.4950     1.4620 H     1 <1>   0.0800 
 36 H       -5.3410    -0.8420    -0.0520 H     1 <1>   0.0800 
 37 H       -6.6090    -2.7880     1.8500 H     1 <1>   0.0800 
 38 H       -7.9510    -5.1680    -0.5590 H     1 <1>   0.0800 
 39 H       -7.8070    -4.7600     1.1450 H     1 <1>   0.0800 
 40 H       -8.4940    -1.4540     1.6170 H     1 <1>   0.0800 
 41 H       -9.2620    -1.5620    -1.0440 H     1 <1>   0.0800 
 42 H       -9.7400    -3.4060     0.9450 H     1 <1>   0.0800 
 43 H       -9.8480    -3.8860    -0.7400 H     1 <1>   0.0800 
 44 H       -7.0600     0.0210    -0.6060 H     1 <1>   0.0800 
 45 H       -6.9020     0.4540     1.0730 H     1 <1>   0.0800 
 46 H       -9.4740     0.4330    -0.3760 H     1 <1>   0.4500 
 47 H       -7.7190     2.7280     0.1560 H     1 <1>   0.0800 
 48 H       -7.9260     1.9580    -1.4000 H     1 <1>   0.0800 
 49 H       -9.6700     0.2450     2.0420 H     1 <1>   0.0800 
 50 H       -8.7420     1.7210     2.1760 H     1 <1>   0.0800 
 51 H       -9.3730     3.9470    -1.1610 H     1 <1>   0.0800 
 52 H      -10.3010     2.5030    -1.4110 H     1 <1>   0.0800 
 53 H      -11.4230     1.3960     0.8040 H     1 <1>   0.0800 
 54 H      -11.1300     2.2150     2.3040 H     1 <1>   0.0800 
 55 H      -11.3550     3.7940     0.3680 H     1 <1>   0.0800 
 56 H       -9.8420     3.9500     1.2130 H     1 <1>   0.0800 
@<TRIPOS>BOND
  1   1   2  2   
  2   1   3  2   
  3   1   4  1   
  4   1   5  1   
  5   4   6  1   
  6   4  26  1   
  7   4  27  1   
  8   5  28  1   
  9   5  29  1   
 10   5  30  1   
 11   6   7  1   
 12   6  31  1   
 13   6  32  1   
 14   7   8  2   
 15   7   9  am  
 16   9  10  1   
 17   9  11  1   
 18  10  12  1   
 19  10  33  1   
 20  10  34  1   
 21  11  13  1   
 22  11  35  1   
 23  11  36  1   
 24  12  13  1   
 25  12  14  1   
 26  12  15  1   
 27  13  16  1   
 28  13  37  1   
 29  14  17  1   
 30  15  18  1   
 31  15  38  1   
 32  15  39  1   
 33  16  17  1   
 34  16  19  1   
 35  16  40  1   
 36  17  18  1   
 37  17  41  1   
 38  18  42  1   
 39  18  43  1   
 40  19  20  1   
 41  19  44  1   
 42  19  45  1   
 43  20  21  1   
 44  20  22  1   
 45  20  46  1   
 46  21  23  1   
 47  21  47  1   
 48  21  48  1   
 49  22  24  1   
 50  22  49  1   
 51  22  50  1   
 52  23  25  1   
 53  23  51  1   
 54  23  52  1   
 55  24  25  1   
 56  24  53  1   
 57  24  54  1   
 58  25  55  1   
 59  25  56  1   
@<TRIPOS>SUBSTRUCTURE
  1 ****  11 GROUP 4 **** **** 0

# MOE 2024.06 (io_trps.svl 2023.06)
