@<TRIPOS>MOLECULE
NONAME
46 49 1 0 0 
SMALL
USER_CHARGES


@<TRIPOS>ATOM
  1 S        1.5670     1.2840     1.8260 S.3   1 <1>  -0.0800 
  2 C        1.9360     0.4660     0.3160 C.2   1 <1>   0.3250 
  3 C        0.1630     0.2960     2.0220 C.2   1 <1>  -0.1100 
  4 N        1.0710    -0.4440     0.0350 N.2   1 <1>  -0.5650 
  5 C        3.1050     0.8590    -0.4460 C.ar  1 <1>   0.0530 
  6 C        0.0510    -0.5680     0.9910 C.2   1 <1>   0.1410 
  7 C        3.2860     0.3740    -1.7430 C.ar  1 <1>  -0.1500 
  8 C        4.0930     1.7160     0.0510 C.ar  1 <1>  -0.1500 
  9 C       -1.0440    -1.5320     0.8570 C.2   1 <1>   0.7160 
 10 C        4.3850     0.7210    -2.5060 C.ar  1 <1>  -0.1500 
 11 C        5.1950     2.0680    -0.7070 C.ar  1 <1>  -0.1500 
 12 O       -2.0810    -1.3070     1.4570 O.2   1 <1>  -0.5700 
 13 N       -0.9480    -2.6950     0.1020 N.am  1 <1>  -0.6600 
 14 C        5.3440     1.5710    -1.9880 C.ar  1 <1>  -0.1500 
 15 C       -2.1080    -3.4090    -0.5060 C.3   1 <1>   0.2200 
 16 C        0.3650    -3.3500    -0.1610 C.3   1 <1>   0.0600 
 17 C       -2.9560    -4.1630     0.5140 C.3   1 <1>  -0.1600 
 18 C       -3.0870    -2.5040    -1.2500 C.3   1 <1>  -0.1600 
 19 C       -4.3120    -4.3680    -0.1780 C.3   1 <1>  -0.0800 
 20 C       -4.3860    -3.3170    -1.3160 C.3   1 <1>  -0.0800 
 21 C       -5.4910    -4.3450     0.8150 C.3   1 <1>   0.1400 
 22 C       -5.6500    -2.4330    -1.2860 C.3   1 <1>  -0.0990 
 23 N       -6.7530    -4.1450     0.0720 N.am  1 <1>  -0.7300 
 24 C       -6.8710    -3.2540    -0.9340 C.2   1 <1>   0.5690 
 25 O       -7.9080    -3.1070    -1.5290 O.2   1 <1>  -0.5700 
 26 H       -0.4570     0.4480     2.8870 H     1 <1>   0.1500 
 27 H        2.5460    -0.2880    -2.1600 H     1 <1>   0.1500 
 28 H        4.0120     2.1180     1.0440 H     1 <1>   0.1500 
 29 H        4.4940     0.3310    -3.5030 H     1 <1>   0.1500 
 30 H        5.9400     2.7300    -0.3000 H     1 <1>   0.1500 
 31 H        6.2020     1.8450    -2.5790 H     1 <1>   0.1500 
 32 H       -1.7410    -4.1270    -1.2200 H     1 <1>   0.0800 
 33 H        0.2680    -4.4190    -0.0890 H     1 <1>   0.0800 
 34 H        1.0990    -3.0310     0.5580 H     1 <1>   0.0800 
 35 H        0.7070    -3.0890    -1.1480 H     1 <1>   0.0800 
 36 H       -2.5030    -5.1000     0.7830 H     1 <1>   0.0800 
 37 H       -3.0850    -3.5660     1.3980 H     1 <1>   0.0800 
 38 H       -3.2590    -1.5980    -0.7010 H     1 <1>   0.0800 
 39 H       -2.7240    -2.2580    -2.2320 H     1 <1>   0.0800 
 40 H       -4.3020    -5.3410    -0.6390 H     1 <1>   0.0800 
 41 H       -4.3940    -3.8620    -2.2460 H     1 <1>   0.0800 
 42 H       -5.3740    -3.5310     1.5120 H     1 <1>   0.0800 
 43 H       -5.5300    -5.2680     1.3670 H     1 <1>   0.0800 
 44 H       -5.7950    -1.9590    -2.2390 H     1 <1>   0.0800 
 45 H       -5.5540    -1.6660    -0.5390 H     1 <1>   0.0800 
 46 H       -7.5840    -4.6710     0.3460 H     1 <1>   0.3700 
@<TRIPOS>BOND
  1   1   2  1   
  2   1   3  1   
  3   2   4  2   
  4   2   5  1   
  5   3   6  2   
  6   3  26  1   
  7   4   6  1   
  8   5   7  ar  
  9   5   8  ar  
 10   6   9  1   
 11   7  10  ar  
 12   7  27  1   
 13   8  11  ar  
 14   8  28  1   
 15   9  12  2   
 16   9  13  am  
 17  10  14  ar  
 18  10  29  1   
 19  11  14  ar  
 20  11  30  1   
 21  13  15  1   
 22  13  16  1   
 23  14  31  1   
 24  15  17  1   
 25  15  18  1   
 26  15  32  1   
 27  16  33  1   
 28  16  34  1   
 29  16  35  1   
 30  17  19  1   
 31  17  36  1   
 32  17  37  1   
 33  18  20  1   
 34  18  38  1   
 35  18  39  1   
 36  19  20  1   
 37  19  21  1   
 38  19  40  1   
 39  20  22  1   
 40  20  41  1   
 41  21  23  1   
 42  21  42  1   
 43  21  43  1   
 44  22  24  1   
 45  22  44  1   
 46  22  45  1   
 47  23  24  am  
 48  23  46  1   
 49  24  25  2   
@<TRIPOS>SUBSTRUCTURE
  1 ****   9 GROUP 4 **** **** 0

# MOE 2024.06 (io_trps.svl 2023.06)
