@<TRIPOS>MOLECULE
NONAME
49 51 1 0 0 
SMALL
USER_CHARGES


@<TRIPOS>ATOM
  1 O        1.4880     1.7330    -1.0920 O.2   1 <1>  -0.5700 
  2 C        0.2800     1.7630    -1.1370 C.2   1 <1>   0.5690 
  3 N       -0.3270     1.4920    -2.3180 N.am  1 <1>  -0.8000 
  4 C       -0.5300     2.0900     0.1530 C.3   1 <1>   0.4940 
  5 N       -0.5120     3.5320     0.5530 N.pl3 1 <1>  -0.8690 
  6 C       -1.9990     1.6810     0.0210 C.ar  1 <1>  -0.1430 
  7 C        0.5290     4.3570     0.7320 C.ar  1 <1>   0.4100 
  8 C       -2.4640     0.5460     0.6730 C.ar  1 <1>  -0.1500 
  9 C       -2.8850     2.4250    -0.7500 C.ar  1 <1>  -0.1500 
 10 N        0.2350     5.6340     0.6770 N.ar  1 <1>  -0.6200 
 11 C        1.8380     3.9000     0.9610 C.ar  1 <1>  -0.1500 
 12 C       -3.7890     0.1620     0.5540 C.ar  1 <1>  -0.1500 
 13 C       -4.2090     2.0420    -0.8680 C.ar  1 <1>  -0.1500 
 14 C        1.2270     6.5090     0.7800 C.ar  1 <1>   0.7710 
 15 C        2.8400     4.8030     1.0680 C.ar  1 <1>   0.2180 
 16 C       -4.6620     0.9090    -0.2160 C.ar  1 <1>  -0.1500 
 17 N        2.5000     6.1100     0.9670 N.ar  1 <1>  -0.1790 
 18 N        0.9540     7.8400     0.7010 N.pl3 1 <1>  -0.8380 
 19 C        4.2970     4.4240     1.2960 C.3   1 <1>  -0.0170 
 20 C       -0.4640     8.3610     0.6600 C.3   1 <1>   0.2090 
 21 C        1.9390     8.9770     0.6110 C.3   1 <1>   0.2090 
 22 C        5.1920     4.8440     0.1230 C.3   1 <1>  -0.2400 
 23 C       -0.6690     9.3350    -0.5130 C.3   1 <1>   0.1200 
 24 C        1.6020     9.9120    -0.5660 C.3   1 <1>   0.1200 
 25 O        0.2830    10.3580    -0.4730 O.3   1 <1>  -0.5600 
 26 H        0.2320     1.2500    -3.1380 H     1 <1>   0.3700 
 27 H       -1.3420     1.4150    -2.4180 H     1 <1>   0.3700 
 28 H       -0.0880     1.5230     0.9530 H     1 <1>   0.0800 
 29 H       -1.4430     3.9540     0.5260 H     1 <1>   0.4000 
 30 H       -1.8030    -0.0500     1.2790 H     1 <1>   0.1500 
 31 H       -2.5520     3.3100    -1.2680 H     1 <1>   0.1500 
 32 H        2.0210     2.8460     1.0450 H     1 <1>   0.1500 
 33 H       -4.1420    -0.7180     1.0630 H     1 <1>   0.1500 
 34 H       -4.8900     2.6240    -1.4650 H     1 <1>   0.1500 
 35 H       -5.6920     0.6100    -0.3050 H     1 <1>   0.1500 
 36 H        3.1890     6.8420     1.0500 H     1 <1>   0.4570 
 37 H        4.6540     4.8740     2.2070 H     1 <1>   0.0800 
 38 H        4.3710     3.3560     1.4170 H     1 <1>   0.0800 
 39 H       -1.1860     7.5680     0.5710 H     1 <1>   0.0800 
 40 H       -0.6770     8.8800     1.5790 H     1 <1>   0.0800 
 41 H        1.9030     9.5510     1.5220 H     1 <1>   0.0800 
 42 H        2.9440     8.6220     0.4800 H     1 <1>   0.0800 
 43 H        5.2140     5.9110     0.0000 H     1 <1>   0.0800 
 44 H        4.8450     4.3940    -0.7930 H     1 <1>   0.0800 
 45 H        6.2000     4.5060     0.2960 H     1 <1>   0.0800 
 46 H       -1.6420     9.7900    -0.4510 H     1 <1>   0.0800 
 47 H       -0.5890     8.8200    -1.4540 H     1 <1>   0.0800 
 48 H        1.7290     9.4090    -1.5090 H     1 <1>   0.0800 
 49 H        2.2390    10.7790    -0.5490 H     1 <1>   0.0800 
@<TRIPOS>BOND
  1   1   2  2   
  2   2   3  am  
  3   2   4  1   
  4   3  26  1   
  5   3  27  1   
  6   4   5  1   
  7   4   6  1   
  8   4  28  1   
  9   5   7  1   
 10   5  29  1   
 11   6   8  ar  
 12   6   9  ar  
 13   7  10  ar  
 14   7  11  ar  
 15   8  12  ar  
 16   8  30  1   
 17   9  13  ar  
 18   9  31  1   
 19  10  14  ar  
 20  11  15  ar  
 21  11  32  1   
 22  12  16  ar  
 23  12  33  1   
 24  13  16  ar  
 25  13  34  1   
 26  14  17  ar  
 27  14  18  1   
 28  15  17  ar  
 29  15  19  1   
 30  16  35  1   
 31  17  36  1   
 32  18  20  1   
 33  18  21  1   
 34  19  22  1   
 35  19  37  1   
 36  19  38  1   
 37  20  23  1   
 38  20  39  1   
 39  20  40  1   
 40  21  24  1   
 41  21  41  1   
 42  21  42  1   
 43  22  43  1   
 44  22  44  1   
 45  22  45  1   
 46  23  25  1   
 47  23  46  1   
 48  23  47  1   
 49  24  25  1   
 50  24  48  1   
 51  24  49  1   
@<TRIPOS>SUBSTRUCTURE
  1 ****   7 GROUP 4 **** **** 0

# MOE 2024.06 (io_trps.svl 2023.06)
