@<TRIPOS>MOLECULE
NONAME
55 57 1 0 0 
SMALL
USER_CHARGES


@<TRIPOS>ATOM
  1 O       -0.7360     0.1120     0.1400 O.2   1 <1>  -0.5700 
  2 C       -1.6690     0.8260     0.4500 C.2   1 <1>   0.5440 
  3 N       -2.8920     0.2410     0.6950 N.am  1 <1>  -0.6600 
  4 C       -1.4770     2.2500     0.5280 C.ar  1 <1>   0.0860 
  5 C       -3.0090    -1.2290     0.9550 C.3   1 <1>   0.1400 
  6 C       -4.1810     0.8350     0.2220 C.3   1 <1>   0.1400 
  7 C       -2.1410     3.0510     1.4400 C.ar  1 <1>   0.1600 
  8 C       -0.6040     2.9200    -0.3100 C.ar  1 <1>   0.1600 
  9 C       -3.6430    -1.9510    -0.2470 C.3   1 <1>   0.3440 
 10 C       -4.7670     0.0070    -0.9470 C.3   1 <1>   0.2000 
 11 N       -1.9970     4.3520     1.4980 N.ar  1 <1>  -0.6200 
 12 N       -0.4320     4.2200    -0.2800 N.ar  1 <1>  -0.6200 
 13 O       -4.8650    -1.3420    -0.5790 O.3   1 <1>  -0.5600 
 14 C       -3.8730    -3.4240     0.0760 C.ar  1 <1>  -0.1430 
 15 C       -6.1610     0.4760    -1.4220 C.3   1 <1>  -0.0800 
 16 C       -1.1450     4.8790     0.6290 C.ar  1 <1>   0.7200 
 17 C       -2.8810    -4.3490    -0.2130 C.ar  1 <1>  -0.1500 
 18 C       -5.0500    -3.8620     0.6690 C.ar  1 <1>  -0.1500 
 19 C       -6.1290     1.9090    -1.9750 C.3   1 <1>  -0.2400 
 20 C       -7.2520     0.3640    -0.3420 C.3   1 <1>  -0.2400 
 21 N       -1.0210     6.2160     0.7100 N.pl3 1 <1>  -0.8690 
 22 C       -3.0600    -5.6890     0.0850 C.ar  1 <1>  -0.1500 
 23 C       -5.2310    -5.2010     0.9680 C.ar  1 <1>  -0.1500 
 24 C       -0.1200     7.0840    -0.0470 C.3   1 <1>   0.2890 
 25 C       -4.2350    -6.1160     0.6760 C.ar  1 <1>  -0.1500 
 26 C        0.8040     7.7780     0.9450 C.3   1 <1>  -0.2400 
 27 C       -0.9710     8.0900    -0.8120 C.3   1 <1>  -0.2400 
 28 H       -2.0430    -1.6580     1.1560 H     1 <1>   0.0800 
 29 H       -3.6230    -1.3900     1.8230 H     1 <1>   0.0800 
 30 H       -4.8780     0.8520     1.0400 H     1 <1>   0.0800 
 31 H       -4.0290     1.8460    -0.1090 H     1 <1>   0.0800 
 32 H       -2.8140     2.5900     2.1430 H     1 <1>   0.1500 
 33 H       -0.0360     2.3520    -1.0280 H     1 <1>   0.1500 
 34 H       -2.9900    -1.8720    -1.0990 H     1 <1>   0.0800 
 35 H       -4.0910     0.0640    -1.7840 H     1 <1>   0.0800 
 36 H       -6.4400    -0.1720    -2.2360 H     1 <1>   0.0800 
 37 H       -1.9600    -4.0320    -0.6720 H     1 <1>   0.1500 
 38 H       -5.8320    -3.1580     0.8960 H     1 <1>   0.1500 
 39 H       -5.9300     2.6250    -1.1980 H     1 <1>   0.0800 
 40 H       -7.0780     2.1530    -2.4190 H     1 <1>   0.0800 
 41 H       -5.3730     2.0010    -2.7360 H     1 <1>   0.0800 
 42 H       -7.0710     1.0410     0.4720 H     1 <1>   0.0800 
 43 H       -7.2930    -0.6390     0.0450 H     1 <1>   0.0800 
 44 H       -8.2140     0.5950    -0.7650 H     1 <1>   0.0800 
 45 H       -1.5750     6.6550     1.4400 H     1 <1>   0.4000 
 46 H       -2.2840    -6.3990    -0.1430 H     1 <1>   0.1500 
 47 H       -6.1480    -5.5300     1.4250 H     1 <1>   0.1500 
 48 H        0.4670     6.5060    -0.7430 H     1 <1>   0.0800 
 49 H       -4.3760    -7.1570     0.9080 H     1 <1>   0.1500 
 50 H        0.2400     8.3650     1.6460 H     1 <1>   0.0800 
 51 H        1.4830     8.4250     0.4200 H     1 <1>   0.0800 
 52 H        1.3810     7.0430     1.4770 H     1 <1>   0.0800 
 53 H       -1.5640     8.6790    -0.1360 H     1 <1>   0.0800 
 54 H       -1.6200     7.5700    -1.4940 H     1 <1>   0.0800 
 55 H       -0.3390     8.7470    -1.3800 H     1 <1>   0.0800 
@<TRIPOS>BOND
  1   1   2  2   
  2   2   3  am  
  3   2   4  1   
  4   3   5  1   
  5   3   6  1   
  6   4   7  ar  
  7   4   8  ar  
  8   5   9  1   
  9   5  28  1   
 10   5  29  1   
 11   6  10  1   
 12   6  30  1   
 13   6  31  1   
 14   7  11  ar  
 15   7  32  1   
 16   8  12  ar  
 17   8  33  1   
 18   9  13  1   
 19   9  14  1   
 20   9  34  1   
 21  10  13  1   
 22  10  15  1   
 23  10  35  1   
 24  11  16  ar  
 25  12  16  ar  
 26  14  17  ar  
 27  14  18  ar  
 28  15  19  1   
 29  15  20  1   
 30  15  36  1   
 31  16  21  1   
 32  17  22  ar  
 33  17  37  1   
 34  18  23  ar  
 35  18  38  1   
 36  19  39  1   
 37  19  40  1   
 38  19  41  1   
 39  20  42  1   
 40  20  43  1   
 41  20  44  1   
 42  21  24  1   
 43  21  45  1   
 44  22  25  ar  
 45  22  46  1   
 46  23  25  ar  
 47  23  47  1   
 48  24  26  1   
 49  24  27  1   
 50  24  48  1   
 51  25  49  1   
 52  26  50  1   
 53  26  51  1   
 54  26  52  1   
 55  27  53  1   
 56  27  54  1   
 57  27  55  1   
@<TRIPOS>SUBSTRUCTURE
  1 ****   3 GROUP 4 **** **** 0

# MOE 2024.06 (io_trps.svl 2023.06)
