@<TRIPOS>MOLECULE
NONAME
50 52 1 0 0 
SMALL
USER_CHARGES


@<TRIPOS>ATOM
  1 O        1.3170     0.1890    -1.9720 O.2   1 <1>  -0.5700 
  2 C        2.0060    -0.5290    -1.2920 C.2   1 <1>   0.5690 
  3 N        2.9930    -0.0060    -0.4840 N.am  1 <1>  -0.6600 
  4 C        1.7150    -2.0110    -1.3800 C.3   1 <1>   0.1570 
  5 C        3.9790    -0.7920     0.3350 C.3   1 <1>   0.1400 
  6 C        3.0090     1.4590    -0.2040 C.3   1 <1>   0.1400 
  7 N        1.1310    -2.4560    -0.1140 N.pl3 1 <1>   0.3140 
  8 C        5.4490    -0.5990    -0.1040 C.3   1 <1>   0.3430 
  9 C        3.9360     2.1860    -1.1810 C.3   1 <1>  -0.1600 
 10 N        1.7280    -3.3130     0.6840 N.2   1 <1>  -0.4180 
 11 C        0.0080    -2.0840     0.4690 C.2   1 <1>   0.0360 
 12 N        5.8360     0.8240    -0.3550 N.4   1 <1>  -0.9590 
 13 C        5.2010     1.4190    -1.5600 C.3   1 <1>   0.3430 
 14 N        0.9680    -3.4390     1.7120 N.2   1 <1>   0.0000 
 15 N       -0.1130    -2.6740     1.5940 N.2   1 <1>  -0.3380 
 16 C        7.3060     1.0380    -0.3470 C.3   1 <1>   0.5230 
 17 C        7.5480     2.3860     0.3170 C.2   1 <1>   0.0070 
 18 N        6.6570     2.9710     1.0630 N.2   1 <1>  -0.5650 
 19 N        8.7070     3.0850     0.1980 N.pl3 1 <1>   0.0480 
 20 C        7.2620     4.1070     1.4530 C.2   1 <1>   0.0770 
 21 C        8.5050     4.1920     0.9360 C.2   1 <1>  -0.3020 
 22 C        9.9370     2.7970    -0.5800 C.3   1 <1>   0.0960 
 23 C       10.7580     1.6570     0.0300 C.3   1 <1>   0.1200 
 24 O       10.0520     0.4580    -0.0780 O.3   1 <1>  -0.5600 
 25 C       10.7560    -0.6390     0.4190 C.3   1 <1>   0.0400 
 26 H        2.6150    -2.5600    -1.5770 H     1 <1>   0.0800 
 27 H        1.0120    -2.1980    -2.1700 H     1 <1>   0.0800 
 28 H        3.7650    -1.8420     0.2900 H     1 <1>   0.0800 
 29 H        3.8810    -0.5040     1.3690 H     1 <1>   0.0800 
 30 H        3.3360     1.6310     0.8080 H     1 <1>   0.0800 
 31 H        2.0130     1.8650    -0.2860 H     1 <1>   0.0800 
 32 H        5.6190    -1.1750    -0.9980 H     1 <1>   0.0800 
 33 H        6.0800    -1.0110     0.6670 H     1 <1>   0.0800 
 34 H        4.2070     3.1390    -0.7620 H     1 <1>   0.0800 
 35 H        3.3850     2.3900    -2.0820 H     1 <1>   0.0800 
 36 H       -0.6870    -1.3800     0.0480 H     1 <1>   0.1500 
 37 H        5.5550     1.4240     0.4450 H     1 <1>   0.4500 
 38 H        5.8810     2.1010    -2.0450 H     1 <1>   0.0800 
 39 H        4.9490     0.6380    -2.2600 H     1 <1>   0.0800 
 40 H        7.7100     1.0190    -1.3450 H     1 <1>   0.0800 
 41 H        7.7900     0.2770     0.2410 H     1 <1>   0.0800 
 42 H        6.7680     4.8180     2.0970 H     1 <1>   0.1500 
 43 H        9.2370     4.9710     1.0570 H     1 <1>   0.1500 
 44 H       10.5400     3.6870    -0.5970 H     1 <1>   0.0800 
 45 H        9.6760     2.5580    -1.5950 H     1 <1>   0.0800 
 46 H       10.9640     1.8560     1.0690 H     1 <1>   0.0800 
 47 H       11.6880     1.5530    -0.5040 H     1 <1>   0.0800 
 48 H       10.1490    -1.5190     0.2970 H     1 <1>   0.0800 
 49 H       10.9660    -0.4870     1.4650 H     1 <1>   0.0800 
 50 H       11.6730    -0.7570    -0.1340 H     1 <1>   0.0800 
@<TRIPOS>BOND
  1   1   2  2   
  2   2   3  am  
  3   2   4  1   
  4   3   5  1   
  5   3   6  1   
  6   4   7  1   
  7   4  26  1   
  8   4  27  1   
  9   5   8  1   
 10   5  28  1   
 11   5  29  1   
 12   6   9  1   
 13   6  30  1   
 14   6  31  1   
 15   7  10  1   
 16   7  11  1   
 17   8  12  1   
 18   8  32  1   
 19   8  33  1   
 20   9  13  1   
 21   9  34  1   
 22   9  35  1   
 23  10  14  2   
 24  11  15  2   
 25  11  36  1   
 26  12  13  1   
 27  12  16  1   
 28  12  37  1   
 29  13  38  1   
 30  13  39  1   
 31  14  15  1   
 32  16  17  1   
 33  16  40  1   
 34  16  41  1   
 35  17  18  2   
 36  17  19  1   
 37  18  20  1   
 38  19  21  1   
 39  19  22  1   
 40  20  21  2   
 41  20  42  1   
 42  21  43  1   
 43  22  23  1   
 44  22  44  1   
 45  22  45  1   
 46  23  24  1   
 47  23  46  1   
 48  23  47  1   
 49  24  25  1   
 50  25  48  1   
 51  25  49  1   
 52  25  50  1   
@<TRIPOS>SUBSTRUCTURE
  1 ****  12 GROUP 4 **** **** 0

# MOE 2024.06 (io_trps.svl 2023.06)
