@<TRIPOS>MOLECULE
NONAME
35 38 1 0 0 
SMALL
USER_CHARGES


@<TRIPOS>ATOM
  1 S       -0.2350    -0.2400     1.2660 S.3   1 <1>  -0.0800 
  2 C       -0.4140    -1.4230    -0.0320 C.2   1 <1>   0.4620 
  3 C        1.4920    -0.2750     1.0500 C.2   1 <1>  -0.1100 
  4 N        0.7100    -1.7810    -0.5420 N.2   1 <1>  -0.5650 
  5 N       -1.6700    -1.8690    -0.3940 N.pl3 1 <1>  -0.8220 
  6 C        1.7720    -1.1370     0.0630 C.2   1 <1>   0.0770 
  7 C       -1.8380    -2.8800    -1.4710 C.3   1 <1>   0.2090 
  8 C       -2.9410    -1.4880     0.2750 C.3   1 <1>   0.2090 
  9 C       -2.4320    -4.1470    -0.8600 C.3   1 <1>  -0.1600 
 10 C       -3.5420    -2.7380     0.9140 C.3   1 <1>  -0.1600 
 11 C       -3.7420    -3.8560    -0.1190 C.3   1 <1>   0.4610 
 12 O       -4.6600    -3.4170    -1.1060 O.3   1 <1>  -0.5600 
 13 C       -4.2680    -5.1300     0.5480 C.2   1 <1>  -0.1810 
 14 C       -6.0370    -3.4700    -0.8190 C.3   1 <1>   0.1200 
 15 C       -5.5040    -5.5800     0.3000 C.2   1 <1>  -0.1400 
 16 C       -3.5460    -5.9590     1.4720 C.2   1 <1>  -0.1500 
 17 C       -6.5060    -4.9180    -0.6060 C.3   1 <1>   0.0200 
 18 S       -5.8490    -7.0600     1.1700 S.3   1 <1>  -0.0800 
 19 C       -4.2480    -7.0280     1.8960 C.2   1 <1>  -0.1100 
 20 H        2.0960     0.3490     1.6810 H     1 <1>   0.1500 
 21 H        2.7610    -1.3680    -0.2950 H     1 <1>   0.1500 
 22 H       -0.8950    -3.1070    -1.9360 H     1 <1>   0.0800 
 23 H       -2.4970    -2.4880    -2.2270 H     1 <1>   0.0800 
 24 H       -3.6190    -1.0880    -0.4600 H     1 <1>   0.0800 
 25 H       -2.7850    -0.7360     1.0260 H     1 <1>   0.0800 
 26 H       -1.7100    -4.5600    -0.1810 H     1 <1>   0.0800 
 27 H       -2.6130    -4.8760    -1.6280 H     1 <1>   0.0800 
 28 H       -4.4720    -2.5010     1.3920 H     1 <1>   0.0800 
 29 H       -2.8700    -3.0810     1.6790 H     1 <1>   0.0800 
 30 H       -6.5630    -3.0280    -1.6470 H     1 <1>   0.0800 
 31 H       -6.2260    -2.8820     0.0610 H     1 <1>   0.0800 
 32 H       -2.5420    -5.7180     1.7730 H     1 <1>   0.1500 
 33 H       -6.5520    -5.4380    -1.5450 H     1 <1>   0.0800 
 34 H       -7.4820    -4.9240    -0.1560 H     1 <1>   0.0800 
 35 H       -3.9990    -7.8250     2.5730 H     1 <1>   0.1500 
@<TRIPOS>BOND
  1   1   2  1   
  2   1   3  1   
  3   2   4  2   
  4   2   5  1   
  5   3   6  2   
  6   3  20  1   
  7   4   6  1   
  8   5   7  1   
  9   5   8  1   
 10   6  21  1   
 11   7   9  1   
 12   7  22  1   
 13   7  23  1   
 14   8  10  1   
 15   8  24  1   
 16   8  25  1   
 17   9  11  1   
 18   9  26  1   
 19   9  27  1   
 20  10  11  1   
 21  10  28  1   
 22  10  29  1   
 23  11  12  1   
 24  11  13  1   
 25  12  14  1   
 26  13  15  2   
 27  13  16  1   
 28  14  17  1   
 29  14  30  1   
 30  14  31  1   
 31  15  17  1   
 32  15  18  1   
 33  16  19  2   
 34  16  32  1   
 35  17  33  1   
 36  17  34  1   
 37  18  19  1   
 38  19  35  1   
@<TRIPOS>SUBSTRUCTURE
  1 ****  11 GROUP 4 **** **** 0

# MOE 2024.06 (io_trps.svl 2023.06)
