@<TRIPOS>MOLECULE
NONAME
47 49 1 0 0 
SMALL
USER_CHARGES


@<TRIPOS>ATOM
  1 F       -2.8700     0.2190    -1.9650 F     1 <1>  -0.1900 
  2 C       -2.8650     0.7720    -0.7820 C.ar  1 <1>   0.1900 
  3 C       -3.1520    -0.0030     0.3440 C.ar  1 <1>   0.0860 
  4 C       -2.5650     2.1210    -0.7190 C.ar  1 <1>  -0.1500 
  5 C       -3.4800    -1.4140     0.2790 C.2   1 <1>   0.5440 
  6 C       -3.1010     0.6520     1.5760 C.ar  1 <1>  -0.1500 
  7 C       -2.5370     2.7430     0.5150 C.ar  1 <1>  -0.1500 
  8 O       -3.0300    -2.1740     1.1170 O.2   1 <1>  -0.5700 
  9 N       -4.3460    -1.9470    -0.6510 N.am  1 <1>  -0.6600 
 10 C       -2.8010     2.0020     1.6550 C.ar  1 <1>   0.0830 
 11 C       -4.3780    -3.4180    -0.8750 C.3   1 <1>   0.1400 
 12 C       -5.5770    -1.2320    -1.0800 C.3   1 <1>   0.1400 
 13 O       -2.7610     2.6130     2.8480 O.3   1 <1>  -0.5320 
 14 C       -5.5370    -3.9950    -0.0430 C.3   1 <1>   0.4230 
 15 C       -6.7870    -1.8430    -0.3480 C.3   1 <1>  -0.1600 
 16 N       -5.4910    -5.5000     0.1540 N.4   1 <1>  -0.9590 
 17 C       -6.9080    -3.3890    -0.4860 C.3   1 <1>   0.0000 
 18 C       -6.8130    -6.0860     0.5400 C.3   1 <1>   0.3430 
 19 C       -4.9270    -6.2680    -1.0010 C.3   1 <1>   0.2630 
 20 C       -8.0430    -3.8730     0.4660 C.3   1 <1>  -0.1600 
 21 C       -7.2860    -3.6730    -1.9700 C.3   1 <1>   0.1200 
 22 C       -7.6490    -5.0820     1.3330 C.3   1 <1>  -0.1600 
 23 O       -7.4770    -5.0230    -2.2200 O.3   1 <1>  -0.6800 
 24 H       -2.3560     2.6720    -1.6200 H     1 <1>   0.1500 
 25 H       -3.2950     0.0890     2.4710 H     1 <1>   0.1500 
 26 H       -2.3070     3.7910     0.6040 H     1 <1>   0.1500 
 27 H       -4.5050    -3.6180    -1.9230 H     1 <1>   0.0800 
 28 H       -3.4450    -3.8500    -0.5570 H     1 <1>   0.0800 
 29 H       -5.5080    -0.1840    -0.8420 H     1 <1>   0.0800 
 30 H       -5.6840    -1.3160    -2.1480 H     1 <1>   0.0800 
 31 H       -2.9090     2.0120     3.6000 H     1 <1>   0.4500 
 32 H       -5.3740    -3.5870     0.9410 H     1 <1>   0.0800 
 33 H       -6.6930    -1.5790     0.6920 H     1 <1>   0.0800 
 34 H       -7.6850    -1.3680    -0.7070 H     1 <1>   0.0800 
 35 H       -4.8590    -5.6400     0.9540 H     1 <1>   0.4500 
 36 H       -7.3620    -6.3610    -0.3460 H     1 <1>   0.0800 
 37 H       -6.6600    -6.9780     1.1250 H     1 <1>   0.0800 
 38 H       -5.5190    -6.1100    -1.8860 H     1 <1>   0.0800 
 39 H       -4.9210    -7.3230    -0.7790 H     1 <1>   0.0800 
 40 H       -3.9150    -5.9590    -1.2030 H     1 <1>   0.0800 
 41 H       -8.3600    -3.0850     1.1290 H     1 <1>   0.0800 
 42 H       -8.9110    -4.1380    -0.1140 H     1 <1>   0.0800 
 43 H       -6.5340    -3.3190    -2.6520 H     1 <1>   0.0800 
 44 H       -8.2110    -3.1720    -2.2060 H     1 <1>   0.0800 
 45 H       -8.5440    -5.5680     1.6820 H     1 <1>   0.0800 
 46 H       -7.0990    -4.7630     2.2020 H     1 <1>   0.0800 
 47 H       -7.9200    -5.1490    -3.0880 H     1 <1>   0.4000 
@<TRIPOS>BOND
  1   1   2  1   
  2   2   3  ar  
  3   2   4  ar  
  4   3   5  1   
  5   3   6  ar  
  6   4   7  ar  
  7   4  24  1   
  8   5   8  2   
  9   5   9  am  
 10   6  10  ar  
 11   6  25  1   
 12   7  10  ar  
 13   7  26  1   
 14   9  11  1   
 15   9  12  1   
 16  10  13  1   
 17  11  14  1   
 18  11  27  1   
 19  11  28  1   
 20  12  15  1   
 21  12  29  1   
 22  12  30  1   
 23  13  31  1   
 24  14  16  1   
 25  14  17  1   
 26  14  32  1   
 27  15  17  1   
 28  15  33  1   
 29  15  34  1   
 30  16  18  1   
 31  16  19  1   
 32  16  35  1   
 33  17  20  1   
 34  17  21  1   
 35  18  22  1   
 36  18  36  1   
 37  18  37  1   
 38  19  38  1   
 39  19  39  1   
 40  19  40  1   
 41  20  22  1   
 42  20  41  1   
 43  20  42  1   
 44  21  23  1   
 45  21  43  1   
 46  21  44  1   
 47  22  45  1   
 48  22  46  1   
 49  23  47  1   
@<TRIPOS>SUBSTRUCTURE
  1 ****   9 GROUP 4 **** **** 0

# MOE 2024.06 (io_trps.svl 2023.06)
