@<TRIPOS>MOLECULE
NONAME
47 49 1 0 0 
SMALL
USER_CHARGES


@<TRIPOS>ATOM
  1 O        1.8170    -1.5620    -2.3110 O.3   1 <1>  -0.6800 
  2 C        0.7660    -1.9660    -1.4980 C.3   1 <1>   0.1200 
  3 C        1.1700    -1.9730     0.0060 C.3   1 <1>   0.0000 
  4 C        2.5190    -2.6960     0.2910 C.3   1 <1>   0.4230 
  5 C        1.2650    -0.5100     0.5180 C.3   1 <1>  -0.1600 
  6 C        0.0480    -2.6940     0.8060 C.3   1 <1>  -0.1600 
  7 N        2.5230    -4.1630    -0.1410 N.4   1 <1>  -0.9590 
  8 C        3.7560    -1.8530    -0.1650 C.3   1 <1>   0.3430 
  9 C        2.4560     0.2730    -0.0430 C.3   1 <1>   0.3430 
 10 C        0.3450    -4.1810     1.0940 C.3   1 <1>  -0.1600 
 11 C        1.1880    -4.8420     0.0040 C.3   1 <1>   0.3430 
 12 C        3.0430    -4.4200    -1.5280 C.3   1 <1>   0.2630 
 13 N        3.7350    -0.4190     0.3110 N.4   1 <1>  -0.9590 
 14 C        4.9000     0.3440    -0.2330 C.3   1 <1>   0.4860 
 15 C        4.9500     1.7020     0.4400 C.ar  1 <1>  -0.1430 
 16 C        4.5660     2.8540    -0.2230 C.ar  1 <1>  -0.1500 
 17 C        5.3790     1.8600     1.7450 C.ar  1 <1>  -0.1500 
 18 C        4.6090     4.0700     0.4390 C.ar  1 <1>   0.1600 
 19 C        5.3830     3.1230     2.3140 C.ar  1 <1>   0.1600 
 20 N        4.9990     4.2230     1.6920 N.ar  1 <1>  -0.6200 
 21 H        1.4940    -1.4130    -3.2310 H     1 <1>   0.4000 
 22 H       -0.0590    -1.2900    -1.6610 H     1 <1>   0.0800 
 23 H        0.4580    -2.9420    -1.8290 H     1 <1>   0.0800 
 24 H        2.5890    -2.7150     1.3660 H     1 <1>   0.0800 
 25 H        1.3360    -0.4890     1.5920 H     1 <1>   0.0800 
 26 H        0.3630     0.0200     0.2610 H     1 <1>   0.0800 
 27 H       -0.1200    -2.2150     1.7570 H     1 <1>   0.0800 
 28 H       -0.8870    -2.6180     0.2720 H     1 <1>   0.0800 
 29 H        3.1470    -4.6660     0.5090 H     1 <1>   0.4500 
 30 H        3.7920    -1.8540    -1.2410 H     1 <1>   0.0800 
 31 H        4.6500    -2.3310     0.1980 H     1 <1>   0.0800 
 32 H        2.4500     1.2700     0.3700 H     1 <1>   0.0800 
 33 H        2.3660     0.3580    -1.1140 H     1 <1>   0.0800 
 34 H       -0.5870    -4.7130     1.1880 H     1 <1>   0.0800 
 35 H        0.8530    -4.2820     2.0380 H     1 <1>   0.0800 
 36 H        0.6460    -4.7850    -0.9270 H     1 <1>   0.0800 
 37 H        1.3300    -5.8860     0.2350 H     1 <1>   0.0800 
 38 H        2.4320    -3.9190    -2.2620 H     1 <1>   0.0800 
 39 H        3.0300    -5.4770    -1.7420 H     1 <1>   0.0800 
 40 H        4.0580    -4.0710    -1.6300 H     1 <1>   0.0800 
 41 H        3.8280    -0.3690     1.3350 H     1 <1>   0.4500 
 42 H        5.8200    -0.1810    -0.0310 H     1 <1>   0.0800 
 43 H        4.8030     0.4660    -1.3000 H     1 <1>   0.0800 
 44 H        4.2360     2.8360    -1.2470 H     1 <1>   0.1500 
 45 H        5.7190     1.0300     2.3370 H     1 <1>   0.1500 
 46 H        4.3090     4.9620    -0.0860 H     1 <1>   0.1500 
 47 H        5.7190     3.2380     3.3320 H     1 <1>   0.1500 
@<TRIPOS>BOND
  1   1   2  1   
  2   1  21  1   
  3   2   3  1   
  4   2  22  1   
  5   2  23  1   
  6   3   4  1   
  7   3   5  1   
  8   3   6  1   
  9   4   7  1   
 10   4   8  1   
 11   4  24  1   
 12   5   9  1   
 13   5  25  1   
 14   5  26  1   
 15   6  10  1   
 16   6  27  1   
 17   6  28  1   
 18   7  11  1   
 19   7  12  1   
 20   7  29  1   
 21   8  13  1   
 22   8  30  1   
 23   8  31  1   
 24   9  13  1   
 25   9  32  1   
 26   9  33  1   
 27  10  11  1   
 28  10  34  1   
 29  10  35  1   
 30  11  36  1   
 31  11  37  1   
 32  12  38  1   
 33  12  39  1   
 34  12  40  1   
 35  13  14  1   
 36  13  41  1   
 37  14  15  1   
 38  14  42  1   
 39  14  43  1   
 40  15  16  ar  
 41  15  17  ar  
 42  16  18  ar  
 43  16  44  1   
 44  17  19  ar  
 45  17  45  1   
 46  18  20  ar  
 47  18  46  1   
 48  19  20  ar  
 49  19  47  1   
@<TRIPOS>SUBSTRUCTURE
  1 ****  13 GROUP 4 **** **** 0

# MOE 2024.06 (io_trps.svl 2023.06)
