@<TRIPOS>MOLECULE
NONAME
52 55 1 0 0 
SMALL
USER_CHARGES


@<TRIPOS>ATOM
  1 O        0.5640     1.2430     0.3780 O.3   1 <1>  -0.0190 
  2 N        1.3240     0.2390     0.7040 N.2   1 <1>  -0.4100 
  3 C        1.1590     2.0520    -0.4580 C.2   1 <1>  -0.0400 
  4 C        2.4250     0.4010     0.0610 C.2   1 <1>   0.1080 
  5 C        2.3810     1.5590    -0.7100 C.2   1 <1>  -0.1500 
  6 C        0.4460     3.2960    -0.9550 C.3   1 <1>   0.0200 
  7 C        3.6020    -0.5460     0.1400 C.3   1 <1>  -0.0590 
  8 C       -0.0050     4.2030     0.2050 C.3   1 <1>  -0.0800 
  9 C       -0.6210     5.4980    -0.3220 C.3   1 <1>   0.2000 
 10 C        1.1780     4.6660     1.0770 C.3   1 <1>   0.1100 
 11 O       -1.5370     5.9430     0.6100 O.3   1 <1>  -0.6800 
 12 C        0.5540     6.4680    -0.3090 C.3   1 <1>   0.1100 
 13 N        1.2820     6.1260     0.9220 N.3   1 <1>  -0.8100 
 14 C        2.6720     6.6110     0.9340 C.3   1 <1>   0.2480 
 15 C        2.7510     8.1370     0.9250 C.2   1 <1>  -0.0380 
 16 N        3.8120     8.7190     0.2700 N.pl3 1 <1>  -0.6000 
 17 C        1.8370     8.9330     1.5350 C.2   1 <1>  -0.1360 
 18 C        3.9870    10.0990     0.1930 C.ar  1 <1>   0.1000 
 19 C        1.9360    10.3470     1.5110 C.2   1 <1>   0.4690 
 20 C        3.0480    10.9400     0.8140 C.ar  1 <1>   0.0860 
 21 C        5.0780    10.6510    -0.4900 C.ar  1 <1>  -0.1440 
 22 O        1.0870    11.0280     2.0740 O.2   1 <1>  -0.5700 
 23 C        3.2320    12.3240     0.7290 C.ar  1 <1>  -0.1500 
 24 C        5.2250    12.0210    -0.5520 C.ar  1 <1>  -0.1500 
 25 C        6.1100     9.7600    -1.1690 C.3   1 <1>  -0.0970 
 26 C        4.3050    12.8660     0.0560 C.ar  1 <1>  -0.1440 
 27 C        4.4960    14.3700    -0.0310 C.3   1 <1>  -0.0970 
 28 H        3.1620     1.9330    -1.3440 H     1 <1>   0.1500 
 29 H        1.1030     3.8340    -1.6140 H     1 <1>   0.0800 
 30 H       -0.4170     2.9900    -1.5220 H     1 <1>   0.0800 
 31 H        4.4760    -0.0170     0.4720 H     1 <1>   0.0800 
 32 H        3.7900    -0.9750    -0.8260 H     1 <1>   0.0800 
 33 H        3.3890    -1.3380     0.8360 H     1 <1>   0.0800 
 34 H       -0.7180     3.6580     0.8000 H     1 <1>   0.0800 
 35 H       -1.1110     5.4100    -1.2770 H     1 <1>   0.0800 
 36 H        2.0920     4.1840     0.7740 H     1 <1>   0.0800 
 37 H        0.9940     4.4310     2.1120 H     1 <1>   0.0800 
 38 H       -1.0200     6.2140     1.3990 H     1 <1>   0.4000 
 39 H        0.2240     7.4930    -0.3080 H     1 <1>   0.0800 
 40 H        1.1760     6.2950    -1.1690 H     1 <1>   0.0800 
 41 H        3.1670     6.2500     1.8190 H     1 <1>   0.0800 
 42 H        3.1900     6.2170     0.0760 H     1 <1>   0.0800 
 43 H        4.5210     8.1390    -0.1860 H     1 <1>   0.4000 
 44 H        0.9960     8.5250     2.0630 H     1 <1>   0.1500 
 45 H        2.5100    12.9630     1.2060 H     1 <1>   0.1500 
 46 H        6.0600    12.4540    -1.0750 H     1 <1>   0.1500 
 47 H        6.8750    10.3490    -1.6430 H     1 <1>   0.0800 
 48 H        5.6360     9.1560    -1.9220 H     1 <1>   0.0800 
 49 H        6.5800     9.1210    -0.4430 H     1 <1>   0.0800 
 50 H        5.4350    14.6460     0.4160 H     1 <1>   0.0800 
 51 H        3.7070    14.8880     0.4840 H     1 <1>   0.0800 
 52 H        4.4950    14.6800    -1.0600 H     1 <1>   0.0800 
@<TRIPOS>BOND
  1   1   2  1   
  2   1   3  1   
  3   2   4  2   
  4   3   5  2   
  5   3   6  1   
  6   4   5  1   
  7   4   7  1   
  8   5  28  1   
  9   6   8  1   
 10   6  29  1   
 11   6  30  1   
 12   7  31  1   
 13   7  32  1   
 14   7  33  1   
 15   8   9  1   
 16   8  10  1   
 17   8  34  1   
 18   9  11  1   
 19   9  12  1   
 20   9  35  1   
 21  10  13  1   
 22  10  36  1   
 23  10  37  1   
 24  11  38  1   
 25  12  13  1   
 26  12  39  1   
 27  12  40  1   
 28  13  14  1   
 29  14  15  1   
 30  14  41  1   
 31  14  42  1   
 32  15  16  1   
 33  15  17  2   
 34  16  18  1   
 35  16  43  1   
 36  17  19  1   
 37  17  44  1   
 38  18  20  ar  
 39  18  21  ar  
 40  19  20  1   
 41  19  22  2   
 42  20  23  ar  
 43  21  24  ar  
 44  21  25  1   
 45  23  26  ar  
 46  23  45  1   
 47  24  26  ar  
 48  24  46  1   
 49  25  47  1   
 50  25  48  1   
 51  25  49  1   
 52  26  27  1   
 53  27  50  1   
 54  27  51  1   
 55  27  52  1   
@<TRIPOS>SUBSTRUCTURE
  1 ****  14 GROUP 4 **** **** 0

# MOE 2024.06 (io_trps.svl 2023.06)
