@<TRIPOS>MOLECULE
NONAME
47 50 1 0 0 
SMALL
USER_CHARGES


@<TRIPOS>ATOM
  1 O        1.0020     1.2370    -1.0510 O.2   1 <1>  -0.5700 
  2 C        1.4000     0.1210    -0.8100 C.2   1 <1>   0.5690 
  3 N        2.5310    -0.0510    -0.0440 N.am  1 <1>  -0.6600 
  4 C        0.6490    -1.0480    -1.4430 C.3   1 <1>   0.0820 
  5 C        3.0030     1.0460     0.8640 C.3   1 <1>   0.1400 
  6 C        3.3560    -1.2960    -0.0100 C.3   1 <1>   0.1400 
  7 C        0.3090    -2.1740    -0.4750 C.2   1 <1>  -0.1810 
  8 C        4.3990     1.6370     0.5230 C.3   1 <1>   0.4230 
  9 C        4.7660    -1.0470    -0.5870 C.3   1 <1>  -0.0800 
 10 C        0.1560    -3.5260    -0.8590 C.ar  1 <1>   0.0000 
 11 C        0.1040    -2.1040     0.8630 C.2   1 <1>  -0.3020 
 12 N        4.8240     1.5290    -0.9310 N.4   1 <1>  -0.9590 
 13 C        5.4930     1.1030     1.4720 C.3   1 <1>   0.1200 
 14 C        5.8720    -1.0230     0.4800 C.3   1 <1>   0.1200 
 15 C        4.8110     0.1530    -1.5490 C.3   1 <1>   0.3430 
 16 C       -0.1300    -4.2340     0.3040 C.ar  1 <1>  -0.1520 
 17 C        0.2330    -4.2110    -2.0770 C.ar  1 <1>  -0.1500 
 18 N       -0.1660    -3.3500     1.3510 N.pl3 1 <1>   0.0330 
 19 C        3.9830     2.4440    -1.7670 C.3   1 <1>   0.2630 
 20 O        5.4810    -0.2850     1.5900 O.3   1 <1>  -0.5600 
 21 C       -0.3310    -5.6160     0.2760 C.ar  1 <1>  -0.1500 
 22 C        0.0340    -5.5720    -2.1050 C.ar  1 <1>  -0.1500 
 23 C       -0.2460    -6.2750    -0.9280 C.ar  1 <1>  -0.1500 
 24 H       -0.2670    -0.6830    -1.8710 H     1 <1>   0.0800 
 25 H        1.2490    -1.4320    -2.2450 H     1 <1>   0.0800 
 26 H        2.2920     1.8530     0.8540 H     1 <1>   0.0800 
 27 H        3.0100     0.6740     1.8750 H     1 <1>   0.0800 
 28 H        3.4120    -1.6630     1.0030 H     1 <1>   0.0800 
 29 H        2.8840    -2.0680    -0.5910 H     1 <1>   0.0800 
 30 H        4.3340     2.6880     0.7500 H     1 <1>   0.0800 
 31 H        4.9850    -1.9070    -1.1940 H     1 <1>   0.0800 
 32 H        0.1310    -1.2400     1.5040 H     1 <1>   0.1500 
 33 H        5.7920     1.8670    -0.9750 H     1 <1>   0.4500 
 34 H        5.3100     1.4880     2.4610 H     1 <1>   0.0800 
 35 H        6.4740     1.4240     1.1710 H     1 <1>   0.0800 
 36 H        6.8030    -0.6360     0.0990 H     1 <1>   0.0800 
 37 H        6.0470    -2.0260     0.8310 H     1 <1>   0.0800 
 38 H        3.9500     0.0730    -2.1940 H     1 <1>   0.0800 
 39 H        5.6810     0.0530    -2.1780 H     1 <1>   0.0800 
 40 H        0.4410    -3.6680    -2.9800 H     1 <1>   0.1500 
 41 H       -0.3780    -3.5950     2.3230 H     1 <1>   0.2700 
 42 H        2.9540     2.1240    -1.7550 H     1 <1>   0.0800 
 43 H        4.3270     2.4450    -2.7880 H     1 <1>   0.0800 
 44 H        4.0300     3.4520    -1.3880 H     1 <1>   0.0800 
 45 H       -0.5490    -6.1480     1.1850 H     1 <1>   0.1500 
 46 H        0.0900    -6.1120    -3.0350 H     1 <1>   0.1500 
 47 H       -0.3980    -7.3400    -0.9760 H     1 <1>   0.1500 
@<TRIPOS>BOND
  1   1   2  2   
  2   2   3  am  
  3   2   4  1   
  4   3   5  1   
  5   3   6  1   
  6   4   7  1   
  7   4  24  1   
  8   4  25  1   
  9   5   8  1   
 10   5  26  1   
 11   5  27  1   
 12   6   9  1   
 13   6  28  1   
 14   6  29  1   
 15   7  10  1   
 16   7  11  2   
 17   8  12  1   
 18   8  13  1   
 19   8  30  1   
 20   9  14  1   
 21   9  15  1   
 22   9  31  1   
 23  10  16  ar  
 24  10  17  ar  
 25  11  18  1   
 26  11  32  1   
 27  12  15  1   
 28  12  19  1   
 29  12  33  1   
 30  13  20  1   
 31  13  34  1   
 32  13  35  1   
 33  14  20  1   
 34  14  36  1   
 35  14  37  1   
 36  15  38  1   
 37  15  39  1   
 38  16  18  1   
 39  16  21  ar  
 40  17  22  ar  
 41  17  40  1   
 42  18  41  1   
 43  19  42  1   
 44  19  43  1   
 45  19  44  1   
 46  21  23  ar  
 47  21  45  1   
 48  22  23  ar  
 49  22  46  1   
 50  23  47  1   
@<TRIPOS>SUBSTRUCTURE
  1 ****   6 GROUP 4 **** **** 0

# MOE 2024.06 (io_trps.svl 2023.06)
