@<TRIPOS>MOLECULE
NONAME
46 47 1 0 0 
SMALL
USER_CHARGES


@<TRIPOS>ATOM
  1 S        0.1450    -0.0990     0.6080 S.o2  1 <1>   1.3330 
  2 O        0.9070     0.4090     1.7270 O.2   1 <1>  -0.6500 
  3 O       -0.6890    -1.2660     0.7480 O.2   1 <1>  -0.6500 
  4 N        1.2340    -0.3570    -0.6680 N.am  1 <1>  -0.8490 
  5 C       -0.8380     1.2840     0.0180 C.3   1 <1>  -0.0550 
  6 C        0.6350    -1.1010    -1.7860 C.3   1 <1>   0.1160 
  7 C        2.4300    -1.0800    -0.2150 C.3   1 <1>   0.1160 
  8 C        0.0110     2.5170    -0.3780 C.3   1 <1>  -0.0800 
  9 C       -0.7830     3.7310    -0.8560 C.3   1 <1>   0.2000 
 10 C        0.9170     3.0570     0.7400 C.3   1 <1>   0.3430 
 11 O       -1.9040     3.9190    -0.0540 O.3   1 <1>  -0.6800 
 12 C        0.1940     4.8890    -0.6490 C.3   1 <1>   0.3430 
 13 N        0.9540     4.5460     0.5960 N.4   1 <1>  -0.9590 
 14 C        2.3400     5.0870     0.5930 C.3   1 <1>   0.5230 
 15 C        2.3050     6.6010     0.6000 C.2   1 <1>  -0.1400 
 16 S        3.7980     7.3800     0.1070 S.3   1 <1>  -0.0800 
 17 C        1.3770     7.5320     0.9060 C.2   1 <1>  -0.1500 
 18 C        3.1150     8.9850     0.3220 C.2   1 <1>   0.0600 
 19 C        1.8390     8.8760     0.7450 C.2   1 <1>  -0.1500 
 20 C        3.9480    10.1080     0.0390 C.1   1 <1>  -0.0200 
 21 C        4.6500    11.0400    -0.2020 C.1   1 <1>  -0.2000 
 22 C        5.5340    12.1960    -0.5050 C.3   1 <1>   0.3200 
 23 O        6.6310    11.7070    -1.1790 O.3   1 <1>  -0.6800 
 24 H       -1.4130     0.9690    -0.8320 H     1 <1>   0.0800 
 25 H       -1.5360     1.5490     0.7880 H     1 <1>   0.0800 
 26 H        1.3430    -1.1920    -2.5920 H     1 <1>   0.0800 
 27 H       -0.2350    -0.5890    -2.1570 H     1 <1>   0.0800 
 28 H        0.3420    -2.0900    -1.4690 H     1 <1>   0.0800 
 29 H        3.1130    -1.2270    -1.0350 H     1 <1>   0.0800 
 30 H        2.1570    -2.0410     0.1910 H     1 <1>   0.0800 
 31 H        2.9400    -0.5190     0.5500 H     1 <1>   0.0800 
 32 H        0.6600     2.2230    -1.1850 H     1 <1>   0.0800 
 33 H       -1.1120     3.6510    -1.8790 H     1 <1>   0.0800 
 34 H        1.9010     2.6230     0.6590 H     1 <1>   0.0800 
 35 H        0.5120     2.7950     1.7060 H     1 <1>   0.0800 
 36 H       -1.7140     3.8710     0.9020 H     1 <1>   0.4000 
 37 H       -0.3240     5.8310    -0.5680 H     1 <1>   0.0800 
 38 H        0.8690     4.9290    -1.4880 H     1 <1>   0.0800 
 39 H        0.4730     4.9720     1.3980 H     1 <1>   0.4500 
 40 H        2.8800     4.7420     1.4600 H     1 <1>   0.0800 
 41 H        2.8620     4.7470    -0.2870 H     1 <1>   0.0800 
 42 H        0.3710     7.3580     1.2460 H     1 <1>   0.1500 
 43 H        1.1960     9.7140     0.9540 H     1 <1>   0.1500 
 44 H        5.8710    12.6700     0.4010 H     1 <1>   0.0800 
 45 H        5.0400    12.9170    -1.1350 H     1 <1>   0.0800 
 46 H        6.8820    10.8490    -0.7880 H     1 <1>   0.4000 
@<TRIPOS>BOND
  1   1   2  2   
  2   1   3  2   
  3   1   4  am  
  4   1   5  1   
  5   4   6  1   
  6   4   7  1   
  7   5   8  1   
  8   5  24  1   
  9   5  25  1   
 10   6  26  1   
 11   6  27  1   
 12   6  28  1   
 13   7  29  1   
 14   7  30  1   
 15   7  31  1   
 16   8   9  1   
 17   8  10  1   
 18   8  32  1   
 19   9  11  1   
 20   9  12  1   
 21   9  33  1   
 22  10  13  1   
 23  10  34  1   
 24  10  35  1   
 25  11  36  1   
 26  12  13  1   
 27  12  37  1   
 28  12  38  1   
 29  13  14  1   
 30  13  39  1   
 31  14  15  1   
 32  14  40  1   
 33  14  41  1   
 34  15  16  1   
 35  15  17  2   
 36  16  18  1   
 37  17  19  1   
 38  17  42  1   
 39  18  19  2   
 40  18  20  1   
 41  19  43  1   
 42  20  21  3   
 43  21  22  1   
 44  22  23  1   
 45  22  44  1   
 46  22  45  1   
 47  23  46  1   
@<TRIPOS>SUBSTRUCTURE
  1 ****  14 GROUP 4 **** **** 0

# MOE 2024.06 (io_trps.svl 2023.06)
