@<TRIPOS>MOLECULE
Untitled Document
39 41 1 0 0 
SMALL
USER_CHARGES


@<TRIPOS>ATOM
  1 CL      -0.4240    -0.1680    -1.7060 Cl    1 <1>  -0.1230 
  2 C       -1.0450    -1.7460    -1.2460 C.2   1 <1>   0.1230 
  3 C       -2.2540    -1.9410    -0.5500 C.ar  1 <1>   0.2560 
  4 C       -0.4640    -2.9480    -1.4910 C.2   1 <1>  -0.3320 
  5 N       -3.1750    -1.0710    -0.0970 N.ar  1 <1>  -0.5660 
  6 C       -2.3640    -3.3090    -0.3910 C.ar  1 <1>  -0.1520 
  7 N       -1.2730    -3.9170    -0.9660 N.pl3 1 <1>   0.0330 
  8 C        0.8370    -3.2650    -2.2070 C.3   1 <1>  -0.0600 
  9 C       -4.2260    -1.5850     0.5230 C.ar  1 <1>   0.1670 
 10 C       -3.4530    -3.8700     0.2630 C.ar  1 <1>   0.1000 
 11 C       -4.4110    -2.9770     0.7270 C.ar  1 <1>   0.0730 
 12 C       -5.3090    -0.6050     1.0530 C.3   1 <1>   1.1640 
 13 N       -3.4930    -5.2550     0.3840 N.pl3 1 <1>  -0.8380 
 14 C       -5.5660    -3.4950     1.3970 C.1   1 <1>   0.4840 
 15 F       -5.4710    -0.6970     2.3700 F     1 <1>  -0.3400 
 16 F       -6.5030    -0.8340     0.5150 F     1 <1>  -0.3400 
 17 F       -5.0520     0.6780     0.8150 F     1 <1>  -0.3400 
 18 C       -4.3890    -6.0370    -0.5280 C.3   1 <1>   0.2090 
 19 C       -3.3460    -5.8980     1.7250 C.3   1 <1>   0.2090 
 20 N       -6.4850    -3.8970     1.9390 N.1   1 <1>  -0.5570 
 21 C       -3.9900    -7.5290    -0.5590 C.3   1 <1>   0.2000 
 22 C       -2.9760    -7.3840     1.5660 C.3   1 <1>   0.1200 
 23 O       -3.8980    -8.0480     0.7450 O.3   1 <1>  -0.5600 
 24 C       -5.0090    -8.3800    -1.3240 C.3   1 <1>   0.1200 
 25 O       -5.1670    -7.8880    -2.6160 O.3   1 <1>  -0.6800 
 26 H       -1.1400    -4.9340    -0.9790 H     1 <1>   0.2700 
 27 H        1.3090    -2.3590    -2.5430 H     1 <1>   0.0800 
 28 H        0.6480    -3.8880    -3.0630 H     1 <1>   0.0800 
 29 H        1.5120    -3.7750    -1.5440 H     1 <1>   0.0800 
 30 H       -5.4080    -5.9530    -0.1940 H     1 <1>   0.0800 
 31 H       -4.3310    -5.6310    -1.5230 H     1 <1>   0.0800 
 32 H       -2.5820    -5.3920     2.2880 H     1 <1>   0.0800 
 33 H       -4.2720    -5.8280     2.2700 H     1 <1>   0.0800 
 34 H       -3.0260    -7.6380    -1.0250 H     1 <1>   0.0800 
 35 H       -2.9820    -7.8700     2.5260 H     1 <1>   0.0800 
 36 H       -1.9960    -7.4820     1.1340 H     1 <1>   0.0800 
 37 H       -5.9660    -8.3470    -0.8320 H     1 <1>   0.0800 
 38 H       -4.6640    -9.3970    -1.3900 H     1 <1>   0.0800 
 39 H       -5.7930    -8.4450    -3.1220 H     1 <1>   0.4000 
@<TRIPOS>BOND
  1   1   2  1   
  2   2   3  1   
  3   2   4  2   
  4   3   5  ar  
  5   3   6  ar  
  6   4   7  1   
  7   4   8  1   
  8   5   9  ar  
  9   6   7  1   
 10   6  10  ar  
 11   7  26  1   
 12   8  27  1   
 13   8  28  1   
 14   8  29  1   
 15   9  11  ar  
 16   9  12  1   
 17  10  11  ar  
 18  10  13  1   
 19  11  14  1   
 20  12  15  1   
 21  12  16  1   
 22  12  17  1   
 23  13  18  1   
 24  13  19  1   
 25  14  20  3   
 26  18  21  1   
 27  18  30  1   
 28  18  31  1   
 29  19  22  1   
 30  19  32  1   
 31  19  33  1   
 32  21  23  1   
 33  21  24  1   
 34  21  34  1   
 35  22  23  1   
 36  22  35  1   
 37  22  36  1   
 38  24  25  1   
 39  24  37  1   
 40  24  38  1   
 41  25  39  1   
@<TRIPOS>SUBSTRUCTURE
  1 ****  10 GROUP 4 **** **** 0

# MOE 2024.06 (io_trps.svl 2023.06)
