@<TRIPOS>MOLECULE
NONAME
48 50 1 0 0 
SMALL
USER_CHARGES


@<TRIPOS>ATOM
  1 F       -1.1820     0.0330    -0.7410 F     1 <1>  -0.1900 
  2 C       -2.2300     0.7730    -0.4870 C.ar  1 <1>   0.1900 
  3 C       -2.0640     2.0650    -0.0140 C.ar  1 <1>  -0.1440 
  4 C       -3.4740     0.2150    -0.7090 C.ar  1 <1>  -0.1500 
  5 C       -3.2160     2.8060     0.2400 C.ar  1 <1>  -0.1500 
  6 C       -0.6580     2.6200     0.2100 C.3   1 <1>   1.1640 
  7 C       -4.6000     0.9730    -0.4510 C.ar  1 <1>  -0.1500 
  8 C       -4.4860     2.2760     0.0290 C.ar  1 <1>   0.1170 
  9 F        0.0360     1.9210     1.0990 F     1 <1>  -0.3400 
 10 F       -0.6720     3.8690     0.6620 F     1 <1>  -0.3400 
 11 F        0.0640     2.6470    -0.9030 F     1 <1>  -0.3400 
 12 N       -5.6060     3.0770     0.2890 N.am  1 <1>  -0.5470 
 13 C       -6.8780     2.7400     0.6580 C.2   1 <1>   0.6900 
 14 O       -7.1450     1.5940     0.9660 O.2   1 <1>  -0.5700 
 15 N       -7.8420     3.7190     0.7040 N.am  1 <1>  -0.6600 
 16 C       -9.1990     3.4320     1.2670 C.3   1 <1>   0.1400 
 17 C       -7.7310     5.0600     0.0650 C.3   1 <1>   0.1400 
 18 C      -10.3020     3.5360     0.1870 C.3   1 <1>   0.0000 
 19 C       -8.7920     5.2020    -1.0300 C.3   1 <1>  -0.1600 
 20 C      -11.6700     3.2720     0.8520 C.3   1 <1>   0.2000 
 21 C      -10.2070     4.9200    -0.5000 C.3   1 <1>  -0.1600 
 22 C      -10.1910     2.3770    -0.8210 C.3   1 <1>  -0.1600 
 23 O      -12.6950     3.7610     0.0340 O.3   1 <1>  -0.5600 
 24 C      -11.7910     1.7440     0.9270 C.3   1 <1>  -0.1600 
 25 C      -10.8610     1.1740    -0.1530 C.3   1 <1>  -0.1600 
 26 C      -13.8900     4.0470     0.6900 C.3   1 <1>   0.0400 
 27 H       -3.5580    -0.7920    -1.0770 H     1 <1>   0.1500 
 28 H       -3.1400     3.8130     0.6120 H     1 <1>   0.1500 
 29 H       -5.5740     0.5500    -0.6240 H     1 <1>   0.1500 
 30 H       -5.4460     4.0760     0.3200 H     1 <1>   0.3700 
 31 H       -9.2170     2.4570     1.7210 H     1 <1>   0.0800 
 32 H       -9.3960     4.1480     2.0450 H     1 <1>   0.0800 
 33 H       -7.8830     5.8160     0.8170 H     1 <1>   0.0800 
 34 H       -6.7600     5.2090    -0.3690 H     1 <1>   0.0800 
 35 H       -8.7550     6.1990    -1.4320 H     1 <1>   0.0800 
 36 H       -8.5610     4.5220    -1.8310 H     1 <1>   0.0800 
 37 H      -11.7370     3.7430     1.8180 H     1 <1>   0.0800 
 38 H      -10.9080     4.9780    -1.3140 H     1 <1>   0.0800 
 39 H      -10.4760     5.6820     0.2110 H     1 <1>   0.0800 
 40 H      -10.7460     2.6260    -1.7090 H     1 <1>   0.0800 
 41 H       -9.1750     2.1600    -1.1010 H     1 <1>   0.0800 
 42 H      -11.4520     1.4090     1.8910 H     1 <1>   0.0800 
 43 H      -12.8040     1.4130     0.7860 H     1 <1>   0.0800 
 44 H      -10.1130     0.5460     0.3020 H     1 <1>   0.0800 
 45 H      -11.4090     0.5960    -0.8770 H     1 <1>   0.0800 
 46 H      -14.6010     4.3800    -0.0450 H     1 <1>   0.0800 
 47 H      -13.7200     4.8290     1.4090 H     1 <1>   0.0800 
 48 H      -14.2580     3.1600     1.1740 H     1 <1>   0.0800 
@<TRIPOS>BOND
  1   1   2  1   
  2   2   3  ar  
  3   2   4  ar  
  4   3   5  ar  
  5   3   6  1   
  6   4   7  ar  
  7   4  27  1   
  8   5   8  ar  
  9   5  28  1   
 10   6   9  1   
 11   6  10  1   
 12   6  11  1   
 13   7   8  ar  
 14   7  29  1   
 15   8  12  1   
 16  12  13  am  
 17  12  30  1   
 18  13  14  2   
 19  13  15  am  
 20  15  16  1   
 21  15  17  1   
 22  16  18  1   
 23  16  31  1   
 24  16  32  1   
 25  17  19  1   
 26  17  33  1   
 27  17  34  1   
 28  18  20  1   
 29  18  21  1   
 30  18  22  1   
 31  19  21  1   
 32  19  35  1   
 33  19  36  1   
 34  20  23  1   
 35  20  24  1   
 36  20  37  1   
 37  21  38  1   
 38  21  39  1   
 39  22  25  1   
 40  22  40  1   
 41  22  41  1   
 42  23  26  1   
 43  24  25  1   
 44  24  42  1   
 45  24  43  1   
 46  25  44  1   
 47  25  45  1   
 48  26  46  1   
 49  26  47  1   
 50  26  48  1   
@<TRIPOS>SUBSTRUCTURE
  1 ****  13 GROUP 4 **** **** 0

# MOE 2024.06 (io_trps.svl 2023.06)
