@<TRIPOS>MOLECULE
NONAME
49 52 1 0 0 
SMALL
USER_CHARGES


@<TRIPOS>ATOM
  1 O        0.1390     0.2600    -1.0070 O.3   1 <1>  -0.6800 
  2 C        1.4580     0.0400    -1.3840 C.3   1 <1>   0.2000 
  3 C        1.9000    -1.2890    -0.7710 C.3   1 <1>  -0.0800 
  4 C        2.3340     1.0870    -0.6810 C.3   1 <1>   0.3430 
  5 C        2.1510    -0.8700     0.6800 C.3   1 <1>   0.3430 
  6 C        3.1510    -1.8630    -1.4920 C.3   1 <1>   0.0210 
  7 N        2.8540     0.4280     0.5580 N.4   1 <1>  -0.9590 
  8 C        4.3900    -2.0240    -0.6220 C.2   1 <1>   0.1080 
  9 C        2.8330     1.2830     1.7600 C.3   1 <1>   0.5240 
 10 N        5.1500    -1.0320    -0.2590 N.2   1 <1>  -0.7070 
 11 C        4.8440    -3.2420    -0.1310 C.2   1 <1>  -0.1500 
 12 C        3.7890     2.4390     1.5450 C.2   1 <1>  -0.1810 
 13 N        6.1430    -1.6130     0.4560 N.pl3 1 <1>   0.3000 
 14 C        5.9650    -2.9450     0.5570 C.2   1 <1>  -0.3320 
 15 C        3.6760     3.6830     2.1520 C.2   1 <1>   0.1390 
 16 C        4.8940     2.5440     0.7710 C.2   1 <1>  -0.3020 
 17 C        6.9040    -3.8760     1.3050 C.3   1 <1>  -0.0600 
 18 N        4.6160     4.4900     1.7850 N.2   1 <1>  -0.7070 
 19 N        5.3990     3.7960     0.9190 N.pl3 1 <1>   0.5930 
 20 C        6.5330     4.3490     0.2540 C.ar  1 <1>  -0.0230 
 21 C        7.6110     3.5490    -0.1240 C.ar  1 <1>  -0.1500 
 22 C        6.5870     5.7100    -0.0390 C.ar  1 <1>  -0.1500 
 23 C        8.6990     4.0910    -0.7840 C.ar  1 <1>  -0.1500 
 24 C        7.6750     6.2530    -0.6990 C.ar  1 <1>  -0.1500 
 25 C        8.7320     5.4430    -1.0740 C.ar  1 <1>  -0.1500 
 26 H       -0.4860    -0.2370    -1.5770 H     1 <1>   0.4000 
 27 H        1.5230     0.0920    -2.4590 H     1 <1>   0.0800 
 28 H        1.1110    -2.0210    -0.8150 H     1 <1>   0.0800 
 29 H        1.7500     1.9640    -0.4520 H     1 <1>   0.0800 
 30 H        3.1630     1.3640    -1.3120 H     1 <1>   0.0800 
 31 H        2.7420    -1.5960     1.2160 H     1 <1>   0.0800 
 32 H        1.2050    -0.7300     1.1780 H     1 <1>   0.0800 
 33 H        3.4260    -1.2470    -2.3310 H     1 <1>   0.0800 
 34 H        2.9010    -2.8280    -1.8980 H     1 <1>   0.0800 
 35 H        3.8460     0.1730     0.3640 H     1 <1>   0.4500 
 36 H        1.8350     1.6540     1.9280 H     1 <1>   0.0800 
 37 H        3.1430     0.7170     2.6230 H     1 <1>   0.0800 
 38 H        4.3920    -4.2070    -0.2870 H     1 <1>   0.1500 
 39 H        6.9340    -1.0880     0.8530 H     1 <1>   0.2700 
 40 H        2.9030     3.9690     2.8490 H     1 <1>   0.1500 
 41 H        5.3580     1.8260     0.1210 H     1 <1>   0.1500 
 42 H        6.5520    -4.8910     1.2360 H     1 <1>   0.0800 
 43 H        6.9550    -3.6030     2.3440 H     1 <1>   0.0800 
 44 H        7.8910    -3.8300     0.8810 H     1 <1>   0.0800 
 45 H        7.6110     2.4970     0.0970 H     1 <1>   0.1500 
 46 H        5.7710     6.3500     0.2520 H     1 <1>   0.1500 
 47 H        9.5250     3.4640    -1.0730 H     1 <1>   0.1500 
 48 H        7.6990     7.3060    -0.9180 H     1 <1>   0.1500 
 49 H        9.5780     5.8660    -1.5870 H     1 <1>   0.1500 
@<TRIPOS>BOND
  1   1   2  1   
  2   1  26  1   
  3   2   3  1   
  4   2   4  1   
  5   2  27  1   
  6   3   5  1   
  7   3   6  1   
  8   3  28  1   
  9   4   7  1   
 10   4  29  1   
 11   4  30  1   
 12   5   7  1   
 13   5  31  1   
 14   5  32  1   
 15   6   8  1   
 16   6  33  1   
 17   6  34  1   
 18   7   9  1   
 19   7  35  1   
 20   8  10  2   
 21   8  11  1   
 22   9  12  1   
 23   9  36  1   
 24   9  37  1   
 25  10  13  1   
 26  11  14  2   
 27  11  38  1   
 28  12  15  1   
 29  12  16  2   
 30  13  14  1   
 31  13  39  1   
 32  14  17  1   
 33  15  18  2   
 34  15  40  1   
 35  16  19  1   
 36  16  41  1   
 37  17  42  1   
 38  17  43  1   
 39  17  44  1   
 40  18  19  1   
 41  19  20  1   
 42  20  21  ar  
 43  20  22  ar  
 44  21  23  ar  
 45  21  45  1   
 46  22  24  ar  
 47  22  46  1   
 48  23  25  ar  
 49  23  47  1   
 50  24  25  ar  
 51  24  48  1   
 52  25  49  1   
@<TRIPOS>SUBSTRUCTURE
  1 ****  16 GROUP 4 **** **** 0

# MOE 2024.06 (io_trps.svl 2023.06)
