@<TRIPOS>MOLECULE
NONAME
45 47 1 0 0 
SMALL
USER_CHARGES


@<TRIPOS>ATOM
  1 O       -2.0630    -0.4080    -1.0570 O.2   1 <1>  -0.5700 
  2 C       -2.3470     0.4300    -0.2070 C.2   1 <1>   0.6160 
  3 N       -2.1130     1.7810    -0.4820 N.am  1 <1>  -0.4690 
  4 C       -2.9130     0.0610     1.0560 C.2   1 <1>   0.0290 
  5 C       -2.3820     2.7460     0.4720 C.2   1 <1>  -0.0290 
  6 C       -1.5280     2.1700    -1.8040 C.3   1 <1>   0.0600 
  7 C       -3.1940    -1.3180     1.3510 C.2   1 <1>   0.6160 
  8 C       -3.1630     1.0430     1.9790 C.2   1 <1>  -0.1500 
  9 C       -2.8960     2.3900     1.6820 C.2   1 <1>  -0.1500 
 10 C       -2.0950     4.2100     0.1680 C.3   1 <1>  -0.1020 
 11 O       -2.7680    -1.7950     2.3880 O.2   1 <1>  -0.5700 
 12 N       -4.0090    -2.1100     0.5710 N.am  1 <1>  -0.6600 
 13 C       -4.8010    -1.6670    -0.6000 C.3   1 <1>   0.1400 
 14 C       -4.3260    -3.5250     0.8970 C.3   1 <1>   0.1400 
 15 C       -5.9870    -2.6260    -0.6280 C.3   1 <1>   0.2000 
 16 C       -5.4270    -3.9480    -0.0920 C.3   1 <1>  -0.0800 
 17 O       -6.9350    -2.1700     0.2730 O.3   1 <1>  -0.6800 
 18 C       -4.8690    -4.8190    -1.2350 C.3   1 <1>  -0.0170 
 19 C       -4.5900    -6.2410    -0.7720 C.ar  1 <1>   0.1670 
 20 N       -3.3770    -6.4880    -0.3050 N.ar  1 <1>  -0.6200 
 21 C       -5.5940    -7.1950    -0.8570 C.ar  1 <1>  -0.1500 
 22 C       -3.1540    -7.7300     0.0930 C.ar  1 <1>   0.1600 
 23 C       -5.3500    -8.4850    -0.4390 C.ar  1 <1>  -0.1500 
 24 C       -4.0890    -8.7500     0.0490 C.ar  1 <1>  -0.1500 
 25 H       -2.1220     2.9450    -2.2530 H     1 <1>   0.0800 
 26 H       -1.5000     1.3410    -2.4870 H     1 <1>   0.0800 
 27 H       -0.5240     2.5260    -1.6600 H     1 <1>   0.0800 
 28 H       -3.5650     0.7940     2.9470 H     1 <1>   0.1500 
 29 H       -3.1090     3.1250     2.4390 H     1 <1>   0.1500 
 30 H       -2.6930     4.5430    -0.6600 H     1 <1>   0.0800 
 31 H       -1.0550     4.3450    -0.0660 H     1 <1>   0.0800 
 32 H       -2.3280     4.8280     1.0170 H     1 <1>   0.0800 
 33 H       -5.1170    -0.6420    -0.5170 H     1 <1>   0.0800 
 34 H       -4.2080    -1.7920    -1.4890 H     1 <1>   0.0800 
 35 H       -3.4400    -4.1310     0.8110 H     1 <1>   0.0800 
 36 H       -4.6870    -3.5830     1.9100 H     1 <1>   0.0800 
 37 H       -6.4490    -2.7010    -1.5970 H     1 <1>   0.0800 
 38 H       -6.1970    -4.5070     0.4110 H     1 <1>   0.0800 
 39 H       -6.4940    -2.0140     1.1320 H     1 <1>   0.4000 
 40 H       -3.9660    -4.3860    -1.6310 H     1 <1>   0.0800 
 41 H       -5.5840    -4.8600    -2.0370 H     1 <1>   0.0800 
 42 H       -6.5620    -6.9330    -1.2450 H     1 <1>   0.1500 
 43 H       -2.1710    -7.9470     0.4760 H     1 <1>   0.1500 
 44 H       -6.1060    -9.2490    -0.4900 H     1 <1>   0.1500 
 45 H       -3.8290    -9.7350     0.3920 H     1 <1>   0.1500 
@<TRIPOS>BOND
  1   1   2  2   
  2   2   3  am  
  3   2   4  1   
  4   3   5  1   
  5   3   6  1   
  6   4   7  1   
  7   4   8  2   
  8   5   9  2   
  9   5  10  1   
 10   6  25  1   
 11   6  26  1   
 12   6  27  1   
 13   7  11  2   
 14   7  12  am  
 15   8   9  1   
 16   8  28  1   
 17   9  29  1   
 18  10  30  1   
 19  10  31  1   
 20  10  32  1   
 21  12  13  1   
 22  12  14  1   
 23  13  15  1   
 24  13  33  1   
 25  13  34  1   
 26  14  16  1   
 27  14  35  1   
 28  14  36  1   
 29  15  16  1   
 30  15  17  1   
 31  15  37  1   
 32  16  18  1   
 33  16  38  1   
 34  17  39  1   
 35  18  19  1   
 36  18  40  1   
 37  18  41  1   
 38  19  20  ar  
 39  19  21  ar  
 40  20  22  ar  
 41  21  23  ar  
 42  21  42  1   
 43  22  24  ar  
 44  22  43  1   
 45  23  24  ar  
 46  23  44  1   
 47  24  45  1   
@<TRIPOS>SUBSTRUCTURE
  1 ****  12 GROUP 4 **** **** 0

# MOE 2024.06 (io_trps.svl 2023.06)
