@<TRIPOS>MOLECULE
NONAME
58 61 1 0 0 
SMALL
USER_CHARGES


@<TRIPOS>ATOM
  1 F       -0.7760    -0.5090    -0.2230 F     1 <1>  -0.1900 
  2 C       -1.9690     0.0270    -0.1990 C.ar  1 <1>   0.1900 
  3 C       -2.1720     1.3990    -0.3780 C.ar  1 <1>   0.0830 
  4 C       -3.0260    -0.8370     0.0090 C.ar  1 <1>  -0.1500 
  5 O       -1.2170     2.3490    -0.5900 O.3   1 <1>  -0.3630 
  6 C       -3.4760     1.8660    -0.3380 C.ar  1 <1>  -0.1500 
  7 C       -4.3150    -0.3380     0.0410 C.ar  1 <1>  -0.1500 
  8 C        0.1630     2.0600    -0.6240 C.3   1 <1>   0.0400 
  9 C       -4.5740     1.0260    -0.1290 C.ar  1 <1>   0.0530 
 10 C       -5.9150     1.5640    -0.1000 C.2   1 <1>   0.0870 
 11 O       -6.1620     2.7430    -0.6130 O.3   1 <1>  -0.0190 
 12 C       -7.1010     1.0920     0.3690 C.2   1 <1>  -0.0860 
 13 N       -7.4160     3.0940    -0.5160 N.2   1 <1>  -0.4100 
 14 C       -8.0070     2.1200     0.0840 C.2   1 <1>   0.3720 
 15 C       -7.4130    -0.1430     1.0130 C.2   1 <1>   0.7160 
 16 N       -9.3780     2.1080     0.4010 N.pl3 1 <1>  -0.8210 
 17 O       -7.0000    -0.3350     2.1420 O.2   1 <1>  -0.5700 
 18 N       -8.1330    -1.1420     0.3830 N.am  1 <1>  -0.6600 
 19 C      -10.1900     3.2060    -0.1990 C.3   1 <1>   0.1290 
 20 C       -9.6800     1.8910     1.8460 C.3   1 <1>   0.1290 
 21 C       -8.6860    -1.0090    -0.9930 C.3   1 <1>   0.1400 
 22 C       -8.4750    -2.4200     1.0660 C.3   1 <1>   0.1400 
 23 C      -10.2090    -1.1830    -0.9560 C.3   1 <1>  -0.1600 
 24 C       -9.9980    -2.5800     1.1130 C.3   1 <1>  -0.1600 
 25 C      -10.6620    -2.4990    -0.2850 C.3   1 <1>   0.0000 
 26 C      -12.2010    -2.4650    -0.1250 C.3   1 <1>   0.1400 
 27 C      -10.2900    -3.7070    -1.1830 C.3   1 <1>  -0.1600 
 28 N      -12.7540    -3.7950     0.2310 N.am  1 <1>  -0.7300 
 29 C      -10.7780    -5.0510    -0.6080 C.3   1 <1>  -0.0990 
 30 C      -12.1810    -4.9900    -0.0300 C.2   1 <1>   0.5690 
 31 O      -12.7700    -6.0140     0.2020 O.2   1 <1>  -0.5700 
 32 H       -2.8390    -1.8880     0.1450 H     1 <1>   0.1500 
 33 H       -3.6350     2.9210    -0.4720 H     1 <1>   0.1500 
 34 H       -5.1230    -1.0260     0.2010 H     1 <1>   0.1500 
 35 H        0.6940     2.9800    -0.7860 H     1 <1>   0.0800 
 36 H        0.3590     1.3800    -1.4340 H     1 <1>   0.0800 
 37 H        0.4550     1.6320     0.3190 H     1 <1>   0.0800 
 38 H       -9.9820     3.2830    -1.2520 H     1 <1>   0.0800 
 39 H       -9.9460     4.1430     0.2720 H     1 <1>   0.0800 
 40 H      -11.2380     3.0030    -0.0700 H     1 <1>   0.0800 
 41 H       -9.8130     0.8390     2.0320 H     1 <1>   0.0800 
 42 H      -10.5810     2.4050     2.1320 H     1 <1>   0.0800 
 43 H       -8.8680     2.2520     2.4550 H     1 <1>   0.0800 
 44 H       -8.2390    -1.7560    -1.6240 H     1 <1>   0.0800 
 45 H       -8.4540    -0.0480    -1.4170 H     1 <1>   0.0800 
 46 H       -8.0870    -2.4360     2.0700 H     1 <1>   0.0800 
 47 H       -8.0270    -3.2380     0.5310 H     1 <1>   0.0800 
 48 H      -10.5880    -1.1300    -1.9610 H     1 <1>   0.0800 
 49 H      -10.6190    -0.3430    -0.4210 H     1 <1>   0.0800 
 50 H      -10.3860    -1.7960     1.7390 H     1 <1>   0.0800 
 51 H      -10.2390    -3.5070     1.5990 H     1 <1>   0.0800 
 52 H      -12.6530    -2.1540    -1.0520 H     1 <1>   0.0800 
 53 H      -12.4760    -1.7510     0.6330 H     1 <1>   0.0800 
 54 H       -9.2290    -3.7660    -1.3470 H     1 <1>   0.0800 
 55 H      -10.7530    -3.5720    -2.1450 H     1 <1>   0.0800 
 56 H      -13.7080    -3.8270     0.5980 H     1 <1>   0.3700 
 57 H      -10.1180    -5.3760     0.1750 H     1 <1>   0.0800 
 58 H      -10.7580    -5.8010    -1.3770 H     1 <1>   0.0800 
@<TRIPOS>BOND
  1   1   2  1   
  2   2   3  ar  
  3   2   4  ar  
  4   3   5  1   
  5   3   6  ar  
  6   4   7  ar  
  7   4  32  1   
  8   5   8  1   
  9   6   9  ar  
 10   6  33  1   
 11   7   9  ar  
 12   7  34  1   
 13   8  35  1   
 14   8  36  1   
 15   8  37  1   
 16   9  10  1   
 17  10  11  1   
 18  10  12  2   
 19  11  13  1   
 20  12  14  1   
 21  12  15  1   
 22  13  14  2   
 23  14  16  1   
 24  15  17  2   
 25  15  18  am  
 26  16  19  1   
 27  16  20  1   
 28  18  21  1   
 29  18  22  1   
 30  19  38  1   
 31  19  39  1   
 32  19  40  1   
 33  20  41  1   
 34  20  42  1   
 35  20  43  1   
 36  21  23  1   
 37  21  44  1   
 38  21  45  1   
 39  22  24  1   
 40  22  46  1   
 41  22  47  1   
 42  23  25  1   
 43  23  48  1   
 44  23  49  1   
 45  24  25  1   
 46  24  50  1   
 47  24  51  1   
 48  25  26  1   
 49  25  27  1   
 50  26  28  1   
 51  26  52  1   
 52  26  53  1   
 53  27  29  1   
 54  27  54  1   
 55  27  55  1   
 56  28  30  am  
 57  28  56  1   
 58  29  30  1   
 59  29  57  1   
 60  29  58  1   
 61  30  31  2   
@<TRIPOS>SUBSTRUCTURE
  1 ****  15 GROUP 4 **** **** 0

# MOE 2024.06 (io_trps.svl 2023.06)
