@<TRIPOS>MOLECULE
NONAME
53 56 1 0 0 
SMALL
USER_CHARGES


@<TRIPOS>ATOM
  1 O       -2.6210    -0.1190    -0.1580 O.2   1 <1>  -0.5700 
  2 C       -2.5420     1.0950    -0.0650 C.2   1 <1>   0.8060 
  3 O       -2.4280     1.8090    -1.1910 O.3   1 <1>  -0.4300 
  4 C       -2.5720     1.8060     1.2030 C.2   1 <1>   0.1410 
  5 C       -2.4290     1.2080    -2.4660 C.3   1 <1>   0.1200 
  6 N       -2.2400     3.1230     1.3390 N.2   1 <1>  -0.5650 
  7 C       -2.8880     1.2970     2.4450 C.2   1 <1>  -0.2370 
  8 C       -2.2270     2.3060    -3.5040 C.3   1 <1>  -0.2400 
  9 C       -2.3130     3.3610     2.6040 C.2   1 <1>   0.0360 
 10 N       -2.6880     2.2940     3.3240 N.pl3 1 <1>   0.0330 
 11 C       -3.3210     0.0000     2.8620 C.2   1 <1>   0.7150 
 12 O       -2.7010    -0.5670     3.7420 O.2   1 <1>  -0.5700 
 13 N       -4.4570    -0.5840     2.3640 N.am  1 <1>  -0.6600 
 14 C       -5.5080     0.0730     1.5560 C.3   1 <1>   0.1400 
 15 C       -4.7440    -2.0210     2.5200 C.3   1 <1>   0.1400 
 16 C       -6.2540    -1.0700     0.8520 C.3   1 <1>  -0.0800 
 17 C       -5.5760    -2.3900     1.2910 C.3   1 <1>  -0.0800 
 18 C       -6.4280    -0.8900    -0.6790 C.3   1 <1>   0.4240 
 19 C       -4.7080    -3.0240     0.1900 C.3   1 <1>  -0.1600 
 20 O       -5.2550    -0.3990    -1.2270 O.3   1 <1>  -0.6800 
 21 C       -7.5700     0.1070    -0.9730 C.ar  1 <1>  -0.1430 
 22 C       -6.6480    -2.2610    -1.3400 C.3   1 <1>  -0.1600 
 23 C       -5.4850    -3.2540    -1.1210 C.3   1 <1>  -0.1600 
 24 C       -8.8960    -0.2680    -0.7750 C.ar  1 <1>  -0.1500 
 25 C       -7.3230     1.4040    -1.4180 C.ar  1 <1>  -0.1500 
 26 C       -9.9360     0.6120    -1.0200 C.ar  1 <1>  -0.1500 
 27 C       -8.3590     2.2880    -1.6620 C.ar  1 <1>  -0.1500 
 28 C       -9.6690     1.8930    -1.4650 C.ar  1 <1>  -0.1500 
 29 H       -1.6290     0.4870    -2.5060 H     1 <1>   0.0800 
 30 H       -3.3740     0.7130    -2.6120 H     1 <1>   0.0800 
 31 H       -1.2880     2.8040    -3.3390 H     1 <1>   0.0800 
 32 H       -3.0280     3.0210    -3.4430 H     1 <1>   0.0800 
 33 H       -2.2230     1.8780    -4.4890 H     1 <1>   0.0800 
 34 H       -2.0960     4.3130     3.0560 H     1 <1>   0.1500 
 35 H       -2.7910     2.2270     4.3420 H     1 <1>   0.2700 
 36 H       -6.1800     0.6040     2.2080 H     1 <1>   0.0800 
 37 H       -5.0810     0.7780     0.8670 H     1 <1>   0.0800 
 38 H       -3.8340    -2.5950     2.5820 H     1 <1>   0.0800 
 39 H       -5.3170    -2.1650     3.4200 H     1 <1>   0.0800 
 40 H       -7.2410    -1.0900     1.2770 H     1 <1>   0.0800 
 41 H       -6.3240    -3.1100     1.5760 H     1 <1>   0.0800 
 42 H       -3.8650    -2.3850    -0.0050 H     1 <1>   0.0800 
 43 H       -4.3090    -3.9630     0.5340 H     1 <1>   0.0800 
 44 H       -4.4950    -0.8730    -0.8260 H     1 <1>   0.4000 
 45 H       -7.5350    -2.7030    -0.9260 H     1 <1>   0.0800 
 46 H       -6.8270    -2.1260    -2.3930 H     1 <1>   0.0800 
 47 H       -5.8820    -4.2550    -1.1330 H     1 <1>   0.0800 
 48 H       -4.7930    -3.1770    -1.9440 H     1 <1>   0.0800 
 49 H       -9.1400    -1.2540    -0.4230 H     1 <1>   0.1500 
 50 H       -6.3160     1.7460    -1.5820 H     1 <1>   0.1500 
 51 H      -10.9540     0.3010    -0.8650 H     1 <1>   0.1500 
 52 H       -8.1430     3.2840    -2.0080 H     1 <1>   0.1500 
 53 H      -10.4750     2.5790    -1.6560 H     1 <1>   0.1500 
@<TRIPOS>BOND
  1   1   2  2   
  2   2   3  1   
  3   2   4  1   
  4   3   5  1   
  5   4   6  1   
  6   4   7  2   
  7   5   8  1   
  8   5  29  1   
  9   5  30  1   
 10   6   9  2   
 11   7  10  1   
 12   7  11  1   
 13   8  31  1   
 14   8  32  1   
 15   8  33  1   
 16   9  10  1   
 17   9  34  1   
 18  10  35  1   
 19  11  12  2   
 20  11  13  am  
 21  13  14  1   
 22  13  15  1   
 23  14  16  1   
 24  14  36  1   
 25  14  37  1   
 26  15  17  1   
 27  15  38  1   
 28  15  39  1   
 29  16  17  1   
 30  16  18  1   
 31  16  40  1   
 32  17  19  1   
 33  17  41  1   
 34  18  20  1   
 35  18  21  1   
 36  18  22  1   
 37  19  23  1   
 38  19  42  1   
 39  19  43  1   
 40  20  44  1   
 41  21  24  ar  
 42  21  25  ar  
 43  22  23  1   
 44  22  45  1   
 45  22  46  1   
 46  23  47  1   
 47  23  48  1   
 48  24  26  ar  
 49  24  49  1   
 50  25  27  ar  
 51  25  50  1   
 52  26  28  ar  
 53  26  51  1   
 54  27  28  ar  
 55  27  52  1   
 56  28  53  1   
@<TRIPOS>SUBSTRUCTURE
  1 ****  14 GROUP 4 **** **** 0

# MOE 2024.06 (io_trps.svl 2023.06)
