@<TRIPOS>MOLECULE
NONAME
48 51 1 0 0 
SMALL
USER_CHARGES


@<TRIPOS>ATOM
  1 F        2.4050     0.3780     3.5450 F     1 <1>  -0.1900 
  2 C        2.4110     0.8890     2.3420 C.ar  1 <1>   0.1900 
  3 C        2.3350     0.0410     1.2410 C.ar  1 <1>   0.0860 
  4 C        2.4790     2.2640     2.1940 C.ar  1 <1>   0.1900 
  5 C        2.3280     0.6510    -0.0230 C.ar  1 <1>   0.0830 
  6 C        2.2610    -1.3880     1.4020 C.2   1 <1>   0.5440 
  7 F        2.5490     3.0390     3.2470 F     1 <1>  -0.1900 
  8 C        2.4670     2.8540     0.9440 C.ar  1 <1>  -0.1500 
  9 O        2.2300    -0.0880    -1.1450 O.3   1 <1>  -0.3630 
 10 C        2.3860     2.0330    -0.1680 C.ar  1 <1>  -0.1500 
 11 O        3.2850    -2.0100     1.6130 O.2   1 <1>  -0.5700 
 12 N        1.0720    -2.0760     1.2870 N.am  1 <1>  -0.6600 
 13 C        3.4050    -0.7200    -1.6060 C.3   1 <1>   0.0400 
 14 C        1.0020    -3.5680     1.3790 C.3   1 <1>   0.1400 
 15 C       -0.1850    -1.4950     0.7250 C.3   1 <1>   0.1400 
 16 C        0.5730    -4.1730     0.0290 C.3   1 <1>   0.3440 
 17 C       -0.5450    -2.1880    -0.6080 C.3   1 <1>   0.2950 
 18 O       -0.6190    -3.5730    -0.4170 O.3   1 <1>  -0.5600 
 19 C        0.3730    -5.6810     0.1550 C.ar  1 <1>  -0.1440 
 20 C       -1.8880    -1.7520    -1.2200 C.3   1 <1>  -0.1950 
 21 C        1.4470    -6.5330    -0.0650 C.ar  1 <1>  -0.1500 
 22 C       -0.8570    -6.2250     0.4990 C.ar  1 <1>  -0.1500 
 23 C       -2.4490    -0.3670    -1.0910 C.3   1 <1>  -0.2000 
 24 C       -3.1360    -1.5260    -0.4220 C.3   1 <1>  -0.2000 
 25 C        1.2940    -7.9030     0.0560 C.ar  1 <1>  -0.1500 
 26 C       -1.0120    -7.5950     0.6210 C.ar  1 <1>  -0.1500 
 27 C        0.0640    -8.4350     0.4000 C.ar  1 <1>  -0.1500 
 28 H        2.5170     3.9250     0.8490 H     1 <1>   0.1500 
 29 H        2.3680     2.4590    -1.1560 H     1 <1>   0.1500 
 30 H        3.1810    -1.2110    -2.5370 H     1 <1>   0.0800 
 31 H        3.7320    -1.4450    -0.8820 H     1 <1>   0.0800 
 32 H        4.1670     0.0250    -1.7580 H     1 <1>   0.0800 
 33 H        1.9530    -3.9820     1.6650 H     1 <1>   0.0800 
 34 H        0.2880    -3.8460     2.1340 H     1 <1>   0.0800 
 35 H       -0.9810    -1.6390     1.4330 H     1 <1>   0.0800 
 36 H       -0.0790    -0.4400     0.5590 H     1 <1>   0.0800 
 37 H        1.3330    -3.9780    -0.7060 H     1 <1>   0.0800 
 38 H        0.2340    -1.9900    -1.3250 H     1 <1>   0.0800 
 39 H       -2.0190    -2.2190    -2.1810 H     1 <1>   0.1000 
 40 H        2.4100    -6.1340    -0.3320 H     1 <1>   0.1500 
 41 H       -1.7020    -5.5790     0.6700 H     1 <1>   0.1500 
 42 H       -1.9740     0.3670    -0.4660 H     1 <1>   0.1000 
 43 H       -2.9170     0.0780    -1.9530 H     1 <1>   0.1000 
 44 H       -4.0660    -1.8870    -0.8270 H     1 <1>   0.1000 
 45 H       -3.1050    -1.6050     0.6500 H     1 <1>   0.1000 
 46 H        2.1320    -8.5560    -0.1170 H     1 <1>   0.1500 
 47 H       -1.9710    -8.0040     0.8860 H     1 <1>   0.1500 
 48 H       -0.0560    -9.5000     0.4940 H     1 <1>   0.1500 
@<TRIPOS>BOND
  1   1   2  1   
  2   2   3  ar  
  3   2   4  ar  
  4   3   5  ar  
  5   3   6  1   
  6   4   7  1   
  7   4   8  ar  
  8   5   9  1   
  9   5  10  ar  
 10   6  11  2   
 11   6  12  am  
 12   8  10  ar  
 13   8  28  1   
 14   9  13  1   
 15  10  29  1   
 16  12  14  1   
 17  12  15  1   
 18  13  30  1   
 19  13  31  1   
 20  13  32  1   
 21  14  16  1   
 22  14  33  1   
 23  14  34  1   
 24  15  17  1   
 25  15  35  1   
 26  15  36  1   
 27  16  18  1   
 28  16  19  1   
 29  16  37  1   
 30  17  18  1   
 31  17  20  1   
 32  17  38  1   
 33  19  21  ar  
 34  19  22  ar  
 35  20  23  1   
 36  20  24  1   
 37  20  39  1   
 38  21  25  ar  
 39  21  40  1   
 40  22  26  ar  
 41  22  41  1   
 42  23  24  1   
 43  23  42  1   
 44  23  43  1   
 45  24  44  1   
 46  24  45  1   
 47  25  27  ar  
 48  25  46  1   
 49  26  27  ar  
 50  26  47  1   
 51  27  48  1   
@<TRIPOS>SUBSTRUCTURE
  1 ****  12 GROUP 4 **** **** 0

# MOE 2024.06 (io_trps.svl 2023.06)
