@<TRIPOS>MOLECULE
NONAME
51 53 1 0 0 
SMALL
USER_CHARGES


@<TRIPOS>ATOM
  1 S        0.3190    -0.0300     1.4140 S.o2  1 <1>   1.4470 
  2 O        0.9440    -1.1420     2.0950 O.2   1 <1>  -0.6500 
  3 O       -0.2580     1.0240     2.2220 O.2   1 <1>  -0.6500 
  4 N        1.5660     0.7560     0.5630 N.am  1 <1>  -0.8490 
  5 C       -0.9080    -0.5260     0.1720 C.ar  1 <1>  -0.0090 
  6 C        2.5280     1.3320     1.5340 C.3   1 <1>   0.1960 
  7 C        2.2590    -0.1350    -0.3810 C.3   1 <1>   0.1960 
  8 C       -0.8100    -1.7220    -0.5350 C.ar  1 <1>   0.0830 
  9 C       -1.9870     0.3030    -0.1160 C.ar  1 <1>  -0.1500 
 10 C        3.5490     2.3520     0.9530 C.3   1 <1>   0.4230 
 11 C        3.1890     0.6310    -1.3440 C.3   1 <1>  -0.0800 
 12 O        0.2310    -2.5510    -0.3280 O.3   1 <1>  -0.3630 
 13 C       -1.7520    -2.0720    -1.4900 C.ar  1 <1>  -0.1500 
 14 C       -2.9370    -0.0360    -1.0670 C.ar  1 <1>  -0.1430 
 15 N        3.1180     3.0210    -0.3410 N.4   1 <1>  -0.9590 
 16 C        4.9670     1.7510     0.8520 C.3   1 <1>   0.1200 
 17 C        4.6860     0.4080    -1.0820 C.3   1 <1>   0.1200 
 18 C        2.7950     2.1080    -1.4960 C.3   1 <1>   0.3430 
 19 C       -0.0250    -3.7290     0.4000 C.3   1 <1>   0.1200 
 20 C       -2.8150    -1.2310    -1.7540 C.ar  1 <1>  -0.1500 
 21 C       -4.1070     0.8910    -1.3480 C.3   1 <1>  -0.0970 
 22 C        1.9260     3.8880    -0.0780 C.3   1 <1>   0.2630 
 23 O        4.9750     0.4860     0.2720 O.3   1 <1>  -0.5600 
 24 C        1.3090    -4.4240     0.6490 C.3   1 <1>  -0.2400 
 25 H        1.9820     1.8620     2.2950 H     1 <1>   0.0800 
 26 H        3.0500     0.5380     2.0440 H     1 <1>   0.0800 
 27 H        2.7930    -0.9120     0.1470 H     1 <1>   0.0800 
 28 H        1.5240    -0.6180    -0.9970 H     1 <1>   0.0800 
 29 H       -2.0920     1.2300     0.4210 H     1 <1>   0.1500 
 30 H        3.6370     3.1300     1.6910 H     1 <1>   0.0800 
 31 H        3.0170     0.1960    -2.3130 H     1 <1>   0.0800 
 32 H       -1.6490    -2.9970    -2.0280 H     1 <1>   0.1500 
 33 H        3.8930     3.6260    -0.6390 H     1 <1>   0.4500 
 34 H        5.3600     1.6260     1.8460 H     1 <1>   0.0800 
 35 H        5.6370     2.3960     0.3100 H     1 <1>   0.0800 
 36 H        5.3050     1.1050    -1.6230 H     1 <1>   0.0800 
 37 H        4.9560    -0.5880    -1.3920 H     1 <1>   0.0800 
 38 H        1.7310     2.1300    -1.6680 H     1 <1>   0.0800 
 39 H        3.2640     2.4970    -2.3850 H     1 <1>   0.0800 
 40 H       -0.4920    -3.4590     1.3330 H     1 <1>   0.0800 
 41 H       -0.6870    -4.3540    -0.1730 H     1 <1>   0.0800 
 42 H       -3.5460    -1.5090    -2.4940 H     1 <1>   0.1500 
 43 H       -4.4200     0.8030    -2.3730 H     1 <1>   0.0800 
 44 H       -3.8340     1.9140    -1.1630 H     1 <1>   0.0800 
 45 H       -4.9340     0.6330    -0.7110 H     1 <1>   0.0800 
 46 H        1.0890     3.2810     0.2330 H     1 <1>   0.0800 
 47 H        1.6460     4.4260    -0.9690 H     1 <1>   0.0800 
 48 H        2.1410     4.6010     0.7010 H     1 <1>   0.0800 
 49 H        1.9560    -3.7820     1.2210 H     1 <1>   0.0800 
 50 H        1.7790    -4.6750    -0.2850 H     1 <1>   0.0800 
 51 H        1.1480    -5.3280     1.2070 H     1 <1>   0.0800 
@<TRIPOS>BOND
  1   1   2  2   
  2   1   3  2   
  3   1   4  am  
  4   1   5  1   
  5   4   6  1   
  6   4   7  1   
  7   5   8  ar  
  8   5   9  ar  
  9   6  10  1   
 10   6  25  1   
 11   6  26  1   
 12   7  11  1   
 13   7  27  1   
 14   7  28  1   
 15   8  12  1   
 16   8  13  ar  
 17   9  14  ar  
 18   9  29  1   
 19  10  15  1   
 20  10  16  1   
 21  10  30  1   
 22  11  17  1   
 23  11  18  1   
 24  11  31  1   
 25  12  19  1   
 26  13  20  ar  
 27  13  32  1   
 28  14  20  ar  
 29  14  21  1   
 30  15  18  1   
 31  15  22  1   
 32  15  33  1   
 33  16  23  1   
 34  16  34  1   
 35  16  35  1   
 36  17  23  1   
 37  17  36  1   
 38  17  37  1   
 39  18  38  1   
 40  18  39  1   
 41  19  24  1   
 42  19  40  1   
 43  19  41  1   
 44  20  42  1   
 45  21  43  1   
 46  21  44  1   
 47  21  45  1   
 48  22  46  1   
 49  22  47  1   
 50  22  48  1   
 51  24  49  1   
 52  24  50  1   
 53  24  51  1   
@<TRIPOS>SUBSTRUCTURE
  1 ****   4 GROUP 4 **** **** 0

# MOE 2024.06 (io_trps.svl 2023.06)
