@<TRIPOS>MOLECULE
NONAME
23 24 1 0 0 
SMALL
USER_CHARGES


@<TRIPOS>ATOM
  1 O       -5.3060     2.3280    -1.1020 O.3   1 <1>  -0.6800 
  2 C       -5.2700     1.1620    -0.3930 C.3   1 <1>   0.2800 
  3 C       -5.2530    -0.0680    -1.2710 C.3   1 <1>  -0.1600 
  4 C       -6.4960     0.9320     0.4970 C.3   1 <1>  -0.1600 
  5 C       -3.9840     1.0110     0.4260 C.3   1 <1>  -0.1600 
  6 C       -5.1870    -0.9990    -0.0800 C.3   1 <1>   0.5030 
  7 C       -6.4350    -0.5940     0.7220 C.3   1 <1>  -0.1600 
  8 C       -3.9270    -0.5130     0.6530 C.3   1 <1>  -0.1600 
  9 N       -5.1460    -2.4100    -0.4340 N.4   1 <1>  -0.8530 
 10 H       -6.1790     2.4660    -1.5150 H     1 <1>   0.4000 
 11 H       -4.3740    -0.1020    -1.8930 H     1 <1>   0.0800 
 12 H       -6.1570    -0.1700    -1.8460 H     1 <1>   0.0800 
 13 H       -7.4040     1.2020    -0.0160 H     1 <1>   0.0800 
 14 H       -6.4230     1.4800     1.4210 H     1 <1>   0.0800 
 15 H       -4.0350     1.5590     1.3520 H     1 <1>   0.0800 
 16 H       -3.1320     1.3440    -0.1440 H     1 <1>   0.0800 
 17 H       -7.3260    -1.0520     0.3270 H     1 <1>   0.0800 
 18 H       -6.3390    -0.8270     1.7690 H     1 <1>   0.0800 
 19 H       -3.9480    -0.7490     1.7030 H     1 <1>   0.0800 
 20 H       -3.0300    -0.9070     0.2070 H     1 <1>   0.0800 
 21 H       -5.9830    -2.6690    -0.9620 H     1 <1>   0.4500 
 22 H       -5.0970    -2.9840     0.4130 H     1 <1>   0.4500 
 23 H       -4.3210    -2.6020    -1.0100 H     1 <1>   0.4500 
@<TRIPOS>BOND
  1   1   2  1   
  2   1  10  1   
  3   2   3  1   
  4   2   4  1   
  5   2   5  1   
  6   3   6  1   
  7   3  11  1   
  8   3  12  1   
  9   4   7  1   
 10   4  13  1   
 11   4  14  1   
 12   5   8  1   
 13   5  15  1   
 14   5  16  1   
 15   6   7  1   
 16   6   8  1   
 17   6   9  1   
 18   7  17  1   
 19   7  18  1   
 20   8  19  1   
 21   8  20  1   
 22   9  21  1   
 23   9  22  1   
 24   9  23  1   
@<TRIPOS>SUBSTRUCTURE
  1 ****   6 GROUP 4 **** **** 0

# MOE 2024.06 (io_trps.svl 2023.06)
