@<TRIPOS>MOLECULE
NONAME
54 57 1 0 0 
SMALL
USER_CHARGES


@<TRIPOS>ATOM
  1 O        0.1980     0.2600    -0.3710 O.3   1 <1>  -0.5600 
  2 C        1.4120    -0.3360    -0.7380 C.3   1 <1>   0.3440 
  3 C        0.1520     1.6500    -0.5060 C.3   1 <1>   0.2950 
  4 C        1.3200    -1.8430    -0.5510 C.ar  1 <1>  -0.1440 
  5 C        2.5540     0.2180     0.1440 C.3   1 <1>   0.3430 
  6 C       -1.2510     2.1030    -0.1000 C.3   1 <1>  -0.1950 
  7 C        1.2270     2.3050     0.3910 C.3   1 <1>   0.3430 
  8 C        0.5980    -2.3970     0.4990 C.ar  1 <1>  -0.1500 
  9 C        1.9860    -2.6870    -1.4300 C.ar  1 <1>  -0.1500 
 10 N        2.6070     1.7280     0.1740 N.4   1 <1>  -0.9590 
 11 C       -2.3940     2.0330    -1.0630 C.3   1 <1>  -0.2000 
 12 C       -1.8440     3.3670    -0.6420 C.3   1 <1>  -0.2000 
 13 C        0.5500    -3.7690     0.6720 C.ar  1 <1>  -0.1500 
 14 C        1.9380    -4.0600    -1.2560 C.ar  1 <1>  -0.1500 
 15 C        3.5750     2.2270     1.1880 C.3   1 <1>   0.4860 
 16 C        1.2220    -4.6010    -0.2040 C.ar  1 <1>  -0.1500 
 17 C        3.7350     3.7210     0.9880 C.ar  1 <1>  -0.1430 
 18 C        3.0910     4.6120     1.8350 C.ar  1 <1>  -0.1500 
 19 C        4.5230     4.2100    -0.0460 C.ar  1 <1>  -0.1500 
 20 C        3.2210     5.9750     1.6370 C.ar  1 <1>  -0.1500 
 21 C        4.6530     5.5740    -0.2420 C.ar  1 <1>  -0.1500 
 22 C        3.9970     6.4650     0.6010 C.ar  1 <1>   0.0820 
 23 O        4.0680     7.8130     0.4790 O.3   1 <1>  -0.3630 
 24 C        4.9090     8.4250    -0.4750 C.3   1 <1>   0.1200 
 25 C        4.7770     9.9400    -0.3350 C.3   1 <1>   0.1200 
 26 O        5.6550    10.5590    -1.2140 O.3   1 <1>  -0.6800 
 27 H        1.5920    -0.1160    -1.7760 H     1 <1>   0.0800 
 28 H        0.3220     1.8980    -1.5400 H     1 <1>   0.0800 
 29 H        3.4910    -0.1800    -0.2100 H     1 <1>   0.0800 
 30 H        2.4000    -0.1590     1.1420 H     1 <1>   0.0800 
 31 H       -1.4760     1.8600     0.9260 H     1 <1>   0.1000 
 32 H        0.9310     2.1590     1.4170 H     1 <1>   0.0800 
 33 H        1.2380     3.3670     0.2050 H     1 <1>   0.0800 
 34 H        0.0590    -1.7670     1.1860 H     1 <1>   0.1500 
 35 H        2.5450    -2.2940    -2.2610 H     1 <1>   0.1500 
 36 H        2.9390     2.0740    -0.7360 H     1 <1>   0.4500 
 37 H       -2.2140     1.6850    -2.0660 H     1 <1>   0.1000 
 38 H       -3.3590     1.7280    -0.6940 H     1 <1>   0.1000 
 39 H       -2.4510     3.9820     0.0010 H     1 <1>   0.1000 
 40 H       -1.3240     3.9450    -1.3860 H     1 <1>   0.1000 
 41 H       -0.0140    -4.1910     1.4860 H     1 <1>   0.1500 
 42 H        2.4540    -4.7110    -1.9410 H     1 <1>   0.1500 
 43 H        3.2170     2.0210     2.1840 H     1 <1>   0.0800 
 44 H        4.5320     1.7470     1.0610 H     1 <1>   0.0800 
 45 H        1.1840    -5.6690    -0.0700 H     1 <1>   0.1500 
 46 H        2.4850     4.2660     2.6560 H     1 <1>   0.1500 
 47 H        5.0490     3.5420    -0.7070 H     1 <1>   0.1500 
 48 H        2.7230     6.6730     2.2880 H     1 <1>   0.1500 
 49 H        5.2680     5.9260    -1.0500 H     1 <1>   0.1500 
 50 H        5.9200     8.1130    -0.2790 H     1 <1>   0.0800 
 51 H        4.5930     8.1160    -1.4560 H     1 <1>   0.0800 
 52 H        5.0150    10.2600     0.6650 H     1 <1>   0.0800 
 53 H        3.7790    10.2520    -0.5920 H     1 <1>   0.0800 
 54 H        6.5780    10.4730    -0.9050 H     1 <1>   0.4000 
@<TRIPOS>BOND
  1   1   2  1   
  2   1   3  1   
  3   2   4  1   
  4   2   5  1   
  5   2  27  1   
  6   3   6  1   
  7   3   7  1   
  8   3  28  1   
  9   4   8  ar  
 10   4   9  ar  
 11   5  10  1   
 12   5  29  1   
 13   5  30  1   
 14   6  11  1   
 15   6  12  1   
 16   6  31  1   
 17   7  10  1   
 18   7  32  1   
 19   7  33  1   
 20   8  13  ar  
 21   8  34  1   
 22   9  14  ar  
 23   9  35  1   
 24  10  15  1   
 25  10  36  1   
 26  11  12  1   
 27  11  37  1   
 28  11  38  1   
 29  12  39  1   
 30  12  40  1   
 31  13  16  ar  
 32  13  41  1   
 33  14  16  ar  
 34  14  42  1   
 35  15  17  1   
 36  15  43  1   
 37  15  44  1   
 38  16  45  1   
 39  17  18  ar  
 40  17  19  ar  
 41  18  20  ar  
 42  18  46  1   
 43  19  21  ar  
 44  19  47  1   
 45  20  22  ar  
 46  20  48  1   
 47  21  22  ar  
 48  21  49  1   
 49  22  23  1   
 50  23  24  1   
 51  24  25  1   
 52  24  50  1   
 53  24  51  1   
 54  25  26  1   
 55  25  52  1   
 56  25  53  1   
 57  26  54  1   
@<TRIPOS>SUBSTRUCTURE
  1 ****  10 GROUP 4 **** **** 0

# MOE 2024.06 (io_trps.svl 2023.06)
