@<TRIPOS>MOLECULE
NONAME
44 47 1 0 0 
SMALL
USER_CHARGES


@<TRIPOS>ATOM
  1 S        0.1430    -0.4120    -0.8940 S.3   1 <1>  -0.0800 
  2 C       -0.6410    -1.7720    -1.6870 C.ar  1 <1>   0.2970 
  3 C       -0.7790    -0.6720     0.5870 C.2   1 <1>  -0.1400 
  4 N       -0.3590    -2.1240    -2.9240 N.ar  1 <1>  -0.5670 
  5 C       -1.5470    -2.3700    -0.8450 C.ar  1 <1>   0.0000 
  6 C       -1.6120    -1.7240     0.4520 C.2   1 <1>  -0.1810 
  7 C       -0.4790     0.3040     1.7100 C.3   1 <1>  -0.0600 
  8 C       -1.0600    -3.1660    -3.3190 C.ar  1 <1>   0.4700 
  9 C       -2.2110    -3.4670    -1.4090 C.ar  1 <1>   0.4100 
 10 C       -2.5590    -2.2340     1.5270 C.3   1 <1>  -0.0590 
 11 N       -1.9650    -3.8630    -2.6470 N.ar  1 <1>  -0.6200 
 12 N       -3.1430    -4.2070    -0.7210 N.pl3 1 <1>  -0.8380 
 13 C       -4.5250    -4.2720    -1.2720 C.3   1 <1>   0.2090 
 14 C       -2.7270    -5.5610    -0.2710 C.3   1 <1>   0.2090 
 15 C       -4.8320    -5.7610    -1.4190 C.3   1 <1>   0.2000 
 16 C       -3.9720    -6.4440    -0.3630 C.3   1 <1>  -0.0800 
 17 O       -6.1730    -6.0470    -1.2020 O.3   1 <1>  -0.6800 
 18 C       -3.6610    -7.9100    -0.6980 C.3   1 <1>   0.0200 
 19 C       -2.6790    -8.4970     0.2970 C.2   1 <1>  -0.0400 
 20 O       -2.9800    -8.5390     1.5680 O.3   1 <1>  -0.0190 
 21 C       -1.4530    -9.0190     0.1460 C.2   1 <1>  -0.1500 
 22 N       -2.0180    -9.0550     2.2760 N.2   1 <1>  -0.4100 
 23 C       -1.0860    -9.3570     1.4450 C.2   1 <1>   0.1080 
 24 C        0.2300    -9.9900     1.8370 C.3   1 <1>  -0.0590 
 25 H       -1.0670     0.0880     2.5810 H     1 <1>   0.0800 
 26 H       -0.6970     1.3060     1.3870 H     1 <1>   0.0800 
 27 H        0.5610     0.2440     1.9740 H     1 <1>   0.0800 
 28 H       -0.8720    -3.4990    -4.3260 H     1 <1>   0.1500 
 29 H       -3.5690    -2.2130     1.1600 H     1 <1>   0.0800 
 30 H       -2.5090    -1.6340     2.4150 H     1 <1>   0.0800 
 31 H       -2.3060    -3.2460     1.7850 H     1 <1>   0.0800 
 32 H       -5.1990    -3.8100    -0.5720 H     1 <1>   0.0800 
 33 H       -4.5900    -3.7740    -2.2240 H     1 <1>   0.0800 
 34 H       -1.9500    -5.9330    -0.9200 H     1 <1>   0.0800 
 35 H       -2.3520    -5.5270     0.7380 H     1 <1>   0.0800 
 36 H       -4.5680    -6.0830    -2.4120 H     1 <1>   0.0800 
 37 H       -4.4650    -6.3910     0.5920 H     1 <1>   0.0800 
 38 H       -6.4300    -5.8040    -0.2920 H     1 <1>   0.4000 
 39 H       -3.2430    -7.9790    -1.6870 H     1 <1>   0.0800 
 40 H       -4.5710    -8.4840    -0.6790 H     1 <1>   0.0800 
 41 H       -0.8650    -9.1570    -0.7420 H     1 <1>   0.1500 
 42 H        0.3410   -10.9370     1.3420 H     1 <1>   0.0800 
 43 H        0.2600   -10.1470     2.9000 H     1 <1>   0.0800 
 44 H        1.0430    -9.3460     1.5580 H     1 <1>   0.0800 
@<TRIPOS>BOND
  1   1   2  1   
  2   1   3  1   
  3   2   4  ar  
  4   2   5  ar  
  5   3   6  2   
  6   3   7  1   
  7   4   8  ar  
  8   5   6  1   
  9   5   9  ar  
 10   6  10  1   
 11   7  25  1   
 12   7  26  1   
 13   7  27  1   
 14   8  11  ar  
 15   8  28  1   
 16   9  11  ar  
 17   9  12  1   
 18  10  29  1   
 19  10  30  1   
 20  10  31  1   
 21  12  13  1   
 22  12  14  1   
 23  13  15  1   
 24  13  32  1   
 25  13  33  1   
 26  14  16  1   
 27  14  34  1   
 28  14  35  1   
 29  15  16  1   
 30  15  17  1   
 31  15  36  1   
 32  16  18  1   
 33  16  37  1   
 34  17  38  1   
 35  18  19  1   
 36  18  39  1   
 37  18  40  1   
 38  19  20  1   
 39  19  21  2   
 40  20  22  1   
 41  21  23  1   
 42  21  41  1   
 43  22  23  2   
 44  23  24  1   
 45  24  42  1   
 46  24  43  1   
 47  24  44  1   
@<TRIPOS>SUBSTRUCTURE
  1 ****  14 GROUP 4 **** **** 0

# MOE 2024.06 (io_trps.svl 2023.06)
