@<TRIPOS>MOLECULE
NONAME
21 21 1 0 0 
SMALL
USER_CHARGES


@<TRIPOS>ATOM
  1 F        3.2670    -1.6290     0.8690 F     1 <1>  -0.2980 
  2 C        4.2350    -1.5720    -0.0440 C.3   1 <1>   0.5960 
  3 F        4.1900    -2.6760    -0.7760 F     1 <1>  -0.2980 
  4 C        5.6290    -1.2210     0.5280 C.3   1 <1>   0.0000 
  5 C        4.2610    -0.2530    -0.8520 C.3   1 <1>   0.0000 
  6 C        5.3070     0.2640     0.1850 C.3   1 <1>   0.2630 
  7 N        4.6440     0.9510     1.3250 N.3   1 <1>  -0.9300 
  8 C        6.5180     1.0200    -0.4140 C.2   1 <1>   0.5770 
  9 O        6.9320     0.7380    -1.5140 O.2   1 <1>  -0.5700 
 10 N        7.0920     1.9970     0.3390 N.am  1 <1>  -0.7300 
 11 C        8.2640     2.8240    -0.0400 C.3   1 <1>   0.0600 
 12 H        6.4280    -1.6150    -0.0770 H     1 <1>   0.0000 
 13 H        5.7470    -1.4120     1.5800 H     1 <1>   0.0000 
 14 H        3.3340     0.2940    -0.8470 H     1 <1>   0.0000 
 15 H        4.6710    -0.3930    -1.8370 H     1 <1>   0.0000 
 16 H        3.8870     0.3530     1.6850 H     1 <1>   0.3600 
 17 H        4.1980     1.8070     0.9710 H     1 <1>   0.3600 
 18 H        6.6880     2.1520     1.2700 H     1 <1>   0.3700 
 19 H        8.6000     2.5630    -1.0300 H     1 <1>   0.0800 
 20 H        9.0680     2.6560     0.6550 H     1 <1>   0.0800 
 21 H        7.9940     3.8650    -0.0290 H     1 <1>   0.0800 
@<TRIPOS>BOND
  1   1   2  1   
  2   2   3  1   
  3   2   4  1   
  4   2   5  1   
  5   4   6  1   
  6   4  12  1   
  7   4  13  1   
  8   5   6  1   
  9   5  14  1   
 10   5  15  1   
 11   6   7  1   
 12   6   8  1   
 13   7  16  1   
 14   7  17  1   
 15   8   9  2   
 16   8  10  am  
 17  10  11  1   
 18  10  18  1   
 19  11  19  1   
 20  11  20  1   
 21  11  21  1   
@<TRIPOS>SUBSTRUCTURE
  1 ****   6 GROUP 4 **** **** 0

# MOE 2024.06 (io_trps.svl 2023.06)
