@<TRIPOS>MOLECULE
NONAME
49 52 1 0 0 
SMALL
USER_CHARGES


@<TRIPOS>ATOM
  1 O       -0.7230     0.6310    -2.2930 O.2   1 <1>  -0.5700 
  2 C       -1.1430     1.3970    -1.4440 C.2   1 <1>   0.5440 
  3 N       -2.3330     1.1020    -0.8010 N.am  1 <1>  -0.6600 
  4 C       -0.4260     2.6290    -1.2110 C.ar  1 <1>   0.0860 
  5 C       -3.0240    -0.2090    -1.0260 C.3   1 <1>   0.1400 
  6 C       -3.0210     2.0660     0.1070 C.3   1 <1>   0.1400 
  7 C        0.4100     2.7850    -0.0760 C.ar  1 <1>   0.3100 
  8 C       -0.5600     3.6690    -2.1080 C.ar  1 <1>  -0.1500 
  9 C       -3.3280    -0.9610     0.2780 C.3   1 <1>   0.1400 
 10 C       -2.8440     1.6420     1.5700 C.3   1 <1>  -0.1600 
 11 N        0.5650     1.7610     0.8100 N.ar  1 <1>  -0.6200 
 12 C        1.0710     4.0240     0.1120 C.ar  1 <1>   0.0000 
 13 C        0.0940     4.8840    -1.9190 C.ar  1 <1>  -0.1500 
 14 N       -4.4060    -0.2820     1.0640 N.am  1 <1>  -0.6600 
 15 C       -3.9350     0.6960     2.0880 C.3   1 <1>   0.1400 
 16 C        1.3400     1.9430     1.8350 C.ar  1 <1>   0.1600 
 17 C        1.8960     4.1810     1.2390 C.ar  1 <1>  -0.1500 
 18 C        0.8940     5.0580    -0.8250 C.ar  1 <1>  -0.1500 
 19 C       -5.7520    -0.5480     0.9090 C.2   1 <1>   0.5690 
 20 C        2.0260     3.1330     2.0980 C.ar  1 <1>  -0.1500 
 21 O       -6.5730     0.0200     1.5990 O.2   1 <1>  -0.5700 
 22 C       -6.2670    -1.5260    -0.1790 C.3   1 <1>   0.2610 
 23 O       -5.8290    -2.8530     0.0110 O.3   1 <1>  -0.5600 
 24 C       -7.7860    -1.6300    -0.3260 C.3   1 <1>  -0.1600 
 25 C       -6.8110    -3.7850    -0.3260 C.3   1 <1>   0.1200 
 26 C       -7.9630    -3.0020    -0.9400 C.3   1 <1>  -0.1600 
 27 H       -3.9340    -0.0390    -1.5710 H     1 <1>   0.0800 
 28 H       -2.4050    -0.8490    -1.6300 H     1 <1>   0.0800 
 29 H       -2.6070     3.0500    -0.0220 H     1 <1>   0.0800 
 30 H       -4.0660     2.1230    -0.1440 H     1 <1>   0.0800 
 31 H       -1.1830     3.5390    -2.9770 H     1 <1>   0.1500 
 32 H       -2.4290    -1.0330     0.8650 H     1 <1>   0.0800 
 33 H       -3.6220    -1.9650     0.0410 H     1 <1>   0.0800 
 34 H       -2.8610     2.5220     2.1860 H     1 <1>   0.0800 
 35 H       -1.8800     1.1900     1.7050 H     1 <1>   0.0800 
 36 H       -0.0370     5.6730    -2.6410 H     1 <1>   0.1500 
 37 H       -4.7660     1.2950     2.4200 H     1 <1>   0.0800 
 38 H       -3.5680     0.1560     2.9440 H     1 <1>   0.0800 
 39 H        1.4620     1.1260     2.5260 H     1 <1>   0.1500 
 40 H        2.4070     5.1130     1.4030 H     1 <1>   0.1500 
 41 H        1.4040     5.9920    -0.6680 H     1 <1>   0.1500 
 42 H        2.6470     3.1960     2.9730 H     1 <1>   0.1500 
 43 H       -5.8640    -1.2100    -1.1230 H     1 <1>   0.0800 
 44 H       -8.2520    -1.6020     0.6440 H     1 <1>   0.0800 
 45 H       -8.1880    -0.8390    -0.9340 H     1 <1>   0.0800 
 46 H       -6.3950    -4.5060    -1.0080 H     1 <1>   0.0800 
 47 H       -7.1190    -4.2720     0.5830 H     1 <1>   0.0800 
 48 H       -7.8380    -2.9590    -2.0080 H     1 <1>   0.0800 
 49 H       -8.9180    -3.4410    -0.7090 H     1 <1>   0.0800 
@<TRIPOS>BOND
  1   1   2  2   
  2   2   3  am  
  3   2   4  1   
  4   3   5  1   
  5   3   6  1   
  6   4   7  ar  
  7   4   8  ar  
  8   5   9  1   
  9   5  27  1   
 10   5  28  1   
 11   6  10  1   
 12   6  29  1   
 13   6  30  1   
 14   7  11  ar  
 15   7  12  ar  
 16   8  13  ar  
 17   8  31  1   
 18   9  14  1   
 19   9  32  1   
 20   9  33  1   
 21  10  15  1   
 22  10  34  1   
 23  10  35  1   
 24  11  16  ar  
 25  12  17  ar  
 26  12  18  ar  
 27  13  18  ar  
 28  13  36  1   
 29  14  15  1   
 30  14  19  am  
 31  15  37  1   
 32  15  38  1   
 33  16  20  ar  
 34  16  39  1   
 35  17  20  ar  
 36  17  40  1   
 37  18  41  1   
 38  19  21  2   
 39  19  22  1   
 40  20  42  1   
 41  22  23  1   
 42  22  24  1   
 43  22  43  1   
 44  23  25  1   
 45  24  26  1   
 46  24  44  1   
 47  24  45  1   
 48  25  26  1   
 49  25  46  1   
 50  25  47  1   
 51  26  48  1   
 52  26  49  1   
@<TRIPOS>SUBSTRUCTURE
  1 ****   3 GROUP 4 **** **** 0

# MOE 2024.06 (io_trps.svl 2023.06)
