@<TRIPOS>MOLECULE
NONAME
46 48 1 0 0 
SMALL
USER_CHARGES


@<TRIPOS>ATOM
  1 CL      -3.0010    -0.3660     2.0260 Cl    1 <1>  -0.1770 
  2 C       -2.8720     1.1100     1.1040 C.ar  1 <1>   0.1770 
  3 C       -2.0830     2.1370     1.5770 C.ar  1 <1>  -0.1500 
  4 C       -3.5620     1.2240    -0.0870 C.ar  1 <1>  -0.1500 
  5 C       -1.9650     3.3220     0.8550 C.ar  1 <1>   0.0860 
  6 C       -3.4560     2.3930    -0.8190 C.ar  1 <1>  -0.1500 
  7 C       -2.6600     3.4420    -0.3570 C.ar  1 <1>   0.0830 
  8 C       -1.1450     4.3980     1.3630 C.2   1 <1>   0.5440 
  9 O       -2.5190     4.6000    -1.0520 O.3   1 <1>  -0.3630 
 10 O       -1.6420     5.2790     2.0400 O.2   1 <1>  -0.5700 
 11 N        0.1950     4.5060     1.0670 N.am  1 <1>  -0.6600 
 12 C       -3.3740     4.9350    -2.1260 C.3   1 <1>   0.0400 
 13 C        1.0880     5.4120     1.8830 C.3   1 <1>   0.1400 
 14 C        0.7190     4.1400    -0.2830 C.3   1 <1>   0.1400 
 15 C        1.1970     6.8430     1.2920 C.3   1 <1>   0.4230 
 16 C        0.9320     5.3580    -1.2190 C.3   1 <1>  -0.0800 
 17 N       -0.0210     7.0930     0.4380 N.4   1 <1>  -0.9590 
 18 C        2.5680     7.0630     0.6010 C.3   1 <1>   0.1200 
 19 C        2.4100     5.7550    -1.3510 C.3   1 <1>   0.1200 
 20 C        0.0610     6.6090    -0.9760 C.3   1 <1>   0.3430 
 21 C       -0.4360     8.5560     0.4740 C.3   1 <1>   0.2370 
 22 O        2.9950     5.9310    -0.1060 O.3   1 <1>  -0.5600 
 23 C        0.5990     9.5360    -0.0820 C.2   1 <1>   0.9060 
 24 O        1.4050    10.0300     0.7100 O.co2 1 <1>  -0.9000 
 25 O        0.6820     9.6600    -1.3080 O.co2 1 <1>  -0.9000 
 26 H       -1.5620     2.0220     2.5100 H     1 <1>   0.1500 
 27 H       -4.1710     0.4060    -0.4300 H     1 <1>   0.1500 
 28 H       -3.9960     2.4630    -1.7450 H     1 <1>   0.1500 
 29 H       -3.1500     5.9400    -2.4350 H     1 <1>   0.0800 
 30 H       -4.3950     4.8770    -1.7910 H     1 <1>   0.0800 
 31 H       -3.1990     4.2560    -2.9420 H     1 <1>   0.0800 
 32 H        0.6870     5.4920     2.8790 H     1 <1>   0.0800 
 33 H        2.0630     4.9670     1.9820 H     1 <1>   0.0800 
 34 H        1.6480     3.6070    -0.1610 H     1 <1>   0.0800 
 35 H        0.0360     3.4600    -0.7600 H     1 <1>   0.0800 
 36 H        1.1650     7.5370     2.1160 H     1 <1>   0.0800 
 37 H        0.6630     5.0230    -2.2040 H     1 <1>   0.0800 
 38 H       -0.7560     6.5250     0.9040 H     1 <1>   0.4500 
 39 H        3.3050     7.2370     1.3640 H     1 <1>   0.0800 
 40 H        2.5760     7.9180    -0.0500 H     1 <1>   0.0800 
 41 H        2.5330     6.6580    -1.9270 H     1 <1>   0.0800 
 42 H        2.9560     4.9670    -1.8400 H     1 <1>   0.0800 
 43 H       -0.9390     6.4030    -1.3160 H     1 <1>   0.0800 
 44 H        0.4470     7.4040    -1.5960 H     1 <1>   0.0800 
 45 H       -1.3380     8.6900    -0.0940 H     1 <1>   0.0800 
 46 H       -0.6320     8.8500     1.4890 H     1 <1>   0.0800 
@<TRIPOS>BOND
  1   1   2  1   
  2   2   3  ar  
  3   2   4  ar  
  4   3   5  ar  
  5   3  26  1   
  6   4   6  ar  
  7   4  27  1   
  8   5   7  ar  
  9   5   8  1   
 10   6   7  ar  
 11   6  28  1   
 12   7   9  1   
 13   8  10  2   
 14   8  11  am  
 15   9  12  1   
 16  11  13  1   
 17  11  14  1   
 18  12  29  1   
 19  12  30  1   
 20  12  31  1   
 21  13  15  1   
 22  13  32  1   
 23  13  33  1   
 24  14  16  1   
 25  14  34  1   
 26  14  35  1   
 27  15  17  1   
 28  15  18  1   
 29  15  36  1   
 30  16  19  1   
 31  16  20  1   
 32  16  37  1   
 33  17  20  1   
 34  17  21  1   
 35  17  38  1   
 36  18  22  1   
 37  18  39  1   
 38  18  40  1   
 39  19  22  1   
 40  19  41  1   
 41  19  42  1   
 42  20  43  1   
 43  20  44  1   
 44  21  23  1   
 45  21  45  1   
 46  21  46  1   
 47  23  24  ar  
 48  23  25  ar  
@<TRIPOS>SUBSTRUCTURE
  1 ****  11 GROUP 4 **** **** 0

# MOE 2024.06 (io_trps.svl 2023.06)
