@<TRIPOS>MOLECULE
NONAME
54 57 1 0 0 
SMALL
USER_CHARGES


@<TRIPOS>ATOM
  1 O        0.4570    -0.8520     2.4060 O.2   1 <1>  -0.5700 
  2 C        0.7370    -1.6420     1.5190 C.2   1 <1>   0.5440 
  3 N        0.7640    -1.1510     0.2260 N.am  1 <1>  -0.6600 
  4 C        1.0490    -3.0280     1.8780 C.ar  1 <1>   0.3960 
  5 C        0.4260     0.2510    -0.1040 C.3   1 <1>   0.1400 
  6 C        1.1950    -1.8900    -0.9810 C.3   1 <1>   0.1400 
  7 N        0.7700    -4.0470     1.0440 N.ar  1 <1>  -0.6200 
  8 C        1.6400    -3.2550     3.1260 C.ar  1 <1>   0.1600 
  9 C        0.4490     0.3120    -1.6280 C.3   1 <1>  -0.1600 
 10 C        1.3890    -0.8160    -2.0450 C.3   1 <1>  -0.1600 
 11 C        1.1070    -5.2260     1.5180 C.ar  1 <1>   0.4100 
 12 N        1.9980    -4.4360     3.6130 N.ar  1 <1>  -0.6200 
 13 N        0.8030    -6.2600     0.6740 N.pl3 1 <1>  -0.8690 
 14 C        1.7180    -5.4060     2.7680 C.ar  1 <1>   0.1600 
 15 C        0.0380    -7.4300     1.1500 C.3   1 <1>   0.2090 
 16 C       -1.3060    -7.4610     0.4320 C.3   1 <1>  -0.1600 
 17 C       -2.1740    -8.6030     0.9570 C.3   1 <1>   0.2090 
 18 N       -3.4400    -8.6390     0.1810 N.pl3 1 <1>  -0.8380 
 19 C       -3.7130    -9.7470    -0.6460 C.ar  1 <1>   0.1000 
 20 C       -4.5540    -7.8800     0.8210 C.3   1 <1>   0.2090 
 21 C       -5.0090   -10.2570    -0.7740 C.ar  1 <1>  -0.1430 
 22 C       -2.6980   -10.3590    -1.3800 C.ar  1 <1>  -0.1500 
 23 C       -5.8780    -8.0980     0.0920 C.3   1 <1>  -0.1600 
 24 C       -5.2570   -11.3620    -1.5720 C.ar  1 <1>  -0.1500 
 25 C       -6.1620    -9.5930    -0.0450 C.3   1 <1>  -0.0170 
 26 C       -2.9470   -11.4600    -2.1780 C.ar  1 <1>  -0.1500 
 27 C       -4.2290   -11.9680    -2.2710 C.ar  1 <1>  -0.1500 
 28 H        1.1770     0.9000     0.3140 H     1 <1>   0.0800 
 29 H       -0.5400     0.5150     0.2920 H     1 <1>   0.0800 
 30 H        0.4120    -2.5700    -1.2730 H     1 <1>   0.0800 
 31 H        2.1040    -2.4370    -0.8000 H     1 <1>   0.0800 
 32 H        1.8280    -2.4010     3.7550 H     1 <1>   0.1500 
 33 H        0.7750     1.2730    -1.9840 H     1 <1>   0.0800 
 34 H       -0.5430     0.1180    -1.9980 H     1 <1>   0.0800 
 35 H        1.1740    -1.1870    -3.0310 H     1 <1>   0.0800 
 36 H        2.4080    -0.4730    -2.0130 H     1 <1>   0.0800 
 37 H        0.4360    -5.8990    -0.2110 H     1 <1>   0.4000 
 38 H        1.9790    -6.4070     3.0560 H     1 <1>   0.1500 
 39 H       -0.1180    -7.3650     2.2150 H     1 <1>   0.0800 
 40 H        0.5940    -8.3280     0.9370 H     1 <1>   0.0800 
 41 H       -1.1480    -7.5990    -0.6220 H     1 <1>   0.0800 
 42 H       -1.8200    -6.5300     0.5950 H     1 <1>   0.0800 
 43 H       -2.3890    -8.4540     2.0010 H     1 <1>   0.0800 
 44 H       -1.6560    -9.5420     0.8640 H     1 <1>   0.0800 
 45 H       -4.3150    -6.8300     0.8170 H     1 <1>   0.0800 
 46 H       -4.6580    -8.2020     1.8430 H     1 <1>   0.0800 
 47 H       -1.7020    -9.9650    -1.3350 H     1 <1>   0.1500 
 48 H       -5.8170    -7.6500    -0.8840 H     1 <1>   0.0800 
 49 H       -6.6730    -7.6190     0.6340 H     1 <1>   0.0800 
 50 H       -6.2540   -11.7550    -1.6570 H     1 <1>   0.1500 
 51 H       -6.2670   -10.0400     0.9280 H     1 <1>   0.0800 
 52 H       -7.0790    -9.7360    -0.5890 H     1 <1>   0.0800 
 53 H       -2.1460   -11.9190    -2.7290 H     1 <1>   0.1500 
 54 H       -4.4280   -12.8260    -2.8890 H     1 <1>   0.1500 
@<TRIPOS>BOND
  1   1   2  2   
  2   2   3  am  
  3   2   4  1   
  4   3   5  1   
  5   3   6  1   
  6   4   7  ar  
  7   4   8  ar  
  8   5   9  1   
  9   5  28  1   
 10   5  29  1   
 11   6  10  1   
 12   6  30  1   
 13   6  31  1   
 14   7  11  ar  
 15   8  12  ar  
 16   8  32  1   
 17   9  10  1   
 18   9  33  1   
 19   9  34  1   
 20  10  35  1   
 21  10  36  1   
 22  11  13  1   
 23  11  14  ar  
 24  12  14  ar  
 25  13  15  1   
 26  13  37  1   
 27  14  38  1   
 28  15  16  1   
 29  15  39  1   
 30  15  40  1   
 31  16  17  1   
 32  16  41  1   
 33  16  42  1   
 34  17  18  1   
 35  17  43  1   
 36  17  44  1   
 37  18  19  1   
 38  18  20  1   
 39  19  21  ar  
 40  19  22  ar  
 41  20  23  1   
 42  20  45  1   
 43  20  46  1   
 44  21  24  ar  
 45  21  25  1   
 46  22  26  ar  
 47  22  47  1   
 48  23  25  1   
 49  23  48  1   
 50  23  49  1   
 51  24  27  ar  
 52  24  50  1   
 53  25  51  1   
 54  25  52  1   
 55  26  27  ar  
 56  26  53  1   
 57  27  54  1   
@<TRIPOS>SUBSTRUCTURE
  1 ****  16 GROUP 4 **** **** 0

# MOE 2024.06 (io_trps.svl 2023.06)
