@<TRIPOS>MOLECULE
NONAME
57 58 1 0 0 
SMALL
USER_CHARGES


@<TRIPOS>ATOM
  1 O        0.7280     0.6520    -2.2730 O.co2 1 <1>  -0.9000 
  2 C        1.4330    -0.0700    -1.5640 C.2   1 <1>   0.9060 
  3 O        1.6580    -1.2560    -1.8060 O.co2 1 <1>  -0.9000 
  4 C        2.0880     0.5570    -0.3550 C.3   1 <1>  -0.2660 
  5 C        2.9940     1.7270    -0.7630 C.3   1 <1>  -0.1600 
  6 C        3.6010     2.4230     0.4550 C.3   1 <1>  -0.1600 
  7 C        4.3910     3.6390    -0.0140 C.3   1 <1>   0.3430 
  8 N        4.8810     4.4150     1.1690 N.4   1 <1>  -0.9590 
  9 C        5.0310     5.9070     0.8800 C.3   1 <1>   0.3430 
 10 C        6.0470     3.7330     1.8270 C.3   1 <1>   0.2630 
 11 C        6.3300     6.5600     0.2350 C.3   1 <1>   0.5030 
 12 N        5.9770     7.9700    -0.2410 N.4   1 <1>  -0.9590 
 13 C        6.7730     5.7170    -0.9970 C.3   1 <1>  -0.1600 
 14 C        7.4540     6.6440     1.3140 C.3   1 <1>  -0.1600 
 15 C        7.1090     8.7530    -0.8500 C.3   1 <1>   0.3430 
 16 C        5.3120     8.8310     0.8040 C.3   1 <1>   0.3430 
 17 C        8.2190     5.8660    -1.5210 C.3   1 <1>  -0.1600 
 18 C        8.7680     5.9190     0.9640 C.3   1 <1>  -0.1600 
 19 C        6.5780    10.0150    -1.5310 C.3   1 <1>  -0.1600 
 20 C        4.7240    10.0870     0.1610 C.3   1 <1>  -0.1600 
 21 C        9.2400     6.2710    -0.4460 C.3   1 <1>  -0.1600 
 22 C        5.8000    10.9050    -0.5580 C.3   1 <1>  -0.1600 
 23 H        2.6510    -0.2030     0.1520 H     1 <1>   0.0800 
 24 H        1.3000     0.8940     0.2900 H     1 <1>   0.0800 
 25 H        2.4010     2.4260    -1.3320 H     1 <1>   0.0800 
 26 H        3.7680     1.3490    -1.4120 H     1 <1>   0.0800 
 27 H        4.2330     1.7220     0.9710 H     1 <1>   0.0800 
 28 H        2.8000     2.7280     1.1060 H     1 <1>   0.0800 
 29 H        3.7370     4.2520    -0.6130 H     1 <1>   0.0800 
 30 H        5.2120     3.3140    -0.6330 H     1 <1>   0.0800 
 31 H        4.0990     4.3290     1.8400 H     1 <1>   0.4500 
 32 H        4.8810     6.4170     1.8160 H     1 <1>   0.0800 
 33 H        4.2050     6.1850     0.2480 H     1 <1>   0.0800 
 34 H        6.8910     3.6900     1.1590 H     1 <1>   0.0800 
 35 H        5.7840     2.7230     2.0990 H     1 <1>   0.0800 
 36 H        6.3360     4.2550     2.7250 H     1 <1>   0.0800 
 37 H        5.3040     7.8800    -1.0120 H     1 <1>   0.4500 
 38 H        6.0780     5.8390    -1.8100 H     1 <1>   0.0800 
 39 H        6.7220     4.6850    -0.7180 H     1 <1>   0.0800 
 40 H        7.1090     6.2470     2.2510 H     1 <1>   0.0800 
 41 H        7.7080     7.6670     1.5200 H     1 <1>   0.0800 
 42 H        7.6180     8.1730    -1.5940 H     1 <1>   0.0800 
 43 H        7.8240     9.0280    -0.0910 H     1 <1>   0.0800 
 44 H        6.0330     9.1220     1.5520 H     1 <1>   0.0800 
 45 H        4.5140     8.2980     1.2930 H     1 <1>   0.0800 
 46 H        8.2700     6.5500    -2.3500 H     1 <1>   0.0800 
 47 H        8.5230     4.9130    -1.9240 H     1 <1>   0.0800 
 48 H        8.6500     4.8520     1.0370 H     1 <1>   0.0800 
 49 H        9.5310     6.2000     1.6720 H     1 <1>   0.0800 
 50 H        5.9520     9.7410    -2.3630 H     1 <1>   0.0800 
 51 H        7.4080    10.5730    -1.9300 H     1 <1>   0.0800 
 52 H        4.2740    10.6970     0.9260 H     1 <1>   0.0800 
 53 H        3.9440     9.8140    -0.5290 H     1 <1>   0.0800 
 54 H        9.4400     7.3270    -0.5000 H     1 <1>   0.0800 
 55 H       10.1760     5.7740    -0.6450 H     1 <1>   0.0800 
 56 H        5.3450    11.7240    -1.0920 H     1 <1>   0.0800 
 57 H        6.4780    11.3260     0.1660 H     1 <1>   0.0800 
@<TRIPOS>BOND
  1   1   2  ar  
  2   2   3  ar  
  3   2   4  1   
  4   4   5  1   
  5   4  23  1   
  6   4  24  1   
  7   5   6  1   
  8   5  25  1   
  9   5  26  1   
 10   6   7  1   
 11   6  27  1   
 12   6  28  1   
 13   7   8  1   
 14   7  29  1   
 15   7  30  1   
 16   8   9  1   
 17   8  10  1   
 18   8  31  1   
 19   9  11  1   
 20   9  32  1   
 21   9  33  1   
 22  10  34  1   
 23  10  35  1   
 24  10  36  1   
 25  11  12  1   
 26  11  13  1   
 27  11  14  1   
 28  12  15  1   
 29  12  16  1   
 30  12  37  1   
 31  13  17  1   
 32  13  38  1   
 33  13  39  1   
 34  14  18  1   
 35  14  40  1   
 36  14  41  1   
 37  15  19  1   
 38  15  42  1   
 39  15  43  1   
 40  16  20  1   
 41  16  44  1   
 42  16  45  1   
 43  17  21  1   
 44  17  46  1   
 45  17  47  1   
 46  18  21  1   
 47  18  48  1   
 48  18  49  1   
 49  19  22  1   
 50  19  50  1   
 51  19  51  1   
 52  20  22  1   
 53  20  52  1   
 54  20  53  1   
 55  21  54  1   
 56  21  55  1   
 57  22  56  1   
 58  22  57  1   
@<TRIPOS>SUBSTRUCTURE
  1 ****   9 GROUP 4 **** **** 0

# MOE 2024.06 (io_trps.svl 2023.06)
