@<TRIPOS>MOLECULE
NONAME
41 43 1 0 0 
SMALL
USER_CHARGES


@<TRIPOS>ATOM
  1 O       -1.3310    -0.1320    -0.1900 O.2   1 <1>  -0.5700 
  2 C       -2.0660     0.8090     0.0520 C.2   1 <1>   0.7160 
  3 N       -3.3180     0.5340     0.5510 N.am  1 <1>  -0.6600 
  4 C       -1.6210     2.1580    -0.2070 C.2   1 <1>  -0.0860 
  5 C       -3.5920    -0.7830     1.1950 C.3   1 <1>   0.1400 
  6 C       -4.5400     1.1890     0.0050 C.3   1 <1>   0.1400 
  7 C       -0.6280     2.5680    -1.0400 C.2   1 <1>  -0.0100 
  8 C       -2.1010     3.3570     0.3640 C.2   1 <1>  -0.1500 
  9 C       -4.1870    -1.7440     0.1380 C.3   1 <1>   0.4230 
 10 C       -5.1930     0.2460    -1.0180 C.3   1 <1>  -0.1600 
 11 O       -0.4920     3.8720    -1.0230 O.3   1 <1>  -0.2800 
 12 C       -1.3750     4.3560    -0.1770 C.2   1 <1>  -0.0100 
 13 N       -4.4070    -3.1480     0.6280 N.4   1 <1>  -0.9590 
 14 C       -5.5020    -1.1560    -0.4190 C.3   1 <1>  -0.1060 
 15 C       -4.8640    -4.0500    -0.4600 C.3   1 <1>   0.3430 
 16 C       -3.2850    -3.7290     1.4110 C.3   1 <1>   0.2630 
 17 C       -6.5170    -1.0450     0.7360 C.2   1 <1>   0.9060 
 18 C       -6.0450    -2.0690    -1.5440 C.3   1 <1>  -0.1600 
 19 C       -6.1640    -3.5280    -1.0770 C.3   1 <1>  -0.1600 
 20 O       -6.4880    -1.8920     1.6440 O.co2 1 <1>  -0.9000 
 21 O       -7.3180    -0.1120     0.7520 O.co2 1 <1>  -0.9000 
 22 H       -2.6720    -1.1770     1.5860 H     1 <1>   0.0800 
 23 H       -4.2750    -0.6410     2.0160 H     1 <1>   0.0800 
 24 H       -5.2260     1.4020     0.8100 H     1 <1>   0.0800 
 25 H       -4.2970     2.1200    -0.4780 H     1 <1>   0.0800 
 26 H        0.0170     1.9800    -1.6700 H     1 <1>   0.1500 
 27 H       -2.8910     3.4220     1.0920 H     1 <1>   0.1500 
 28 H       -3.4740    -1.7870    -0.6680 H     1 <1>   0.0800 
 29 H       -6.1080     0.6990    -1.3630 H     1 <1>   0.0800 
 30 H       -4.5400     0.1580    -1.8680 H     1 <1>   0.0800 
 31 H       -1.4140     5.4200    -0.0190 H     1 <1>   0.1500 
 32 H       -5.2410    -3.0060     1.2610 H     1 <1>   0.4500 
 33 H       -4.1030    -4.1100    -1.2210 H     1 <1>   0.0800 
 34 H       -5.0340    -5.0380    -0.0660 H     1 <1>   0.0800 
 35 H       -2.3910    -3.7680     0.8100 H     1 <1>   0.0800 
 36 H       -3.5370    -4.7260     1.7330 H     1 <1>   0.0800 
 37 H       -3.0930    -3.1310     2.2860 H     1 <1>   0.0800 
 38 H       -7.0140    -1.7130    -1.8550 H     1 <1>   0.0800 
 39 H       -5.3890    -2.0270    -2.3970 H     1 <1>   0.0800 
 40 H       -6.4320    -4.1500    -1.9130 H     1 <1>   0.0800 
 41 H       -6.9550    -3.6150    -0.3510 H     1 <1>   0.0800 
@<TRIPOS>BOND
  1   1   2  2   
  2   2   3  am  
  3   2   4  1   
  4   3   5  1   
  5   3   6  1   
  6   4   7  2   
  7   4   8  1   
  8   5   9  1   
  9   5  22  1   
 10   5  23  1   
 11   6  10  1   
 12   6  24  1   
 13   6  25  1   
 14   7  11  1   
 15   7  26  1   
 16   8  12  2   
 17   8  27  1   
 18   9  13  1   
 19   9  14  1   
 20   9  28  1   
 21  10  14  1   
 22  10  29  1   
 23  10  30  1   
 24  11  12  1   
 25  12  31  1   
 26  13  15  1   
 27  13  16  1   
 28  13  32  1   
 29  14  17  1   
 30  14  18  1   
 31  15  19  1   
 32  15  33  1   
 33  15  34  1   
 34  16  35  1   
 35  16  36  1   
 36  16  37  1   
 37  17  20  ar  
 38  17  21  ar  
 39  18  19  1   
 40  18  38  1   
 41  18  39  1   
 42  19  40  1   
 43  19  41  1   
@<TRIPOS>SUBSTRUCTURE
  1 ****   3 GROUP 4 **** **** 0

# MOE 2024.06 (io_trps.svl 2023.06)
