@<TRIPOS>MOLECULE
NONAME
44 45 1 0 0 
SMALL
USER_CHARGES


@<TRIPOS>ATOM
  1 CL      -1.0790    -1.1010    -1.9160 Cl    1 <1>  -0.1770 
  2 C        0.4150    -2.0070    -1.8420 C.ar  1 <1>   0.1770 
  3 C        0.8320    -2.6070    -0.6590 C.ar  1 <1>  -0.1440 
  4 C        1.1570    -2.1070    -3.0040 C.ar  1 <1>  -0.1500 
  5 C        2.0260    -3.3160    -0.6690 C.ar  1 <1>  -0.1500 
  6 C        0.0380    -2.5240     0.6450 C.3   1 <1>   0.0450 
  7 C        2.3430    -2.8190    -2.9980 C.ar  1 <1>  -0.1500 
  8 C        2.7750    -3.4230    -1.8290 C.ar  1 <1>  -0.1500 
  9 C       -0.3240    -3.8990     1.1890 C.2   1 <1>   0.5690 
 10 O        0.2010    -4.2570     2.2160 O.2   1 <1>  -0.5700 
 11 N       -1.2170    -4.7020     0.5310 N.am  1 <1>  -0.6600 
 12 C       -1.8950    -4.4040    -0.7560 C.3   1 <1>   0.1400 
 13 C       -1.5050    -6.0950     0.9570 C.3   1 <1>   0.1400 
 14 C       -2.9620    -5.4880    -0.8780 C.3   1 <1>   0.2000 
 15 C       -2.3320    -6.6990    -0.1860 C.3   1 <1>  -0.0800 
 16 O       -4.0760    -5.0820    -0.1590 O.3   1 <1>  -0.6800 
 17 C       -3.3510    -7.7720     0.2580 C.3   1 <1>  -0.0550 
 18 S       -2.6120    -9.2800     0.8880 S.o2  1 <1>   1.3330 
 19 O       -1.7690    -8.9330     2.0100 O.2   1 <1>  -0.6500 
 20 O       -3.6430   -10.2780     1.0530 O.2   1 <1>  -0.6500 
 21 N       -1.6070    -9.7850    -0.3860 N.am  1 <1>  -0.8490 
 22 C       -2.3210   -10.5360    -1.4250 C.3   1 <1>   0.1160 
 23 C       -0.4590   -10.5630     0.0890 C.3   1 <1>   0.1160 
 24 H        0.8090    -1.6310    -3.9030 H     1 <1>   0.1500 
 25 H        2.3780    -3.7930     0.2320 H     1 <1>   0.1500 
 26 H       -0.8650    -1.9580     0.5360 H     1 <1>   0.0800 
 27 H        0.6390    -2.0170     1.3780 H     1 <1>   0.0800 
 28 H        2.9290    -2.9040    -3.8980 H     1 <1>   0.1500 
 29 H        3.6980    -3.9770    -1.8200 H     1 <1>   0.1500 
 30 H       -2.3280    -3.4190    -0.7690 H     1 <1>   0.0800 
 31 H       -1.1830    -4.5000    -1.5570 H     1 <1>   0.0800 
 32 H       -0.5900    -6.6420     1.1170 H     1 <1>   0.0800 
 33 H       -2.0650    -6.0720     1.8770 H     1 <1>   0.0800 
 34 H       -3.2590    -5.6770    -1.8950 H     1 <1>   0.0800 
 35 H       -1.6410    -7.1440    -0.8810 H     1 <1>   0.0800 
 36 H       -3.7810    -4.7380     0.7090 H     1 <1>   0.4000 
 37 H       -3.9700    -8.0190    -0.5820 H     1 <1>   0.0800 
 38 H       -3.9930    -7.3630     1.0140 H     1 <1>   0.0800 
 39 H       -1.6590   -10.7510    -2.2460 H     1 <1>   0.0800 
 40 H       -3.1490    -9.9590    -1.7980 H     1 <1>   0.0800 
 41 H       -2.6990   -11.4640    -1.0270 H     1 <1>   0.0800 
 42 H        0.1620   -10.8580    -0.7390 H     1 <1>   0.0800 
 43 H       -0.7940   -11.4420     0.6140 H     1 <1>   0.0800 
 44 H        0.1380    -9.9670     0.7600 H     1 <1>   0.0800 
@<TRIPOS>BOND
  1   1   2  1   
  2   2   3  ar  
  3   2   4  ar  
  4   3   5  ar  
  5   3   6  1   
  6   4   7  ar  
  7   4  24  1   
  8   5   8  ar  
  9   5  25  1   
 10   6   9  1   
 11   6  26  1   
 12   6  27  1   
 13   7   8  ar  
 14   7  28  1   
 15   8  29  1   
 16   9  10  2   
 17   9  11  am  
 18  11  12  1   
 19  11  13  1   
 20  12  14  1   
 21  12  30  1   
 22  12  31  1   
 23  13  15  1   
 24  13  32  1   
 25  13  33  1   
 26  14  15  1   
 27  14  16  1   
 28  14  34  1   
 29  15  17  1   
 30  15  35  1   
 31  16  36  1   
 32  17  18  1   
 33  17  37  1   
 34  17  38  1   
 35  18  19  2   
 36  18  20  2   
 37  18  21  am  
 38  21  22  1   
 39  21  23  1   
 40  22  39  1   
 41  22  40  1   
 42  22  41  1   
 43  23  42  1   
 44  23  43  1   
 45  23  44  1   
@<TRIPOS>SUBSTRUCTURE
  1 ****  11 GROUP 4 **** **** 0

# MOE 2024.06 (io_trps.svl 2023.06)
