@<TRIPOS>MOLECULE
NONAME
52 54 1 0 0 
SMALL
USER_CHARGES


@<TRIPOS>ATOM
  1 S       -0.6400     0.0260    -1.6070 S.3   1 <1>  -0.0800 
  2 C       -0.9630     1.3860    -0.5540 C.ar  1 <1>   0.0400 
  3 C       -1.9050    -0.8860    -0.7920 C.2   1 <1>   0.1980 
  4 C       -1.9850     1.0290     0.3050 C.ar  1 <1>   0.2270 
  5 C       -0.3450     2.6230    -0.5320 C.ar  1 <1>  -0.1500 
  6 N       -2.4970    -0.2590     0.1440 N.2   1 <1>  -0.5650 
  7 C       -2.1470    -2.2970    -1.2950 C.3   1 <1>   0.0200 
  8 C       -2.4120     1.9610     1.2400 C.ar  1 <1>  -0.1500 
  9 C       -0.7840     3.5410     0.4070 C.ar  1 <1>  -0.1500 
 10 C       -3.1750    -3.0380    -0.4230 C.3   1 <1>  -0.0990 
 11 C       -1.8120     3.2100     1.2880 C.ar  1 <1>  -0.1500 
 12 C       -3.5120    -4.4360    -0.9170 C.2   1 <1>   0.5690 
 13 O       -3.0350    -4.8110    -1.9600 O.2   1 <1>  -0.5700 
 14 N       -4.3720    -5.2370    -0.2140 N.am  1 <1>  -0.6600 
 15 C       -4.4770    -6.6790    -0.6480 C.3   1 <1>   0.3210 
 16 C       -5.1470    -4.7680     0.9870 C.3   1 <1>   0.1400 
 17 C       -5.4810    -7.5370     0.1270 C.2   1 <1>   0.0460 
 18 C       -6.4150    -3.9590     0.6230 C.3   1 <1>   0.3430 
 19 N       -6.8160    -7.4110    -0.0600 N.2   1 <1>  -0.5650 
 20 C       -5.2170    -8.5020     1.0400 C.2   1 <1>  -0.3320 
 21 N       -7.2460    -4.5940    -0.4500 N.4   1 <1>  -0.9590 
 22 C       -7.3250    -8.3110     0.7200 C.2   1 <1>   0.0360 
 23 N       -6.4050    -9.0060     1.4180 N.pl3 1 <1>   0.0330 
 24 C       -3.9020    -9.0250     1.5990 C.3   1 <1>  -0.0600 
 25 C       -6.8420    -4.1820    -1.8290 C.3   1 <1>   0.2630 
 26 C       -8.7040    -4.3820    -0.2330 C.3   1 <1>   0.2630 
 27 H        0.4470     2.8540    -1.2220 H     1 <1>   0.1500 
 28 H       -1.2160    -2.8360    -1.2930 H     1 <1>   0.0800 
 29 H       -2.4990    -2.2420    -2.3100 H     1 <1>   0.0800 
 30 H       -3.2040     1.6990     1.9160 H     1 <1>   0.1500 
 31 H       -0.3300     4.5160     0.4590 H     1 <1>   0.1500 
 32 H       -4.0760    -2.4560    -0.3930 H     1 <1>   0.0800 
 33 H       -2.7780    -3.1080     0.5740 H     1 <1>   0.0800 
 34 H       -2.1420     3.9350     2.0120 H     1 <1>   0.1500 
 35 H       -3.5020    -7.1260    -0.5650 H     1 <1>   0.0800 
 36 H       -4.7460    -6.7120    -1.6900 H     1 <1>   0.0800 
 37 H       -4.5150    -4.1530     1.6020 H     1 <1>   0.0800 
 38 H       -5.4280    -5.6000     1.6080 H     1 <1>   0.0800 
 39 H       -6.1290    -2.9670     0.3180 H     1 <1>   0.0800 
 40 H       -7.0050    -3.8590     1.5190 H     1 <1>   0.0800 
 41 H       -7.0690    -5.6240    -0.3790 H     1 <1>   0.4500 
 42 H       -8.3780    -8.5110     0.8190 H     1 <1>   0.1500 
 43 H       -6.5780    -9.7690     2.0820 H     1 <1>   0.2700 
 44 H       -3.0680    -8.4680     1.2120 H     1 <1>   0.0800 
 45 H       -3.7720   -10.0590     1.3320 H     1 <1>   0.0800 
 46 H       -3.8940    -8.9410     2.6710 H     1 <1>   0.0800 
 47 H       -6.9650    -3.1190    -1.9560 H     1 <1>   0.0800 
 48 H       -7.4480    -4.6920    -2.5600 H     1 <1>   0.0800 
 49 H       -5.8120    -4.4370    -2.0140 H     1 <1>   0.0800 
 50 H       -8.9450    -3.3330    -0.2900 H     1 <1>   0.0800 
 51 H       -8.9940    -4.7550     0.7360 H     1 <1>   0.0800 
 52 H       -9.2700    -4.9100    -0.9830 H     1 <1>   0.0800 
@<TRIPOS>BOND
  1   1   2  1   
  2   1   3  1   
  3   2   4  ar  
  4   2   5  ar  
  5   3   6  2   
  6   3   7  1   
  7   4   6  1   
  8   4   8  ar  
  9   5   9  ar  
 10   5  27  1   
 11   7  10  1   
 12   7  28  1   
 13   7  29  1   
 14   8  11  ar  
 15   8  30  1   
 16   9  11  ar  
 17   9  31  1   
 18  10  12  1   
 19  10  32  1   
 20  10  33  1   
 21  11  34  1   
 22  12  13  2   
 23  12  14  am  
 24  14  15  1   
 25  14  16  1   
 26  15  17  1   
 27  15  35  1   
 28  15  36  1   
 29  16  18  1   
 30  16  37  1   
 31  16  38  1   
 32  17  19  1   
 33  17  20  2   
 34  18  21  1   
 35  18  39  1   
 36  18  40  1   
 37  19  22  2   
 38  20  23  1   
 39  20  24  1   
 40  21  25  1   
 41  21  26  1   
 42  21  41  1   
 43  22  23  1   
 44  22  42  1   
 45  23  43  1   
 46  24  44  1   
 47  24  45  1   
 48  24  46  1   
 49  25  47  1   
 50  25  48  1   
 51  25  49  1   
 52  26  50  1   
 53  26  51  1   
 54  26  52  1   
@<TRIPOS>SUBSTRUCTURE
  1 ****  10 GROUP 4 **** **** 0

# MOE 2024.06 (io_trps.svl 2023.06)
