@<TRIPOS>MOLECULE
NONAME
53 54 1 0 0 
SMALL
USER_CHARGES


@<TRIPOS>ATOM
  1 S        0.2440     0.3630    -0.6030 S.o2  1 <1>   1.3330 
  2 O        0.1090     0.7480    -1.9900 O.2   1 <1>  -0.6500 
  3 O        0.0670    -1.0210    -0.2280 O.2   1 <1>  -0.6500 
  4 N       -0.8480     1.2890     0.3080 N.am  1 <1>  -0.8490 
  5 C        1.8380     0.9680    -0.0500 C.3   1 <1>  -0.0550 
  6 C       -1.0400     0.7790     1.6710 C.3   1 <1>   0.1160 
  7 C       -2.1480     1.4170    -0.3580 C.3   1 <1>   0.1160 
  8 C        3.0350     0.2740    -0.7440 C.3   1 <1>  -0.0800 
  9 C        4.3810     0.9500    -0.4980 C.3   1 <1>   0.2200 
 10 C        3.3010    -1.0800    -0.0900 C.3   1 <1>   0.1200 
 11 N        4.3050     2.4340    -0.4940 N.am  1 <1>  -0.7300 
 12 C        4.8270     0.3470     0.8390 C.3   1 <1>   0.1200 
 13 O        4.0230    -0.7780     1.0580 O.3   1 <1>  -0.5600 
 14 C        5.3520     3.2650    -0.2030 C.2   1 <1>   0.5440 
 15 O        6.4090     2.7650     0.1270 O.2   1 <1>  -0.5700 
 16 C        5.2050     4.7070    -0.3120 C.ar  1 <1>   0.0860 
 17 C        6.3090     5.5230    -0.5600 C.ar  1 <1>  -0.1500 
 18 C        3.9670     5.3380    -0.1790 C.ar  1 <1>  -0.1500 
 19 C        6.1840     6.8950    -0.6820 C.ar  1 <1>  -0.1500 
 20 C        3.8360     6.7090    -0.3020 C.ar  1 <1>  -0.1500 
 21 C        4.9450     7.4990    -0.5560 C.ar  1 <1>  -0.1440 
 22 C        4.7980     9.0100    -0.6930 C.3   1 <1>  -0.0170 
 23 C        4.6100     9.7110     0.6650 C.3   1 <1>  -0.0800 
 24 C        4.3610    11.2110     0.4610 C.3   1 <1>  -0.2400 
 25 C        5.8230     9.5100     1.5850 C.3   1 <1>  -0.2400 
 26 H        1.8580     2.0180    -0.2540 H     1 <1>   0.0800 
 27 H        1.9250     0.8470     1.0130 H     1 <1>   0.0800 
 28 H       -1.6740     1.4460     2.2290 H     1 <1>   0.0800 
 29 H       -0.0940     0.7080     2.1790 H     1 <1>   0.0800 
 30 H       -1.4930    -0.1990     1.6480 H     1 <1>   0.0800 
 31 H       -2.8150     2.0190     0.2350 H     1 <1>   0.0800 
 32 H       -2.5890     0.4450    -0.5100 H     1 <1>   0.0800 
 33 H       -2.0270     1.8940    -1.3160 H     1 <1>   0.0800 
 34 H        2.8500     0.1610    -1.7980 H     1 <1>   0.0800 
 35 H        5.0850     0.6440    -1.2540 H     1 <1>   0.0800 
 36 H        3.9190    -1.7000    -0.7170 H     1 <1>   0.0800 
 37 H        2.4130    -1.6230     0.1850 H     1 <1>   0.0800 
 38 H        3.5300     2.8290    -1.0260 H     1 <1>   0.3700 
 39 H        4.6730     1.0310     1.6550 H     1 <1>   0.0800 
 40 H        5.8570     0.0380     0.8040 H     1 <1>   0.0800 
 41 H        7.2810     5.0690    -0.6560 H     1 <1>   0.1500 
 42 H        3.0900     4.7530     0.0340 H     1 <1>   0.1500 
 43 H        7.0590     7.4920    -0.8730 H     1 <1>   0.1500 
 44 H        2.8670     7.1650    -0.1950 H     1 <1>   0.1500 
 45 H        5.6630     9.4150    -1.1900 H     1 <1>   0.0800 
 46 H        3.9470     9.2140    -1.3190 H     1 <1>   0.0800 
 47 H        3.7450     9.2890     1.1500 H     1 <1>   0.0800 
 48 H        5.2070    11.6750    -0.0170 H     1 <1>   0.0800 
 49 H        4.1950    11.6940     1.4070 H     1 <1>   0.0800 
 50 H        3.4910    11.3670    -0.1530 H     1 <1>   0.0800 
 51 H        6.7170     9.8900     1.1240 H     1 <1>   0.0800 
 52 H        5.9640     8.4660     1.8000 H     1 <1>   0.0800 
 53 H        5.6730    10.0230     2.5180 H     1 <1>   0.0800 
@<TRIPOS>BOND
  1   1   2  2   
  2   1   3  2   
  3   1   4  am  
  4   1   5  1   
  5   4   6  1   
  6   4   7  1   
  7   5   8  1   
  8   5  26  1   
  9   5  27  1   
 10   6  28  1   
 11   6  29  1   
 12   6  30  1   
 13   7  31  1   
 14   7  32  1   
 15   7  33  1   
 16   8   9  1   
 17   8  10  1   
 18   8  34  1   
 19   9  11  1   
 20   9  12  1   
 21   9  35  1   
 22  10  13  1   
 23  10  36  1   
 24  10  37  1   
 25  11  14  am  
 26  11  38  1   
 27  12  13  1   
 28  12  39  1   
 29  12  40  1   
 30  14  15  2   
 31  14  16  1   
 32  16  17  ar  
 33  16  18  ar  
 34  17  19  ar  
 35  17  41  1   
 36  18  20  ar  
 37  18  42  1   
 38  19  21  ar  
 39  19  43  1   
 40  20  21  ar  
 41  20  44  1   
 42  21  22  1   
 43  22  23  1   
 44  22  45  1   
 45  22  46  1   
 46  23  24  1   
 47  23  25  1   
 48  23  47  1   
 49  24  48  1   
 50  24  49  1   
 51  24  50  1   
 52  25  51  1   
 53  25  52  1   
 54  25  53  1   
@<TRIPOS>SUBSTRUCTURE
  1 ****  11 GROUP 4 **** **** 0

# MOE 2024.06 (io_trps.svl 2023.06)
