@<TRIPOS>MOLECULE
NONAME
52 56 1 0 0 
SMALL
USER_CHARGES


@<TRIPOS>ATOM
  1 S       -0.7120    -1.0090    -0.1450 S.3   1 <1>  -0.0800 
  2 C       -2.1130    -1.1640    -1.2080 C.ar  1 <1>   0.2970 
  3 C       -1.3640     0.4660     0.5590 C.2   1 <1>  -0.1400 
  4 N       -2.2290    -2.1420    -2.0810 N.ar  1 <1>  -0.5670 
  5 C       -3.0140    -0.1460    -0.9890 C.ar  1 <1>   0.0000 
  6 C       -2.5460     0.7890     0.0130 C.2   1 <1>  -0.1810 
  7 C       -0.5870     1.2050     1.6250 C.3   1 <1>   0.0200 
  8 C       -3.3460    -2.0610    -2.7750 C.ar  1 <1>   0.4700 
  9 C       -4.1710    -0.2180    -1.7740 C.ar  1 <1>   0.4100 
 10 C       -3.2780     2.0550     0.4320 C.3   1 <1>   0.0210 
 11 C       -1.4910     2.2810     2.2540 C.3   1 <1>  -0.1600 
 12 N       -4.3190    -1.1670    -2.6840 N.ar  1 <1>  -0.6200 
 13 N       -5.2240     0.6560    -1.6200 N.pl3 1 <1>  -0.8380 
 14 C       -2.3380     3.0130     1.1930 C.3   1 <1>  -0.1600 
 15 C       -6.1250     0.4570    -0.4490 C.3   1 <1>   0.2090 
 16 C       -5.8440     1.3040    -2.8160 C.3   1 <1>   0.2090 
 17 C       -7.3930    -0.3800    -0.7860 C.3   1 <1>   0.0000 
 18 C       -7.3750     1.1770    -2.8110 C.3   1 <1>  -0.1600 
 19 C       -8.4900    -0.0080     0.2380 C.3   1 <1>   0.2000 
 20 C       -7.8050    -0.1940    -2.2740 C.3   1 <1>  -0.1600 
 21 C       -7.1400    -1.8640    -0.4670 C.3   1 <1>  -0.1600 
 22 O       -9.7350    -0.4960    -0.1760 O.3   1 <1>  -0.5600 
 23 C       -8.0920    -0.7630     1.5120 C.3   1 <1>  -0.1600 
 24 C       -7.3570    -2.0270     1.0440 C.3   1 <1>  -0.1600 
 25 C      -10.8380     0.1830     0.3330 C.3   1 <1>   0.0400 
 26 H       -0.2500     0.5190     2.3830 H     1 <1>   0.0800 
 27 H        0.2730     1.6640     1.1700 H     1 <1>   0.0800 
 28 H       -3.4910    -2.8290    -3.5160 H     1 <1>   0.1500 
 29 H       -3.6660     2.5560    -0.4370 H     1 <1>   0.0800 
 30 H       -4.1020     1.7850     1.0660 H     1 <1>   0.0800 
 31 H       -2.1530     1.8090     2.9590 H     1 <1>   0.0800 
 32 H       -0.8840     2.9880     2.7930 H     1 <1>   0.0800 
 33 H       -1.6770     3.4830     0.4840 H     1 <1>   0.0800 
 34 H       -2.9220     3.7870     1.6600 H     1 <1>   0.0800 
 35 H       -5.5750    -0.0110     0.3490 H     1 <1>   0.0800 
 36 H       -6.4200     1.4320    -0.1040 H     1 <1>   0.0800 
 37 H       -5.5660     2.3430    -2.8390 H     1 <1>   0.0800 
 38 H       -5.4590     0.8450    -3.7100 H     1 <1>   0.0800 
 39 H       -7.8030     1.9570    -2.2070 H     1 <1>   0.0800 
 40 H       -7.7380     1.3070    -3.8140 H     1 <1>   0.0800 
 41 H       -8.5590     1.0570     0.3830 H     1 <1>   0.0800 
 42 H       -7.3070    -0.9430    -2.8660 H     1 <1>   0.0800 
 43 H       -8.8600    -0.3350    -2.4180 H     1 <1>   0.0800 
 44 H       -7.8720    -2.4640    -0.9820 H     1 <1>   0.0800 
 45 H       -6.1600    -2.1860    -0.7740 H     1 <1>   0.0800 
 46 H       -7.4150    -0.1560     2.0850 H     1 <1>   0.0800 
 47 H       -8.9410    -1.0020     2.1270 H     1 <1>   0.0800 
 48 H       -6.4150    -2.1240     1.5550 H     1 <1>   0.0800 
 49 H       -7.9500    -2.9050     1.2360 H     1 <1>   0.0800 
 50 H      -11.7250    -0.3050    -0.0300 H     1 <1>   0.0800 
 51 H      -10.8180     1.2010    -0.0130 H     1 <1>   0.0800 
 52 H      -10.8200     0.1470     1.4080 H     1 <1>   0.0800 
@<TRIPOS>BOND
  1   1   2  1   
  2   1   3  1   
  3   2   4  ar  
  4   2   5  ar  
  5   3   6  2   
  6   3   7  1   
  7   4   8  ar  
  8   5   6  1   
  9   5   9  ar  
 10   6  10  1   
 11   7  11  1   
 12   7  26  1   
 13   7  27  1   
 14   8  12  ar  
 15   8  28  1   
 16   9  12  ar  
 17   9  13  1   
 18  10  14  1   
 19  10  29  1   
 20  10  30  1   
 21  11  14  1   
 22  11  31  1   
 23  11  32  1   
 24  13  15  1   
 25  13  16  1   
 26  14  33  1   
 27  14  34  1   
 28  15  17  1   
 29  15  35  1   
 30  15  36  1   
 31  16  18  1   
 32  16  37  1   
 33  16  38  1   
 34  17  19  1   
 35  17  20  1   
 36  17  21  1   
 37  18  20  1   
 38  18  39  1   
 39  18  40  1   
 40  19  22  1   
 41  19  23  1   
 42  19  41  1   
 43  20  42  1   
 44  20  43  1   
 45  21  24  1   
 46  21  44  1   
 47  21  45  1   
 48  22  25  1   
 49  23  24  1   
 50  23  46  1   
 51  23  47  1   
 52  24  48  1   
 53  24  49  1   
 54  25  50  1   
 55  25  51  1   
 56  25  52  1   
@<TRIPOS>SUBSTRUCTURE
  1 ****  13 GROUP 4 **** **** 0

# MOE 2024.06 (io_trps.svl 2023.06)
