@<TRIPOS>MOLECULE
NONAME
48 49 1 0 0 
SMALL
USER_CHARGES


@<TRIPOS>ATOM
  1 O        0.7090    -0.9840     1.0140 O.co2 1 <1>  -0.9000 
  2 C        1.5810    -0.8010     0.1690 C.2   1 <1>   0.9060 
  3 O        1.6280    -1.3900    -0.9180 O.co2 1 <1>  -0.9000 
  4 C        2.6800     0.1860     0.4820 C.3   1 <1>  -0.1860 
  5 C        4.0450    -0.4870     0.3030 C.3   1 <1>   0.2000 
  6 C        2.5650     1.4860    -0.3580 C.3   1 <1>  -0.1600 
  7 O        4.1850    -0.8300    -1.0310 O.3   1 <1>  -0.6800 
  8 C        5.1850     0.4840     0.6740 C.3   1 <1>   0.3430 
  9 C        3.9240     2.0800    -0.7430 C.3   1 <1>   0.3430 
 10 N        4.8650     1.9450     0.4120 N.4   1 <1>  -0.9590 
 11 C        6.1300     2.7220     0.2270 C.3   1 <1>   0.3430 
 12 C        5.9020     4.2370     0.2260 C.3   1 <1>   0.1200 
 13 O        7.1640     4.8530     0.1470 O.3   1 <1>  -0.3630 
 14 C        7.2840     6.2060     0.1230 C.ar  1 <1>   0.0820 
 15 C        6.2050     7.0840     0.1970 C.ar  1 <1>  -0.1500 
 16 C        8.5700     6.7140     0.0180 C.ar  1 <1>  -0.1500 
 17 C        6.4260     8.4500     0.1650 C.ar  1 <1>  -0.1500 
 18 C        8.7890     8.0800    -0.0140 C.ar  1 <1>  -0.1500 
 19 C        7.7110     8.9570     0.0590 C.ar  1 <1>   0.0820 
 20 O        7.8300    10.3100     0.0350 O.3   1 <1>  -0.3620 
 21 C        9.0930    10.9280    -0.0690 C.3   1 <1>   0.1200 
 22 C        8.8850    12.4430    -0.0700 C.3   1 <1>  -0.1600 
 23 C       10.2190    13.1900    -0.1810 C.3   1 <1>  -0.2400 
 24 H        2.5740     0.4390     1.5200 H     1 <1>   0.0800 
 25 H        4.1080    -1.3960     0.8780 H     1 <1>   0.0800 
 26 H        1.9740     2.2080     0.1770 H     1 <1>   0.0800 
 27 H        2.0380     1.2700    -1.2730 H     1 <1>   0.0800 
 28 H        3.3010    -1.2330    -1.3000 H     1 <1>   0.4000 
 29 H        6.0570     0.1870     0.1160 H     1 <1>   0.0800 
 30 H        5.4070     0.3620     1.7210 H     1 <1>   0.0800 
 31 H        3.7970     3.1110    -1.0270 H     1 <1>   0.0800 
 32 H        4.3180     1.5370    -1.5890 H     1 <1>   0.0800 
 33 H        4.3550     2.2850     1.2370 H     1 <1>   0.4500 
 34 H        6.8090     2.4880     1.0310 H     1 <1>   0.0800 
 35 H        6.5940     2.4360    -0.7020 H     1 <1>   0.0800 
 36 H        5.4330     4.5550     1.1410 H     1 <1>   0.0800 
 37 H        5.3290     4.5450    -0.6310 H     1 <1>   0.0800 
 38 H        5.1940     6.7370     0.2810 H     1 <1>   0.1500 
 39 H        9.4010     6.0340    -0.0390 H     1 <1>   0.1500 
 40 H        5.6020     9.1380     0.2220 H     1 <1>   0.1500 
 41 H        9.7980     8.4380    -0.0960 H     1 <1>   0.1500 
 42 H        9.6890    10.6270     0.7740 H     1 <1>   0.0800 
 43 H        9.5530    10.6070    -0.9880 H     1 <1>   0.0800 
 44 H        8.2570    12.7120    -0.9010 H     1 <1>   0.0800 
 45 H        8.3910    12.7310     0.8420 H     1 <1>   0.0800 
 46 H       10.7220    12.9280    -1.0960 H     1 <1>   0.0800 
 47 H       10.8570    12.9470     0.6500 H     1 <1>   0.0800 
 48 H       10.0450    14.2520    -0.1800 H     1 <1>   0.0800 
@<TRIPOS>BOND
  1   1   2  ar  
  2   2   3  ar  
  3   2   4  1   
  4   4   5  1   
  5   4   6  1   
  6   4  24  1   
  7   5   7  1   
  8   5   8  1   
  9   5  25  1   
 10   6   9  1   
 11   6  26  1   
 12   6  27  1   
 13   7  28  1   
 14   8  10  1   
 15   8  29  1   
 16   8  30  1   
 17   9  10  1   
 18   9  31  1   
 19   9  32  1   
 20  10  11  1   
 21  10  33  1   
 22  11  12  1   
 23  11  34  1   
 24  11  35  1   
 25  12  13  1   
 26  12  36  1   
 27  12  37  1   
 28  13  14  1   
 29  14  15  ar  
 30  14  16  ar  
 31  15  17  ar  
 32  15  38  1   
 33  16  18  ar  
 34  16  39  1   
 35  17  19  ar  
 36  17  40  1   
 37  18  19  ar  
 38  18  41  1   
 39  19  20  1   
 40  20  21  1   
 41  21  22  1   
 42  21  42  1   
 43  21  43  1   
 44  22  23  1   
 45  22  44  1   
 46  22  45  1   
 47  23  46  1   
 48  23  47  1   
 49  23  48  1   
@<TRIPOS>SUBSTRUCTURE
  1 ****  12 GROUP 4 **** **** 0

# MOE 2024.06 (io_trps.svl 2023.06)
