@<TRIPOS>MOLECULE
NONAME
48 50 1 0 0 
SMALL
USER_CHARGES


@<TRIPOS>ATOM
  1 CL       0.0990     2.2030     1.6020 Cl    1 <1>  -0.1770 
  2 C        1.5180     1.8390     0.6490 C.ar  1 <1>   0.1770 
  3 C        2.0440     0.5560     0.6170 C.ar  1 <1>  -0.1440 
  4 C        2.0940     2.8780    -0.0630 C.ar  1 <1>  -0.1500 
  5 C        3.1820     0.3650    -0.1530 C.ar  1 <1>   0.1900 
  6 C        1.4250    -0.6000     1.3910 C.3   1 <1>   0.2540 
  7 C        3.2270     2.6520    -0.8280 C.ar  1 <1>  -0.1500 
  8 F        3.7250    -0.8260    -0.1930 F     1 <1>  -0.1900 
  9 C        3.7870     1.3850    -0.8800 C.ar  1 <1>  -0.1440 
 10 N        0.6720    -1.4830     0.4830 N.3   1 <1>  -0.8100 
 11 C        5.0340     1.1280    -1.7140 C.3   1 <1>  -0.0970 
 12 C        0.5130    -2.8290     1.0660 C.3   1 <1>   0.1100 
 13 C       -0.6380    -0.8930     0.1410 C.3   1 <1>   0.1100 
 14 C       -0.1840    -3.7750     0.0550 C.3   1 <1>   0.4230 
 15 C       -1.3790    -1.7920    -0.8570 C.3   1 <1>  -0.1600 
 16 N       -0.2900    -5.2030     0.5110 N.4   1 <1>  -0.9590 
 17 C       -1.5780    -3.2280    -0.3050 C.3   1 <1>  -0.1060 
 18 C       -0.8450    -6.0840    -0.5480 C.3   1 <1>   0.3430 
 19 C        0.9290    -5.7680     1.1440 C.3   1 <1>   0.2630 
 20 C       -2.4620    -3.2200     0.9580 C.2   1 <1>   0.9060 
 21 C       -2.2100    -4.1110    -1.4060 C.3   1 <1>  -0.1600 
 22 C       -2.2250    -5.5900    -0.9920 C.3   1 <1>  -0.1600 
 23 O       -3.3740    -2.4010     1.0570 O.co2 1 <1>  -0.9000 
 24 O       -2.2500    -4.0620     1.8480 O.co2 1 <1>  -0.9000 
 25 H        1.6550     3.8580    -0.0150 H     1 <1>   0.1500 
 26 H        0.7840    -0.2510     2.1830 H     1 <1>   0.0800 
 27 H        2.2250    -1.1550     1.8510 H     1 <1>   0.0800 
 28 H        3.6670     3.4660    -1.3780 H     1 <1>   0.1500 
 29 H        5.3830     2.0320    -2.1790 H     1 <1>   0.0800 
 30 H        4.8170     0.4080    -2.4830 H     1 <1>   0.0800 
 31 H        5.8190     0.7400    -1.0900 H     1 <1>   0.0800 
 32 H        1.4920    -3.2090     1.2900 H     1 <1>   0.0800 
 33 H       -0.0560    -2.7650     1.9790 H     1 <1>   0.0800 
 34 H       -1.2340    -0.7640     1.0310 H     1 <1>   0.0800 
 35 H       -0.4960     0.0750    -0.3080 H     1 <1>   0.0800 
 36 H        0.4170    -3.7560    -0.8380 H     1 <1>   0.0800 
 37 H       -2.3390    -1.3510    -1.0670 H     1 <1>   0.0800 
 38 H       -0.8220    -1.8100    -1.7760 H     1 <1>   0.0800 
 39 H       -1.0460    -5.1090     1.2430 H     1 <1>   0.4500 
 40 H       -0.1780    -6.0920    -1.3940 H     1 <1>   0.0800 
 41 H       -0.9360    -7.0900    -0.1740 H     1 <1>   0.0800 
 42 H        1.7490    -5.7650     0.4450 H     1 <1>   0.0800 
 43 H        0.7430    -6.7800     1.4640 H     1 <1>   0.0800 
 44 H        1.2010    -5.1850     2.0080 H     1 <1>   0.0800 
 45 H       -3.2190    -3.7790    -1.5910 H     1 <1>   0.0800 
 46 H       -1.6550    -4.0060    -2.3230 H     1 <1>   0.0800 
 47 H       -2.5660    -6.1890    -1.8180 H     1 <1>   0.0800 
 48 H       -2.9240    -5.7340    -0.1850 H     1 <1>   0.0800 
@<TRIPOS>BOND
  1   1   2  1   
  2   2   3  ar  
  3   2   4  ar  
  4   3   5  ar  
  5   3   6  1   
  6   4   7  ar  
  7   4  25  1   
  8   5   8  1   
  9   5   9  ar  
 10   6  10  1   
 11   6  26  1   
 12   6  27  1   
 13   7   9  ar  
 14   7  28  1   
 15   9  11  1   
 16  10  12  1   
 17  10  13  1   
 18  11  29  1   
 19  11  30  1   
 20  11  31  1   
 21  12  14  1   
 22  12  32  1   
 23  12  33  1   
 24  13  15  1   
 25  13  34  1   
 26  13  35  1   
 27  14  16  1   
 28  14  17  1   
 29  14  36  1   
 30  15  17  1   
 31  15  37  1   
 32  15  38  1   
 33  16  18  1   
 34  16  19  1   
 35  16  39  1   
 36  17  20  1   
 37  17  21  1   
 38  18  22  1   
 39  18  40  1   
 40  18  41  1   
 41  19  42  1   
 42  19  43  1   
 43  19  44  1   
 44  20  23  ar  
 45  20  24  ar  
 46  21  22  1   
 47  21  45  1   
 48  21  46  1   
 49  22  47  1   
 50  22  48  1   
@<TRIPOS>SUBSTRUCTURE
  1 ****  10 GROUP 4 **** **** 0

# MOE 2024.06 (io_trps.svl 2023.06)
