@<TRIPOS>MOLECULE
NONAME
55 58 1 0 0 
SMALL
USER_CHARGES


@<TRIPOS>ATOM
  1 F       -1.2740     0.3290    -0.6830 F     1 <1>  -0.3400 
  2 C       -0.7860    -0.8660    -0.9890 C.3   1 <1>   1.1640 
  3 F        0.2650    -1.0520    -0.2020 F     1 <1>  -0.3400 
  4 F       -0.3150    -0.7720    -2.2270 F     1 <1>  -0.3400 
  5 C       -1.8270    -1.9680    -0.8200 C.ar  1 <1>  -0.1440 
  6 C       -2.3950    -2.1530     0.4300 C.ar  1 <1>   0.1600 
  7 C       -2.2350    -2.7950    -1.8570 C.ar  1 <1>  -0.1500 
  8 N       -3.3070    -3.0650     0.7270 N.ar  1 <1>  -0.6200 
  9 C       -3.1820    -3.7470    -1.5620 C.ar  1 <1>  -0.1500 
 10 C       -3.6880    -3.8480    -0.2720 C.ar  1 <1>   0.4100 
 11 N       -4.6350    -4.8020     0.0240 N.pl3 1 <1>  -0.8380 
 12 C       -5.9450    -4.2560     0.4430 C.3   1 <1>   0.2090 
 13 C       -4.1390    -5.9060     0.8740 C.3   1 <1>   0.2090 
 14 C       -6.9820    -5.3720     0.3430 C.3   1 <1>  -0.1600 
 15 C       -5.1320    -7.0620     0.7770 C.3   1 <1>  -0.1600 
 16 C       -6.5300    -6.5770     1.1720 C.3   1 <1>   0.4230 
 17 N       -7.5400    -7.6640     1.0770 N.4   1 <1>  -0.9060 
 18 C       -7.7230    -8.3270    -0.2490 C.3   1 <1>   0.4230 
 19 C       -9.1560    -8.8400    -0.3970 C.3   1 <1>  -0.0800 
 20 C       -6.9890    -9.6640    -0.2150 C.3   1 <1>   0.1200 
 21 C       -9.1230   -10.1950     0.3310 C.3   1 <1>   0.1200 
 22 C      -10.2960    -7.9050     0.0570 C.3   1 <1>  -0.0160 
 23 O       -7.7790   -10.4220     0.6400 O.3   1 <1>  -0.5600 
 24 C      -11.6460    -8.5220    -0.2640 C.ar  1 <1>  -0.1430 
 25 C      -12.4010    -9.1780     0.6900 C.ar  1 <1>  -0.1500 
 26 C      -12.1900    -8.4600    -1.5320 C.ar  1 <1>  -0.1500 
 27 C      -13.6210    -9.7300     0.3380 C.ar  1 <1>   0.1600 
 28 C      -13.4200    -9.0460    -1.7800 C.ar  1 <1>   0.1600 
 29 N      -14.1450    -9.6820    -0.8750 N.ar  1 <1>  -0.6200 
 30 H       -2.0840    -1.5150     1.2420 H     1 <1>   0.1500 
 31 H       -1.8350    -2.7060    -2.8540 H     1 <1>   0.1500 
 32 H       -3.5440    -4.4210    -2.3140 H     1 <1>   0.1500 
 33 H       -5.8740    -3.8820     1.4520 H     1 <1>   0.0800 
 34 H       -6.2160    -3.4350    -0.2020 H     1 <1>   0.0800 
 35 H       -3.1670    -6.2200     0.5290 H     1 <1>   0.0800 
 36 H       -4.0400    -5.5620     1.8910 H     1 <1>   0.0800 
 37 H       -7.0870    -5.6260    -0.6950 H     1 <1>   0.0800 
 38 H       -7.9210    -4.9960     0.7080 H     1 <1>   0.0800 
 39 H       -4.8070    -7.8470     1.4360 H     1 <1>   0.0800 
 40 H       -5.1100    -7.4160    -0.2370 H     1 <1>   0.0800 
 41 H       -6.4760    -6.2550     2.2010 H     1 <1>   0.0800 
 42 H       -8.4400    -7.2990     1.3920 H     1 <1>   0.4500 
 43 H       -7.3060    -8.4300     1.7270 H     1 <1>   0.4500 
 44 H       -7.4170    -7.6950    -1.0670 H     1 <1>   0.0800 
 45 H       -9.3130    -9.0540    -1.4410 H     1 <1>   0.0800 
 46 H       -5.9870    -9.6100     0.1700 H     1 <1>   0.0800 
 47 H       -6.9810   -10.1380    -1.1830 H     1 <1>   0.0800 
 48 H       -9.4760   -10.9940    -0.3000 H     1 <1>   0.0800 
 49 H       -9.6810   -10.1910     1.2520 H     1 <1>   0.0800 
 50 H      -10.2200    -6.9590    -0.4530 H     1 <1>   0.0800 
 51 H      -10.2500    -7.7180     1.1150 H     1 <1>   0.0800 
 52 H      -12.0630    -9.2690     1.7060 H     1 <1>   0.1500 
 53 H      -11.6770    -7.9640    -2.3350 H     1 <1>   0.1500 
 54 H      -14.1980   -10.2380     1.0920 H     1 <1>   0.1500 
 55 H      -13.8310    -8.9890    -2.7740 H     1 <1>   0.1500 
@<TRIPOS>BOND
  1   1   2  1   
  2   2   3  1   
  3   2   4  1   
  4   2   5  1   
  5   5   6  ar  
  6   5   7  ar  
  7   6   8  ar  
  8   6  30  1   
  9   7   9  ar  
 10   7  31  1   
 11   8  10  ar  
 12   9  10  ar  
 13   9  32  1   
 14  10  11  1   
 15  11  12  1   
 16  11  13  1   
 17  12  14  1   
 18  12  33  1   
 19  12  34  1   
 20  13  15  1   
 21  13  35  1   
 22  13  36  1   
 23  14  16  1   
 24  14  37  1   
 25  14  38  1   
 26  15  16  1   
 27  15  39  1   
 28  15  40  1   
 29  16  17  1   
 30  16  41  1   
 31  17  18  1   
 32  17  42  1   
 33  17  43  1   
 34  18  19  1   
 35  18  20  1   
 36  18  44  1   
 37  19  21  1   
 38  19  22  1   
 39  19  45  1   
 40  20  23  1   
 41  20  46  1   
 42  20  47  1   
 43  21  23  1   
 44  21  48  1   
 45  21  49  1   
 46  22  24  1   
 47  22  50  1   
 48  22  51  1   
 49  24  25  ar  
 50  24  26  ar  
 51  25  27  ar  
 52  25  52  1   
 53  26  28  ar  
 54  26  53  1   
 55  27  29  ar  
 56  27  54  1   
 57  28  29  ar  
 58  28  55  1   
@<TRIPOS>SUBSTRUCTURE
  1 ****  14 GROUP 4 **** **** 0

# MOE 2024.06 (io_trps.svl 2023.06)
