@<TRIPOS>MOLECULE
NONAME
43 45 1 0 0 
SMALL
USER_CHARGES


@<TRIPOS>ATOM
  1 O       -0.3940     0.2150     0.1590 O.2   1 <1>  -0.5700 
  2 C       -1.4540     0.8030     0.2800 C.2   1 <1>   0.7150 
  3 N       -2.6060     0.0590     0.3680 N.am  1 <1>  -0.6600 
  4 C       -1.4880     2.2390     0.3090 C.2   1 <1>  -0.2370 
  5 C       -3.9660     0.5660     0.0550 C.3   1 <1>   0.1400 
  6 C       -2.5910    -1.4250     0.3600 C.3   1 <1>   0.1400 
  7 N       -0.6230     3.0360    -0.3710 N.pl3 1 <1>   0.3140 
  8 C       -2.3140     3.0980     0.9700 C.2   1 <1>  -0.1500 
  9 C       -4.7390    -0.6620    -0.4210 C.3   1 <1>   0.2000 
 10 C       -4.0570    -1.8470     0.2550 C.3   1 <1>  -0.0800 
 11 N       -0.8820     4.3400    -0.1880 N.2   1 <1>  -0.7070 
 12 C        0.4890     2.6210    -1.2410 C.3   1 <1>   0.0160 
 13 C       -1.8930     4.3670     0.6210 C.2   1 <1>   0.1080 
 14 O       -6.0740    -0.6000    -0.0530 O.3   1 <1>  -0.6800 
 15 C       -4.2620    -3.1750    -0.4900 C.3   1 <1>   0.0210 
 16 C       -2.5020     5.6630     1.1000 C.3   1 <1>  -0.0590 
 17 C       -3.4400    -4.2870     0.1340 C.2   1 <1>   0.1080 
 18 N       -3.4680    -4.5600     1.4020 N.2   1 <1>  -0.7070 
 19 C       -2.5690    -5.1170    -0.5630 C.2   1 <1>  -0.1500 
 20 N       -2.6070    -5.5850     1.5480 N.pl3 1 <1>   0.3000 
 21 C       -2.0480    -5.9390     0.3720 C.2   1 <1>  -0.3320 
 22 C       -1.0350    -7.0570     0.2120 C.3   1 <1>  -0.0600 
 23 H       -4.4070     0.9660     0.9510 H     1 <1>   0.0800 
 24 H       -3.9280     1.3190    -0.7140 H     1 <1>   0.0800 
 25 H       -2.0280    -1.7680    -0.4920 H     1 <1>   0.0800 
 26 H       -2.1380    -1.8080     1.2590 H     1 <1>   0.0800 
 27 H       -3.1240     2.8630     1.6350 H     1 <1>   0.1500 
 28 H       -4.6840    -0.7310    -1.4940 H     1 <1>   0.0800 
 29 H       -4.4240    -1.9490     1.2610 H     1 <1>   0.0800 
 30 H        0.1280     1.9240    -1.9730 H     1 <1>   0.0800 
 31 H        1.2480     2.1560    -0.6400 H     1 <1>   0.0800 
 32 H        0.8970     3.4850    -1.7320 H     1 <1>   0.0800 
 33 H       -6.1640    -0.7160     0.9130 H     1 <1>   0.4000 
 34 H       -3.9840    -3.0660    -1.5220 H     1 <1>   0.0800 
 35 H       -5.3010    -3.4510    -0.4500 H     1 <1>   0.0800 
 36 H       -3.3250     5.4720     1.7630 H     1 <1>   0.0800 
 37 H       -2.8510     6.2280     0.2550 H     1 <1>   0.0800 
 38 H       -1.7560     6.2380     1.6180 H     1 <1>   0.0800 
 39 H       -2.3710    -5.0890    -1.6190 H     1 <1>   0.1500 
 40 H       -2.4220    -6.0170     2.4610 H     1 <1>   0.2700 
 41 H       -0.7410    -7.1450    -0.8190 H     1 <1>   0.0800 
 42 H       -1.4610    -7.9930     0.5280 H     1 <1>   0.0800 
 43 H       -0.1590    -6.8530     0.8010 H     1 <1>   0.0800 
@<TRIPOS>BOND
  1   1   2  2   
  2   2   3  am  
  3   2   4  1   
  4   3   5  1   
  5   3   6  1   
  6   4   7  1   
  7   4   8  2   
  8   5   9  1   
  9   5  23  1   
 10   5  24  1   
 11   6  10  1   
 12   6  25  1   
 13   6  26  1   
 14   7  11  1   
 15   7  12  1   
 16   8  13  1   
 17   8  27  1   
 18   9  10  1   
 19   9  14  1   
 20   9  28  1   
 21  10  15  1   
 22  10  29  1   
 23  11  13  2   
 24  12  30  1   
 25  12  31  1   
 26  12  32  1   
 27  13  16  1   
 28  14  33  1   
 29  15  17  1   
 30  15  34  1   
 31  15  35  1   
 32  16  36  1   
 33  16  37  1   
 34  16  38  1   
 35  17  18  2   
 36  17  19  1   
 37  18  20  1   
 38  19  21  2   
 39  19  39  1   
 40  20  21  1   
 41  20  40  1   
 42  21  22  1   
 43  22  41  1   
 44  22  42  1   
 45  22  43  1   
@<TRIPOS>SUBSTRUCTURE
  1 ****   3 GROUP 4 **** **** 0

# MOE 2024.06 (io_trps.svl 2023.06)
