@<TRIPOS>MOLECULE
NONAME
44 47 1 0 0 
SMALL
USER_CHARGES


@<TRIPOS>ATOM
  1 O        0.5090     0.0990     0.2350 O.3   1 <1>  -0.6800 
  2 C        1.6650    -0.1500    -0.4870 C.3   1 <1>   0.2000 
  3 C        2.3780    -1.3770     0.0760 C.3   1 <1>  -0.0800 
  4 C        2.6690     0.9950    -0.3210 C.3   1 <1>   0.2090 
  5 C        3.8540    -1.1300    -0.2390 C.3   1 <1>   0.2090 
  6 C        1.8560    -2.7170    -0.4690 C.3   1 <1>  -0.0170 
  7 N        4.0190     0.3480    -0.2400 N.pl3 1 <1>  -0.8380 
  8 C        2.7980    -3.8490    -0.0870 C.ar  1 <1>  -0.1440 
  9 C        5.1530     1.0830    -0.0140 C.ar  1 <1>   0.7710 
 10 C        2.9490    -4.2570     1.2230 C.ar  1 <1>  -0.1500 
 11 C        3.5620    -4.5140    -1.0260 C.ar  1 <1>  -0.1500 
 12 N        6.3350     0.4070     0.1130 N.ar  1 <1>  -0.1790 
 13 N        5.0820     2.3850     0.0640 N.ar  1 <1>  -0.5670 
 14 C        3.8510    -5.2630     1.5270 C.ar  1 <1>   0.1600 
 15 C        4.4340    -5.5090    -0.6170 C.ar  1 <1>   0.1600 
 16 C        7.5100     1.0090     0.3360 C.ar  1 <1>   0.4610 
 17 C        6.2510     3.0350     0.2890 C.ar  1 <1>   0.1050 
 18 N        4.6070    -5.8860     0.6380 N.ar  1 <1>  -0.6200 
 19 N        8.6370     0.2870     0.4550 N.pl3 1 <1>  -0.9000 
 20 C        7.4640     2.4040     0.4280 C.ar  1 <1>   0.0000 
 21 N        6.4860     4.3640     0.4200 N.pl3 1 <1>   0.3140 
 22 C        8.3710     3.4530     0.6410 C.2   1 <1>   0.1390 
 23 N        7.8020     4.6110     0.6370 N.2   1 <1>  -0.7070 
 24 C        5.5090     5.4610     0.3520 C.3   1 <1>   0.0160 
 25 H       -0.1670    -0.5880     0.0720 H     1 <1>   0.4000 
 26 H        1.4110    -0.2680    -1.5270 H     1 <1>   0.0800 
 27 H        2.2820    -1.3710     1.1490 H     1 <1>   0.0800 
 28 H        2.4710     1.5330     0.5910 H     1 <1>   0.0800 
 29 H        2.6190     1.6680    -1.1600 H     1 <1>   0.0800 
 30 H        4.0920    -1.5140    -1.2180 H     1 <1>   0.0800 
 31 H        4.4740    -1.6070     0.5020 H     1 <1>   0.0800 
 32 H        1.7670    -2.6700    -1.5410 H     1 <1>   0.0800 
 33 H        0.8770    -2.9170    -0.0690 H     1 <1>   0.0800 
 34 H        2.3760    -3.8060     2.0130 H     1 <1>   0.1500 
 35 H        3.4890    -4.2750    -2.0720 H     1 <1>   0.1500 
 36 H        6.2760    -0.5940     0.0220 H     1 <1>   0.4570 
 37 H        3.9570    -5.5710     2.5540 H     1 <1>   0.1500 
 38 H        5.0200    -6.0230    -1.3620 H     1 <1>   0.1500 
 39 H        8.7270    -0.7340     0.4010 H     1 <1>   0.4000 
 40 H        9.5500     0.7300     0.6260 H     1 <1>   0.4000 
 41 H        9.4300     3.3180     0.7910 H     1 <1>   0.1500 
 42 H        4.5200     5.0620     0.2210 H     1 <1>   0.0800 
 43 H        5.7560     6.0980    -0.4760 H     1 <1>   0.0800 
 44 H        5.5540     6.0260     1.2640 H     1 <1>   0.0800 
@<TRIPOS>BOND
  1   1   2  1   
  2   1  25  1   
  3   2   3  1   
  4   2   4  1   
  5   2  26  1   
  6   3   5  1   
  7   3   6  1   
  8   3  27  1   
  9   4   7  1   
 10   4  28  1   
 11   4  29  1   
 12   5   7  1   
 13   5  30  1   
 14   5  31  1   
 15   6   8  1   
 16   6  32  1   
 17   6  33  1   
 18   7   9  1   
 19   8  10  ar  
 20   8  11  ar  
 21   9  12  ar  
 22   9  13  ar  
 23  10  14  ar  
 24  10  34  1   
 25  11  15  ar  
 26  11  35  1   
 27  12  16  ar  
 28  12  36  1   
 29  13  17  ar  
 30  14  18  ar  
 31  14  37  1   
 32  15  18  ar  
 33  15  38  1   
 34  16  19  1   
 35  16  20  ar  
 36  17  20  ar  
 37  17  21  1   
 38  19  39  1   
 39  19  40  1   
 40  20  22  1   
 41  21  23  1   
 42  21  24  1   
 43  22  23  2   
 44  22  41  1   
 45  24  42  1   
 46  24  43  1   
 47  24  44  1   
@<TRIPOS>SUBSTRUCTURE
  1 ****   7 GROUP 4 **** **** 0

# MOE 2024.06 (io_trps.svl 2023.06)
