@<TRIPOS>MOLECULE
NONAME
60 63 1 0 0 
SMALL
USER_CHARGES


@<TRIPOS>ATOM
  1 O        0.5290    -0.0700     0.1560 O.3   1 <1>  -0.6800 
  2 C        1.5210    -0.4240    -0.7500 C.3   1 <1>   0.2000 
  3 C        2.3280    -1.5670    -0.1500 C.3   1 <1>  -0.0800 
  4 C        2.5420     0.7190    -0.8190 C.3   1 <1>   0.3430 
  5 C        3.1770    -0.8340     0.8910 C.3   1 <1>   0.3430 
  6 C        3.1820    -2.2780    -1.2240 C.3   1 <1>   0.0210 
  7 N        3.5030     0.5140     0.3200 N.4   1 <1>  -0.9590 
  8 C        4.3220    -3.0740    -0.6210 C.2   1 <1>   0.1080 
  9 C        4.9500     0.6510    -0.0370 C.3   1 <1>   0.4230 
 10 N        5.4660    -2.5390    -0.3180 N.2   1 <1>  -0.7070 
 11 C        4.2800    -4.4330    -0.3330 C.2   1 <1>  -0.1500 
 12 C        5.8050     0.5500     1.2360 C.3   1 <1>  -0.1600 
 13 C        5.1970     1.9850    -0.7620 C.3   1 <1>  -0.1600 
 14 N        6.2020    -3.5670     0.1600 N.pl3 1 <1>   0.3000 
 15 C        5.4990    -4.7180     0.1680 C.2   1 <1>  -0.3320 
 16 C        7.2770     0.7680     0.9100 C.3   1 <1>   0.2090 
 17 C        6.6850     2.1840    -1.0370 C.3   1 <1>   0.2090 
 18 C        6.0490    -6.0480     0.6520 C.3   1 <1>  -0.0600 
 19 N        7.4010     2.0790     0.2470 N.pl3 1 <1>  -0.8380 
 20 C        8.6570     2.6730     0.3060 C.ar  1 <1>   0.1000 
 21 C        8.8690     3.7470     1.1590 C.ar  1 <1>  -0.1500 
 22 C        9.7160     2.2140    -0.4690 C.ar  1 <1>  -0.1500 
 23 C       10.1080     4.3570     1.2420 C.ar  1 <1>  -0.1440 
 24 C       10.9610     2.8140    -0.3970 C.ar  1 <1>  -0.1440 
 25 C       11.1510     3.8860     0.4610 C.ar  1 <1>  -0.1500 
 26 C       10.3360     5.5320     2.1750 C.3   1 <1>  -0.0970 
 27 C       12.1170     2.3140    -1.2430 C.3   1 <1>  -0.0970 
 28 H       -0.2270    -0.6940     0.1250 H     1 <1>   0.4000 
 29 H        1.0660    -0.6430    -1.7020 H     1 <1>   0.0800 
 30 H        1.7010    -2.2980     0.3300 H     1 <1>   0.0800 
 31 H        2.0500     1.6760    -0.7610 H     1 <1>   0.0800 
 32 H        3.0720     0.6480    -1.7530 H     1 <1>   0.0800 
 33 H        4.0560    -1.3960     1.1550 H     1 <1>   0.0800 
 34 H        2.5810    -0.7000     1.7800 H     1 <1>   0.0800 
 35 H        3.6160    -1.5710    -1.9080 H     1 <1>   0.0800 
 36 H        2.5600    -2.9390    -1.8000 H     1 <1>   0.0800 
 37 H        3.2910     1.2140     1.0420 H     1 <1>   0.4500 
 38 H        5.2320    -0.1530    -0.6990 H     1 <1>   0.0800 
 39 H        3.4480    -5.0980    -0.4900 H     1 <1>   0.1500 
 40 H        5.5050     1.2960     1.9510 H     1 <1>   0.0800 
 41 H        5.7180    -0.4190     1.6870 H     1 <1>   0.0800 
 42 H        4.6910     2.0130    -1.7070 H     1 <1>   0.0800 
 43 H        4.8570     2.8070    -0.1570 H     1 <1>   0.0800 
 44 H        7.1790    -3.4630     0.4640 H     1 <1>   0.2700 
 45 H        7.6430    -0.0080     0.2580 H     1 <1>   0.0800 
 46 H        7.8650     0.7640     1.8140 H     1 <1>   0.0800 
 47 H        6.8590     3.1580    -1.4660 H     1 <1>   0.0800 
 48 H        7.0530     1.4370    -1.7210 H     1 <1>   0.0800 
 49 H        5.3020    -6.8170     0.5520 H     1 <1>   0.0800 
 50 H        6.3340    -5.9820     1.6870 H     1 <1>   0.0800 
 51 H        6.9080    -6.3320     0.0700 H     1 <1>   0.0800 
 52 H        8.0450     4.0940     1.7530 H     1 <1>   0.1500 
 53 H        9.5550     1.3820    -1.1260 H     1 <1>   0.1500 
 54 H       12.1170     4.3560     0.5220 H     1 <1>   0.1500 
 55 H       11.1110     5.2920     2.8810 H     1 <1>   0.0800 
 56 H        9.4390     5.7700     2.7180 H     1 <1>   0.0800 
 57 H       10.6350     6.3950     1.6090 H     1 <1>   0.0800 
 58 H       12.5590     3.1330    -1.7820 H     1 <1>   0.0800 
 59 H       11.7840     1.5780    -1.9530 H     1 <1>   0.0800 
 60 H       12.8640     1.8690    -0.6110 H     1 <1>   0.0800 
@<TRIPOS>BOND
  1   1   2  1   
  2   1  28  1   
  3   2   3  1   
  4   2   4  1   
  5   2  29  1   
  6   3   5  1   
  7   3   6  1   
  8   3  30  1   
  9   4   7  1   
 10   4  31  1   
 11   4  32  1   
 12   5   7  1   
 13   5  33  1   
 14   5  34  1   
 15   6   8  1   
 16   6  35  1   
 17   6  36  1   
 18   7   9  1   
 19   7  37  1   
 20   8  10  2   
 21   8  11  1   
 22   9  12  1   
 23   9  13  1   
 24   9  38  1   
 25  10  14  1   
 26  11  15  2   
 27  11  39  1   
 28  12  16  1   
 29  12  40  1   
 30  12  41  1   
 31  13  17  1   
 32  13  42  1   
 33  13  43  1   
 34  14  15  1   
 35  14  44  1   
 36  15  18  1   
 37  16  19  1   
 38  16  45  1   
 39  16  46  1   
 40  17  19  1   
 41  17  47  1   
 42  17  48  1   
 43  18  49  1   
 44  18  50  1   
 45  18  51  1   
 46  19  20  1   
 47  20  21  ar  
 48  20  22  ar  
 49  21  23  ar  
 50  21  52  1   
 51  22  24  ar  
 52  22  53  1   
 53  23  25  ar  
 54  23  26  1   
 55  24  25  ar  
 56  24  27  1   
 57  25  54  1   
 58  26  55  1   
 59  26  56  1   
 60  26  57  1   
 61  27  58  1   
 62  27  59  1   
 63  27  60  1   
@<TRIPOS>SUBSTRUCTURE
  1 ****  12 GROUP 4 **** **** 0

# MOE 2024.06 (io_trps.svl 2023.06)
