@<TRIPOS>MOLECULE
NONAME
53 55 1 0 0 
SMALL
USER_CHARGES


@<TRIPOS>ATOM
  1 O        1.6720     2.3610     1.3030 O.co2 1 <1>  -0.9000 
  2 C        2.2490     1.2840     1.1660 C.2   1 <1>   0.9060 
  3 O        2.4990     0.5630     2.1470 O.co2 1 <1>  -0.9000 
  4 C        2.5470     0.7480    -0.2530 C.3   1 <1>  -0.1060 
  5 C        3.5920    -0.3850    -0.1570 C.3   1 <1>   0.4230 
  6 C        3.0870     1.8770    -1.1900 C.3   1 <1>  -0.1600 
  7 C        1.2430     0.1750    -0.8660 C.3   1 <1>  -0.1600 
  8 N        3.0530    -1.5310     0.6540 N.4   1 <1>  -0.9590 
  9 C        4.9420     0.1520     0.3790 C.3   1 <1>   0.1400 
 10 C        4.6030     1.8680    -1.4490 C.3   1 <1>   0.1400 
 11 C        0.7400    -1.0470    -0.0830 C.3   1 <1>  -0.1600 
 12 C        1.8200    -2.1180     0.0730 C.3   1 <1>   0.3430 
 13 C        4.0480    -2.5580     1.0660 C.3   1 <1>   0.2630 
 14 N        5.3710     1.4440    -0.2430 N.am  1 <1>  -0.6600 
 15 C        6.4140     2.1290     0.3530 C.2   1 <1>   0.5690 
 16 O        7.0990     1.5400     1.1650 O.2   1 <1>  -0.5700 
 17 C        6.8020     3.6050     0.0160 C.3   1 <1>   0.2040 
 18 C        5.5720     4.5360    -0.0830 C.ar  1 <1>  -0.1430 
 19 C        7.6860     4.2160     1.1260 C.3   1 <1>  -0.2400 
 20 C        7.6540     3.5900    -1.2740 C.3   1 <1>  -0.2400 
 21 C        4.5060     4.3510     0.7910 C.ar  1 <1>  -0.1500 
 22 C        5.4810     5.5700    -1.0120 C.ar  1 <1>  -0.1500 
 23 C        3.3760     5.1440     0.7220 C.ar  1 <1>  -0.1500 
 24 C        4.3540     6.3730    -1.0770 C.ar  1 <1>  -0.1500 
 25 C        3.2970     6.1580    -0.2130 C.ar  1 <1>  -0.1500 
 26 H        3.7750    -0.7430    -1.1550 H     1 <1>   0.0800 
 27 H        2.8220     2.8400    -0.7930 H     1 <1>   0.0800 
 28 H        2.6070     1.8320    -2.1500 H     1 <1>   0.0800 
 29 H        0.4830     0.9410    -0.8570 H     1 <1>   0.0800 
 30 H        1.4100    -0.1120    -1.8900 H     1 <1>   0.0800 
 31 H        2.7480    -1.0060     1.5200 H     1 <1>   0.4500 
 32 H        5.7140    -0.5730     0.2010 H     1 <1>   0.0800 
 33 H        4.8640     0.3070     1.4420 H     1 <1>   0.0800 
 34 H        4.9050     2.8400    -1.7900 H     1 <1>   0.0800 
 35 H        4.8210     1.1750    -2.2420 H     1 <1>   0.0800 
 36 H       -0.1090    -1.4710    -0.5890 H     1 <1>   0.0800 
 37 H        0.4050    -0.7410     0.8940 H     1 <1>   0.0800 
 38 H        2.0440    -2.5470    -0.8900 H     1 <1>   0.0800 
 39 H        1.4500    -2.8990     0.7180 H     1 <1>   0.0800 
 40 H        4.4610    -3.0480     0.2000 H     1 <1>   0.0800 
 41 H        3.5770    -3.2940     1.6960 H     1 <1>   0.0800 
 42 H        4.8460    -2.0980     1.6260 H     1 <1>   0.0800 
 43 H        7.9200     5.2410     0.9030 H     1 <1>   0.0800 
 44 H        8.6040     3.6650     1.2300 H     1 <1>   0.0800 
 45 H        7.1650     4.1840     2.0670 H     1 <1>   0.0800 
 46 H        8.1060     4.5480    -1.4530 H     1 <1>   0.0800 
 47 H        7.0580     3.3210    -2.1250 H     1 <1>   0.0800 
 48 H        8.4450     2.8670    -1.1760 H     1 <1>   0.0800 
 49 H        4.5230     3.5730     1.5370 H     1 <1>   0.1500 
 50 H        6.2780     5.7740    -1.7000 H     1 <1>   0.1500 
 51 H        2.5550     4.9480     1.3950 H     1 <1>   0.1500 
 52 H        4.2980     7.1660    -1.8010 H     1 <1>   0.1500 
 53 H        2.4140     6.7690    -0.2630 H     1 <1>   0.1500 
@<TRIPOS>BOND
  1   1   2  ar  
  2   2   3  ar  
  3   2   4  1   
  4   4   5  1   
  5   4   6  1   
  6   4   7  1   
  7   5   8  1   
  8   5   9  1   
  9   5  26  1   
 10   6  10  1   
 11   6  27  1   
 12   6  28  1   
 13   7  11  1   
 14   7  29  1   
 15   7  30  1   
 16   8  12  1   
 17   8  13  1   
 18   8  31  1   
 19   9  14  1   
 20   9  32  1   
 21   9  33  1   
 22  10  14  1   
 23  10  34  1   
 24  10  35  1   
 25  11  12  1   
 26  11  36  1   
 27  11  37  1   
 28  12  38  1   
 29  12  39  1   
 30  13  40  1   
 31  13  41  1   
 32  13  42  1   
 33  14  15  am  
 34  15  16  2   
 35  15  17  1   
 36  17  18  1   
 37  17  19  1   
 38  17  20  1   
 39  18  21  ar  
 40  18  22  ar  
 41  19  43  1   
 42  19  44  1   
 43  19  45  1   
 44  20  46  1   
 45  20  47  1   
 46  20  48  1   
 47  21  23  ar  
 48  21  49  1   
 49  22  24  ar  
 50  22  50  1   
 51  23  25  ar  
 52  23  51  1   
 53  24  25  ar  
 54  24  52  1   
 55  25  53  1   
@<TRIPOS>SUBSTRUCTURE
  1 ****  14 GROUP 4 **** **** 0

# MOE 2024.06 (io_trps.svl 2023.06)
