@<TRIPOS>MOLECULE
NONAME
39 41 1 0 0 
SMALL
USER_CHARGES


@<TRIPOS>ATOM
  1 O       -1.1510     1.0360    -1.5990 O.2   1 <1>  -0.5700 
  2 C       -2.0120     1.4850    -0.8780 C.2   1 <1>   0.5690 
  3 N       -3.0230     0.7000    -0.3940 N.am  1 <1>  -0.6600 
  4 C       -1.9100     2.9450    -0.5030 C.3   1 <1>   0.1570 
  5 C       -4.0560     1.1000     0.6020 C.3   1 <1>   0.1400 
  6 C       -3.0660    -0.7650    -0.6190 C.3   1 <1>   0.1400 
  7 N       -1.2010     3.0300     0.7730 N.pl3 1 <1>   0.3140 
  8 C       -4.7840    -0.1950     0.9660 C.3   1 <1>   0.2000 
  9 C       -3.8290    -1.3230     0.5820 C.3   1 <1>  -0.0800 
 10 N       -1.7580     3.4430     1.8980 N.2   1 <1>  -0.4180 
 11 C        0.0460     2.6530     1.0480 C.2   1 <1>   0.2700 
 12 O       -5.0730    -0.2530     2.3190 O.3   1 <1>  -0.6800 
 13 C       -4.5460    -2.6520     0.2980 C.3   1 <1>  -0.0170 
 14 N       -0.8580     3.3200     2.8030 N.2   1 <1>   0.0000 
 15 N        0.2730     2.8290     2.2960 N.2   1 <1>  -0.3380 
 16 N        0.9690     2.1320     0.1550 N.pl3 1 <1>  -0.8840 
 17 C       -3.5520    -3.7260    -0.1160 C.ar  1 <1>  -0.1440 
 18 C       -2.7690    -4.3820     0.8110 C.ar  1 <1>  -0.1500 
 19 C       -3.3760    -4.0960    -1.4340 C.ar  1 <1>  -0.1500 
 20 C       -1.8680    -5.3450     0.3880 C.ar  1 <1>   0.1600 
 21 C       -2.4460    -5.0730    -1.7520 C.ar  1 <1>   0.1600 
 22 N       -1.6860    -5.7040    -0.8720 N.ar  1 <1>  -0.6200 
 23 H       -2.8820     3.3870    -0.4080 H     1 <1>   0.0800 
 24 H       -1.3470     3.4750    -1.2470 H     1 <1>   0.0800 
 25 H       -3.5810     1.5210     1.4710 H     1 <1>   0.0800 
 26 H       -4.7420     1.8090     0.1710 H     1 <1>   0.0800 
 27 H       -3.5950    -0.9620    -1.5360 H     1 <1>   0.0800 
 28 H       -2.0750    -1.1840    -0.6820 H     1 <1>   0.0800 
 29 H       -5.7090    -0.2610     0.4190 H     1 <1>   0.0800 
 30 H       -3.1120    -1.4670     1.3720 H     1 <1>   0.0800 
 31 H       -4.2560    -0.1760     2.8510 H     1 <1>   0.4000 
 32 H       -5.2810    -2.5180    -0.4760 H     1 <1>   0.0800 
 33 H       -5.0660    -2.9730     1.1850 H     1 <1>   0.0800 
 34 H        0.5970     1.5320    -0.6000 H     1 <1>   0.4000 
 35 H        1.7900     1.7130     0.6040 H     1 <1>   0.4000 
 36 H       -2.8500    -4.1540     1.8580 H     1 <1>   0.1500 
 37 H       -3.9500    -3.6380    -2.2190 H     1 <1>   0.1500 
 38 H       -1.2650    -5.8460     1.1260 H     1 <1>   0.1500 
 39 H       -2.3210    -5.3490    -2.7850 H     1 <1>   0.1500 
@<TRIPOS>BOND
  1   1   2  2   
  2   2   3  am  
  3   2   4  1   
  4   3   5  1   
  5   3   6  1   
  6   4   7  1   
  7   4  23  1   
  8   4  24  1   
  9   5   8  1   
 10   5  25  1   
 11   5  26  1   
 12   6   9  1   
 13   6  27  1   
 14   6  28  1   
 15   7  10  1   
 16   7  11  1   
 17   8   9  1   
 18   8  12  1   
 19   8  29  1   
 20   9  13  1   
 21   9  30  1   
 22  10  14  2   
 23  11  15  2   
 24  11  16  1   
 25  12  31  1   
 26  13  17  1   
 27  13  32  1   
 28  13  33  1   
 29  14  15  1   
 30  16  34  1   
 31  16  35  1   
 32  17  18  ar  
 33  17  19  ar  
 34  18  20  ar  
 35  18  36  1   
 36  19  21  ar  
 37  19  37  1   
 38  20  22  ar  
 39  20  38  1   
 40  21  22  ar  
 41  21  39  1   
@<TRIPOS>SUBSTRUCTURE
  1 ****   6 GROUP 4 **** **** 0

# MOE 2024.06 (io_trps.svl 2023.06)
