@<TRIPOS>MOLECULE
NONAME
54 56 1 0 0 
SMALL
USER_CHARGES


@<TRIPOS>ATOM
  1 O       -2.2250     0.2350     2.1280 O.2   1 <1>  -0.5700 
  2 C       -2.4180     0.3990     0.9460 C.2   1 <1>   0.5690 
  3 N       -2.5080    -0.6840     0.1000 N.am  1 <1>  -0.6600 
  4 C       -2.5880     1.8400     0.4320 C.3   1 <1>  -0.0190 
  5 C       -2.0980    -2.0320     0.5670 C.3   1 <1>   0.1400 
  6 C       -3.1550    -0.6820    -1.2340 C.3   1 <1>   0.1400 
  7 C       -1.6870     2.8400     1.1790 C.3   1 <1>  -0.2400 
  8 C       -4.0530     2.3010     0.5300 C.3   1 <1>  -0.2400 
  9 C       -3.3570    -2.8800     0.7250 C.3   1 <1>  -0.1600 
 10 C       -4.4380    -1.5130    -1.1350 C.3   1 <1>  -0.1600 
 11 C       -4.1540    -2.9170    -0.5800 C.3   1 <1>   0.4230 
 12 N       -5.4270    -3.6120    -0.3010 N.4   1 <1>  -0.9060 
 13 C       -6.2400    -4.0060    -1.4860 C.3   1 <1>   0.4230 
 14 C       -7.5720    -4.6050    -1.0330 C.3   1 <1>  -0.0800 
 15 C       -5.6030    -5.2450    -2.1050 C.3   1 <1>   0.1200 
 16 C       -7.2160    -6.0740    -0.7470 C.3   1 <1>   0.1200 
 17 C       -8.3070    -3.8990     0.1250 C.3   1 <1>  -0.0170 
 18 O       -5.8910    -6.2280    -1.1670 O.3   1 <1>  -0.5600 
 19 C       -9.6520    -4.5580     0.3780 C.ar  1 <1>  -0.1440 
 20 C      -10.7510    -4.2910    -0.4140 C.ar  1 <1>  -0.1500 
 21 C       -9.8480    -5.4560     1.4100 C.ar  1 <1>  -0.1500 
 22 C      -11.9560    -4.9230    -0.1500 C.ar  1 <1>   0.1600 
 23 C      -11.0950    -6.0330     1.5870 C.ar  1 <1>   0.1600 
 24 N      -12.1500    -5.7890     0.8290 N.ar  1 <1>  -0.6200 
 25 H       -2.2820     1.8710    -0.5970 H     1 <1>   0.0800 
 26 H       -1.4260    -2.4710    -0.1520 H     1 <1>   0.0800 
 27 H       -1.5740    -1.9700     1.5070 H     1 <1>   0.0800 
 28 H       -3.3980     0.3150    -1.5540 H     1 <1>   0.0800 
 29 H       -2.4780    -1.1060    -1.9570 H     1 <1>   0.0800 
 30 H       -1.9600     2.8890     2.2190 H     1 <1>   0.0800 
 31 H       -1.7770     3.8230     0.7520 H     1 <1>   0.0800 
 32 H       -0.6590     2.5300     1.1140 H     1 <1>   0.0800 
 33 H       -4.3690     2.3030     1.5590 H     1 <1>   0.0800 
 34 H       -4.6980     1.6440    -0.0230 H     1 <1>   0.0800 
 35 H       -4.1600     3.2970     0.1370 H     1 <1>   0.0800 
 36 H       -3.9420    -2.4510     1.5200 H     1 <1>   0.0800 
 37 H       -3.0650    -3.8750     1.0110 H     1 <1>   0.0800 
 38 H       -4.8710    -1.5760    -2.1160 H     1 <1>   0.0800 
 39 H       -5.1210    -0.9890    -0.4900 H     1 <1>   0.0800 
 40 H       -3.5820    -3.4710    -1.3090 H     1 <1>   0.0800 
 41 H       -5.9770    -3.0460     0.3500 H     1 <1>   0.4500 
 42 H       -5.2140    -4.5040     0.1730 H     1 <1>   0.4500 
 43 H       -6.3630    -3.1930    -2.1830 H     1 <1>   0.0800 
 44 H       -8.2320    -4.6060    -1.8840 H     1 <1>   0.0800 
 45 H       -4.5390    -5.1730    -2.2430 H     1 <1>   0.0800 
 46 H       -6.0760    -5.5130    -3.0360 H     1 <1>   0.0800 
 47 H       -7.8400    -6.7510    -1.3080 H     1 <1>   0.0800 
 48 H       -7.2670    -6.3240     0.3000 H     1 <1>   0.0800 
 49 H       -8.4740    -2.8640    -0.1220 H     1 <1>   0.0800 
 50 H       -7.7310    -3.9370     1.0320 H     1 <1>   0.0800 
 51 H      -10.6930    -3.5990    -1.2340 H     1 <1>   0.1500 
 52 H       -9.0530    -5.7180     2.0830 H     1 <1>   0.1500 
 53 H      -12.8040    -4.7040    -0.7770 H     1 <1>   0.1500 
 54 H      -11.2330    -6.7310     2.3960 H     1 <1>   0.1500 
@<TRIPOS>BOND
  1   1   2  2   
  2   2   3  am  
  3   2   4  1   
  4   3   5  1   
  5   3   6  1   
  6   4   7  1   
  7   4   8  1   
  8   4  25  1   
  9   5   9  1   
 10   5  26  1   
 11   5  27  1   
 12   6  10  1   
 13   6  28  1   
 14   6  29  1   
 15   7  30  1   
 16   7  31  1   
 17   7  32  1   
 18   8  33  1   
 19   8  34  1   
 20   8  35  1   
 21   9  11  1   
 22   9  36  1   
 23   9  37  1   
 24  10  11  1   
 25  10  38  1   
 26  10  39  1   
 27  11  12  1   
 28  11  40  1   
 29  12  13  1   
 30  12  41  1   
 31  12  42  1   
 32  13  14  1   
 33  13  15  1   
 34  13  43  1   
 35  14  16  1   
 36  14  17  1   
 37  14  44  1   
 38  15  18  1   
 39  15  45  1   
 40  15  46  1   
 41  16  18  1   
 42  16  47  1   
 43  16  48  1   
 44  17  19  1   
 45  17  49  1   
 46  17  50  1   
 47  19  20  ar  
 48  19  21  ar  
 49  20  22  ar  
 50  20  51  1   
 51  21  23  ar  
 52  21  52  1   
 53  22  24  ar  
 54  22  53  1   
 55  23  24  ar  
 56  23  54  1   
@<TRIPOS>SUBSTRUCTURE
  1 ****  12 GROUP 4 **** **** 0

# MOE 2024.06 (io_trps.svl 2023.06)
