@<TRIPOS>MOLECULE
NONAME
51 52 1 0 0 
SMALL
USER_CHARGES


@<TRIPOS>ATOM
  1 O        2.2480     3.6950     0.8830 O.co2 1 <1>  -0.9000 
  2 C        1.5550     3.7740     1.9040 C.2   1 <1>   0.9060 
  3 O        1.5830     4.7940     2.5900 O.co2 1 <1>  -0.9000 
  4 C        0.3840     2.8380     2.0260 C.3   1 <1>  -0.2660 
  5 C       -0.9390     3.4810     1.5300 C.3   1 <1>  -0.1600 
  6 C       -0.9840     3.9010     0.0440 C.3   1 <1>   0.3430 
  7 N        0.1300     4.8180    -0.3540 N.4   1 <1>  -0.9590 
  8 C        0.1620     6.1130     0.4170 C.3   1 <1>   0.3430 
  9 C        0.2330     5.0050    -1.8130 C.3   1 <1>   0.3430 
 10 C        1.5600     6.7930     0.4770 C.3   1 <1>   0.3430 
 11 C        1.6940     4.9940    -2.2680 C.3   1 <1>  -0.1600 
 12 N        2.2850     6.9900    -0.8410 N.4   1 <1>  -0.9590 
 13 C        2.7390     5.6720    -1.3730 C.3   1 <1>   0.3430 
 14 C        3.4960     7.8250    -0.5980 C.3   1 <1>   0.3430 
 15 C        3.1050     9.2930    -0.4390 C.3   1 <1>  -0.1600 
 16 C        4.3440    10.1790    -0.2630 C.3   1 <1>  -0.0170 
 17 C        3.9080    11.6230    -0.0990 C.ar  1 <1>  -0.1440 
 18 C        3.6710    12.1430     1.1650 C.ar  1 <1>  -0.1500 
 19 C        3.7340    12.4330    -1.2110 C.ar  1 <1>  -0.1500 
 20 C        3.2590    13.4560     1.3140 C.ar  1 <1>  -0.1500 
 21 C        3.3220    13.7450    -1.0630 C.ar  1 <1>  -0.1500 
 22 C        3.0830    14.2570     0.2000 C.ar  1 <1>  -0.1500 
 23 H        0.2910     2.5720     3.0620 H     1 <1>   0.0800 
 24 H        0.6010     1.9450     1.4710 H     1 <1>   0.0800 
 25 H       -1.1720     4.3250     2.1540 H     1 <1>   0.0800 
 26 H       -1.7280     2.7670     1.6870 H     1 <1>   0.0800 
 27 H       -1.9320     4.3710    -0.1620 H     1 <1>   0.0800 
 28 H       -0.9240     3.0050    -0.5530 H     1 <1>   0.0800 
 29 H        0.9930     4.3010    -0.0420 H     1 <1>   0.4500 
 30 H       -0.1240     5.9220     1.4380 H     1 <1>   0.0800 
 31 H       -0.5570     6.8000     0.0070 H     1 <1>   0.0800 
 32 H       -0.2340     5.9360    -2.0890 H     1 <1>   0.0800 
 33 H       -0.2900     4.2110    -2.3220 H     1 <1>   0.0800 
 34 H        2.1940     6.2090     1.1230 H     1 <1>   0.0800 
 35 H        1.4290     7.7430     0.9650 H     1 <1>   0.0800 
 36 H        1.7450     5.4270    -3.2500 H     1 <1>   0.0800 
 37 H        1.9950     3.9670    -2.3780 H     1 <1>   0.0800 
 38 H        1.6980     7.4750    -1.5280 H     1 <1>   0.4500 
 39 H        3.6340     5.8070    -1.9590 H     1 <1>   0.0800 
 40 H        3.0080     5.0280    -0.5540 H     1 <1>   0.0800 
 41 H        4.1710     7.7380    -1.4350 H     1 <1>   0.0800 
 42 H        4.0120     7.4790     0.2850 H     1 <1>   0.0800 
 43 H        2.4780     9.4270     0.4230 H     1 <1>   0.0800 
 44 H        2.5700     9.6260    -1.3110 H     1 <1>   0.0800 
 45 H        4.9920    10.0970    -1.1190 H     1 <1>   0.0800 
 46 H        4.9040     9.8740     0.6050 H     1 <1>   0.0800 
 47 H        3.8050    11.5340     2.0410 H     1 <1>   0.1500 
 48 H        3.9170    12.0500    -2.2000 H     1 <1>   0.1500 
 49 H        3.0770    13.8570     2.2960 H     1 <1>   0.1500 
 50 H        3.1880    14.3710    -1.9290 H     1 <1>   0.1500 
 51 H        2.7630    15.2780     0.3160 H     1 <1>   0.1500 
@<TRIPOS>BOND
  1   1   2  ar  
  2   2   3  ar  
  3   2   4  1   
  4   4   5  1   
  5   4  23  1   
  6   4  24  1   
  7   5   6  1   
  8   5  25  1   
  9   5  26  1   
 10   6   7  1   
 11   6  27  1   
 12   6  28  1   
 13   7   8  1   
 14   7   9  1   
 15   7  29  1   
 16   8  10  1   
 17   8  30  1   
 18   8  31  1   
 19   9  11  1   
 20   9  32  1   
 21   9  33  1   
 22  10  12  1   
 23  10  34  1   
 24  10  35  1   
 25  11  13  1   
 26  11  36  1   
 27  11  37  1   
 28  12  13  1   
 29  12  14  1   
 30  12  38  1   
 31  13  39  1   
 32  13  40  1   
 33  14  15  1   
 34  14  41  1   
 35  14  42  1   
 36  15  16  1   
 37  15  43  1   
 38  15  44  1   
 39  16  17  1   
 40  16  45  1   
 41  16  46  1   
 42  17  18  ar  
 43  17  19  ar  
 44  18  20  ar  
 45  18  47  1   
 46  19  21  ar  
 47  19  48  1   
 48  20  22  ar  
 49  20  49  1   
 50  21  22  ar  
 51  21  50  1   
 52  22  51  1   
@<TRIPOS>SUBSTRUCTURE
  1 ****  10 GROUP 4 **** **** 0

# MOE 2024.06 (io_trps.svl 2023.06)
