@<TRIPOS>MOLECULE
NONAME
51 54 1 0 0 
SMALL
USER_CHARGES


@<TRIPOS>ATOM
  1 F       -1.1450     0.6470    -1.9620 F     1 <1>  -0.1900 
  2 C       -0.8300     1.8180    -1.4680 C.ar  1 <1>   0.1900 
  3 C       -1.7370     2.4510    -0.6140 C.ar  1 <1>   0.1000 
  4 C        0.3820     2.3690    -1.8160 C.ar  1 <1>  -0.1500 
  5 N       -2.9630     1.8880    -0.2660 N.pl3 1 <1>  -0.6000 
  6 C       -1.3880     3.7040    -0.0890 C.ar  1 <1>   0.0860 
  7 C        0.7210     3.6110    -1.2950 C.ar  1 <1>  -0.1500 
  8 C       -3.8840     2.4900     0.5770 C.2   1 <1>   0.1140 
  9 C       -2.3210     4.3530     0.7960 C.2   1 <1>   0.4690 
 10 C       -0.1530     4.2620    -0.4470 C.ar  1 <1>  -0.1500 
 11 C       -5.1360     1.7920     0.8540 C.2   1 <1>   0.6160 
 12 C       -3.5360     3.6980     1.1070 C.2   1 <1>  -0.1360 
 13 O       -2.0870     5.4550     1.2750 O.2   1 <1>  -0.5700 
 14 O       -5.1360     0.5730     0.8750 O.2   1 <1>  -0.5700 
 15 N       -6.3300     2.4500     1.0670 N.am  1 <1>  -0.6600 
 16 C       -7.4830     1.7060     1.6520 C.3   1 <1>   0.1400 
 17 C       -6.6220     3.8050     0.5120 C.3   1 <1>   0.1400 
 18 C       -8.5660     2.6780     2.1220 C.3   1 <1>  -0.1600 
 19 C       -8.0270     3.8170    -0.0890 C.3   1 <1>  -0.1600 
 20 C       -9.1240     3.5540     0.9750 C.3   1 <1>   0.2800 
 21 O       -9.4710     4.7620     1.5960 O.3   1 <1>  -0.5600 
 22 C      -10.3920     2.8980     0.3790 C.3   1 <1>  -0.1600 
 23 C      -10.2160     5.7240     0.9030 C.3   1 <1>   0.1200 
 24 C      -11.2960     3.8460    -0.4150 C.3   1 <1>   0.2800 
 25 C      -11.5270     5.1220     0.3980 C.3   1 <1>  -0.1600 
 26 O      -10.6490     4.1970    -1.5890 O.3   1 <1>  -0.6800 
 27 C      -12.6280     3.1600    -0.7950 C.3   1 <1>   0.1200 
 28 O      -13.3450     3.9470    -1.6870 O.3   1 <1>  -0.6800 
 29 H        1.0490     1.8460    -2.4780 H     1 <1>   0.1500 
 30 H       -3.1810     0.9330    -0.5940 H     1 <1>   0.4000 
 31 H        1.6650     4.0610    -1.5550 H     1 <1>   0.1500 
 32 H        0.1130     5.2260    -0.0430 H     1 <1>   0.1500 
 33 H       -4.1780     4.2090     1.7980 H     1 <1>   0.1500 
 34 H       -7.1360     1.1170     2.4850 H     1 <1>   0.0800 
 35 H       -7.8810     1.0340     0.9110 H     1 <1>   0.0800 
 36 H       -5.9080     4.0540    -0.2550 H     1 <1>   0.0800 
 37 H       -6.5560     4.5390     1.2980 H     1 <1>   0.0800 
 38 H       -8.1270     3.3060     2.8780 H     1 <1>   0.0800 
 39 H       -9.3500     2.1210     2.6000 H     1 <1>   0.0800 
 40 H       -8.0580     3.0470    -0.8390 H     1 <1>   0.0800 
 41 H       -8.1730     4.7500    -0.5930 H     1 <1>   0.0800 
 42 H      -10.9830     2.5160     1.1910 H     1 <1>   0.0800 
 43 H      -10.1240     2.0520    -0.2290 H     1 <1>   0.0800 
 44 H       -9.6280     6.1230     0.0960 H     1 <1>   0.0800 
 45 H      -10.4220     6.5260     1.5910 H     1 <1>   0.0800 
 46 H      -12.0620     5.8450    -0.1920 H     1 <1>   0.0800 
 47 H      -12.1400     4.8940     1.2520 H     1 <1>   0.0800 
 48 H       -9.8060     4.6310    -1.3680 H     1 <1>   0.4000 
 49 H      -13.2410     2.9920     0.0730 H     1 <1>   0.0800 
 50 H      -12.4340     2.2150    -1.2720 H     1 <1>   0.0800 
 51 H      -12.7070     4.2890    -2.3500 H     1 <1>   0.4000 
@<TRIPOS>BOND
  1   1   2  1   
  2   2   3  ar  
  3   2   4  ar  
  4   3   5  1   
  5   3   6  ar  
  6   4   7  ar  
  7   4  29  1   
  8   5   8  1   
  9   5  30  1   
 10   6   9  1   
 11   6  10  ar  
 12   7  10  ar  
 13   7  31  1   
 14   8  11  1   
 15   8  12  2   
 16   9  12  1   
 17   9  13  2   
 18  10  32  1   
 19  11  14  2   
 20  11  15  am  
 21  12  33  1   
 22  15  16  1   
 23  15  17  1   
 24  16  18  1   
 25  16  34  1   
 26  16  35  1   
 27  17  19  1   
 28  17  36  1   
 29  17  37  1   
 30  18  20  1   
 31  18  38  1   
 32  18  39  1   
 33  19  20  1   
 34  19  40  1   
 35  19  41  1   
 36  20  21  1   
 37  20  22  1   
 38  21  23  1   
 39  22  24  1   
 40  22  42  1   
 41  22  43  1   
 42  23  25  1   
 43  23  44  1   
 44  23  45  1   
 45  24  25  1   
 46  24  26  1   
 47  24  27  1   
 48  25  46  1   
 49  25  47  1   
 50  26  48  1   
 51  27  28  1   
 52  27  49  1   
 53  27  50  1   
 54  28  51  1   
@<TRIPOS>SUBSTRUCTURE
  1 ****  17 GROUP 4 **** **** 0

# MOE 2024.06 (io_trps.svl 2023.06)
