@<TRIPOS>MOLECULE
NONAME
46 49 1 0 0 
SMALL
USER_CHARGES


@<TRIPOS>ATOM
  1 S       -1.6940     1.4150     1.1730 S.3   1 <1>  -0.0800 
  2 C       -0.6850     2.7660     0.7040 C.2   1 <1>  -0.1400 
  3 C       -0.2950     0.5710     1.8190 C.2   1 <1>  -0.1100 
  4 C        0.6030     2.5600     1.0080 C.2   1 <1>  -0.1810 
  5 C       -1.2440     3.9980     0.0470 C.3   1 <1>   0.0200 
  6 C        0.8270     1.3000     1.6590 C.2   1 <1>  -0.1500 
  7 C        1.6630     3.6060     0.6680 C.3   1 <1>   0.4610 
  8 C       -0.2000     5.1110     0.2250 C.3   1 <1>   0.1200 
  9 O        1.0980     4.6570    -0.1030 O.3   1 <1>  -0.5600 
 10 C        2.2940     4.2140     1.9250 C.3   1 <1>  -0.1600 
 11 C        2.7660     2.9960    -0.2100 C.3   1 <1>  -0.1600 
 12 C        3.3290     5.2970     1.5970 C.3   1 <1>   0.3430 
 13 C        4.0450     3.8380    -0.2670 C.3   1 <1>   0.3430 
 14 N        3.7620     5.2330     0.1630 N.4   1 <1>  -0.9590 
 15 C        4.8620     6.1740    -0.1780 C.3   1 <1>   0.3430 
 16 C        4.3670     7.6150    -0.0830 C.3   1 <1>  -0.1600 
 17 C        5.4740     8.6150    -0.4540 C.3   1 <1>   0.0960 
 18 N        5.0270     9.9930    -0.1800 N.pl3 1 <1>   0.3140 
 19 N        4.7080    10.3870     1.0650 N.2   1 <1>  -0.7070 
 20 C        4.8680    10.9940    -1.0680 C.2   1 <1>  -0.3020 
 21 C        4.3590    11.6320     0.9410 C.2   1 <1>   0.1390 
 22 C        4.4380    12.0690    -0.3760 C.2   1 <1>  -0.1500 
 23 H       -0.4670    -0.3960     2.2580 H     1 <1>   0.1500 
 24 H       -2.1690     4.2860     0.5150 H     1 <1>   0.0800 
 25 H       -1.4260     3.8110    -0.9960 H     1 <1>   0.0800 
 26 H        1.8050     0.9880     1.9790 H     1 <1>   0.1500 
 27 H       -0.1950     5.4530     1.2450 H     1 <1>   0.0800 
 28 H       -0.4350     5.9420    -0.4170 H     1 <1>   0.0800 
 29 H        2.7790     3.4320     2.4810 H     1 <1>   0.0800 
 30 H        1.5330     4.6150     2.5680 H     1 <1>   0.0800 
 31 H        2.3780     2.8450    -1.2010 H     1 <1>   0.0800 
 32 H        3.0350     2.0260     0.1630 H     1 <1>   0.0800 
 33 H        4.1810     5.1880     2.2490 H     1 <1>   0.0800 
 34 H        2.8870     6.2620     1.7870 H     1 <1>   0.0800 
 35 H        4.4310     3.8270    -1.2730 H     1 <1>   0.0800 
 36 H        4.7890     3.4080     0.3850 H     1 <1>   0.0800 
 37 H        2.9110     5.4980    -0.3730 H     1 <1>   0.4500 
 38 H        5.2000     5.9840    -1.1840 H     1 <1>   0.0800 
 39 H        5.6940     6.0250     0.4930 H     1 <1>   0.0800 
 40 H        4.0560     7.8200     0.9260 H     1 <1>   0.0800 
 41 H        3.5320     7.7600    -0.7460 H     1 <1>   0.0800 
 42 H        5.7330     8.5350    -1.4950 H     1 <1>   0.0800 
 43 H        6.3540     8.4400     0.1380 H     1 <1>   0.0800 
 44 H        5.0650    10.8950    -2.1200 H     1 <1>   0.1500 
 45 H        4.0460    12.2470     1.7680 H     1 <1>   0.1500 
 46 H        4.2010    13.0560    -0.7310 H     1 <1>   0.1500 
@<TRIPOS>BOND
  1   1   2  1   
  2   1   3  1   
  3   2   4  2   
  4   2   5  1   
  5   3   6  2   
  6   3  23  1   
  7   4   6  1   
  8   4   7  1   
  9   5   8  1   
 10   5  24  1   
 11   5  25  1   
 12   6  26  1   
 13   7   9  1   
 14   7  10  1   
 15   7  11  1   
 16   8   9  1   
 17   8  27  1   
 18   8  28  1   
 19  10  12  1   
 20  10  29  1   
 21  10  30  1   
 22  11  13  1   
 23  11  31  1   
 24  11  32  1   
 25  12  14  1   
 26  12  33  1   
 27  12  34  1   
 28  13  14  1   
 29  13  35  1   
 30  13  36  1   
 31  14  15  1   
 32  14  37  1   
 33  15  16  1   
 34  15  38  1   
 35  15  39  1   
 36  16  17  1   
 37  16  40  1   
 38  16  41  1   
 39  17  18  1   
 40  17  42  1   
 41  17  43  1   
 42  18  19  1   
 43  18  20  1   
 44  19  21  2   
 45  20  22  2   
 46  20  44  1   
 47  21  22  1   
 48  21  45  1   
 49  22  46  1   
@<TRIPOS>SUBSTRUCTURE
  1 ****  14 GROUP 4 **** **** 0

# MOE 2024.06 (io_trps.svl 2023.06)
