@<TRIPOS>MOLECULE
NONAME
47 48 1 0 0 
SMALL
USER_CHARGES


@<TRIPOS>ATOM
  1 O       -0.6730    -0.3030    -1.6870 O.2   1 <1>  -0.5700 
  2 C       -0.8310     0.0640    -0.5490 C.2   1 <1>   0.5690 
  3 N       -1.2710    -0.7750     0.4180 N.am  1 <1>  -0.7300 
  4 C       -0.5570     1.5070    -0.1830 C.3   1 <1>  -0.0990 
  5 C       -1.5990    -2.2040     0.2170 C.3   1 <1>   0.2200 
  6 C       -1.8680     2.3030    -0.0070 C.3   1 <1>  -0.1600 
  7 C       -3.1050    -2.4210     0.1500 C.3   1 <1>  -0.0800 
  8 C       -1.2650    -2.9670     1.4900 C.3   1 <1>   0.1200 
  9 C       -1.7080     3.7900     0.3820 C.3   1 <1>   0.0000 
 10 C       -3.5070    -2.5180     1.6270 C.3   1 <1>   0.1200 
 11 C       -3.9030    -1.3790    -0.6570 C.3   1 <1>  -0.0160 
 12 O       -2.3280    -2.7090     2.3560 O.3   1 <1>  -0.5600 
 13 C       -1.0020     3.9380     1.7380 C.3   1 <1>  -0.2400 
 14 C       -0.9200     4.5640    -0.6850 C.3   1 <1>  -0.2400 
 15 C       -3.1080     4.4110     0.4950 C.3   1 <1>  -0.2400 
 16 C       -5.3730    -1.7590    -0.7290 C.ar  1 <1>  -0.1440 
 17 C       -6.3180    -1.2030     0.1090 C.ar  1 <1>  -0.1500 
 18 C       -5.8380    -2.6860    -1.6400 C.ar  1 <1>  -0.1500 
 19 C       -7.6430    -1.5940     0.0030 C.ar  1 <1>   0.1600 
 20 C       -7.1850    -3.0070    -1.6640 C.ar  1 <1>   0.1600 
 21 N       -8.0990    -2.4850    -0.8620 N.ar  1 <1>  -0.6200 
 22 H       -1.4330    -0.4390     1.3700 H     1 <1>   0.3700 
 23 H        0.0210     1.5200     0.7210 H     1 <1>   0.0800 
 24 H        0.0370     1.9400    -0.9660 H     1 <1>   0.0800 
 25 H       -1.0830    -2.5950    -0.6440 H     1 <1>   0.0800 
 26 H       -2.4660     1.8150     0.7430 H     1 <1>   0.0800 
 27 H       -2.4160     2.2440    -0.9330 H     1 <1>   0.0800 
 28 H       -3.2760    -3.3870    -0.2920 H     1 <1>   0.0800 
 29 H       -0.3410    -2.6480     1.9400 H     1 <1>   0.0800 
 30 H       -1.2380    -4.0270     1.3060 H     1 <1>   0.0800 
 31 H       -4.1690    -3.3480     1.8060 H     1 <1>   0.0800 
 32 H       -3.9620    -1.6080     1.9770 H     1 <1>   0.0800 
 33 H       -3.5000    -1.3170    -1.6540 H     1 <1>   0.0800 
 34 H       -3.8090    -0.4050    -0.2120 H     1 <1>   0.0800 
 35 H       -0.9880     4.9700     2.0420 H     1 <1>   0.0800 
 36 H        0.0160     3.5990     1.6860 H     1 <1>   0.0800 
 37 H       -1.5150     3.3720     2.4960 H     1 <1>   0.0800 
 38 H       -0.9050     5.6140    -0.4540 H     1 <1>   0.0800 
 39 H       -1.3710     4.4380    -1.6530 H     1 <1>   0.0800 
 40 H        0.0990     4.2260    -0.7380 H     1 <1>   0.0800 
 41 H       -3.0420     5.4500     0.7630 H     1 <1>   0.0800 
 42 H       -3.6880     3.9050     1.2460 H     1 <1>   0.0800 
 43 H       -3.6300     4.3390    -0.4430 H     1 <1>   0.0800 
 44 H       -6.0400    -0.4690     0.8430 H     1 <1>   0.1500 
 45 H       -5.1650    -3.1600    -2.3310 H     1 <1>   0.1500 
 46 H       -8.3660    -1.1500     0.6650 H     1 <1>   0.1500 
 47 H       -7.5290    -3.7320    -2.3820 H     1 <1>   0.1500 
@<TRIPOS>BOND
  1   1   2  2   
  2   2   3  am  
  3   2   4  1   
  4   3   5  1   
  5   3  22  1   
  6   4   6  1   
  7   4  23  1   
  8   4  24  1   
  9   5   7  1   
 10   5   8  1   
 11   5  25  1   
 12   6   9  1   
 13   6  26  1   
 14   6  27  1   
 15   7  10  1   
 16   7  11  1   
 17   7  28  1   
 18   8  12  1   
 19   8  29  1   
 20   8  30  1   
 21   9  13  1   
 22   9  14  1   
 23   9  15  1   
 24  10  12  1   
 25  10  31  1   
 26  10  32  1   
 27  11  16  1   
 28  11  33  1   
 29  11  34  1   
 30  13  35  1   
 31  13  36  1   
 32  13  37  1   
 33  14  38  1   
 34  14  39  1   
 35  14  40  1   
 36  15  41  1   
 37  15  42  1   
 38  15  43  1   
 39  16  17  ar  
 40  16  18  ar  
 41  17  19  ar  
 42  17  44  1   
 43  18  20  ar  
 44  18  45  1   
 45  19  21  ar  
 46  19  46  1   
 47  20  21  ar  
 48  20  47  1   
@<TRIPOS>SUBSTRUCTURE
  1 ****  11 GROUP 4 **** **** 0

# MOE 2024.06 (io_trps.svl 2023.06)
