@<TRIPOS>MOLECULE
NONAME
49 51 1 0 0 
SMALL
USER_CHARGES


@<TRIPOS>ATOM
  1 O        0.4690    -0.3560     2.4850 O.3   1 <1>  -0.6800 
  2 C        0.8280    -0.3940     1.1440 C.3   1 <1>   0.2000 
  3 C        1.5830    -1.7010     0.9000 C.3   1 <1>  -0.0800 
  4 C        1.8910     0.6950     0.9020 C.3   1 <1>   0.3430 
  5 C        2.9470    -1.3550     1.5040 C.3   1 <1>   0.3430 
  6 C        1.6260    -2.0350    -0.6180 C.3   1 <1>  -0.0160 
  7 N        3.2200     0.0050     0.9890 N.4   1 <1>  -0.9590 
  8 C        2.9680    -2.5510    -1.1200 C.ar  1 <1>   0.1670 
  9 C        4.2440     0.7590     1.7450 C.3   1 <1>   0.4860 
 10 N        3.9040    -1.6340    -1.3440 N.ar  1 <1>  -0.6200 
 11 C        3.1590    -3.9160    -1.3260 C.ar  1 <1>   0.1600 
 12 C        4.5100     2.0620     1.0110 C.ar  1 <1>  -0.1430 
 13 C        5.0210    -2.1770    -1.8120 C.ar  1 <1>   0.1600 
 14 N        4.2830    -4.4530    -1.7630 N.ar  1 <1>  -0.6200 
 15 C        5.1480     2.0580    -0.2210 C.ar  1 <1>  -0.1500 
 16 C        4.1060     3.2700     1.5590 C.ar  1 <1>  -0.1500 
 17 C        5.2040    -3.5400    -2.0120 C.ar  1 <1>   0.1600 
 18 C        5.3710     3.2440    -0.8980 C.ar  1 <1>  -0.1500 
 19 C        4.3300     4.4560     0.8810 C.ar  1 <1>  -0.1500 
 20 C        4.9640     4.4510    -0.3520 C.ar  1 <1>  -0.1430 
 21 C        5.2130     5.7530    -1.0930 C.3   1 <1>  -0.0170 
 22 C        6.5830     6.3060    -0.6970 C.3   1 <1>   0.3430 
 23 N        6.8650     7.5920    -1.3930 N.4   1 <1>  -0.8530 
 24 H       -0.3540    -0.8640     2.6520 H     1 <1>   0.4000 
 25 H       -0.0560    -0.2580     0.5430 H     1 <1>   0.0800 
 26 H        1.1420    -2.5260     1.4310 H     1 <1>   0.0800 
 27 H        1.7960     1.4700     1.6440 H     1 <1>   0.0800 
 28 H        1.7740     1.1250    -0.0790 H     1 <1>   0.0800 
 29 H        3.7140    -2.0560     1.2150 H     1 <1>   0.0800 
 30 H        2.8640    -1.3320     2.5790 H     1 <1>   0.0800 
 31 H        1.3870    -1.1640    -1.2050 H     1 <1>   0.0800 
 32 H        0.8590    -2.7590    -0.8350 H     1 <1>   0.0800 
 33 H        3.5720    -0.1360     0.0230 H     1 <1>   0.4500 
 34 H        3.8940     0.9610     2.7450 H     1 <1>   0.0800 
 35 H        5.1560     0.1880     1.8070 H     1 <1>   0.0800 
 36 H        2.3510    -4.5980    -1.1220 H     1 <1>   0.1500 
 37 H        5.8360    -1.5160    -2.0520 H     1 <1>   0.1500 
 38 H        5.4750     1.1330    -0.6670 H     1 <1>   0.1500 
 39 H        3.6130     3.3020     2.5170 H     1 <1>   0.1500 
 40 H        6.1500    -3.8880    -2.3920 H     1 <1>   0.1500 
 41 H        5.8610     3.2110    -1.8570 H     1 <1>   0.1500 
 42 H        4.0000     5.3790     1.3280 H     1 <1>   0.1500 
 43 H        4.4380     6.4560    -0.8400 H     1 <1>   0.0800 
 44 H        5.1750     5.5690    -2.1520 H     1 <1>   0.0800 
 45 H        7.3410     5.5790    -0.9460 H     1 <1>   0.0800 
 46 H        6.6070     6.4540     0.3720 H     1 <1>   0.0800 
 47 H        6.8640     7.4730    -2.4130 H     1 <1>   0.4500 
 48 H        7.7870     7.9570    -1.1240 H     1 <1>   0.4500 
 49 H        6.1670     8.3070    -1.1540 H     1 <1>   0.4500 
@<TRIPOS>BOND
  1   1   2  1   
  2   1  24  1   
  3   2   3  1   
  4   2   4  1   
  5   2  25  1   
  6   3   5  1   
  7   3   6  1   
  8   3  26  1   
  9   4   7  1   
 10   4  27  1   
 11   4  28  1   
 12   5   7  1   
 13   5  29  1   
 14   5  30  1   
 15   6   8  1   
 16   6  31  1   
 17   6  32  1   
 18   7   9  1   
 19   7  33  1   
 20   8  10  ar  
 21   8  11  ar  
 22   9  12  1   
 23   9  34  1   
 24   9  35  1   
 25  10  13  ar  
 26  11  14  ar  
 27  11  36  1   
 28  12  15  ar  
 29  12  16  ar  
 30  13  17  ar  
 31  13  37  1   
 32  14  17  ar  
 33  15  18  ar  
 34  15  38  1   
 35  16  19  ar  
 36  16  39  1   
 37  17  40  1   
 38  18  20  ar  
 39  18  41  1   
 40  19  20  ar  
 41  19  42  1   
 42  20  21  1   
 43  21  22  1   
 44  21  43  1   
 45  21  44  1   
 46  22  23  1   
 47  22  45  1   
 48  22  46  1   
 49  23  47  1   
 50  23  48  1   
 51  23  49  1   
@<TRIPOS>SUBSTRUCTURE
  1 ****   7 GROUP 4 **** **** 0

# MOE 2024.06 (io_trps.svl 2023.06)
