@<TRIPOS>MOLECULE
NONAME
58 60 1 0 0 
SMALL
USER_CHARGES


@<TRIPOS>ATOM
  1 O        0.3050    -1.0310    -0.2800 O.2   1 <1>  -0.5700 
  2 C       -0.1510    -2.1580    -0.1800 C.2   1 <1>   0.6900 
  3 N       -1.5000    -2.3540    -0.3280 N.am  1 <1>  -0.6600 
  4 N        0.6910    -3.2150     0.0800 N.am  1 <1>  -0.6600 
  5 C       -2.0430    -3.4700    -1.1420 C.3   1 <1>   0.1400 
  6 C       -2.4510    -1.2480    -0.0590 C.3   1 <1>   0.1400 
  7 C        0.2850    -4.3500     0.9510 C.3   1 <1>   0.0600 
  8 C        2.1550    -3.0890    -0.1420 C.3   1 <1>   0.0600 
  9 C       -3.2870    -4.0420    -0.4600 C.3   1 <1>  -0.1600 
 10 C       -3.7050    -1.8050     0.6220 C.3   1 <1>  -0.1600 
 11 C       -4.3420    -2.9460    -0.1960 C.3   1 <1>  -0.0190 
 12 C       -5.6010    -3.4850     0.4970 C.2   1 <1>   0.5690 
 13 O       -5.4840    -4.4740     1.1860 O.2   1 <1>  -0.5700 
 14 N       -6.8200    -2.8690     0.3350 N.am  1 <1>  -0.6600 
 15 C       -8.0680    -3.4730     0.9000 C.3   1 <1>   0.1400 
 16 C       -7.0940    -1.6290    -0.4410 C.3   1 <1>   0.1400 
 17 C       -9.0470    -3.8610    -0.2380 C.3   1 <1>   0.0000 
 18 C       -8.0260    -1.9600    -1.6110 C.3   1 <1>  -0.1600 
 19 C      -10.3500    -4.4540     0.3260 C.3   1 <1>   0.2000 
 20 C       -9.3250    -2.6270    -1.1250 C.3   1 <1>  -0.1600 
 21 C       -8.4900    -5.0480    -1.0440 C.3   1 <1>  -0.1600 
 22 O      -10.7800    -3.7580     1.4580 O.3   1 <1>  -0.5600 
 23 C      -10.0330    -5.9170     0.6520 C.3   1 <1>  -0.1600 
 24 C       -8.8300    -6.2960    -0.2230 C.3   1 <1>  -0.1600 
 25 C      -12.0870    -4.0310     1.8550 C.3   1 <1>   0.0400 
 26 H       -2.2990    -3.0940    -2.1170 H     1 <1>   0.0800 
 27 H       -1.3020    -4.2400    -1.2690 H     1 <1>   0.0800 
 28 H       -1.9880    -0.5140     0.5790 H     1 <1>   0.0800 
 29 H       -2.7080    -0.7730    -0.9900 H     1 <1>   0.0800 
 30 H        0.2940    -5.2640     0.3840 H     1 <1>   0.0800 
 31 H       -0.7040    -4.1890     1.3450 H     1 <1>   0.0800 
 32 H        0.9670    -4.4390     1.7780 H     1 <1>   0.0800 
 33 H        2.5560    -4.0260    -0.4860 H     1 <1>   0.0800 
 34 H        2.6370    -2.8070     0.7770 H     1 <1>   0.0800 
 35 H        2.3540    -2.3350    -0.8840 H     1 <1>   0.0800 
 36 H       -3.7140    -4.8100    -1.0810 H     1 <1>   0.0800 
 37 H       -2.9940    -4.5010     0.4680 H     1 <1>   0.0800 
 38 H       -3.4350    -2.1720     1.5980 H     1 <1>   0.0800 
 39 H       -4.4130    -1.0090     0.7620 H     1 <1>   0.0800 
 40 H       -4.6280    -2.5660    -1.1580 H     1 <1>   0.0800 
 41 H       -7.8390    -4.3350     1.5010 H     1 <1>   0.0800 
 42 H       -8.5320    -2.7490     1.5470 H     1 <1>   0.0800 
 43 H       -7.5720    -0.9150     0.2090 H     1 <1>   0.0800 
 44 H       -6.1910    -1.1780    -0.8080 H     1 <1>   0.0800 
 45 H       -8.2660    -1.0540    -2.1390 H     1 <1>   0.0800 
 46 H       -7.5120    -2.6110    -2.2960 H     1 <1>   0.0800 
 47 H      -11.1160    -4.4050    -0.4300 H     1 <1>   0.0800 
 48 H       -9.9290    -2.9030    -1.9720 H     1 <1>   0.0800 
 49 H       -9.8850    -1.9110    -0.5470 H     1 <1>   0.0800 
 50 H       -8.9940    -5.1110    -1.9920 H     1 <1>   0.0800 
 51 H       -7.4320    -4.9730    -1.2250 H     1 <1>   0.0800 
 52 H       -9.7660    -6.0180     1.6900 H     1 <1>   0.0800 
 53 H      -10.8780    -6.5440     0.4320 H     1 <1>   0.0800 
 54 H       -7.9940    -6.5510     0.4070 H     1 <1>   0.0800 
 55 H       -9.0500    -7.1330    -0.8630 H     1 <1>   0.0800 
 56 H      -12.3070    -3.4240     2.7150 H     1 <1>   0.0800 
 57 H      -12.1730    -5.0710     2.1170 H     1 <1>   0.0800 
 58 H      -12.7610    -3.7830     1.0540 H     1 <1>   0.0800 
@<TRIPOS>BOND
  1   1   2  2   
  2   2   3  am  
  3   2   4  am  
  4   3   5  1   
  5   3   6  1   
  6   4   7  1   
  7   4   8  1   
  8   5   9  1   
  9   5  26  1   
 10   5  27  1   
 11   6  10  1   
 12   6  28  1   
 13   6  29  1   
 14   7  30  1   
 15   7  31  1   
 16   7  32  1   
 17   8  33  1   
 18   8  34  1   
 19   8  35  1   
 20   9  11  1   
 21   9  36  1   
 22   9  37  1   
 23  10  11  1   
 24  10  38  1   
 25  10  39  1   
 26  11  12  1   
 27  11  40  1   
 28  12  13  2   
 29  12  14  am  
 30  14  15  1   
 31  14  16  1   
 32  15  17  1   
 33  15  41  1   
 34  15  42  1   
 35  16  18  1   
 36  16  43  1   
 37  16  44  1   
 38  17  19  1   
 39  17  20  1   
 40  17  21  1   
 41  18  20  1   
 42  18  45  1   
 43  18  46  1   
 44  19  22  1   
 45  19  23  1   
 46  19  47  1   
 47  20  48  1   
 48  20  49  1   
 49  21  24  1   
 50  21  50  1   
 51  21  51  1   
 52  22  25  1   
 53  23  24  1   
 54  23  52  1   
 55  23  53  1   
 56  24  54  1   
 57  24  55  1   
 58  25  56  1   
 59  25  57  1   
 60  25  58  1   
@<TRIPOS>SUBSTRUCTURE
  1 ****  12 GROUP 4 **** **** 0

# MOE 2024.06 (io_trps.svl 2023.06)
