@<TRIPOS>MOLECULE
NONAME
50 52 1 0 0 
SMALL
USER_CHARGES


@<TRIPOS>ATOM
  1 O       -0.3870    -1.9240    -1.7000 O.2   1 <1>  -0.5700 
  2 C       -0.2810    -2.4260    -0.6030 C.2   1 <1>   0.5690 
  3 N        0.9120    -2.9250    -0.1460 N.am  1 <1>  -0.6600 
  4 C       -1.5600    -2.4740     0.2550 C.3   1 <1>   0.4040 
  5 C        2.1410    -2.9090    -1.0060 C.3   1 <1>   0.1400 
  6 C        1.1500    -3.5740     1.1830 C.3   1 <1>   0.1400 
  7 N       -2.6490    -1.5490    -0.2330 N.4   1 <1>  -0.9590 
  8 C        3.3580    -2.3970    -0.2190 C.3   1 <1>   0.1200 
  9 C        2.4210    -3.0130     1.8450 C.3   1 <1>   0.1200 
 10 C       -3.9870    -1.9010     0.3350 C.3   1 <1>   0.3430 
 11 C       -2.2990    -0.1170    -0.0160 C.3   1 <1>   0.3430 
 12 O        3.5070    -3.1130     0.9740 O.3   1 <1>  -0.5600 
 13 C       -5.1120    -1.0400    -0.2780 C.3   1 <1>   0.0000 
 14 C       -3.3680     0.7790    -0.6440 C.3   1 <1>  -0.1600 
 15 C       -6.4460    -1.4000     0.3940 C.3   1 <1>   0.2000 
 16 C       -4.7740     0.4560    -0.1120 C.3   1 <1>  -0.1600 
 17 C       -5.3600    -1.4300    -1.7450 C.3   1 <1>  -0.1600 
 18 O       -6.2320    -1.7020     1.7410 O.3   1 <1>  -0.5600 
 19 C       -6.9880    -2.6200    -0.3620 C.3   1 <1>  -0.1600 
 20 C       -6.2080    -2.7020    -1.6800 C.3   1 <1>  -0.1600 
 21 C       -7.3840    -1.7020     2.5280 C.3   1 <1>   0.0400 
 22 H       -1.3080    -2.2260     1.2710 H     1 <1>   0.0800 
 23 H       -1.9200    -3.4870     0.2360 H     1 <1>   0.0800 
 24 H        2.3430    -3.9070    -1.3540 H     1 <1>   0.0800 
 25 H        1.9960    -2.2840    -1.8710 H     1 <1>   0.0800 
 26 H        0.3190    -3.4280     1.8470 H     1 <1>   0.0800 
 27 H        1.2800    -4.6340     1.0390 H     1 <1>   0.0800 
 28 H       -2.6790    -1.6770    -1.2570 H     1 <1>   0.4500 
 29 H        3.2520    -1.3520     0.0140 H     1 <1>   0.0800 
 30 H        4.2560    -2.5320    -0.7960 H     1 <1>   0.0800 
 31 H        2.6610    -3.5760     2.7300 H     1 <1>   0.0800 
 32 H        2.2920    -1.9790     2.1180 H     1 <1>   0.0800 
 33 H       -4.2070    -2.9410     0.1580 H     1 <1>   0.0800 
 34 H       -3.9740    -1.7430     1.4020 H     1 <1>   0.0800 
 35 H       -2.2370     0.0870     1.0410 H     1 <1>   0.0800 
 36 H       -1.3420     0.1010    -0.4650 H     1 <1>   0.0800 
 37 H       -3.1340     1.8060    -0.4230 H     1 <1>   0.0800 
 38 H       -3.3400     0.6700    -1.7140 H     1 <1>   0.0800 
 39 H       -7.1330    -0.5730     0.3140 H     1 <1>   0.0800 
 40 H       -5.5030     1.0640    -0.6200 H     1 <1>   0.0800 
 41 H       -4.8180     0.7100     0.9340 H     1 <1>   0.0800 
 42 H       -5.9400    -0.6610    -2.2280 H     1 <1>   0.0800 
 43 H       -4.4610    -1.5800    -2.3150 H     1 <1>   0.0800 
 44 H       -6.8480    -3.5240     0.2050 H     1 <1>   0.0800 
 45 H       -8.0380    -2.4860    -0.5590 H     1 <1>   0.0800 
 46 H       -5.5730    -3.5710    -1.6710 H     1 <1>   0.0800 
 47 H       -6.8700    -2.7720    -2.5280 H     1 <1>   0.0800 
 48 H       -7.1020    -1.9430     3.5380 H     1 <1>   0.0800 
 49 H       -8.0730    -2.4430     2.1610 H     1 <1>   0.0800 
 50 H       -7.8340    -0.7240     2.5030 H     1 <1>   0.0800 
@<TRIPOS>BOND
  1   1   2  2   
  2   2   3  am  
  3   2   4  1   
  4   3   5  1   
  5   3   6  1   
  6   4   7  1   
  7   4  22  1   
  8   4  23  1   
  9   5   8  1   
 10   5  24  1   
 11   5  25  1   
 12   6   9  1   
 13   6  26  1   
 14   6  27  1   
 15   7  10  1   
 16   7  11  1   
 17   7  28  1   
 18   8  12  1   
 19   8  29  1   
 20   8  30  1   
 21   9  12  1   
 22   9  31  1   
 23   9  32  1   
 24  10  13  1   
 25  10  33  1   
 26  10  34  1   
 27  11  14  1   
 28  11  35  1   
 29  11  36  1   
 30  13  15  1   
 31  13  16  1   
 32  13  17  1   
 33  14  16  1   
 34  14  37  1   
 35  14  38  1   
 36  15  18  1   
 37  15  19  1   
 38  15  39  1   
 39  16  40  1   
 40  16  41  1   
 41  17  20  1   
 42  17  42  1   
 43  17  43  1   
 44  18  21  1   
 45  19  20  1   
 46  19  44  1   
 47  19  45  1   
 48  20  46  1   
 49  20  47  1   
 50  21  48  1   
 51  21  49  1   
 52  21  50  1   
@<TRIPOS>SUBSTRUCTURE
  1 ****   7 GROUP 4 **** **** 0

# MOE 2024.06 (io_trps.svl 2023.06)
