@<TRIPOS>MOLECULE
NONAME
61 63 1 0 0 
SMALL
USER_CHARGES


@<TRIPOS>ATOM
  1 O        0.6750     1.0440    -1.5110 O.2   1 <1>  -0.5700 
  2 C        1.7010     1.1910    -0.8620 C.2   1 <1>   0.5440 
  3 N        1.9320     2.4230    -0.2940 N.am  1 <1>  -0.6600 
  4 C        2.6060     0.0740    -0.6790 C.ar  1 <1>   0.0860 
  5 C        1.0570     3.5900    -0.5570 C.3   1 <1>   0.1400 
  6 C        2.7950     2.6760     0.8840 C.3   1 <1>   0.1400 
  7 C        2.1120    -1.2240    -0.4380 C.ar  1 <1>   0.4100 
  8 C        3.9840     0.2270    -0.7410 C.ar  1 <1>  -0.1500 
  9 C        1.5330     4.6710     0.4060 C.3   1 <1>  -0.1600 
 10 C        2.1890     3.9040     1.5500 C.3   1 <1>  -0.1600 
 11 N        2.8690    -2.2930    -0.2010 N.ar  1 <1>  -0.6200 
 12 N        0.7570    -1.4610    -0.4260 N.pl3 1 <1>  -0.8690 
 13 C        4.7750    -0.8760    -0.5200 C.ar  1 <1>  -0.1500 
 14 C        4.1750    -2.0940    -0.2520 C.ar  1 <1>   0.1600 
 15 C        0.1260    -2.6720    -1.0230 C.3   1 <1>   0.2090 
 16 C       -0.3660    -3.6610     0.0820 C.3   1 <1>   0.5030 
 17 N        0.8650    -4.1420     0.8120 N.4   1 <1>  -0.9590 
 18 C       -1.3140    -2.9310     1.0610 C.3   1 <1>  -0.1600 
 19 C       -1.1550    -4.8310    -0.5360 C.3   1 <1>  -0.1600 
 20 C        1.7010    -5.1540     0.0870 C.3   1 <1>   0.2630 
 21 C        0.7440    -4.5410     2.2520 C.3   1 <1>   0.2630 
 22 C       -2.5620    -2.4140     0.3550 C.3   1 <1>   0.3430 
 23 C       -2.4560    -4.3670    -1.2040 C.3   1 <1>   0.3430 
 24 N       -3.2920    -3.5640    -0.2620 N.4   1 <1>  -0.9590 
 25 C       -4.5330    -3.1080    -0.9550 C.3   1 <1>   0.3430 
 26 C       -5.5780    -2.6950     0.0760 C.3   1 <1>  -0.2400 
 27 H        0.0350     3.3220    -0.3470 H     1 <1>   0.0800 
 28 H        1.1410     3.9050    -1.5840 H     1 <1>   0.0800 
 29 H        3.7940     2.8970     0.5500 H     1 <1>   0.0800 
 30 H        2.8090     1.8320     1.5530 H     1 <1>   0.0800 
 31 H        4.4210     1.1860    -0.9620 H     1 <1>   0.1500 
 32 H        0.7230     5.2940     0.7400 H     1 <1>   0.0800 
 33 H        2.2640     5.2850    -0.0910 H     1 <1>   0.0800 
 34 H        2.9310     4.4890     2.0650 H     1 <1>   0.0800 
 35 H        1.4400     3.5880     2.2560 H     1 <1>   0.0800 
 36 H        0.2700    -0.5930    -0.7290 H     1 <1>   0.4000 
 37 H        5.8480    -0.7980    -0.5560 H     1 <1>   0.1500 
 38 H        4.8160    -2.9420    -0.0740 H     1 <1>   0.1500 
 39 H        0.8290    -3.1620    -1.6760 H     1 <1>   0.0800 
 40 H       -0.6920    -2.3470    -1.6410 H     1 <1>   0.0800 
 41 H        1.4630    -3.2770     0.7860 H     1 <1>   0.4500 
 42 H       -0.8130    -2.0960     1.5190 H     1 <1>   0.0800 
 43 H       -1.6420    -3.5860     1.8470 H     1 <1>   0.0800 
 44 H       -1.3950    -5.5550     0.2220 H     1 <1>   0.0800 
 45 H       -0.5670    -5.3240    -1.2900 H     1 <1>   0.0800 
 46 H        1.1890    -6.1000     0.0270 H     1 <1>   0.0800 
 47 H        2.6340    -5.3010     0.6070 H     1 <1>   0.0800 
 48 H        1.9290    -4.8100    -0.9090 H     1 <1>   0.0800 
 49 H        0.0960    -5.3950     2.3530 H     1 <1>   0.0800 
 50 H        0.3520    -3.7280     2.8390 H     1 <1>   0.0800 
 51 H        1.7150    -4.7980     2.6470 H     1 <1>   0.0800 
 52 H       -2.2920    -1.6930    -0.4010 H     1 <1>   0.0800 
 53 H       -3.1960    -1.9170     1.0730 H     1 <1>   0.0800 
 54 H       -3.0120    -5.2300    -1.5380 H     1 <1>   0.0800 
 55 H       -2.2240    -3.7730    -2.0740 H     1 <1>   0.0800 
 56 H       -3.6100    -4.1850     0.4970 H     1 <1>   0.4500 
 57 H       -4.9370    -3.9140    -1.5480 H     1 <1>   0.0800 
 58 H       -4.3170    -2.2810    -1.6140 H     1 <1>   0.0800 
 59 H       -5.7920    -3.5020     0.7550 H     1 <1>   0.0800 
 60 H       -6.4930    -2.4470    -0.4350 H     1 <1>   0.0800 
 61 H       -5.2730    -1.8250     0.6270 H     1 <1>   0.0800 
@<TRIPOS>BOND
  1   1   2  2   
  2   2   3  am  
  3   2   4  1   
  4   3   5  1   
  5   3   6  1   
  6   4   7  ar  
  7   4   8  ar  
  8   5   9  1   
  9   5  27  1   
 10   5  28  1   
 11   6  10  1   
 12   6  29  1   
 13   6  30  1   
 14   7  11  ar  
 15   7  12  1   
 16   8  13  ar  
 17   8  31  1   
 18   9  10  1   
 19   9  32  1   
 20   9  33  1   
 21  10  34  1   
 22  10  35  1   
 23  11  14  ar  
 24  12  15  1   
 25  12  36  1   
 26  13  14  ar  
 27  13  37  1   
 28  14  38  1   
 29  15  16  1   
 30  15  39  1   
 31  15  40  1   
 32  16  17  1   
 33  16  18  1   
 34  16  19  1   
 35  17  20  1   
 36  17  21  1   
 37  17  41  1   
 38  18  22  1   
 39  18  42  1   
 40  18  43  1   
 41  19  23  1   
 42  19  44  1   
 43  19  45  1   
 44  20  46  1   
 45  20  47  1   
 46  20  48  1   
 47  21  49  1   
 48  21  50  1   
 49  21  51  1   
 50  22  24  1   
 51  22  52  1   
 52  22  53  1   
 53  23  24  1   
 54  23  54  1   
 55  23  55  1   
 56  24  25  1   
 57  24  56  1   
 58  25  26  1   
 59  25  57  1   
 60  25  58  1   
 61  26  59  1   
 62  26  60  1   
 63  26  61  1   
@<TRIPOS>SUBSTRUCTURE
  1 ****  12 GROUP 4 **** **** 0

# MOE 2024.06 (io_trps.svl 2023.06)
