@<TRIPOS>MOLECULE
NONAME
47 49 1 0 0 
SMALL
USER_CHARGES


@<TRIPOS>ATOM
  1 O       -0.1480     0.9280    -0.2440 O.2   1 <1>  -0.5700 
  2 C       -0.2610     2.1290    -0.3150 C.2   1 <1>   0.5690 
  3 N       -1.1550     2.8310     0.4470 N.am  1 <1>  -0.6600 
  4 C        0.6160     2.8790    -1.3160 C.3   1 <1>   0.1810 
  5 C       -1.3130     4.3160     0.2970 C.3   1 <1>   0.3640 
  6 C       -1.9960     2.1820     1.4940 C.3   1 <1>   0.0600 
  7 O        0.8190     4.2200    -0.9510 O.3   1 <1>  -0.5600 
  8 C       -2.7880     4.6850     0.0560 C.ar  1 <1>  -0.1430 
  9 C       -0.3790     4.9650    -0.7620 C.3   1 <1>   0.2610 
 10 C       -3.6010     4.1250    -0.9360 C.ar  1 <1>  -0.1430 
 11 C       -3.3320     5.6480     0.8980 C.ar  1 <1>  -0.1500 
 12 C       -0.0370     6.3970    -0.3330 C.2   1 <1>   0.5690 
 13 C       -4.9230     4.5340    -1.0470 C.ar  1 <1>  -0.1500 
 14 C       -3.1250     3.0640    -1.9220 C.3   1 <1>  -0.0960 
 15 C       -4.6490     6.0490     0.7770 C.ar  1 <1>  -0.1500 
 16 O       -0.8950     7.2460    -0.3280 O.2   1 <1>  -0.5700 
 17 N        1.2390     6.6820     0.0420 N.am  1 <1>  -0.7300 
 18 C       -5.4480     5.4890    -0.1980 C.ar  1 <1>  -0.1500 
 19 C        1.7640     8.0110     0.4260 C.3   1 <1>   0.1400 
 20 C        2.9380     8.3890    -0.4810 C.3   1 <1>   0.0000 
 21 C        4.2150     7.5230    -0.3110 C.3   1 <1>   0.0000 
 22 C        3.7780     9.5930     0.0210 C.3   1 <1>   0.0000 
 23 C        5.0280     8.8310    -0.4910 C.3   1 <1>   0.0000 
 24 H        0.1660     2.8490    -2.2910 H     1 <1>   0.0800 
 25 H        1.5800     2.4050    -1.3650 H     1 <1>   0.0800 
 26 H       -1.0250     4.7360     1.2450 H     1 <1>   0.0800 
 27 H       -1.8620     2.6840     2.4350 H     1 <1>   0.0800 
 28 H       -1.7240     1.1480     1.6140 H     1 <1>   0.0800 
 29 H       -3.0340     2.2320     1.2130 H     1 <1>   0.0800 
 30 H       -0.8830     5.0220    -1.7080 H     1 <1>   0.0800 
 31 H       -2.7290     6.1100     1.6610 H     1 <1>   0.1500 
 32 H       -5.5610     4.1090    -1.8010 H     1 <1>   0.1500 
 33 H       -3.8380     2.9290    -2.7150 H     1 <1>   0.0800 
 34 H       -3.0090     2.1200    -1.4200 H     1 <1>   0.0800 
 35 H       -2.1940     3.3440    -2.3710 H     1 <1>   0.0800 
 36 H       -5.0470     6.7990     1.4370 H     1 <1>   0.1500 
 37 H        1.9270     5.9260    -0.0560 H     1 <1>   0.3700 
 38 H       -6.4740     5.7970    -0.2990 H     1 <1>   0.1500 
 39 H        0.9880     8.7530     0.3370 H     1 <1>   0.0800 
 40 H        2.0830     7.9780     1.4540 H     1 <1>   0.0800 
 41 H        2.6560     8.5080    -1.5140 H     1 <1>   0.0000 
 42 H        4.3190     7.1070     0.6770 H     1 <1>   0.0000 
 43 H        4.3630     6.8060    -1.0990 H     1 <1>   0.0000 
 44 H        3.5820    10.5100    -0.5040 H     1 <1>   0.0000 
 45 H        3.7730     9.6990     1.0930 H     1 <1>   0.0000 
 46 H        5.2500     9.0440    -1.5230 H     1 <1>   0.0000 
 47 H        5.8820     8.9070     0.1590 H     1 <1>   0.0000 
@<TRIPOS>BOND
  1   1   2  2   
  2   2   3  am  
  3   2   4  1   
  4   3   5  1   
  5   3   6  1   
  6   4   7  1   
  7   4  24  1   
  8   4  25  1   
  9   5   8  1   
 10   5   9  1   
 11   5  26  1   
 12   6  27  1   
 13   6  28  1   
 14   6  29  1   
 15   7   9  1   
 16   8  10  ar  
 17   8  11  ar  
 18   9  12  1   
 19   9  30  1   
 20  10  13  ar  
 21  10  14  1   
 22  11  15  ar  
 23  11  31  1   
 24  12  16  2   
 25  12  17  am  
 26  13  18  ar  
 27  13  32  1   
 28  14  33  1   
 29  14  34  1   
 30  14  35  1   
 31  15  18  ar  
 32  15  36  1   
 33  17  19  1   
 34  17  37  1   
 35  18  38  1   
 36  19  20  1   
 37  19  39  1   
 38  19  40  1   
 39  20  21  1   
 40  20  22  1   
 41  20  41  1   
 42  21  23  1   
 43  21  42  1   
 44  21  43  1   
 45  22  23  1   
 46  22  44  1   
 47  22  45  1   
 48  23  46  1   
 49  23  47  1   
@<TRIPOS>SUBSTRUCTURE
  1 ****   9 GROUP 4 **** **** 0

# MOE 2024.06 (io_trps.svl 2023.06)
