@<TRIPOS>MOLECULE
NONAME
55 58 1 0 0 
SMALL
USER_CHARGES


@<TRIPOS>ATOM
  1 O       -3.7630    -1.6630     1.6440 O.2   1 <1>  -0.5700 
  2 C       -3.0210    -1.3660     0.7270 C.2   1 <1>   0.5440 
  3 N       -2.3830    -2.4050     0.0940 N.am  1 <1>  -0.6600 
  4 C       -2.9290     0.0000     0.2500 C.ar  1 <1>   0.0860 
  5 C       -1.9530    -3.6110     0.9010 C.3   1 <1>   0.2200 
  6 C       -2.5210    -2.5440    -1.3850 C.3   1 <1>   0.1400 
  7 C       -1.7120     0.6370    -0.0360 C.ar  1 <1>   0.1660 
  8 C       -4.0920     0.7310     0.0410 C.ar  1 <1>  -0.1500 
  9 C       -0.7880    -4.3770     0.2530 C.3   1 <1>   0.1200 
 10 C       -3.1430    -4.5630     1.1770 C.3   1 <1>   0.3430 
 11 C       -2.8780    -3.9710    -1.8450 C.3   1 <1>  -0.0800 
 12 N       -1.6020     1.8540    -0.5410 N.ar  1 <1>  -0.6200 
 13 C       -0.3740    -0.0360     0.2300 C.3   1 <1>  -0.0960 
 14 C       -3.9840     2.0060    -0.4650 C.ar  1 <1>  -0.1500 
 15 O       -1.2680    -5.3350    -0.6430 O.3   1 <1>  -0.5600 
 16 N       -4.3110    -4.2520     0.2910 N.4   1 <1>  -0.9590 
 17 C       -1.6370    -4.8780    -1.9010 C.3   1 <1>   0.1200 
 18 C       -4.0760    -4.6520    -1.1370 C.3   1 <1>   0.3430 
 19 C       -2.7290     2.5140    -0.7440 C.ar  1 <1>   0.1600 
 20 C       -5.5720    -4.8460     0.8360 C.3   1 <1>   0.5240 
 21 C       -5.4740    -6.3640     0.9860 C.2   1 <1>   0.1080 
 22 N       -5.3350    -7.1800    -0.0170 N.2   1 <1>  -0.7070 
 23 C       -5.5090    -7.0370     2.2030 C.2   1 <1>  -0.1500 
 24 N       -5.2720    -8.4080     0.5350 N.pl3 1 <1>   0.3140 
 25 C       -5.3750    -8.3390     1.8760 C.2   1 <1>  -0.3020 
 26 C       -5.1020    -9.6320    -0.2750 C.3   1 <1>   0.0960 
 27 C       -3.6180    -9.9900    -0.4260 C.3   1 <1>  -0.2400 
 28 H       -1.5940    -3.2520     1.8510 H     1 <1>   0.0800 
 29 H       -3.2910    -1.8730    -1.7290 H     1 <1>   0.0800 
 30 H       -1.6010    -2.2330    -1.8520 H     1 <1>   0.0800 
 31 H       -5.0550     0.3100     0.2720 H     1 <1>   0.1500 
 32 H       -0.2550    -4.9170     1.0160 H     1 <1>   0.0800 
 33 H       -0.0940    -3.7180    -0.2410 H     1 <1>   0.0800 
 34 H       -3.4340    -4.4340     2.2050 H     1 <1>   0.0800 
 35 H       -2.8400    -5.5900     1.0490 H     1 <1>   0.0800 
 36 H       -3.1720    -3.8740    -2.8750 H     1 <1>   0.0800 
 37 H       -0.4230    -0.6720     1.0940 H     1 <1>   0.0800 
 38 H        0.3800     0.7090     0.4150 H     1 <1>   0.0800 
 39 H       -0.0780    -0.6110    -0.6260 H     1 <1>   0.0800 
 40 H       -4.8580     2.6070    -0.6440 H     1 <1>   0.1500 
 41 H       -4.3790    -3.2230     0.3480 H     1 <1>   0.4500 
 42 H       -0.7950    -4.3760    -2.3480 H     1 <1>   0.0800 
 43 H       -1.8530    -5.7520    -2.4930 H     1 <1>   0.0800 
 44 H       -3.9330    -5.7190    -1.1890 H     1 <1>   0.0800 
 45 H       -4.9670    -4.4270    -1.7000 H     1 <1>   0.0800 
 46 H       -2.6470     3.5100    -1.1470 H     1 <1>   0.1500 
 47 H       -5.7870    -4.4140     1.7990 H     1 <1>   0.0800 
 48 H       -6.3940    -4.6200     0.1780 H     1 <1>   0.0800 
 49 H       -5.6190    -6.6080     3.1840 H     1 <1>   0.1500 
 50 H       -5.3490    -9.2060     2.5110 H     1 <1>   0.1500 
 51 H       -5.6320   -10.4360     0.2020 H     1 <1>   0.0800 
 52 H       -5.5400    -9.4600    -1.2420 H     1 <1>   0.0800 
 53 H       -3.1770   -10.1800     0.5370 H     1 <1>   0.0800 
 54 H       -3.0900    -9.1860    -0.9080 H     1 <1>   0.0800 
 55 H       -3.5160   -10.8750    -1.0290 H     1 <1>   0.0800 
@<TRIPOS>BOND
  1   1   2  2   
  2   2   3  am  
  3   2   4  1   
  4   3   5  1   
  5   3   6  1   
  6   4   7  ar  
  7   4   8  ar  
  8   5   9  1   
  9   5  10  1   
 10   5  28  1   
 11   6  11  1   
 12   6  29  1   
 13   6  30  1   
 14   7  12  ar  
 15   7  13  1   
 16   8  14  ar  
 17   8  31  1   
 18   9  15  1   
 19   9  32  1   
 20   9  33  1   
 21  10  16  1   
 22  10  34  1   
 23  10  35  1   
 24  11  17  1   
 25  11  18  1   
 26  11  36  1   
 27  12  19  ar  
 28  13  37  1   
 29  13  38  1   
 30  13  39  1   
 31  14  19  ar  
 32  14  40  1   
 33  15  17  1   
 34  16  18  1   
 35  16  20  1   
 36  16  41  1   
 37  17  42  1   
 38  17  43  1   
 39  18  44  1   
 40  18  45  1   
 41  19  46  1   
 42  20  21  1   
 43  20  47  1   
 44  20  48  1   
 45  21  22  2   
 46  21  23  1   
 47  22  24  1   
 48  23  25  2   
 49  23  49  1   
 50  24  25  1   
 51  24  26  1   
 52  25  50  1   
 53  26  27  1   
 54  26  51  1   
 55  26  52  1   
 56  27  53  1   
 57  27  54  1   
 58  27  55  1   
@<TRIPOS>SUBSTRUCTURE
  1 ****  16 GROUP 4 **** **** 0

# MOE 2024.06 (io_trps.svl 2023.06)
