@<TRIPOS>MOLECULE
NONAME
54 56 1 0 0 
SMALL
USER_CHARGES


@<TRIPOS>ATOM
  1 F       -2.5520     2.1010     1.7840 F     1 <1>  -0.1900 
  2 C       -1.6940     2.7850     1.0720 C.ar  1 <1>   0.1900 
  3 C       -1.7040     2.6350    -0.3020 C.ar  1 <1>  -0.1440 
  4 C       -0.8260     3.6350     1.7270 C.ar  1 <1>  -0.1500 
  5 C       -0.7920     3.3720    -1.0380 C.ar  1 <1>  -0.1500 
  6 C       -2.6940     1.7040    -0.9700 C.3   1 <1>   0.4870 
  7 C        0.0810     4.3850     0.9820 C.ar  1 <1>   0.0820 
  8 C        0.0960     4.2400    -0.4200 C.ar  1 <1>   0.0820 
  9 N       -4.0330     2.3440    -0.9530 N.4   1 <1>  -0.9590 
 10 O        0.9300     5.2620     1.5900 O.3   1 <1>  -0.3620 
 11 O        0.9180     4.8930    -1.2900 O.3   1 <1>  -0.3620 
 12 C       -5.1410     1.4390    -1.3380 C.3   1 <1>   0.3430 
 13 C       -4.0890     3.6570    -1.6620 C.3   1 <1>   0.3430 
 14 C        0.9880     5.4190     2.9920 C.3   1 <1>   0.0400 
 15 C        2.1720     5.4110    -0.9010 C.3   1 <1>   0.0400 
 16 C       -6.4850     2.0610    -0.9350 C.3   1 <1>  -0.1600 
 17 C       -5.5060     4.2450    -1.6230 C.3   1 <1>  -0.1600 
 18 C       -6.4180     3.5640    -0.5860 C.3   1 <1>   0.2800 
 19 O       -5.7930     3.6410     0.6770 O.3   1 <1>  -0.5600 
 20 C       -7.8330     4.1950    -0.5380 C.3   1 <1>  -0.1600 
 21 C       -5.9570     4.8280     1.4060 C.3   1 <1>   0.1200 
 22 C       -8.4010     4.2700     0.8820 C.3   1 <1>   0.2800 
 23 C       -7.4320     5.0390     1.7850 C.3   1 <1>  -0.1600 
 24 O       -8.4810     2.9930     1.3710 O.3   1 <1>  -0.6800 
 25 C       -9.8140     4.8430     0.9190 C.3   1 <1>  -0.2400 
 26 H       -0.8840     3.6960     2.7960 H     1 <1>   0.1500 
 27 H       -0.7480     3.2890    -2.1110 H     1 <1>   0.1500 
 28 H       -2.7240     0.7720    -0.4280 H     1 <1>   0.0800 
 29 H       -2.3880     1.5040    -1.9830 H     1 <1>   0.0800 
 30 H       -4.2390     2.5920     0.0370 H     1 <1>   0.4500 
 31 H       -5.0320     0.4850    -0.8490 H     1 <1>   0.0800 
 32 H       -5.1200     1.2790    -2.4040 H     1 <1>   0.0800 
 33 H       -3.7710     3.5430    -2.6850 H     1 <1>   0.0800 
 34 H       -3.4140     4.3450    -1.1770 H     1 <1>   0.0800 
 35 H        1.7470     6.1470     3.2150 H     1 <1>   0.0800 
 36 H        1.2470     4.4760     3.4410 H     1 <1>   0.0800 
 37 H        0.0350     5.7690     3.3470 H     1 <1>   0.0800 
 38 H        2.7420     5.6140    -1.7890 H     1 <1>   0.0800 
 39 H        2.6830     4.6830    -0.2950 H     1 <1>   0.0800 
 40 H        2.0180     6.3240    -0.3540 H     1 <1>   0.0800 
 41 H       -6.8920     1.5130    -0.1060 H     1 <1>   0.0800 
 42 H       -7.1610     1.9110    -1.7570 H     1 <1>   0.0800 
 43 H       -5.9460     4.1300    -2.5980 H     1 <1>   0.0800 
 44 H       -5.4450     5.3030    -1.4430 H     1 <1>   0.0800 
 45 H       -8.5160     3.6650    -1.1760 H     1 <1>   0.0800 
 46 H       -7.7860     5.1980    -0.9230 H     1 <1>   0.0800 
 47 H       -5.5970     5.6490     0.8110 H     1 <1>   0.0800 
 48 H       -5.3510     4.7600     2.2940 H     1 <1>   0.0800 
 49 H       -7.6340     6.0920     1.7110 H     1 <1>   0.0800 
 50 H       -7.5950     4.7700     2.8150 H     1 <1>   0.0800 
 51 H       -7.5700     2.7010     1.5700 H     1 <1>   0.4000 
 52 H       -9.8230     5.8470     0.5360 H     1 <1>   0.0800 
 53 H      -10.1800     4.8620     1.9310 H     1 <1>   0.0800 
 54 H      -10.4760     4.2440     0.3200 H     1 <1>   0.0800 
@<TRIPOS>BOND
  1   1   2  1   
  2   2   3  ar  
  3   2   4  ar  
  4   3   5  ar  
  5   3   6  1   
  6   4   7  ar  
  7   4  26  1   
  8   5   8  ar  
  9   5  27  1   
 10   6   9  1   
 11   6  28  1   
 12   6  29  1   
 13   7   8  ar  
 14   7  10  1   
 15   8  11  1   
 16   9  12  1   
 17   9  13  1   
 18   9  30  1   
 19  10  14  1   
 20  11  15  1   
 21  12  16  1   
 22  12  31  1   
 23  12  32  1   
 24  13  17  1   
 25  13  33  1   
 26  13  34  1   
 27  14  35  1   
 28  14  36  1   
 29  14  37  1   
 30  15  38  1   
 31  15  39  1   
 32  15  40  1   
 33  16  18  1   
 34  16  41  1   
 35  16  42  1   
 36  17  18  1   
 37  17  43  1   
 38  17  44  1   
 39  18  19  1   
 40  18  20  1   
 41  19  21  1   
 42  20  22  1   
 43  20  45  1   
 44  20  46  1   
 45  21  23  1   
 46  21  47  1   
 47  21  48  1   
 48  22  23  1   
 49  22  24  1   
 50  22  25  1   
 51  23  49  1   
 52  23  50  1   
 53  24  51  1   
 54  25  52  1   
 55  25  53  1   
 56  25  54  1   
@<TRIPOS>SUBSTRUCTURE
  1 ****   9 GROUP 4 **** **** 0

# MOE 2024.06 (io_trps.svl 2023.06)
