@<TRIPOS>MOLECULE
NONAME
53 55 1 0 0 
SMALL
USER_CHARGES


@<TRIPOS>ATOM
  1 O        0.3990     1.1300    -1.0610 O.2   1 <1>  -0.5700 
  2 C        0.0810     2.2920    -0.9630 C.2   1 <1>   0.5690 
  3 N       -0.9910     2.7010    -0.2150 N.am  1 <1>  -0.6600 
  4 C        0.9070     3.3320    -1.7200 C.3   1 <1>   0.1810 
  5 C       -1.3810     4.1500    -0.1290 C.3   1 <1>   0.3640 
  6 C       -1.7960     1.7510     0.6070 C.3   1 <1>   0.0600 
  7 O        0.8090     4.6120    -1.1470 O.3   1 <1>  -0.5600 
  8 C       -2.8720     4.2950    -0.4650 C.ar  1 <1>  -0.1430 
  9 C       -0.5270     5.0800    -1.0310 C.3   1 <1>   0.2610 
 10 C       -3.7730     4.9390     0.3840 C.ar  1 <1>  -0.1430 
 11 C       -3.3390     3.7600    -1.6610 C.ar  1 <1>  -0.1500 
 12 C       -0.5360     6.4960    -0.4550 C.2   1 <1>   0.5690 
 13 C       -5.1080     5.0340     0.0180 C.ar  1 <1>  -0.1500 
 14 C       -3.3510     5.5550     1.7120 C.3   1 <1>  -0.0960 
 15 C       -4.6710     3.8600    -2.0170 C.ar  1 <1>  -0.1500 
 16 O       -1.4340     7.2530    -0.7380 O.2   1 <1>  -0.5700 
 17 N        0.4790     6.8690     0.3690 N.am  1 <1>  -0.7300 
 18 C       -5.5580     4.5000    -1.1750 C.ar  1 <1>  -0.1500 
 19 C        0.7010     8.2300     0.9150 C.3   1 <1>   0.1400 
 20 C        2.0880     8.7750     0.5100 C.3   1 <1>   0.0000 
 21 C        2.3610    10.1280     1.1780 C.3   1 <1>  -0.1600 
 22 C        3.2360     7.9040     1.0370 C.3   1 <1>  -0.1600 
 23 C        2.1850     8.9220    -1.0230 C.3   1 <1>  -0.2400 
 24 C        3.8840    10.2580     1.2670 C.3   1 <1>  -0.1600 
 25 C        4.4440     8.8350     1.1720 C.3   1 <1>  -0.1600 
 26 H        0.5770     3.3840    -2.7420 H     1 <1>   0.0800 
 27 H        1.9420     3.0430    -1.7020 H     1 <1>   0.0800 
 28 H       -1.2090     4.4520     0.8870 H     1 <1>   0.0800 
 29 H       -1.8780     2.1160     1.6150 H     1 <1>   0.0800 
 30 H       -1.3310     0.7800     0.6300 H     1 <1>   0.0800 
 31 H       -2.7820     1.6480     0.1890 H     1 <1>   0.0800 
 32 H       -0.9480     5.1210    -2.0190 H     1 <1>   0.0800 
 33 H       -2.6630     3.2510    -2.3260 H     1 <1>   0.1500 
 34 H       -5.8130     5.5320     0.6600 H     1 <1>   0.1500 
 35 H       -4.1910     6.0000     2.2140 H     1 <1>   0.0800 
 36 H       -2.6210     6.3270     1.5490 H     1 <1>   0.0800 
 37 H       -2.9380     4.8020     2.3580 H     1 <1>   0.0800 
 38 H       -5.0150     3.4400    -2.9450 H     1 <1>   0.1500 
 39 H        1.2800     6.2340     0.4320 H     1 <1>   0.3700 
 40 H       -6.5960     4.5830    -1.4460 H     1 <1>   0.1500 
 41 H       -0.0660     8.8960     0.5570 H     1 <1>   0.0800 
 42 H        0.6250     8.1860     1.9880 H     1 <1>   0.0800 
 43 H        1.9190    10.9480     0.6390 H     1 <1>   0.0800 
 44 H        1.9630    10.1250     2.1780 H     1 <1>   0.0800 
 45 H        2.9840     7.5300     2.0150 H     1 <1>   0.0800 
 46 H        3.4480     7.0690     0.3930 H     1 <1>   0.0800 
 47 H        3.1230     9.3570    -1.3160 H     1 <1>   0.0800 
 48 H        1.3920     9.5500    -1.3880 H     1 <1>   0.0800 
 49 H        2.0990     7.9630    -1.5040 H     1 <1>   0.0800 
 50 H        4.2510    10.8460     0.4430 H     1 <1>   0.0800 
 51 H        4.1750    10.7340     2.1880 H     1 <1>   0.0800 
 52 H        5.0290     8.5840     2.0400 H     1 <1>   0.0800 
 53 H        5.0690     8.7530     0.2980 H     1 <1>   0.0800 
@<TRIPOS>BOND
  1   1   2  2   
  2   2   3  am  
  3   2   4  1   
  4   3   5  1   
  5   3   6  1   
  6   4   7  1   
  7   4  26  1   
  8   4  27  1   
  9   5   8  1   
 10   5   9  1   
 11   5  28  1   
 12   6  29  1   
 13   6  30  1   
 14   6  31  1   
 15   7   9  1   
 16   8  10  ar  
 17   8  11  ar  
 18   9  12  1   
 19   9  32  1   
 20  10  13  ar  
 21  10  14  1   
 22  11  15  ar  
 23  11  33  1   
 24  12  16  2   
 25  12  17  am  
 26  13  18  ar  
 27  13  34  1   
 28  14  35  1   
 29  14  36  1   
 30  14  37  1   
 31  15  18  ar  
 32  15  38  1   
 33  17  19  1   
 34  17  39  1   
 35  18  40  1   
 36  19  20  1   
 37  19  41  1   
 38  19  42  1   
 39  20  21  1   
 40  20  22  1   
 41  20  23  1   
 42  21  24  1   
 43  21  43  1   
 44  21  44  1   
 45  22  25  1   
 46  22  45  1   
 47  22  46  1   
 48  23  47  1   
 49  23  48  1   
 50  23  49  1   
 51  24  25  1   
 52  24  50  1   
 53  24  51  1   
 54  25  52  1   
 55  25  53  1   
@<TRIPOS>SUBSTRUCTURE
  1 ****  12 GROUP 4 **** **** 0

# MOE 2024.06 (io_trps.svl 2023.06)
