@<TRIPOS>MOLECULE
NONAME
36 37 1 0 0 
SMALL
USER_CHARGES


@<TRIPOS>ATOM
  1 CL       0.2560    -0.7580    -1.2080 Cl    1 <1>  -0.1770 
  2 C       -0.1300    -2.2100    -0.3150 C.ar  1 <1>   0.1770 
  3 C        0.8520    -3.1550    -0.0600 C.ar  1 <1>  -0.1440 
  4 C       -1.4300    -2.3820     0.1200 C.ar  1 <1>  -0.1500 
  5 C        0.4980    -4.2920     0.6470 C.ar  1 <1>  -0.1500 
  6 C        2.2820    -2.9610    -0.5440 C.3   1 <1>  -0.0960 
  7 C       -1.7920    -3.5170     0.8330 C.ar  1 <1>  -0.0090 
  8 C       -0.8050    -4.4660     1.0840 C.ar  1 <1>  -0.1500 
  9 S       -3.5040    -3.7680     1.3810 S.o2  1 <1>   1.4470 
 10 O       -3.5440    -4.7990     2.3930 O.2   1 <1>  -0.6500 
 11 O       -4.0690    -2.4700     1.6910 O.2   1 <1>  -0.6500 
 12 N       -4.2870    -4.3120    -0.0250 N.am  1 <1>  -0.8490 
 13 C       -3.7700    -5.5610    -0.6220 C.3   1 <1>   0.1960 
 14 C       -5.7520    -4.2700     0.0340 C.3   1 <1>   0.1960 
 15 C       -4.3190    -6.8270     0.0460 C.3   1 <1>  -0.1860 
 16 C       -6.3370    -5.4920     0.7460 C.3   1 <1>  -0.1600 
 17 C       -3.8400    -8.0540    -0.6990 C.2   1 <1>   0.9060 
 18 C       -5.8440    -6.7690     0.0740 C.3   1 <1>   0.2000 
 19 O       -2.9520    -7.9380    -1.5480 O.co2 1 <1>  -0.9000 
 20 O       -4.3630    -9.1450    -0.4360 O.co2 1 <1>  -0.9000 
 21 O       -6.3200    -7.8490     0.7790 O.3   1 <1>  -0.6800 
 22 H       -2.1660    -1.6300    -0.1000 H     1 <1>   0.1500 
 23 H        1.2300    -5.0530     0.8590 H     1 <1>   0.1500 
 24 H        2.9020    -3.7920    -0.2590 H     1 <1>   0.0800 
 25 H        2.6950    -2.0640    -0.1190 H     1 <1>   0.0800 
 26 H        2.2980    -2.8760    -1.6160 H     1 <1>   0.0800 
 27 H       -1.0640    -5.3610     1.6270 H     1 <1>   0.1500 
 28 H       -4.0520    -5.5790    -1.6620 H     1 <1>   0.0800 
 29 H       -2.6940    -5.5770    -0.5950 H     1 <1>   0.0800 
 30 H       -6.0790    -3.3680     0.5240 H     1 <1>   0.0800 
 31 H       -6.1300    -4.2440    -0.9740 H     1 <1>   0.0800 
 32 H       -3.9380    -6.8990     1.0450 H     1 <1>   0.0800 
 33 H       -7.4090    -5.4550     0.6930 H     1 <1>   0.0800 
 34 H       -6.0460    -5.4850     1.7810 H     1 <1>   0.0800 
 35 H       -6.2290    -6.8420    -0.9300 H     1 <1>   0.0800 
 36 H       -5.7660    -8.6280     0.4760 H     1 <1>   0.4000 
@<TRIPOS>BOND
  1   1   2  1   
  2   2   3  ar  
  3   2   4  ar  
  4   3   5  ar  
  5   3   6  1   
  6   4   7  ar  
  7   4  22  1   
  8   5   8  ar  
  9   5  23  1   
 10   6  24  1   
 11   6  25  1   
 12   6  26  1   
 13   7   8  ar  
 14   7   9  1   
 15   8  27  1   
 16   9  10  2   
 17   9  11  2   
 18   9  12  am  
 19  12  13  1   
 20  12  14  1   
 21  13  15  1   
 22  13  28  1   
 23  13  29  1   
 24  14  16  1   
 25  14  30  1   
 26  14  31  1   
 27  15  17  1   
 28  15  18  1   
 29  15  32  1   
 30  16  18  1   
 31  16  33  1   
 32  16  34  1   
 33  17  19  ar  
 34  17  20  ar  
 35  18  21  1   
 36  18  35  1   
 37  21  36  1   
@<TRIPOS>SUBSTRUCTURE
  1 ****  13 GROUP 4 **** **** 0

# MOE 2024.06 (io_trps.svl 2023.06)
