@<TRIPOS>MOLECULE
NONAME
47 50 1 0 0 
SMALL
USER_CHARGES


@<TRIPOS>ATOM
  1 F        0.3380     2.2960    -2.0370 F     1 <1>  -0.1900 
  2 C       -0.7190     2.4060    -1.2760 C.ar  1 <1>   0.1900 
  3 C       -0.5760     2.6720     0.0800 C.ar  1 <1>  -0.0320 
  4 C       -1.9540     2.2530    -1.8800 C.ar  1 <1>  -0.1500 
  5 C       -1.7350     2.7900     0.8350 C.ar  1 <1>  -0.1500 
  6 C        0.7740     2.8490     0.7720 C.3   1 <1>   0.0320 
  7 C       -3.0950     2.3710    -1.1060 C.ar  1 <1>  -0.1500 
  8 C       -2.9830     2.6400     0.2480 C.ar  1 <1>  -0.1500 
  9 C        1.0580     4.3220     1.1060 C.2   1 <1>   0.6300 
 10 C        1.0870     1.8190     1.8290 C.3   1 <1>  -0.2000 
 11 C        1.8980     1.8610     0.5820 C.3   1 <1>  -0.2000 
 12 O        0.8020     4.6950     2.2300 O.2   1 <1>  -0.5700 
 13 N        1.5720     5.2070     0.1770 N.am  1 <1>  -0.6600 
 14 C        1.7690     6.6390     0.5790 C.3   1 <1>   0.1400 
 15 C        2.1170     4.7730    -1.1470 C.3   1 <1>   0.1400 
 16 C        3.2490     7.0250     0.8390 C.3   1 <1>   0.4230 
 17 C        3.5550     5.2500    -1.4470 C.3   1 <1>  -0.0800 
 18 N        3.9620     7.5160    -0.3980 N.4   1 <1>  -0.9590 
 19 C        4.0890     5.9230     1.5410 C.3   1 <1>   0.1200 
 20 C        4.6450     4.7030    -0.4990 C.3   1 <1>   0.1200 
 21 C        3.6190     6.7660    -1.6420 C.3   1 <1>   0.3430 
 22 C        3.7630     8.9850    -0.6000 C.3   1 <1>   0.2630 
 23 O        4.2490     4.7170     0.8360 O.3   1 <1>  -0.5600 
 24 H       -2.0170     2.0460    -2.9320 H     1 <1>   0.1500 
 25 H       -1.6650     3.0030     1.8890 H     1 <1>   0.1500 
 26 H       -4.0670     2.2550    -1.5550 H     1 <1>   0.1500 
 27 H       -3.8700     2.7340     0.8520 H     1 <1>   0.1500 
 28 H        1.5370     2.1470     2.7510 H     1 <1>   0.1000 
 29 H        0.4090     0.9970     1.9730 H     1 <1>   0.1000 
 30 H        1.7830     1.0600    -0.1270 H     1 <1>   0.1000 
 31 H        2.9150     2.2080     0.6550 H     1 <1>   0.1000 
 32 H        1.3370     7.2810    -0.1660 H     1 <1>   0.0800 
 33 H        1.2250     6.8340     1.4870 H     1 <1>   0.0800 
 34 H        2.1250     3.7030    -1.2060 H     1 <1>   0.0800 
 35 H        1.4500     5.1210    -1.9170 H     1 <1>   0.0800 
 36 H        3.2190     7.8500     1.5300 H     1 <1>   0.0800 
 37 H        3.7830     4.8420    -2.4150 H     1 <1>   0.0800 
 38 H        4.9620     7.3480    -0.2170 H     1 <1>   0.4500 
 39 H        3.6060     5.6650     2.4690 H     1 <1>   0.0800 
 40 H        5.0680     6.2970     1.7800 H     1 <1>   0.0800 
 41 H        5.5770     5.2320    -0.5950 H     1 <1>   0.0800 
 42 H        4.8280     3.6700    -0.7410 H     1 <1>   0.0800 
 43 H        2.6690     7.1040    -2.0230 H     1 <1>   0.0800 
 44 H        4.3630     6.9850    -2.3920 H     1 <1>   0.0800 
 45 H        2.7240     9.2020    -0.7850 H     1 <1>   0.0800 
 46 H        4.3420     9.3290    -1.4420 H     1 <1>   0.0800 
 47 H        4.0790     9.5310     0.2750 H     1 <1>   0.0800 
@<TRIPOS>BOND
  1   1   2  1   
  2   2   3  ar  
  3   2   4  ar  
  4   3   5  ar  
  5   3   6  1   
  6   4   7  ar  
  7   4  24  1   
  8   5   8  ar  
  9   5  25  1   
 10   6   9  1   
 11   6  10  1   
 12   6  11  1   
 13   7   8  ar  
 14   7  26  1   
 15   8  27  1   
 16   9  12  2   
 17   9  13  am  
 18  10  11  1   
 19  10  28  1   
 20  10  29  1   
 21  11  30  1   
 22  11  31  1   
 23  13  14  1   
 24  13  15  1   
 25  14  16  1   
 26  14  32  1   
 27  14  33  1   
 28  15  17  1   
 29  15  34  1   
 30  15  35  1   
 31  16  18  1   
 32  16  19  1   
 33  16  36  1   
 34  17  20  1   
 35  17  21  1   
 36  17  37  1   
 37  18  21  1   
 38  18  22  1   
 39  18  38  1   
 40  19  23  1   
 41  19  39  1   
 42  19  40  1   
 43  20  23  1   
 44  20  41  1   
 45  20  42  1   
 46  21  43  1   
 47  21  44  1   
 48  22  45  1   
 49  22  46  1   
 50  22  47  1   
@<TRIPOS>SUBSTRUCTURE
  1 ****  13 GROUP 4 **** **** 0

# MOE 2024.06 (io_trps.svl 2023.06)
