@<TRIPOS>MOLECULE
NONAME
42 44 1 0 0 
SMALL
USER_CHARGES


@<TRIPOS>ATOM
  1 S       -2.8810    -2.5560     1.9960 S.3   1 <1>  -0.0890 
  2 C       -2.8730    -2.0920     0.3160 C.2   1 <1>  -0.1490 
  3 C       -4.4470    -1.8000     2.1650 C.2   1 <1>   0.2200 
  4 C       -4.0000    -1.4140     0.0460 C.2   1 <1>   0.0370 
  5 C       -1.6890    -2.5140    -0.5290 C.3   1 <1>   0.0100 
  6 N       -4.8980    -1.2910     1.0880 N.2   1 <1>  -0.5710 
  7 C       -4.4050    -0.7830    -1.2710 C.3   1 <1>  -0.0690 
  8 C       -2.0280    -3.7800    -1.3300 C.3   1 <1>   0.1590 
  9 N       -2.3490    -4.9580    -0.4610 N.pl3 1 <1>  -0.5970 
 10 C       -3.6220    -5.3360    -0.1770 C.cat 1 <1>   1.0680 
 11 C       -1.1390    -5.6650     0.0530 C.3   1 <1>   0.0780 
 12 N       -4.6530    -4.4920    -0.1150 N.pl3 1 <1>  -0.7050 
 13 N       -4.0570    -6.5800     0.0940 N.pl3 1 <1>  -0.7680 
 14 C       -5.7690    -5.1830     0.2330 C.2   1 <1>   0.4190 
 15 C       -5.4350    -6.4850     0.3720 C.2   1 <1>   0.2690 
 16 C       -3.3640    -7.8970     0.0120 C.3   1 <1>   0.2660 
 17 N       -7.0520    -4.6920     0.4380 N.am  1 <1>  -0.4430 
 18 C       -6.4610    -7.4130     0.7500 C.2   1 <1>   0.6990 
 19 C       -8.0350    -5.5930     0.8190 C.2   1 <1>   0.6850 
 20 C       -7.3780    -3.2460     0.2790 C.3   1 <1>   0.0510 
 21 O       -6.2740    -8.6040     0.8970 O.2   1 <1>  -0.5760 
 22 N       -7.7140    -6.9120     0.9540 N.am  1 <1>  -0.4960 
 23 O       -9.1730    -5.2510     1.0400 O.2   1 <1>  -0.5760 
 24 H       -4.9060    -1.8260     3.1380 H     1 <1>   0.1410 
 25 H       -0.8190    -2.6650     0.0850 H     1 <1>   0.0710 
 26 H       -1.4570    -1.7230    -1.2200 H     1 <1>   0.0710 
 27 H       -3.6490    -0.9280    -2.0200 H     1 <1>   0.0710 
 28 H       -4.5470     0.2740    -1.1300 H     1 <1>   0.0710 
 29 H       -5.3290    -1.2070    -1.6190 H     1 <1>   0.0710 
 30 H       -1.1940    -4.0290    -1.9640 H     1 <1>   0.0710 
 31 H       -2.8650    -3.5720    -1.9750 H     1 <1>   0.0710 
 32 H       -0.4050    -4.9500     0.3850 H     1 <1>   0.0710 
 33 H       -0.7050    -6.2680    -0.7260 H     1 <1>   0.0710 
 34 H       -1.3900    -6.2890     0.8930 H     1 <1>   0.0710 
 35 H       -4.5550    -3.4720    -0.1080 H     1 <1>   0.4440 
 36 H       -2.5130    -7.8420    -0.6420 H     1 <1>   0.0710 
 37 H       -4.0330    -8.6450    -0.3800 H     1 <1>   0.0710 
 38 H       -3.0430    -8.2050     0.9930 H     1 <1>   0.0710 
 39 H       -6.7490    -2.7950    -0.4670 H     1 <1>   0.0710 
 40 H       -7.2400    -2.7380     1.2170 H     1 <1>   0.0710 
 41 H       -8.4030    -3.1260    -0.0280 H     1 <1>   0.0710 
 42 H       -8.4580    -7.5480     1.2300 H     1 <1>   0.3630 
@<TRIPOS>BOND
  1   1   2  1   
  2   1   3  1   
  3   2   4  2   
  4   2   5  1   
  5   3   6  2   
  6   3  24  1   
  7   4   6  1   
  8   4   7  1   
  9   5   8  1   
 10   5  25  1   
 11   5  26  1   
 12   7  27  1   
 13   7  28  1   
 14   7  29  1   
 15   8   9  1   
 16   8  30  1   
 17   8  31  1   
 18   9  10  ar  
 19   9  11  1   
 20  10  12  ar  
 21  10  13  ar  
 22  11  32  1   
 23  11  33  1   
 24  11  34  1   
 25  12  14  1   
 26  12  35  1   
 27  13  15  1   
 28  13  16  1   
 29  14  15  2   
 30  14  17  1   
 31  15  18  1   
 32  16  36  1   
 33  16  37  1   
 34  16  38  1   
 35  17  19  am  
 36  17  20  1   
 37  18  21  2   
 38  18  22  am  
 39  19  22  am  
 40  19  23  2   
 41  20  39  1   
 42  20  40  1   
 43  20  41  1   
 44  22  42  1   
@<TRIPOS>SUBSTRUCTURE
  1 ****  12 GROUP 4 **** **** 0

# MOE 2024.06 (io_trps.svl 2023.06)
