@<TRIPOS>MOLECULE
NONAME
19 19 1 0 0 
SMALL
USER_CHARGES


@<TRIPOS>ATOM
  1 F       -0.4760    -0.2120     0.9510 F     1 <1>  -0.2980 
  2 C       -1.0880    -0.9800     0.0550 C.3   1 <1>   0.5960 
  3 F       -1.5880    -0.2050    -0.8990 F     1 <1>  -0.2980 
  4 C       -2.0840    -2.0010     0.6620 C.3   1 <1>   0.0000 
  5 C       -0.2310    -2.1670    -0.4540 C.3   1 <1>   0.0000 
  6 C       -0.8980    -3.0120     0.6730 C.3   1 <1>   0.0000 
  7 C       -1.2430    -4.4810     0.3560 C.3   1 <1>   0.2000 
  8 O       -1.9470    -4.5770    -0.8270 O.3   1 <1>  -0.6800 
  9 C        0.0010    -5.3520     0.2080 C.3   1 <1>  -0.2400 
 10 H       -2.4340    -1.7460     1.6470 H     1 <1>   0.0000 
 11 H       -2.8690    -2.2710    -0.0230 H     1 <1>   0.0000 
 12 H       -0.5090    -2.4830    -1.4450 H     1 <1>   0.0000 
 13 H        0.8280    -2.0400    -0.3180 H     1 <1>   0.0000 
 14 H       -0.3420    -2.9310     1.5930 H     1 <1>   0.0000 
 15 H       -1.8740    -4.8740     1.1350 H     1 <1>   0.0800 
 16 H       -1.3590    -4.4000    -1.5860 H     1 <1>   0.4000 
 17 H        0.6380    -4.9910    -0.5790 H     1 <1>   0.0800 
 18 H       -0.2840    -6.3690     0.0020 H     1 <1>   0.0800 
 19 H        0.5600    -5.3430     1.1270 H     1 <1>   0.0800 
@<TRIPOS>BOND
  1   1   2  1   
  2   2   3  1   
  3   2   4  1   
  4   2   5  1   
  5   4   6  1   
  6   4  10  1   
  7   4  11  1   
  8   5   6  1   
  9   5  12  1   
 10   5  13  1   
 11   6   7  1   
 12   6  14  1   
 13   7   8  1   
 14   7   9  1   
 15   7  15  1   
 16   8  16  1   
 17   9  17  1   
 18   9  18  1   
 19   9  19  1   
@<TRIPOS>SUBSTRUCTURE
  1 ****   6 GROUP 4 **** **** 0

# MOE 2024.06 (io_trps.svl 2023.06)
