@<TRIPOS>MOLECULE
NONAME
49 51 1 0 0 
SMALL
USER_CHARGES


@<TRIPOS>ATOM
  1 O       -1.1680     0.4640     0.4490 O.2   1 <1>  -0.5700 
  2 C       -2.1720     0.9200    -0.0420 C.2   1 <1>   0.5690 
  3 N       -3.0960     0.1270    -0.6810 N.am  1 <1>  -0.6600 
  4 C       -2.3770     2.4120     0.0790 C.3   1 <1>  -0.1790 
  5 C       -2.8530    -1.3290    -0.8490 C.3   1 <1>   0.1400 
  6 C       -4.3590     0.6150    -1.2890 C.3   1 <1>   0.1400 
  7 C       -4.0070    -2.1020    -0.2140 C.3   1 <1>  -0.1600 
  8 C       -5.5350    -0.1400    -0.6640 C.3   1 <1>  -0.1600 
  9 C       -5.3550    -1.6590    -0.7970 C.3   1 <1>   0.4230 
 10 N       -6.4620    -2.3660    -0.0970 N.4   1 <1>  -0.9590 
 11 C       -7.8530    -2.0240    -0.5140 C.3   1 <1>   0.3430 
 12 C       -6.3930    -3.8590    -0.1590 C.3   1 <1>   0.3430 
 13 C       -8.7010    -3.1510     0.0750 C.3   1 <1>   0.2000 
 14 C       -7.8350    -4.3830    -0.1940 C.3   1 <1>  -0.0800 
 15 O       -8.8010    -2.9300     1.4460 O.3   1 <1>  -0.6800 
 16 C       -8.0440    -5.5910     0.7400 C.3   1 <1>   0.0210 
 17 C       -7.1940    -6.7720     0.3060 C.2   1 <1>   0.1080 
 18 N       -5.9120    -6.6950     0.1140 N.2   1 <1>  -0.7070 
 19 C       -7.6840    -8.0510     0.0710 C.2   1 <1>  -0.1500 
 20 N       -5.5460    -7.9450    -0.2410 N.pl3 1 <1>   0.3000 
 21 C       -6.6040    -8.7800    -0.2780 C.2   1 <1>  -0.3320 
 22 C       -6.5160   -10.2500    -0.6470 C.3   1 <1>  -0.0600 
 23 H       -2.4560     2.8520    -0.8970 H     1 <1>   0.0800 
 24 H       -1.5370     2.8520     0.5840 H     1 <1>   0.0800 
 25 H       -3.2630     2.6160     0.6490 H     1 <1>   0.0800 
 26 H       -2.7770    -1.5560    -1.8990 H     1 <1>   0.0800 
 27 H       -1.9250    -1.6210    -0.3840 H     1 <1>   0.0800 
 28 H       -4.4880     1.6710    -1.1320 H     1 <1>   0.0800 
 29 H       -4.3250     0.4420    -2.3520 H     1 <1>   0.0800 
 30 H       -3.9820    -1.9320     0.8480 H     1 <1>   0.0800 
 31 H       -3.8360    -3.1470    -0.3960 H     1 <1>   0.0800 
 32 H       -6.4310     0.1790    -1.1630 H     1 <1>   0.0800 
 33 H       -5.6010     0.1370     0.3740 H     1 <1>   0.0800 
 34 H       -5.3740    -1.9160    -1.8440 H     1 <1>   0.0800 
 35 H       -6.4210    -2.1320     0.9060 H     1 <1>   0.4500 
 36 H       -8.1660    -1.0650    -0.1350 H     1 <1>   0.0800 
 37 H       -7.9300    -2.0360    -1.5880 H     1 <1>   0.0800 
 38 H       -5.8710    -4.1910    -1.0420 H     1 <1>   0.0800 
 39 H       -5.8760    -4.2430     0.7060 H     1 <1>   0.0800 
 40 H       -9.6890    -3.2030    -0.3520 H     1 <1>   0.0800 
 41 H       -8.0260    -4.7110    -1.2010 H     1 <1>   0.0800 
 42 H       -9.4870    -3.5020     1.8520 H     1 <1>   0.4000 
 43 H       -9.0790    -5.8830     0.7310 H     1 <1>   0.0800 
 44 H       -7.7760    -5.3400     1.7510 H     1 <1>   0.0800 
 45 H       -8.7070    -8.3730     0.1600 H     1 <1>   0.1500 
 46 H       -4.5720    -8.2020    -0.4460 H     1 <1>   0.2700 
 47 H       -7.4910   -10.7020    -0.6020 H     1 <1>   0.0800 
 48 H       -5.8680   -10.7670     0.0380 H     1 <1>   0.0800 
 49 H       -6.1340   -10.3630    -1.6460 H     1 <1>   0.0800 
@<TRIPOS>BOND
  1   1   2  2   
  2   2   3  am  
  3   2   4  1   
  4   3   5  1   
  5   3   6  1   
  6   4  23  1   
  7   4  24  1   
  8   4  25  1   
  9   5   7  1   
 10   5  26  1   
 11   5  27  1   
 12   6   8  1   
 13   6  28  1   
 14   6  29  1   
 15   7   9  1   
 16   7  30  1   
 17   7  31  1   
 18   8   9  1   
 19   8  32  1   
 20   8  33  1   
 21   9  10  1   
 22   9  34  1   
 23  10  11  1   
 24  10  12  1   
 25  10  35  1   
 26  11  13  1   
 27  11  36  1   
 28  11  37  1   
 29  12  14  1   
 30  12  38  1   
 31  12  39  1   
 32  13  14  1   
 33  13  15  1   
 34  13  40  1   
 35  14  16  1   
 36  14  41  1   
 37  15  42  1   
 38  16  17  1   
 39  16  43  1   
 40  16  44  1   
 41  17  18  2   
 42  17  19  1   
 43  18  20  1   
 44  19  21  2   
 45  19  45  1   
 46  20  21  1   
 47  20  46  1   
 48  21  22  1   
 49  22  47  1   
 50  22  48  1   
 51  22  49  1   
@<TRIPOS>SUBSTRUCTURE
  1 ****  12 GROUP 4 **** **** 0

# MOE 2024.06 (io_trps.svl 2023.06)
