@<TRIPOS>MOLECULE
NONAME
44 46 1 0 0 
SMALL
USER_CHARGES


@<TRIPOS>ATOM
  1 O       -0.4570     0.3070    -1.7000 O.2   1 <1>  -0.5700 
  2 C       -1.4340     0.9120    -1.3220 C.2   1 <1>   0.5690 
  3 N       -2.4770     0.2620    -0.7070 N.am  1 <1>  -0.6600 
  4 C       -1.4520     2.4280    -1.5650 C.3   1 <1>   0.1810 
  5 C       -2.4260    -1.2020    -0.4010 C.3   1 <1>   0.1400 
  6 C       -3.7250     0.9220    -0.2080 C.3   1 <1>   0.1400 
  7 O       -1.7000     3.1880    -0.4050 O.3   1 <1>  -0.5600 
  8 C       -3.7500    -1.8990    -0.7630 C.3   1 <1>   0.3440 
  9 C       -4.9840     0.1020    -0.5750 C.3   1 <1>   0.2950 
 10 C       -0.6900     3.1260     0.5490 C.3   1 <1>   0.1200 
 11 O       -4.8300    -1.2270    -0.1680 O.3   1 <1>  -0.5600 
 12 C       -3.7360    -3.3530    -0.3000 C.ar  1 <1>  -0.1440 
 13 C       -6.2900     0.6120     0.0600 C.3   1 <1>  -0.1950 
 14 C       -1.1120     4.0080     1.7170 C.3   1 <1>  -0.2400 
 15 C       -3.2850    -4.3430    -1.1620 C.ar  1 <1>  -0.1500 
 16 C       -4.1510    -3.7110     0.9760 C.ar  1 <1>  -0.1500 
 17 C       -6.5480     2.0540     0.3840 C.3   1 <1>  -0.2000 
 18 C       -6.4090     1.0440     1.4890 C.3   1 <1>  -0.2000 
 19 C       -3.2500    -5.6660    -0.7570 C.ar  1 <1>  -0.1500 
 20 C       -4.1160    -5.0330     1.3830 C.ar  1 <1>  -0.1500 
 21 C       -3.6650    -6.0120     0.5160 C.ar  1 <1>  -0.1500 
 22 H       -2.2270     2.6570    -2.2710 H     1 <1>   0.0800 
 23 H       -0.5120     2.7400    -1.9820 H     1 <1>   0.0800 
 24 H       -1.6250    -1.6740    -0.9430 H     1 <1>   0.0800 
 25 H       -2.2350    -1.3370     0.6490 H     1 <1>   0.0800 
 26 H       -3.6570     1.0220     0.8600 H     1 <1>   0.0800 
 27 H       -3.8260     1.9050    -0.6250 H     1 <1>   0.0800 
 28 H       -3.8910    -1.8710    -1.8290 H     1 <1>   0.0800 
 29 H       -5.1020     0.1110    -1.6440 H     1 <1>   0.0800 
 30 H       -0.5680     2.1060     0.8740 H     1 <1>   0.0800 
 31 H        0.2270     3.4850     0.1120 H     1 <1>   0.0800 
 32 H       -7.1270     0.0650    -0.3370 H     1 <1>   0.1000 
 33 H       -2.0330     3.6470     2.1380 H     1 <1>   0.0800 
 34 H       -1.2420     5.0220     1.3850 H     1 <1>   0.0800 
 35 H       -0.3540     3.9900     2.4790 H     1 <1>   0.0800 
 36 H       -2.9580    -4.0910    -2.1560 H     1 <1>   0.1500 
 37 H       -4.5070    -2.9560     1.6570 H     1 <1>   0.1500 
 38 H       -5.7740     2.7950     0.2850 H     1 <1>   0.1000 
 39 H       -7.5240     2.4590     0.1810 H     1 <1>   0.1000 
 40 H       -7.2860     0.7440     2.0370 H     1 <1>   0.1000 
 41 H       -5.5320     1.0660     2.1130 H     1 <1>   0.1000 
 42 H       -2.9000    -6.4270    -1.4320 H     1 <1>   0.1500 
 43 H       -4.4420    -5.2990     2.3740 H     1 <1>   0.1500 
 44 H       -3.6380    -7.0410     0.8320 H     1 <1>   0.1500 
@<TRIPOS>BOND
  1   1   2  2   
  2   2   3  am  
  3   2   4  1   
  4   3   5  1   
  5   3   6  1   
  6   4   7  1   
  7   4  22  1   
  8   4  23  1   
  9   5   8  1   
 10   5  24  1   
 11   5  25  1   
 12   6   9  1   
 13   6  26  1   
 14   6  27  1   
 15   7  10  1   
 16   8  11  1   
 17   8  12  1   
 18   8  28  1   
 19   9  11  1   
 20   9  13  1   
 21   9  29  1   
 22  10  14  1   
 23  10  30  1   
 24  10  31  1   
 25  12  15  ar  
 26  12  16  ar  
 27  13  17  1   
 28  13  18  1   
 29  13  32  1   
 30  14  33  1   
 31  14  34  1   
 32  14  35  1   
 33  15  19  ar  
 34  15  36  1   
 35  16  20  ar  
 36  16  37  1   
 37  17  18  1   
 38  17  38  1   
 39  17  39  1   
 40  18  40  1   
 41  18  41  1   
 42  19  21  ar  
 43  19  42  1   
 44  20  21  ar  
 45  20  43  1   
 46  21  44  1   
@<TRIPOS>SUBSTRUCTURE
  1 ****   5 GROUP 4 **** **** 0

# MOE 2024.06 (io_trps.svl 2023.06)
