@<TRIPOS>MOLECULE
NONAME
56 59 1 0 0 
SMALL
USER_CHARGES


@<TRIPOS>ATOM
  1 O        2.8070    -0.2120     1.9790 O.2   1 <1>  -0.5700 
  2 C        2.2960    -0.6580     0.9650 C.2   1 <1>   0.5440 
  3 N        2.1130     0.2480    -0.0510 N.am  1 <1>  -0.6600 
  4 C        2.0610    -2.0810     0.8030 C.ar  1 <1>   0.0860 
  5 C        3.0290     0.2040    -1.2290 C.3   1 <1>   0.1400 
  6 C        1.4110     1.5420     0.1810 C.3   1 <1>   0.1400 
  7 C        1.1830    -2.6020    -0.1770 C.ar  1 <1>   0.0000 
  8 C        2.7190    -3.0040     1.6060 C.ar  1 <1>  -0.1500 
  9 C        4.4640     0.6120    -0.8270 C.3   1 <1>   0.3430 
 10 C        2.3190     2.6060     0.8220 C.3   1 <1>  -0.1600 
 11 C        1.0420    -3.9810    -0.3410 C.ar  1 <1>  -0.1520 
 12 C        0.3150    -2.0200    -1.1300 C.2   1 <1>  -0.1500 
 13 C        2.5640    -4.3810     1.4480 C.ar  1 <1>  -0.1500 
 14 N        4.4740     1.5090     0.3790 N.4   1 <1>  -0.9590 
 15 C        3.7040     2.7650     0.1910 C.3   1 <1>   0.3430 
 16 N        0.1530    -4.2210    -1.3610 N.pl3 1 <1>   0.0480 
 17 C        1.7330    -4.8780     0.4730 C.ar  1 <1>  -0.1500 
 18 C       -0.2800    -3.0160    -1.8250 C.2   1 <1>  -0.3020 
 19 C        5.8130     1.6890     1.0200 C.3   1 <1>   0.3430 
 20 C       -0.2850    -5.5420    -1.8410 C.3   1 <1>   0.0160 
 21 C        6.9440     2.0850     0.0520 C.3   1 <1>  -0.0800 
 22 C        8.2620     2.1450     0.8390 C.3   1 <1>   0.1200 
 23 C        6.7190     3.4260    -0.6760 C.3   1 <1>  -0.1600 
 24 O        9.3000     2.4440    -0.0350 O.3   1 <1>  -0.5600 
 25 C        7.9730     3.8080    -1.4750 C.3   1 <1>  -0.1600 
 26 C        9.2360     3.7120    -0.6120 C.3   1 <1>   0.1200 
 27 H        2.6660     0.8670    -1.9950 H     1 <1>   0.0800 
 28 H        3.0430    -0.7890    -1.6450 H     1 <1>   0.0800 
 29 H        0.5660     1.3660     0.8270 H     1 <1>   0.0800 
 30 H        1.0260     1.9050    -0.7570 H     1 <1>   0.0800 
 31 H        3.3780    -2.6550     2.3830 H     1 <1>   0.1500 
 32 H        4.9540     1.0900    -1.6590 H     1 <1>   0.0800 
 33 H        5.0130    -0.2860    -0.5970 H     1 <1>   0.0800 
 34 H        2.4280     2.3950     1.8710 H     1 <1>   0.0800 
 35 H        1.8090     3.5510     0.7580 H     1 <1>   0.0800 
 36 H        0.1570    -0.9650    -1.2610 H     1 <1>   0.1500 
 37 H        3.1000    -5.0530     2.0960 H     1 <1>   0.1500 
 38 H        3.8890     0.9780     1.0680 H     1 <1>   0.4500 
 39 H        4.2150     3.5810     0.6740 H     1 <1>   0.0800 
 40 H        3.6120     2.9970    -0.8580 H     1 <1>   0.0800 
 41 H        1.6100    -5.9380     0.3410 H     1 <1>   0.1500 
 42 H       -0.9980    -2.9380    -2.6220 H     1 <1>   0.1500 
 43 H        6.0910     0.7600     1.4930 H     1 <1>   0.0800 
 44 H        5.7370     2.4310     1.7990 H     1 <1>   0.0800 
 45 H        0.5710    -6.0980    -2.1760 H     1 <1>   0.0800 
 46 H       -0.9750    -5.4210    -2.6550 H     1 <1>   0.0800 
 47 H       -0.7670    -6.0690    -1.0380 H     1 <1>   0.0800 
 48 H        7.0660     1.3020    -0.6750 H     1 <1>   0.0800 
 49 H        8.4880     1.1910     1.2860 H     1 <1>   0.0800 
 50 H        8.2380     2.8960     1.6110 H     1 <1>   0.0800 
 51 H        6.5190     4.2020     0.0430 H     1 <1>   0.0800 
 52 H        5.8880     3.3630    -1.3550 H     1 <1>   0.0800 
 53 H        7.8780     4.8090    -1.8580 H     1 <1>   0.0800 
 54 H        8.0890     3.1470    -2.3180 H     1 <1>   0.0800 
 55 H       10.1180     3.8450    -1.2150 H     1 <1>   0.0800 
 56 H        9.2360     4.4500     0.1730 H     1 <1>   0.0800 
@<TRIPOS>BOND
  1   1   2  2   
  2   2   3  am  
  3   2   4  1   
  4   3   5  1   
  5   3   6  1   
  6   4   7  ar  
  7   4   8  ar  
  8   5   9  1   
  9   5  27  1   
 10   5  28  1   
 11   6  10  1   
 12   6  29  1   
 13   6  30  1   
 14   7  11  ar  
 15   7  12  1   
 16   8  13  ar  
 17   8  31  1   
 18   9  14  1   
 19   9  32  1   
 20   9  33  1   
 21  10  15  1   
 22  10  34  1   
 23  10  35  1   
 24  11  16  1   
 25  11  17  ar  
 26  12  18  2   
 27  12  36  1   
 28  13  17  ar  
 29  13  37  1   
 30  14  15  1   
 31  14  19  1   
 32  14  38  1   
 33  15  39  1   
 34  15  40  1   
 35  16  18  1   
 36  16  20  1   
 37  17  41  1   
 38  18  42  1   
 39  19  21  1   
 40  19  43  1   
 41  19  44  1   
 42  20  45  1   
 43  20  46  1   
 44  20  47  1   
 45  21  22  1   
 46  21  23  1   
 47  21  48  1   
 48  22  24  1   
 49  22  49  1   
 50  22  50  1   
 51  23  25  1   
 52  23  51  1   
 53  23  52  1   
 54  24  26  1   
 55  25  26  1   
 56  25  53  1   
 57  25  54  1   
 58  26  55  1   
 59  26  56  1   
@<TRIPOS>SUBSTRUCTURE
  1 ****   5 GROUP 4 **** **** 0

# MOE 2024.06 (io_trps.svl 2023.06)
