@<TRIPOS>MOLECULE
NONAME
53 55 1 0 0 
SMALL
USER_CHARGES


@<TRIPOS>ATOM
  1 O        2.3320     1.3830     0.9380 O.2   1 <1>  -0.5700 
  2 C        2.5270     0.5070     0.1330 C.2   1 <1>   0.5690 
  3 N        2.4270     0.7570    -1.2180 N.am  1 <1>  -0.6600 
  4 C        2.9390    -0.8500     0.6850 C.3   1 <1>  -0.0990 
  5 C        2.8580    -0.1660    -2.3190 C.3   1 <1>   0.1400 
  6 C        1.9410     2.0860    -1.6910 C.3   1 <1>   0.1400 
  7 C        1.7390    -1.6710     1.1930 C.3   1 <1>  -0.0800 
  8 C        4.3450     0.0390    -2.6870 C.3   1 <1>   0.3430 
  9 C        3.1130     3.0590    -1.8830 C.3   1 <1>  -0.1600 
 10 C        2.2220    -2.9410     1.9140 C.3   1 <1>   0.1200 
 11 C        0.7650    -2.0440     0.0620 C.3   1 <1>  -0.1600 
 12 N        4.8540     1.3560    -2.1980 N.4   1 <1>  -0.9590 
 13 C        4.2260     2.5550    -2.8060 C.3   1 <1>   0.3430 
 14 O        1.1280    -3.6780     2.3640 O.3   1 <1>  -0.5600 
 15 C       -0.3290    -2.9700     0.6060 C.3   1 <1>  -0.1600 
 16 C        6.3330     1.4310    -2.0050 C.3   1 <1>   0.4860 
 17 C        0.2820    -4.1540     1.3630 C.3   1 <1>   0.1200 
 18 C        6.5950     1.8120    -0.5520 C.ar  1 <1>   0.1670 
 19 N        5.7550     1.3130     0.3470 N.ar  1 <1>  -0.6200 
 20 C        7.6490     2.6620    -0.2320 C.ar  1 <1>   0.1600 
 21 C        6.0280     1.7360     1.5730 C.ar  1 <1>   0.1600 
 22 N        7.9220     3.0710     0.9910 N.ar  1 <1>  -0.6200 
 23 C        7.0810     2.5910     1.8900 C.ar  1 <1>   0.1670 
 24 C        7.3200     3.0250     3.3220 C.3   1 <1>  -0.0970 
 25 H        3.5950    -0.6620     1.5160 H     1 <1>   0.0800 
 26 H        3.5020    -1.4130    -0.0300 H     1 <1>   0.0800 
 27 H        2.2530     0.0140    -3.1910 H     1 <1>   0.0800 
 28 H        2.6910    -1.1920    -2.0440 H     1 <1>   0.0800 
 29 H        1.2550     2.4980    -0.9680 H     1 <1>   0.0800 
 30 H        1.3960     1.9700    -2.6120 H     1 <1>   0.0800 
 31 H        1.2120    -1.0730     1.9180 H     1 <1>   0.0800 
 32 H        4.4770    -0.0500    -3.7530 H     1 <1>   0.0800 
 33 H        4.9110    -0.7500    -2.2200 H     1 <1>   0.0800 
 34 H        3.5240     3.3100    -0.9200 H     1 <1>   0.0800 
 35 H        2.7200     3.9710    -2.2960 H     1 <1>   0.0800 
 36 H        2.8120    -2.6840     2.7760 H     1 <1>   0.0800 
 37 H        2.8080    -3.5670     1.2630 H     1 <1>   0.0800 
 38 H        1.2930    -2.5590    -0.7210 H     1 <1>   0.0800 
 39 H        0.3110    -1.1600    -0.3520 H     1 <1>   0.0800 
 40 H        4.5150     1.3800    -1.2090 H     1 <1>   0.4500 
 41 H        4.9590     3.3370    -2.9220 H     1 <1>   0.0800 
 42 H        3.8260     2.3180    -3.7790 H     1 <1>   0.0800 
 43 H       -0.9390    -3.3350    -0.2010 H     1 <1>   0.0800 
 44 H       -0.9680    -2.4250     1.2800 H     1 <1>   0.0800 
 45 H        6.7710     2.1540    -2.6720 H     1 <1>   0.0800 
 46 H        6.7790     0.4690    -2.1910 H     1 <1>   0.0800 
 47 H       -0.4880    -4.7390     1.8360 H     1 <1>   0.0800 
 48 H        0.8510    -4.7900     0.7060 H     1 <1>   0.0800 
 49 H        8.2970     3.0270    -1.0100 H     1 <1>   0.1500 
 50 H        5.3830     1.3930     2.3650 H     1 <1>   0.1500 
 51 H        6.5960     2.5930     3.9880 H     1 <1>   0.0800 
 52 H        7.2570     4.0960     3.3880 H     1 <1>   0.0800 
 53 H        8.3030     2.7190     3.6320 H     1 <1>   0.0800 
@<TRIPOS>BOND
  1   1   2  2   
  2   2   3  am  
  3   2   4  1   
  4   3   5  1   
  5   3   6  1   
  6   4   7  1   
  7   4  25  1   
  8   4  26  1   
  9   5   8  1   
 10   5  27  1   
 11   5  28  1   
 12   6   9  1   
 13   6  29  1   
 14   6  30  1   
 15   7  10  1   
 16   7  11  1   
 17   7  31  1   
 18   8  12  1   
 19   8  32  1   
 20   8  33  1   
 21   9  13  1   
 22   9  34  1   
 23   9  35  1   
 24  10  14  1   
 25  10  36  1   
 26  10  37  1   
 27  11  15  1   
 28  11  38  1   
 29  11  39  1   
 30  12  13  1   
 31  12  16  1   
 32  12  40  1   
 33  13  41  1   
 34  13  42  1   
 35  14  17  1   
 36  15  17  1   
 37  15  43  1   
 38  15  44  1   
 39  16  18  1   
 40  16  45  1   
 41  16  46  1   
 42  17  47  1   
 43  17  48  1   
 44  18  19  ar  
 45  18  20  ar  
 46  19  21  ar  
 47  20  22  ar  
 48  20  49  1   
 49  21  23  ar  
 50  21  50  1   
 51  22  23  ar  
 52  23  24  1   
 53  24  51  1   
 54  24  52  1   
 55  24  53  1   
@<TRIPOS>SUBSTRUCTURE
  1 ****   2 GROUP 4 **** **** 0

# MOE 2024.06 (io_trps.svl 2023.06)
