@<TRIPOS>MOLECULE
NONAME
50 53 1 0 0 
SMALL
USER_CHARGES


@<TRIPOS>ATOM
  1 O       -0.3990    -1.2480     0.4090 O.2   1 <1>  -0.5700 
  2 C        0.7710    -1.5620     0.5610 C.2   1 <1>   0.5440 
  3 N        1.1200    -2.4430     1.5580 N.am  1 <1>  -0.4200 
  4 C        1.8140    -1.0540    -0.2850 C.ar  1 <1>   0.0860 
  5 C        2.4270    -2.8450     1.6850 C.2   1 <1>   0.4500 
  6 C        0.1010    -3.0090     2.4920 C.3   1 <1>   0.2010 
  7 C        3.1130    -1.5220    -0.0560 C.ar  1 <1>   0.1790 
  8 C        1.5990    -0.1310    -1.3140 C.ar  1 <1>  -0.1500 
  9 N        3.3850    -2.4320     0.9460 N.2   1 <1>  -0.6290 
 10 C       -0.1410    -4.4940     2.2440 C.2   1 <1>   0.5690 
 11 C        4.1560    -1.0630    -0.8540 C.ar  1 <1>  -0.1500 
 12 C        2.6440     0.3150    -2.0970 C.ar  1 <1>  -0.1500 
 13 O        0.4490    -5.2800     2.9490 O.2   1 <1>  -0.5700 
 14 N       -0.9850    -4.9180     1.2540 N.am  1 <1>  -0.6600 
 15 C        3.9290    -0.1540    -1.8660 C.ar  1 <1>  -0.1500 
 16 C       -1.7040    -4.0670     0.2700 C.3   1 <1>   0.1400 
 17 C       -1.3090    -6.3420     1.0240 C.3   1 <1>   0.1400 
 18 C       -2.6460    -5.0140    -0.4840 C.3   1 <1>   0.2000 
 19 C       -1.9590    -6.3790    -0.3620 C.3   1 <1>  -0.0800 
 20 O       -3.8840    -5.0730     0.1660 O.3   1 <1>  -0.5600 
 21 C       -2.8940    -7.5850    -0.5720 C.3   1 <1>   0.0200 
 22 C       -4.7880    -4.0740    -0.1900 C.3   1 <1>   0.0400 
 23 C       -2.1560    -8.9130    -0.6220 C.2   1 <1>  -0.0400 
 24 O       -2.8550   -10.0140    -0.7090 O.3   1 <1>  -0.0190 
 25 C       -0.8580    -9.2560    -0.6010 C.2   1 <1>  -0.1500 
 26 N       -2.0970   -11.0720    -0.7460 N.2   1 <1>  -0.4100 
 27 C       -0.8880   -10.6450    -0.6800 C.2   1 <1>   0.1080 
 28 C        0.3320   -11.5390    -0.6890 C.3   1 <1>  -0.0590 
 29 H        2.6350    -3.5560     2.4670 H     1 <1>   0.0600 
 30 H        0.4520    -2.8870     3.5000 H     1 <1>   0.0800 
 31 H       -0.8300    -2.4790     2.4130 H     1 <1>   0.0800 
 32 H        0.6010     0.2320    -1.4900 H     1 <1>   0.1500 
 33 H        5.1480    -1.4330    -0.6650 H     1 <1>   0.1500 
 34 H        2.4680     1.0260    -2.8860 H     1 <1>   0.1500 
 35 H        4.7450     0.1940    -2.4760 H     1 <1>   0.1500 
 36 H       -2.2400    -3.2700     0.7520 H     1 <1>   0.0800 
 37 H       -0.9880    -3.6560    -0.4190 H     1 <1>   0.0800 
 38 H       -0.4230    -6.9510     1.0750 H     1 <1>   0.0800 
 39 H       -2.0080    -6.6630     1.7790 H     1 <1>   0.0800 
 40 H       -2.7940    -4.7260    -1.5110 H     1 <1>   0.0800 
 41 H       -1.1730    -6.4160    -1.0950 H     1 <1>   0.0800 
 42 H       -3.4300    -7.4620    -1.4950 H     1 <1>   0.0800 
 43 H       -3.6190    -7.6260     0.2220 H     1 <1>   0.0800 
 44 H       -5.6880    -4.2200     0.3820 H     1 <1>   0.0800 
 45 H       -5.0110    -4.1530    -1.2390 H     1 <1>   0.0800 
 46 H       -4.3710    -3.1080     0.0380 H     1 <1>   0.0800 
 47 H        0.0240    -8.6470    -0.5400 H     1 <1>   0.1500 
 48 H        0.9650   -11.2850    -1.5180 H     1 <1>   0.0800 
 49 H        0.0310   -12.5680    -0.7820 H     1 <1>   0.0800 
 50 H        0.8780   -11.4180     0.2280 H     1 <1>   0.0800 
@<TRIPOS>BOND
  1   1   2  2   
  2   2   3  am  
  3   2   4  1   
  4   3   5  1   
  5   3   6  1   
  6   4   7  ar  
  7   4   8  ar  
  8   5   9  2   
  9   5  29  1   
 10   6  10  1   
 11   6  30  1   
 12   6  31  1   
 13   7   9  1   
 14   7  11  ar  
 15   8  12  ar  
 16   8  32  1   
 17  10  13  2   
 18  10  14  am  
 19  11  15  ar  
 20  11  33  1   
 21  12  15  ar  
 22  12  34  1   
 23  14  16  1   
 24  14  17  1   
 25  15  35  1   
 26  16  18  1   
 27  16  36  1   
 28  16  37  1   
 29  17  19  1   
 30  17  38  1   
 31  17  39  1   
 32  18  19  1   
 33  18  20  1   
 34  18  40  1   
 35  19  21  1   
 36  19  41  1   
 37  20  22  1   
 38  21  23  1   
 39  21  42  1   
 40  21  43  1   
 41  22  44  1   
 42  22  45  1   
 43  22  46  1   
 44  23  24  1   
 45  23  25  2   
 46  24  26  1   
 47  25  27  1   
 48  25  47  1   
 49  26  27  2   
 50  27  28  1   
 51  28  48  1   
 52  28  49  1   
 53  28  50  1   
@<TRIPOS>SUBSTRUCTURE
  1 ****  14 GROUP 4 **** **** 0

# MOE 2024.06 (io_trps.svl 2023.06)
