@<TRIPOS>MOLECULE
NONAME
50 52 1 0 0 
SMALL
USER_CHARGES


@<TRIPOS>ATOM
  1 S        0.3890    -3.9130     0.5620 S.3   1 <1>  -0.0800 
  2 C       -1.0320    -3.0850    -0.0600 C.2   1 <1>  -0.1400 
  3 C        0.1490    -3.2210     2.1560 C.2   1 <1>  -0.1100 
  4 C       -1.6080    -2.3490     0.9090 C.2   1 <1>  -0.1500 
  5 C       -1.3910    -3.3070    -1.5140 C.3   1 <1>   0.3200 
  6 C       -0.9370    -2.4270     2.1700 C.2   1 <1>  -0.1500 
  7 N       -1.9540    -4.6570    -1.6460 N.am  1 <1>  -0.7300 
  8 C       -3.0820    -4.9640    -2.3340 C.2   1 <1>   0.5690 
  9 O       -3.6190    -4.1540    -3.0540 O.2   1 <1>  -0.5700 
 10 C       -3.6500    -6.3810    -2.1880 C.3   1 <1>   0.1710 
 11 N       -4.6130    -6.6210    -1.0690 N.3   1 <1>  -0.8100 
 12 C       -4.7450    -8.0820    -0.8100 C.3   1 <1>   0.1100 
 13 C       -4.4070    -5.7780     0.1200 C.3   1 <1>   0.1100 
 14 C       -4.5250    -8.5260     0.6560 C.3   1 <1>  -0.1060 
 15 C       -5.3760    -6.1510     1.2490 C.3   1 <1>  -0.1600 
 16 C       -4.9630    -9.9870     0.7890 C.2   1 <1>   0.9060 
 17 C       -5.5010    -7.6660     1.4860 C.3   1 <1>   0.2000 
 18 C       -3.0560    -8.4250     1.1870 C.3   1 <1>  -0.0170 
 19 O       -5.0040   -10.7180    -0.2080 O.co2 1 <1>  -0.9000 
 20 O       -5.2530   -10.4210     1.9150 O.co2 1 <1>  -0.9000 
 21 O       -5.3330    -7.9350     2.8330 O.3   1 <1>  -0.6800 
 22 C       -1.9340    -8.4450     0.1490 C.ar  1 <1>  -0.1430 
 23 C       -1.0220    -7.4000     0.0900 C.ar  1 <1>  -0.1500 
 24 C       -1.7980    -9.5080    -0.7300 C.ar  1 <1>  -0.1500 
 25 C       -0.0060    -7.4060    -0.8500 C.ar  1 <1>  -0.1500 
 26 C       -0.7850    -9.5150    -1.6730 C.ar  1 <1>  -0.1500 
 27 C        0.1100    -8.4620    -1.7370 C.ar  1 <1>  -0.1500 
 28 H        0.8570    -3.4840     2.9230 H     1 <1>   0.1500 
 29 H       -2.4930    -1.7460     0.7930 H     1 <1>   0.1500 
 30 H       -0.5160    -3.2140    -2.1330 H     1 <1>   0.0800 
 31 H       -2.1160    -2.5740    -1.8280 H     1 <1>   0.0800 
 32 H       -1.3020    -1.8830     3.0240 H     1 <1>   0.1500 
 33 H       -1.5370    -5.3690    -1.0410 H     1 <1>   0.3700 
 34 H       -2.8110    -7.0430    -2.0760 H     1 <1>   0.0800 
 35 H       -4.1370    -6.6400    -3.1100 H     1 <1>   0.0800 
 36 H       -5.7490    -8.3570    -1.0860 H     1 <1>   0.0800 
 37 H       -4.1060    -8.6510    -1.4610 H     1 <1>   0.0800 
 38 H       -3.3940    -5.8720     0.4610 H     1 <1>   0.0800 
 39 H       -4.5680    -4.7470    -0.1440 H     1 <1>   0.0800 
 40 H       -6.3460    -5.7720     0.9880 H     1 <1>   0.0800 
 41 H       -5.0630    -5.6550     2.1490 H     1 <1>   0.0800 
 42 H       -6.5060    -7.9650     1.2370 H     1 <1>   0.0800 
 43 H       -2.9520    -7.5360     1.7800 H     1 <1>   0.0800 
 44 H       -2.8780    -9.2340     1.8740 H     1 <1>   0.0800 
 45 H       -5.3340    -8.9340     2.8930 H     1 <1>   0.4000 
 46 H       -1.1000    -6.5830     0.7860 H     1 <1>   0.1500 
 47 H       -2.4910   -10.3340    -0.6830 H     1 <1>   0.1500 
 48 H        0.7000    -6.5940    -0.8890 H     1 <1>   0.1500 
 49 H       -0.7000   -10.3440    -2.3530 H     1 <1>   0.1500 
 50 H        0.8970    -8.4690    -2.4690 H     1 <1>   0.1500 
@<TRIPOS>BOND
  1   1   2  1   
  2   1   3  1   
  3   2   4  2   
  4   2   5  1   
  5   3   6  2   
  6   3  28  1   
  7   4   6  1   
  8   4  29  1   
  9   5   7  1   
 10   5  30  1   
 11   5  31  1   
 12   6  32  1   
 13   7   8  am  
 14   7  33  1   
 15   8   9  2   
 16   8  10  1   
 17  10  11  1   
 18  10  34  1   
 19  10  35  1   
 20  11  12  1   
 21  11  13  1   
 22  12  14  1   
 23  12  36  1   
 24  12  37  1   
 25  13  15  1   
 26  13  38  1   
 27  13  39  1   
 28  14  16  1   
 29  14  17  1   
 30  14  18  1   
 31  15  17  1   
 32  15  40  1   
 33  15  41  1   
 34  16  19  ar  
 35  16  20  ar  
 36  17  21  1   
 37  17  42  1   
 38  18  22  1   
 39  18  43  1   
 40  18  44  1   
 41  21  45  1   
 42  22  23  ar  
 43  22  24  ar  
 44  23  25  ar  
 45  23  46  1   
 46  24  26  ar  
 47  24  47  1   
 48  25  27  ar  
 49  25  48  1   
 50  26  27  ar  
 51  26  49  1   
 52  27  50  1   
@<TRIPOS>SUBSTRUCTURE
  1 ****  13 GROUP 4 **** **** 0

# MOE 2024.06 (io_trps.svl 2023.06)
