@<TRIPOS>MOLECULE
NONAME
42 43 1 0 0 
SMALL
USER_CHARGES


@<TRIPOS>ATOM
  1 F       -0.7260     0.2890     0.2820 F     1 <1>  -0.3400 
  2 C       -0.2930     1.5310     0.0570 C.3   1 <1>   0.9600 
  3 F       -1.2390     2.3050     0.5860 F     1 <1>  -0.3400 
  4 O        0.8580     1.7260     0.8740 O.3   1 <1>  -0.3630 
  5 C       -0.1420     1.8320    -1.4710 C.3   1 <1>   0.6000 
  6 C        2.0450     1.1800     0.5310 C.ar  1 <1>   0.0830 
  7 F       -1.2930     1.6660    -2.1290 F     1 <1>  -0.3400 
  8 F        0.6990     0.9880    -2.0790 F     1 <1>  -0.3400 
  9 C        3.0870     2.0120     0.1030 C.ar  1 <1>   0.0860 
 10 C        2.2280    -0.1910     0.6450 C.ar  1 <1>  -0.1500 
 11 C        2.9170     3.4430    -0.0060 C.2   1 <1>   0.5440 
 12 C        4.3030     1.4110    -0.2280 C.ar  1 <1>  -0.1500 
 13 C        3.4440    -0.7590     0.3150 C.ar  1 <1>  -0.1500 
 14 O        1.9610     3.9020    -0.6030 O.2   1 <1>  -0.5700 
 15 N        3.8540     4.2740     0.5580 N.am  1 <1>  -0.4940 
 16 C        4.4820     0.0440    -0.1240 C.ar  1 <1>  -0.1500 
 17 C        4.0100     5.6790     0.4910 C.2   1 <1>  -0.0880 
 18 N        3.0340     6.6300     0.5470 N.pl3 1 <1>   0.3140 
 19 C        5.1830     6.3480     0.3760 C.2   1 <1>  -0.1810 
 20 N        3.5550     7.8740     0.4680 N.2   1 <1>  -0.7070 
 21 C        1.5940     6.4570     0.7720 C.3   1 <1>   0.0160 
 22 C        4.8310     7.6950     0.3590 C.2   1 <1>   0.1080 
 23 C        6.5850     5.7700     0.2750 C.3   1 <1>   0.0210 
 24 C        5.7880     8.8590     0.2330 C.3   1 <1>  -0.0590 
 25 C        6.9250     5.4570    -1.1830 C.3   1 <1>  -0.2400 
 26 H        0.1950     2.8300    -1.6640 H     1 <1>   0.0800 
 27 H        1.4280    -0.8190     0.9960 H     1 <1>   0.1500 
 28 H        5.1170     2.0200    -0.5830 H     1 <1>   0.1500 
 29 H        3.5830    -1.8240     0.4000 H     1 <1>   0.1500 
 30 H        4.6340     3.7940     1.0050 H     1 <1>   0.3700 
 31 H        5.4270    -0.4010    -0.3860 H     1 <1>   0.1500 
 32 H        1.4300     5.5970     1.3920 H     1 <1>   0.0800 
 33 H        1.1080     6.3240    -0.1760 H     1 <1>   0.0800 
 34 H        1.2060     7.3330     1.2570 H     1 <1>   0.0800 
 35 H        6.6470     4.8710     0.8600 H     1 <1>   0.0800 
 36 H        7.2970     6.4700     0.6750 H     1 <1>   0.0800 
 37 H        6.5040     8.6670    -0.5430 H     1 <1>   0.0800 
 38 H        6.2990     9.0080     1.1660 H     1 <1>   0.0800 
 39 H        5.2420     9.7510    -0.0120 H     1 <1>   0.0800 
 40 H        6.2180     4.7530    -1.5850 H     1 <1>   0.0800 
 41 H        7.9140     5.0400    -1.2540 H     1 <1>   0.0800 
 42 H        6.8840     6.3560    -1.7730 H     1 <1>   0.0800 
@<TRIPOS>BOND
  1   1   2  1   
  2   2   3  1   
  3   2   4  1   
  4   2   5  1   
  5   4   6  1   
  6   5   7  1   
  7   5   8  1   
  8   5  26  1   
  9   6   9  ar  
 10   6  10  ar  
 11   9  11  1   
 12   9  12  ar  
 13  10  13  ar  
 14  10  27  1   
 15  11  14  2   
 16  11  15  am  
 17  12  16  ar  
 18  12  28  1   
 19  13  16  ar  
 20  13  29  1   
 21  15  17  1   
 22  15  30  1   
 23  16  31  1   
 24  17  18  1   
 25  17  19  2   
 26  18  20  1   
 27  18  21  1   
 28  19  22  1   
 29  19  23  1   
 30  20  22  2   
 31  21  32  1   
 32  21  33  1   
 33  21  34  1   
 34  22  24  1   
 35  23  25  1   
 36  23  35  1   
 37  23  36  1   
 38  24  37  1   
 39  24  38  1   
 40  24  39  1   
 41  25  40  1   
 42  25  41  1   
 43  25  42  1   
@<TRIPOS>SUBSTRUCTURE
  1 ****  11 GROUP 4 **** **** 0

# MOE 2024.06 (io_trps.svl 2023.06)
