@<TRIPOS>MOLECULE
NONAME
45 47 1 0 0 
SMALL
USER_CHARGES


@<TRIPOS>ATOM
  1 F        1.0280     2.7470    -0.4210 F     1 <1>  -0.1900 
  2 C       -0.2410     2.4330    -0.3930 C.ar  1 <1>   0.1900 
  3 C       -1.1300     3.2680     0.2690 C.ar  1 <1>  -0.1440 
  4 C       -0.6330     1.2690    -1.0330 C.ar  1 <1>  -0.1500 
  5 C       -2.4590     2.8670     0.2610 C.ar  1 <1>   0.1900 
  6 C       -0.6580     4.5510     0.9550 C.3   1 <1>   0.0440 
  7 C       -1.9710     0.9060    -1.0200 C.ar  1 <1>  -0.1500 
  8 F       -3.3560     3.5950     0.8720 F     1 <1>  -0.1900 
  9 C       -2.8910     1.7120    -0.3680 C.ar  1 <1>  -0.1500 
 10 C       -0.1240     5.5620    -0.0590 C.2   1 <1>   0.5690 
 11 O       -0.8600     5.8490    -0.9720 O.2   1 <1>  -0.5700 
 12 N        1.1360     6.1190     0.0110 N.am  1 <1>  -0.6600 
 13 C        2.0670     6.0130     1.2010 C.3   1 <1>   0.2200 
 14 C        1.6180     6.8830    -1.1910 C.3   1 <1>   0.1400 
 15 C        2.6240     7.3810     1.6310 C.3   1 <1>   0.1200 
 16 C        3.2040     4.9930     0.9450 C.3   1 <1>   0.3430 
 17 C        3.1420     7.0900    -1.3010 C.3   1 <1>  -0.0800 
 18 O        3.7950     7.6970     0.9460 O.3   1 <1>  -0.5600 
 19 N        3.3730     4.6750    -0.5140 N.4   1 <1>  -0.9590 
 20 C        3.6470     8.1800    -0.3450 C.3   1 <1>   0.1200 
 21 C        4.0070     5.8140    -1.2460 C.3   1 <1>   0.3430 
 22 C        4.2660     3.4500    -0.6390 C.3   1 <1>   0.2370 
 23 C        5.6470     3.6070     0.0040 C.2   1 <1>   0.9060 
 24 O        6.5530     4.0790    -0.6860 O.co2 1 <1>  -0.9000 
 25 O        5.7440     3.3830     1.2150 O.co2 1 <1>  -0.9000 
 26 H        0.0970     0.6570    -1.5320 H     1 <1>   0.1500 
 27 H        0.0800     4.2700     1.6760 H     1 <1>   0.0800 
 28 H       -1.4640     5.0210     1.4860 H     1 <1>   0.0800 
 29 H       -2.2950     0.0050    -1.5140 H     1 <1>   0.1500 
 30 H       -3.9350     1.4510    -0.3460 H     1 <1>   0.1500 
 31 H        1.5140     5.6740     2.0540 H     1 <1>   0.0800 
 32 H        1.2910     6.3630    -2.0760 H     1 <1>   0.0800 
 33 H        1.1280     7.8420    -1.1980 H     1 <1>   0.0800 
 34 H        2.8930     7.3350     2.6720 H     1 <1>   0.0800 
 35 H        1.8990     8.1660     1.5050 H     1 <1>   0.0800 
 36 H        2.9730     4.0840     1.4750 H     1 <1>   0.0800 
 37 H        4.1320     5.3630     1.3530 H     1 <1>   0.0800 
 38 H        3.3030     7.5040    -2.2800 H     1 <1>   0.0800 
 39 H        2.4370     4.4910    -0.8990 H     1 <1>   0.4500 
 40 H        2.9910     9.0330    -0.3270 H     1 <1>   0.0800 
 41 H        4.6220     8.5130    -0.6600 H     1 <1>   0.0800 
 42 H        4.9600     6.0460    -0.7920 H     1 <1>   0.0800 
 43 H        4.2100     5.4960    -2.2550 H     1 <1>   0.0800 
 44 H        3.7940     2.6070    -0.1690 H     1 <1>   0.0800 
 45 H        4.4230     3.2150    -1.6760 H     1 <1>   0.0800 
@<TRIPOS>BOND
  1   1   2  1   
  2   2   3  ar  
  3   2   4  ar  
  4   3   5  ar  
  5   3   6  1   
  6   4   7  ar  
  7   4  26  1   
  8   5   8  1   
  9   5   9  ar  
 10   6  10  1   
 11   6  27  1   
 12   6  28  1   
 13   7   9  ar  
 14   7  29  1   
 15   9  30  1   
 16  10  11  2   
 17  10  12  am  
 18  12  13  1   
 19  12  14  1   
 20  13  15  1   
 21  13  16  1   
 22  13  31  1   
 23  14  17  1   
 24  14  32  1   
 25  14  33  1   
 26  15  18  1   
 27  15  34  1   
 28  15  35  1   
 29  16  19  1   
 30  16  36  1   
 31  16  37  1   
 32  17  20  1   
 33  17  21  1   
 34  17  38  1   
 35  18  20  1   
 36  19  21  1   
 37  19  22  1   
 38  19  39  1   
 39  20  40  1   
 40  20  41  1   
 41  21  42  1   
 42  21  43  1   
 43  22  23  1   
 44  22  44  1   
 45  22  45  1   
 46  23  24  ar  
 47  23  25  ar  
@<TRIPOS>SUBSTRUCTURE
  1 ****  12 GROUP 4 **** **** 0

# MOE 2024.06 (io_trps.svl 2023.06)
