@<TRIPOS>MOLECULE
NONAME
42 44 1 0 0 
SMALL
USER_CHARGES


@<TRIPOS>ATOM
  1 O       -0.5200     0.3720     0.8100 O.2   1 <1>  -0.5700 
  2 C       -1.4940     0.9110     0.3430 C.2   1 <1>   0.5690 
  3 N       -2.6000     0.1930    -0.0110 N.am  1 <1>  -0.6600 
  4 C       -1.4770     2.4170     0.1700 C.3   1 <1>  -0.0990 
  5 C       -3.9210     0.7280    -0.4340 C.3   1 <1>   0.1400 
  6 C       -2.6620    -1.2860     0.1090 C.3   1 <1>   0.1400 
  7 C       -0.0510     2.9500    -0.0190 C.3   1 <1>   0.0960 
  8 C       -4.9040    -0.3870    -0.0820 C.3   1 <1>   0.2000 
  9 C       -4.0900    -1.6670    -0.3010 C.3   1 <1>  -0.0800 
 10 N       -0.0650     4.4140    -0.1900 N.pl3 1 <1>   0.3140 
 11 O       -5.2270    -0.2660     1.2610 O.3   1 <1>  -0.6800 
 12 C       -4.6290    -2.9220     0.4080 C.3   1 <1>  -0.0170 
 13 N       -0.6500     5.0040    -1.2500 N.2   1 <1>  -0.7070 
 14 C        0.4640     5.3300     0.6460 C.2   1 <1>  -0.3020 
 15 C       -3.7970    -4.1460     0.0560 C.ar  1 <1>  -0.1440 
 16 C       -0.4740     6.2760    -1.0630 C.2   1 <1>   0.1390 
 17 C        0.2180     6.5440     0.1110 C.2   1 <1>  -0.1500 
 18 C       -4.0010    -4.8490    -1.1140 C.ar  1 <1>  -0.1500 
 19 C       -2.7960    -4.6150     0.8820 C.ar  1 <1>  -0.1500 
 20 C       -3.2140    -5.9540    -1.3950 C.ar  1 <1>   0.1600 
 21 C       -2.0650    -5.7300     0.5070 C.ar  1 <1>   0.1600 
 22 N       -2.2500    -6.4110    -0.6130 N.ar  1 <1>  -0.6200 
 23 H       -2.0570     2.6830    -0.6950 H     1 <1>   0.0800 
 24 H       -1.9180     2.8650     1.0410 H     1 <1>   0.0800 
 25 H       -4.1700     1.6480     0.0670 H     1 <1>   0.0800 
 26 H       -3.9100     0.8850    -1.4980 H     1 <1>   0.0800 
 27 H       -1.9300    -1.7510    -0.5300 H     1 <1>   0.0800 
 28 H       -2.4650    -1.5620     1.1310 H     1 <1>   0.0800 
 29 H        0.3930     2.5130    -0.8940 H     1 <1>   0.0800 
 30 H        0.5570     2.7070     0.8340 H     1 <1>   0.0800 
 31 H       -5.8130    -0.3500    -0.6580 H     1 <1>   0.0800 
 32 H       -4.0730    -1.8610    -1.3590 H     1 <1>   0.0800 
 33 H       -4.3990    -0.1680     1.7740 H     1 <1>   0.4000 
 34 H       -5.6500    -3.0900     0.1120 H     1 <1>   0.0800 
 35 H       -4.6250    -2.7830     1.4760 H     1 <1>   0.0800 
 36 H        0.9750     5.0720     1.5550 H     1 <1>   0.1500 
 37 H       -0.8280     7.0300    -1.7470 H     1 <1>   0.1500 
 38 H        0.4850     7.5170     0.4830 H     1 <1>   0.1500 
 39 H       -4.7640    -4.5510    -1.8090 H     1 <1>   0.1500 
 40 H       -2.5750    -4.1270     1.8130 H     1 <1>   0.1500 
 41 H       -3.3880    -6.4910    -2.3110 H     1 <1>   0.1500 
 42 H       -1.2870    -6.0810     1.1630 H     1 <1>   0.1500 
@<TRIPOS>BOND
  1   1   2  2   
  2   2   3  am  
  3   2   4  1   
  4   3   5  1   
  5   3   6  1   
  6   4   7  1   
  7   4  23  1   
  8   4  24  1   
  9   5   8  1   
 10   5  25  1   
 11   5  26  1   
 12   6   9  1   
 13   6  27  1   
 14   6  28  1   
 15   7  10  1   
 16   7  29  1   
 17   7  30  1   
 18   8   9  1   
 19   8  11  1   
 20   8  31  1   
 21   9  12  1   
 22   9  32  1   
 23  10  13  1   
 24  10  14  1   
 25  11  33  1   
 26  12  15  1   
 27  12  34  1   
 28  12  35  1   
 29  13  16  2   
 30  14  17  2   
 31  14  36  1   
 32  15  18  ar  
 33  15  19  ar  
 34  16  17  1   
 35  16  37  1   
 36  17  38  1   
 37  18  20  ar  
 38  18  39  1   
 39  19  21  ar  
 40  19  40  1   
 41  20  22  ar  
 42  20  41  1   
 43  21  22  ar  
 44  21  42  1   
@<TRIPOS>SUBSTRUCTURE
  1 ****   3 GROUP 4 **** **** 0

# MOE 2024.06 (io_trps.svl 2023.06)
