@<TRIPOS>MOLECULE
NONAME
41 42 1 0 0 
SMALL
USER_CHARGES


@<TRIPOS>ATOM
  1 S        0.5980     0.4100     0.3570 S.o2  1 <1>   1.3330 
  2 O       -0.5680    -0.3800     0.6810 O.2   1 <1>  -0.6500 
  3 O        1.5780     0.6750     1.3870 O.2   1 <1>  -0.6500 
  4 N        1.4050    -0.3530    -0.9280 N.am  1 <1>  -0.8490 
  5 C        0.0260     1.9370    -0.3880 C.3   1 <1>  -0.0550 
  6 C        1.4380    -1.8090    -0.7700 C.3   1 <1>   0.1160 
  7 C        2.7660     0.1560    -1.1370 C.3   1 <1>   0.1160 
  8 C       -0.7050     2.8750     0.5950 C.3   1 <1>  -0.0800 
  9 C       -1.4060     4.0030    -0.1610 C.3   1 <1>   0.2000 
 10 C        0.2900     3.6430     1.4660 C.3   1 <1>   0.1100 
 11 O       -2.4470     4.4700     0.6260 O.3   1 <1>  -0.6800 
 12 C       -0.3450     5.1040    -0.2870 C.3   1 <1>   0.1100 
 13 N        0.7690     4.7140     0.5950 N.3   1 <1>  -0.8100 
 14 C        1.4320     5.8250     1.3190 C.3   1 <1>   0.2900 
 15 C        2.2030     6.7770     0.4070 C.2   1 <1>   0.1980 
 16 S        1.2970     8.0260    -0.4270 S.3   1 <1>  -0.0800 
 17 N        3.4580     6.8110     0.1810 N.2   1 <1>  -0.5650 
 18 C        2.7800     8.5970    -1.1320 C.2   1 <1>  -0.1100 
 19 C        3.7900     7.8330    -0.6910 C.2   1 <1>   0.0460 
 20 C        5.2520     7.9740    -1.0500 C.3   1 <1>  -0.0590 
 21 H        0.8550     2.4590    -0.8240 H     1 <1>   0.0800 
 22 H       -0.6470     1.6800    -1.1820 H     1 <1>   0.0800 
 23 H        1.9420    -2.2640    -1.6050 H     1 <1>   0.0800 
 24 H        0.4340    -2.1990    -0.7320 H     1 <1>   0.0800 
 25 H        1.9470    -2.0760     0.1420 H     1 <1>   0.0800 
 26 H        3.1990    -0.2960    -2.0130 H     1 <1>   0.0800 
 27 H        3.3870    -0.0660    -0.2840 H     1 <1>   0.0800 
 28 H        2.7490     1.2230    -1.2800 H     1 <1>   0.0800 
 29 H       -1.4020     2.3020     1.1830 H     1 <1>   0.0800 
 30 H       -1.8150     3.7040    -1.1110 H     1 <1>   0.0800 
 31 H        1.1100     3.0370     1.8120 H     1 <1>   0.0800 
 32 H       -0.2180     4.0600     2.3190 H     1 <1>   0.0800 
 33 H       -2.0960     4.7860     1.4790 H     1 <1>   0.4000 
 34 H       -0.7600     6.0600    -0.0150 H     1 <1>   0.0800 
 35 H        0.0200     5.1540    -1.2980 H     1 <1>   0.0800 
 36 H        0.7060     6.3810     1.8840 H     1 <1>   0.0800 
 37 H        2.1410     5.4050     2.0110 H     1 <1>   0.0800 
 38 H        2.7350     9.4390    -1.7970 H     1 <1>   0.1500 
 39 H        5.3960     8.7960    -1.7280 H     1 <1>   0.0800 
 40 H        5.5970     7.0700    -1.5160 H     1 <1>   0.0800 
 41 H        5.8270     8.1480    -0.1590 H     1 <1>   0.0800 
@<TRIPOS>BOND
  1   1   2  2   
  2   1   3  2   
  3   1   4  am  
  4   1   5  1   
  5   4   6  1   
  6   4   7  1   
  7   5   8  1   
  8   5  21  1   
  9   5  22  1   
 10   6  23  1   
 11   6  24  1   
 12   6  25  1   
 13   7  26  1   
 14   7  27  1   
 15   7  28  1   
 16   8   9  1   
 17   8  10  1   
 18   8  29  1   
 19   9  11  1   
 20   9  12  1   
 21   9  30  1   
 22  10  13  1   
 23  10  31  1   
 24  10  32  1   
 25  11  33  1   
 26  12  13  1   
 27  12  34  1   
 28  12  35  1   
 29  13  14  1   
 30  14  15  1   
 31  14  36  1   
 32  14  37  1   
 33  15  16  1   
 34  15  17  2   
 35  16  18  1   
 36  17  19  1   
 37  18  19  2   
 38  18  38  1   
 39  19  20  1   
 40  20  39  1   
 41  20  40  1   
 42  20  41  1   
@<TRIPOS>SUBSTRUCTURE
  1 ****  13 GROUP 4 **** **** 0

# MOE 2024.06 (io_trps.svl 2023.06)
