@<TRIPOS>MOLECULE
NONAME
52 55 1 0 0 
SMALL
USER_CHARGES


@<TRIPOS>ATOM
  1 O       -0.9610    -0.0160     0.4570 O.2   1 <1>  -0.5700 
  2 C       -2.1030     0.3230     0.2660 C.2   1 <1>   0.5690 
  3 N       -3.1390    -0.4980    -0.0210 N.am  1 <1>  -0.6600 
  4 C       -2.5530     1.7560     0.3110 C.3   1 <1>  -0.0990 
  5 C       -4.4010     0.2290    -0.2380 C.3   1 <1>   0.1400 
  6 C       -3.0360    -1.9610    -0.2300 C.3   1 <1>   0.1400 
  7 C       -4.0860     1.6620     0.2160 C.3   1 <1>  -0.1600 
  8 C       -3.4660    -2.7010     1.0340 C.3   1 <1>  -0.0990 
  9 C       -3.5650    -4.1850     0.7530 C.2   1 <1>   0.5690 
 10 O       -2.5880    -4.8650     0.9520 O.2   1 <1>  -0.5700 
 11 N       -4.7290    -4.7260     0.2760 N.am  1 <1>  -0.6600 
 12 C       -6.0050    -4.0160     0.0170 C.3   1 <1>   0.1400 
 13 C       -4.8670    -6.1740    -0.0170 C.3   1 <1>   0.1400 
 14 C       -6.9530    -5.0850    -0.5280 C.3   1 <1>   0.2000 
 15 C       -6.3760    -6.4230    -0.0710 C.3   1 <1>  -0.0800 
 16 O       -8.2370    -4.9250    -0.0320 O.3   1 <1>  -0.6800 
 17 C       -6.7830    -7.5890    -0.9870 C.3   1 <1>  -0.0170 
 18 C       -6.1870    -8.9020    -0.5100 C.ar  1 <1>   0.1670 
 19 N       -5.0140    -9.2250    -0.9620 N.ar  1 <1>  -0.6200 
 20 C       -6.9180    -9.6910     0.3920 C.ar  1 <1>  -0.1500 
 21 C       -4.4690   -10.3910    -0.5300 C.ar  1 <1>   0.3100 
 22 C       -6.3960   -10.8660     0.8410 C.ar  1 <1>  -0.1500 
 23 C       -5.1270   -11.2500     0.3780 C.ar  1 <1>   0.0000 
 24 C       -3.1980   -10.7620    -0.9980 C.ar  1 <1>  -0.1500 
 25 C       -4.4890   -12.4410     0.7790 C.ar  1 <1>  -0.1500 
 26 C       -2.5950   -11.9240    -0.5970 C.ar  1 <1>  -0.1500 
 27 C       -3.2500   -12.7730     0.3020 C.ar  1 <1>  -0.1500 
 28 H       -2.2330     2.2230     1.2240 H     1 <1>   0.0800 
 29 H       -2.1400     2.2760    -0.5340 H     1 <1>   0.0800 
 30 H       -4.6520     0.2050    -1.2850 H     1 <1>   0.0800 
 31 H       -5.1980    -0.2000     0.3440 H     1 <1>   0.0800 
 32 H       -3.6540    -2.2460    -1.0650 H     1 <1>   0.0800 
 33 H       -2.0160    -2.2210    -0.4650 H     1 <1>   0.0800 
 34 H       -4.4920     2.3880    -0.4660 H     1 <1>   0.0800 
 35 H       -4.5180     1.8220     1.1880 H     1 <1>   0.0800 
 36 H       -4.4050    -2.3300     1.3930 H     1 <1>   0.0800 
 37 H       -2.7270    -2.5430     1.7980 H     1 <1>   0.0800 
 38 H       -6.3800    -3.6090     0.9400 H     1 <1>   0.0800 
 39 H       -5.8610    -3.2340    -0.7070 H     1 <1>   0.0800 
 40 H       -4.4060    -6.3860    -0.9670 H     1 <1>   0.0800 
 41 H       -4.3930    -6.7720     0.7440 H     1 <1>   0.0800 
 42 H       -6.9930    -5.0210    -1.6030 H     1 <1>   0.0800 
 43 H       -6.6970    -6.6300     0.9340 H     1 <1>   0.0800 
 44 H       -8.2460    -5.0500     0.9370 H     1 <1>   0.4000 
 45 H       -6.4500    -7.4000    -1.9930 H     1 <1>   0.0800 
 46 H       -7.8550    -7.6700    -1.0130 H     1 <1>   0.0800 
 47 H       -7.8850    -9.3570     0.7200 H     1 <1>   0.1500 
 48 H       -6.9250   -11.4980     1.5320 H     1 <1>   0.1500 
 49 H       -2.7120   -10.0960    -1.6870 H     1 <1>   0.1500 
 50 H       -4.9970   -13.0890     1.4710 H     1 <1>   0.1500 
 51 H       -1.6200   -12.1950    -0.9640 H     1 <1>   0.1500 
 52 H       -2.7640   -13.6830     0.6100 H     1 <1>   0.1500 
@<TRIPOS>BOND
  1   1   2  2   
  2   2   3  am  
  3   2   4  1   
  4   3   5  1   
  5   3   6  1   
  6   4   7  1   
  7   4  28  1   
  8   4  29  1   
  9   5   7  1   
 10   5  30  1   
 11   5  31  1   
 12   6   8  1   
 13   6  32  1   
 14   6  33  1   
 15   7  34  1   
 16   7  35  1   
 17   8   9  1   
 18   8  36  1   
 19   8  37  1   
 20   9  10  2   
 21   9  11  am  
 22  11  12  1   
 23  11  13  1   
 24  12  14  1   
 25  12  38  1   
 26  12  39  1   
 27  13  15  1   
 28  13  40  1   
 29  13  41  1   
 30  14  15  1   
 31  14  16  1   
 32  14  42  1   
 33  15  17  1   
 34  15  43  1   
 35  16  44  1   
 36  17  18  1   
 37  17  45  1   
 38  17  46  1   
 39  18  19  ar  
 40  18  20  ar  
 41  19  21  ar  
 42  20  22  ar  
 43  20  47  1   
 44  21  23  ar  
 45  21  24  ar  
 46  22  23  ar  
 47  22  48  1   
 48  23  25  ar  
 49  24  26  ar  
 50  24  49  1   
 51  25  27  ar  
 52  25  50  1   
 53  26  27  ar  
 54  26  51  1   
 55  27  52  1   
@<TRIPOS>SUBSTRUCTURE
  1 ****  13 GROUP 4 **** **** 0

# MOE 2024.06 (io_trps.svl 2023.06)
