@<TRIPOS>MOLECULE
NONAME
46 48 1 0 0 
SMALL
USER_CHARGES


@<TRIPOS>ATOM
  1 F       -2.9180    -1.0000     2.4620 F     1 <1>  -0.1900 
  2 C       -2.5660    -0.0100     1.6870 C.ar  1 <1>   0.1900 
  3 C       -2.6100    -0.1820     0.3030 C.ar  1 <1>   0.0860 
  4 C       -2.1820     1.1710     2.2920 C.ar  1 <1>  -0.1500 
  5 C       -3.0200    -1.4320    -0.2870 C.2   1 <1>   0.5440 
  6 C       -2.2500     0.9120    -0.4890 C.ar  1 <1>  -0.1500 
  7 C       -1.8350     2.2200     1.4650 C.ar  1 <1>   0.1900 
  8 O       -2.2520    -2.3750    -0.3130 O.2   1 <1>  -0.5700 
  9 N       -4.2830    -1.6060    -0.8110 N.am  1 <1>  -0.6600 
 10 C       -1.8620     2.1130     0.0850 C.ar  1 <1>  -0.1500 
 11 F       -1.4720     3.3500     2.0010 F     1 <1>  -0.1900 
 12 C       -4.6460    -2.8890    -1.4640 C.3   1 <1>   0.1400 
 13 C       -5.4700    -0.8800    -0.2900 C.3   1 <1>   0.1400 
 14 C       -5.2330    -3.8190    -0.3810 C.3   1 <1>   0.4230 
 15 C       -6.1040    -1.7380     0.8170 C.3   1 <1>  -0.1600 
 16 N       -5.4520    -5.2520    -0.8310 N.4   1 <1>  -0.9590 
 17 C       -6.4410    -3.2030     0.3960 C.3   1 <1>   0.0000 
 18 C       -6.2750    -6.0600     0.1250 C.3   1 <1>   0.3430 
 19 C       -6.0020    -5.3710    -2.2200 C.3   1 <1>   0.2630 
 20 C       -6.6450    -4.0520     1.6860 C.3   1 <1>  -0.1600 
 21 C       -7.7890    -3.2120    -0.3840 C.3   1 <1>   0.1200 
 22 C       -6.1700    -5.5160     1.5530 C.3   1 <1>  -0.1600 
 23 O       -7.6670    -2.7050    -1.6670 O.3   1 <1>  -0.6800 
 24 H       -2.1570     1.2720     3.3610 H     1 <1>   0.1500 
 25 H       -2.2720     0.8110    -1.5610 H     1 <1>   0.1500 
 26 H       -1.5830     2.9560    -0.5230 H     1 <1>   0.1500 
 27 H       -5.3430    -2.6930    -2.2560 H     1 <1>   0.0800 
 28 H       -3.7690    -3.3380    -1.8950 H     1 <1>   0.0800 
 29 H       -5.1870     0.0810     0.1040 H     1 <1>   0.0800 
 30 H       -6.1680    -0.7110    -1.0920 H     1 <1>   0.0800 
 31 H       -4.4460    -3.8670     0.3540 H     1 <1>   0.0800 
 32 H       -5.4030    -1.7450     1.6330 H     1 <1>   0.0800 
 33 H       -6.9880    -1.2430     1.1790 H     1 <1>   0.0800 
 34 H       -4.5090    -5.6660    -0.8370 H     1 <1>   0.4500 
 35 H       -7.3100    -6.0300    -0.1750 H     1 <1>   0.0800 
 36 H       -5.9550    -7.0890     0.1020 H     1 <1>   0.0800 
 37 H       -6.9720    -4.9060    -2.2820 H     1 <1>   0.0800 
 38 H       -6.0990    -6.4080    -2.4970 H     1 <1>   0.0800 
 39 H       -5.3470    -4.8900    -2.9280 H     1 <1>   0.0800 
 40 H       -6.1060    -3.6250     2.5150 H     1 <1>   0.0800 
 41 H       -7.6840    -4.0380     1.9720 H     1 <1>   0.0800 
 42 H       -8.5180    -2.6130     0.1370 H     1 <1>   0.0800 
 43 H       -8.1850    -4.2070    -0.4710 H     1 <1>   0.0800 
 44 H       -6.7520    -6.1370     2.2120 H     1 <1>   0.0800 
 45 H       -5.1450    -5.5960     1.8750 H     1 <1>   0.0800 
 46 H       -8.5450    -2.4520    -2.0260 H     1 <1>   0.4000 
@<TRIPOS>BOND
  1   1   2  1   
  2   2   3  ar  
  3   2   4  ar  
  4   3   5  1   
  5   3   6  ar  
  6   4   7  ar  
  7   4  24  1   
  8   5   8  2   
  9   5   9  am  
 10   6  10  ar  
 11   6  25  1   
 12   7  10  ar  
 13   7  11  1   
 14   9  12  1   
 15   9  13  1   
 16  10  26  1   
 17  12  14  1   
 18  12  27  1   
 19  12  28  1   
 20  13  15  1   
 21  13  29  1   
 22  13  30  1   
 23  14  16  1   
 24  14  17  1   
 25  14  31  1   
 26  15  17  1   
 27  15  32  1   
 28  15  33  1   
 29  16  18  1   
 30  16  19  1   
 31  16  34  1   
 32  17  20  1   
 33  17  21  1   
 34  18  22  1   
 35  18  35  1   
 36  18  36  1   
 37  19  37  1   
 38  19  38  1   
 39  19  39  1   
 40  20  22  1   
 41  20  40  1   
 42  20  41  1   
 43  21  23  1   
 44  21  42  1   
 45  21  43  1   
 46  22  44  1   
 47  22  45  1   
 48  23  46  1   
@<TRIPOS>SUBSTRUCTURE
  1 ****   9 GROUP 4 **** **** 0

# MOE 2024.06 (io_trps.svl 2023.06)
