@<TRIPOS>MOLECULE
NONAME
43 45 1 0 0 
SMALL
USER_CHARGES


@<TRIPOS>ATOM
  1 F        0.2110    -0.5320     0.5280 F     1 <1>  -0.1900 
  2 C       -0.4470    -1.6540     0.3830 C.ar  1 <1>   0.1900 
  3 C        0.1600    -2.8130    -0.1120 C.ar  1 <1>   0.0820 
  4 C       -1.7780    -1.6380     0.7510 C.ar  1 <1>  -0.1500 
  5 O        1.4600    -2.9540    -0.5070 O.3   1 <1>  -0.3630 
  6 C       -0.6220    -3.9520    -0.2220 C.ar  1 <1>  -0.1500 
  7 C       -2.5290    -2.7920     0.6300 C.ar  1 <1>  -0.1500 
  8 C        2.3680    -1.8760    -0.5560 C.3   1 <1>   0.0400 
  9 C       -1.9720    -3.9770     0.1400 C.ar  1 <1>   0.0530 
 10 C       -2.7470    -5.1910     0.0120 C.2   1 <1>   0.0870 
 11 O       -2.1440    -6.3530    -0.0050 O.3   1 <1>  -0.0190 
 12 C       -4.0770    -5.4410    -0.0960 C.2   1 <1>  -0.2330 
 13 N       -2.9750    -7.3540    -0.1130 N.2   1 <1>  -0.4100 
 14 C       -4.1590    -6.8400    -0.1700 C.2   1 <1>   0.3720 
 15 C       -5.1290    -4.4830    -0.1300 C.2   1 <1>   1.0330 
 16 N       -5.3000    -7.6640    -0.3070 N.pl3 1 <1>  -0.8210 
 17 O       -5.3400    -3.8020    -1.1460 O.co2 1 <1>  -0.9000 
 18 O       -5.8350    -4.2860     0.8750 O.co2 1 <1>  -0.9000 
 19 C       -6.6450    -7.0620    -0.0260 C.3   1 <1>   0.2090 
 20 C       -5.1810    -9.0190     0.3140 C.3   1 <1>   0.2090 
 21 C       -7.8030    -8.0560    -0.2660 C.3   1 <1>   0.2000 
 22 C       -6.4040    -9.9060     0.0060 C.3   1 <1>   0.2000 
 23 O       -7.5850    -9.2700     0.3930 O.3   1 <1>  -0.5600 
 24 C       -9.1370    -7.5090     0.2390 C.3   1 <1>  -0.2400 
 25 C       -6.3540   -11.2380     0.7510 C.3   1 <1>  -0.2400 
 26 H       -2.2260    -0.7350     1.1260 H     1 <1>   0.1500 
 27 H       -0.1670    -4.8470    -0.6050 H     1 <1>   0.1500 
 28 H       -3.5650    -2.7680     0.9240 H     1 <1>   0.1500 
 29 H        3.2990    -2.2420    -0.9500 H     1 <1>   0.0800 
 30 H        2.5160    -1.4980     0.4390 H     1 <1>   0.0800 
 31 H        1.9720    -1.1150    -1.2040 H     1 <1>   0.0800 
 32 H       -6.6760    -6.7060     0.9890 H     1 <1>   0.0800 
 33 H       -6.8070    -6.2240    -0.6810 H     1 <1>   0.0800 
 34 H       -4.3010    -9.5100    -0.0630 H     1 <1>   0.0800 
 35 H       -5.0730    -8.9110     1.3800 H     1 <1>   0.0800 
 36 H       -7.8780    -8.2570    -1.3210 H     1 <1>   0.0800 
 37 H       -6.4520   -10.0890    -1.0540 H     1 <1>   0.0800 
 38 H       -9.0840    -7.3290     1.2980 H     1 <1>   0.0800 
 39 H       -9.9230    -8.2110     0.0320 H     1 <1>   0.0800 
 40 H       -9.3620    -6.5820    -0.2560 H     1 <1>   0.0800 
 41 H       -6.3370   -11.0680     1.8130 H     1 <1>   0.0800 
 42 H       -5.4710   -11.7840     0.4720 H     1 <1>   0.0800 
 43 H       -7.2160   -11.8280     0.4990 H     1 <1>   0.0800 
@<TRIPOS>BOND
  1   1   2  1   
  2   2   3  ar  
  3   2   4  ar  
  4   3   5  1   
  5   3   6  ar  
  6   4   7  ar  
  7   4  26  1   
  8   5   8  1   
  9   6   9  ar  
 10   6  27  1   
 11   7   9  ar  
 12   7  28  1   
 13   8  29  1   
 14   8  30  1   
 15   8  31  1   
 16   9  10  1   
 17  10  11  1   
 18  10  12  2   
 19  11  13  1   
 20  12  14  1   
 21  12  15  1   
 22  13  14  2   
 23  14  16  1   
 24  15  17  ar  
 25  15  18  ar  
 26  16  19  1   
 27  16  20  1   
 28  19  21  1   
 29  19  32  1   
 30  19  33  1   
 31  20  22  1   
 32  20  34  1   
 33  20  35  1   
 34  21  23  1   
 35  21  24  1   
 36  21  36  1   
 37  22  23  1   
 38  22  25  1   
 39  22  37  1   
 40  24  38  1   
 41  24  39  1   
 42  24  40  1   
 43  25  41  1   
 44  25  42  1   
 45  25  43  1   
@<TRIPOS>SUBSTRUCTURE
  1 ****  12 GROUP 4 **** **** 0

# MOE 2024.06 (io_trps.svl 2023.06)
