@<TRIPOS>MOLECULE
NONAME
36 37 1 0 0 
SMALL
USER_CHARGES


@<TRIPOS>ATOM
  1 F        0.4420     0.2340     0.2470 F     1 <1>  -0.1900 
  2 C        1.5310     0.9750     0.2310 C.ar  1 <1>   0.1900 
  3 C        2.5780     0.7290    -0.6550 C.ar  1 <1>   0.4100 
  4 C        1.6370     2.0220     1.1030 C.ar  1 <1>   0.1600 
  5 N        3.6460     1.4930    -0.6470 N.ar  1 <1>  -0.6200 
  6 N        2.6310    -0.2740    -1.5940 N.pl3 1 <1>  -0.8690 
  7 N        2.7060     2.7960     1.1220 N.ar  1 <1>  -0.6200 
  8 C        3.6500     2.4730     0.2420 C.ar  1 <1>   0.7200 
  9 C        2.0450    -1.6190    -1.3820 C.3   1 <1>   0.1290 
 10 N        4.7720     3.2300     0.2150 N.pl3 1 <1>  -0.8690 
 11 C        4.7990     4.6240     0.6820 C.3   1 <1>   0.2090 
 12 C        6.1630     5.2280     0.3600 C.3   1 <1>  -0.1600 
 13 C        6.2460     6.6740     0.8610 C.3   1 <1>   0.0960 
 14 N        7.5560     7.2660     0.5180 N.pl3 1 <1>   0.0480 
 15 C        7.9110     7.9790    -0.5810 C.2   1 <1>   0.0070 
 16 C        8.6750     7.2050     1.2620 C.2   1 <1>  -0.3020 
 17 N        9.1460     8.3600    -0.5750 N.2   1 <1>  -0.5650 
 18 C        6.9620     8.3040    -1.7160 C.3   1 <1>  -0.0600 
 19 C        9.6290     7.8750     0.5830 C.2   1 <1>   0.0770 
 20 H        0.8390     2.2300     1.7930 H     1 <1>   0.1500 
 21 H        3.5280    -0.2750    -2.0890 H     1 <1>   0.4000 
 22 H        2.1410    -1.9080    -0.3490 H     1 <1>   0.0800 
 23 H        2.5560    -2.3410    -1.9960 H     1 <1>   0.0800 
 24 H        1.0030    -1.6080    -1.6510 H     1 <1>   0.0800 
 25 H        5.3400     3.0140    -0.6030 H     1 <1>   0.4000 
 26 H        4.6230     4.6420     1.7460 H     1 <1>   0.0800 
 27 H        4.0150     5.1790     0.1940 H     1 <1>   0.0800 
 28 H        6.3170     5.2090    -0.7040 H     1 <1>   0.0800 
 29 H        6.9280     4.6430     0.8400 H     1 <1>   0.0800 
 30 H        6.1290     6.7040     1.9300 H     1 <1>   0.0800 
 31 H        5.4690     7.2700     0.4170 H     1 <1>   0.0800 
 32 H        8.7340     6.7030     2.2090 H     1 <1>   0.1500 
 33 H        6.5650     7.4000    -2.1390 H     1 <1>   0.0800 
 34 H        7.4900     8.8390    -2.4860 H     1 <1>   0.0800 
 35 H        6.1580     8.9210    -1.3610 H     1 <1>   0.0800 
 36 H       10.6550     8.0380     0.8690 H     1 <1>   0.1500 
@<TRIPOS>BOND
  1   1   2  1   
  2   2   3  ar  
  3   2   4  ar  
  4   3   5  ar  
  5   3   6  1   
  6   4   7  ar  
  7   4  20  1   
  8   5   8  ar  
  9   6   9  1   
 10   6  21  1   
 11   7   8  ar  
 12   8  10  1   
 13   9  22  1   
 14   9  23  1   
 15   9  24  1   
 16  10  11  1   
 17  10  25  1   
 18  11  12  1   
 19  11  26  1   
 20  11  27  1   
 21  12  13  1   
 22  12  28  1   
 23  12  29  1   
 24  13  14  1   
 25  13  30  1   
 26  13  31  1   
 27  14  15  1   
 28  14  16  1   
 29  15  17  2   
 30  15  18  1   
 31  16  19  2   
 32  16  32  1   
 33  17  19  1   
 34  18  33  1   
 35  18  34  1   
 36  18  35  1   
 37  19  36  1   
@<TRIPOS>SUBSTRUCTURE
  1 ****  10 GROUP 4 **** **** 0

# MOE 2024.06 (io_trps.svl 2023.06)
