@<TRIPOS>MOLECULE
NONAME
36 38 1 0 0 
SMALL
USER_CHARGES


@<TRIPOS>ATOM
  1 CL       2.7890    -0.3610    -2.3200 Cl    1 <1>  -0.1770 
  2 C        2.6590    -0.5260    -0.5850 C.ar  1 <1>   0.1770 
  3 C        2.6280     0.5930     0.2430 C.ar  1 <1>  -0.1440 
  4 C        2.5750    -1.8120    -0.0770 C.ar  1 <1>  -0.1500 
  5 C        2.4810     0.3900     1.6100 C.ar  1 <1>  -0.1500 
  6 C        2.7230     2.0180    -0.3000 C.3   1 <1>   0.2540 
  7 C        2.4470    -2.0020     1.2890 C.ar  1 <1>  -0.1500 
  8 C        2.3990    -0.8950     2.1160 C.ar  1 <1>   0.1770 
  9 N        4.1030     2.5440    -0.3100 N.3   1 <1>  -0.8100 
 10 CL       2.2360    -1.1200     3.8370 Cl    1 <1>  -0.1770 
 11 C        4.7150     2.6570     1.0380 C.3   1 <1>   0.1100 
 12 C        4.9470     1.9560    -1.3660 C.3   1 <1>   0.1100 
 13 C        6.1240     3.2940     1.0840 C.3   1 <1>   0.2200 
 14 C        6.1730     2.8070    -1.7770 C.3   1 <1>  -0.0190 
 15 N        6.2220     4.4140     0.1090 N.am  1 <1>  -0.7300 
 16 C        7.2250     2.2110     0.9000 C.3   1 <1>   0.1200 
 17 C        6.1760     4.2260    -1.2280 C.2   1 <1>   0.5690 
 18 C        7.5070     2.0990    -1.4730 C.3   1 <1>   0.1200 
 19 O        8.0410     2.4080    -0.2180 O.3   1 <1>  -0.5600 
 20 O        6.1540     5.1670    -1.9840 O.2   1 <1>  -0.5700 
 21 H        2.6060    -2.6530    -0.7470 H     1 <1>   0.1500 
 22 H        2.4300     1.2210     2.2890 H     1 <1>   0.1500 
 23 H        2.1170     2.6670     0.3100 H     1 <1>   0.0800 
 24 H        2.3150     2.0680    -1.2950 H     1 <1>   0.0800 
 25 H        2.3810    -2.9900     1.7090 H     1 <1>   0.1500 
 26 H        4.0670     3.2670     1.6430 H     1 <1>   0.0800 
 27 H        4.7610     1.6880     1.5010 H     1 <1>   0.0800 
 28 H        5.2490     0.9650    -1.0720 H     1 <1>   0.0800 
 29 H        4.3430     1.8530    -2.2510 H     1 <1>   0.0800 
 30 H        6.2540     3.6980     2.0720 H     1 <1>   0.0800 
 31 H        6.1250     2.8880    -2.8470 H     1 <1>   0.0800 
 32 H        6.1900     5.3730     0.4480 H     1 <1>   0.3700 
 33 H        6.8050     1.2220     0.8440 H     1 <1>   0.0800 
 34 H        7.8720     2.2350     1.7580 H     1 <1>   0.0800 
 35 H        8.2400     2.4210    -2.1930 H     1 <1>   0.0800 
 36 H        7.4130     1.0300    -1.5510 H     1 <1>   0.0800 
@<TRIPOS>BOND
  1   1   2  1   
  2   2   3  ar  
  3   2   4  ar  
  4   3   5  ar  
  5   3   6  1   
  6   4   7  ar  
  7   4  21  1   
  8   5   8  ar  
  9   5  22  1   
 10   6   9  1   
 11   6  23  1   
 12   6  24  1   
 13   7   8  ar  
 14   7  25  1   
 15   8  10  1   
 16   9  11  1   
 17   9  12  1   
 18  11  13  1   
 19  11  26  1   
 20  11  27  1   
 21  12  14  1   
 22  12  28  1   
 23  12  29  1   
 24  13  15  1   
 25  13  16  1   
 26  13  30  1   
 27  14  17  1   
 28  14  18  1   
 29  14  31  1   
 30  15  17  am  
 31  15  32  1   
 32  16  19  1   
 33  16  33  1   
 34  16  34  1   
 35  17  20  2   
 36  18  19  1   
 37  18  35  1   
 38  18  36  1   
@<TRIPOS>SUBSTRUCTURE
  1 ****   9 GROUP 4 **** **** 0

# MOE 2024.06 (io_trps.svl 2023.06)
