@<TRIPOS>MOLECULE
NONAME
43 45 1 0 0 
SMALL
USER_CHARGES


@<TRIPOS>ATOM
  1 O        0.3510     1.4050     0.9170 O.3   1 <1>  -0.0190 
  2 N        0.9780     0.5300     1.6490 N.2   1 <1>  -0.4100 
  3 C        1.0640     1.7760    -0.1130 C.2   1 <1>  -0.0400 
  4 C        2.1120     0.3330     1.0780 C.2   1 <1>   0.1080 
  5 C        2.2290     1.1110    -0.0700 C.2   1 <1>  -0.1500 
  6 C        0.5190     2.8020    -1.0870 C.3   1 <1>   0.0200 
  7 C        3.1700    -0.6170     1.5920 C.3   1 <1>  -0.0590 
  8 C        0.2620     4.1460    -0.3910 C.3   1 <1>  -0.0800 
  9 C       -0.1710     5.2360    -1.3620 C.3   1 <1>   0.2000 
 10 C        1.5000     4.7240     0.2960 C.3   1 <1>   0.2090 
 11 O       -1.5400     5.1620    -1.5840 O.3   1 <1>  -0.6800 
 12 C        0.2360     6.5450    -0.6920 C.3   1 <1>   0.2090 
 13 N        1.4080     6.2050     0.1630 N.pl3 1 <1>  -0.8380 
 14 C        2.5870     6.8720    -0.1120 C.ar  1 <1>   0.4100 
 15 N        3.0950     6.6380    -1.3180 N.ar  1 <1>  -0.6200 
 16 C        3.1740     7.7240     0.8350 C.ar  1 <1>   0.0730 
 17 C        4.2190     7.2590    -1.6130 C.ar  1 <1>   0.1670 
 18 C        2.5450     7.9110     2.1080 C.1   1 <1>   0.4840 
 19 C        4.3590     8.3670     0.5040 C.ar  1 <1>  -0.1430 
 20 C        4.8780     8.1180    -0.7510 C.ar  1 <1>  -0.1500 
 21 C        4.7820     6.9840    -2.9910 C.3   1 <1>  -0.0970 
 22 N        2.0910     8.1040     3.1390 N.1   1 <1>  -0.5570 
 23 C        5.0770     9.3120     1.4610 C.3   1 <1>  -0.0970 
 24 H        3.0690     1.1470    -0.7380 H     1 <1>   0.1500 
 25 H        1.2250     2.9350    -1.8880 H     1 <1>   0.0800 
 26 H       -0.3990     2.4330    -1.5100 H     1 <1>   0.0800 
 27 H        3.4060    -1.3450     0.8380 H     1 <1>   0.0800 
 28 H        2.8110    -1.1270     2.4680 H     1 <1>   0.0800 
 29 H        4.0580    -0.0690     1.8480 H     1 <1>   0.0800 
 30 H       -0.4900     4.0190     0.3690 H     1 <1>   0.0800 
 31 H        0.3370     5.1480    -2.3080 H     1 <1>   0.0800 
 32 H        2.3980     4.3700    -0.1830 H     1 <1>   0.0800 
 33 H        1.5270     4.4430     1.3350 H     1 <1>   0.0800 
 34 H       -2.0240     5.2030    -0.7370 H     1 <1>   0.4000 
 35 H       -0.5550     6.9140    -0.0620 H     1 <1>   0.0800 
 36 H        0.4910     7.2860    -1.4300 H     1 <1>   0.0800 
 37 H        5.7930     8.5890    -1.0610 H     1 <1>   0.1500 
 38 H        5.6960     7.5240    -3.1550 H     1 <1>   0.0800 
 39 H        4.0660     7.2780    -3.7360 H     1 <1>   0.0800 
 40 H        4.9760     5.9320    -3.0950 H     1 <1>   0.0800 
 41 H        5.9760     9.7020     1.0180 H     1 <1>   0.0800 
 42 H        5.3440     8.7930     2.3650 H     1 <1>   0.0800 
 43 H        4.4380    10.1400     1.7140 H     1 <1>   0.0800 
@<TRIPOS>BOND
  1   1   2  1   
  2   1   3  1   
  3   2   4  2   
  4   3   5  2   
  5   3   6  1   
  6   4   5  1   
  7   4   7  1   
  8   5  24  1   
  9   6   8  1   
 10   6  25  1   
 11   6  26  1   
 12   7  27  1   
 13   7  28  1   
 14   7  29  1   
 15   8   9  1   
 16   8  10  1   
 17   8  30  1   
 18   9  11  1   
 19   9  12  1   
 20   9  31  1   
 21  10  13  1   
 22  10  32  1   
 23  10  33  1   
 24  11  34  1   
 25  12  13  1   
 26  12  35  1   
 27  12  36  1   
 28  13  14  1   
 29  14  15  ar  
 30  14  16  ar  
 31  15  17  ar  
 32  16  18  1   
 33  16  19  ar  
 34  17  20  ar  
 35  17  21  1   
 36  18  22  3   
 37  19  20  ar  
 38  19  23  1   
 39  20  37  1   
 40  21  38  1   
 41  21  39  1   
 42  21  40  1   
 43  23  41  1   
 44  23  42  1   
 45  23  43  1   
@<TRIPOS>SUBSTRUCTURE
  1 ****  10 GROUP 4 **** **** 0

# MOE 2024.06 (io_trps.svl 2023.06)
