@<TRIPOS>MOLECULE
NONAME
40 41 1 0 0 
SMALL
USER_CHARGES


@<TRIPOS>ATOM
  1 N       -0.6580    -0.3440    -0.5970 N.2   1 <1>  -0.7070 
  2 N       -1.6670     0.4070    -0.1160 N.pl3 1 <1>   0.3140 
  3 C        0.3810     0.4360    -0.5650 C.2   1 <1>   0.1390 
  4 C       -1.2460     1.6480     0.2120 C.2   1 <1>  -0.3320 
  5 C       -3.0330    -0.1300     0.0050 C.3   1 <1>   0.0960 
  6 C        0.0740     1.6950    -0.0670 C.2   1 <1>  -0.1500 
  7 C       -2.1160     2.7550     0.7840 C.3   1 <1>  -0.0600 
  8 C       -3.0280    -1.6040    -0.4220 C.3   1 <1>   0.3430 
  9 N       -4.3630    -2.2830    -0.2920 N.4   1 <1>  -0.9590 
 10 C       -4.1750    -3.7510    -0.4880 C.3   1 <1>   0.3430 
 11 C       -5.3670    -1.7260    -1.2610 C.3   1 <1>   0.2630 
 12 C       -5.3900    -4.5150     0.0300 C.3   1 <1>  -0.1600 
 13 C       -5.2290    -6.0300    -0.1830 C.3   1 <1>   0.0960 
 14 N       -6.4810    -6.7280     0.1580 N.pl3 1 <1>   0.3140 
 15 N       -7.6290    -6.4520    -0.4870 N.2   1 <1>  -0.7070 
 16 C       -6.6630    -7.6710     1.1020 C.2   1 <1>  -0.3020 
 17 C       -8.5120    -7.2320     0.0600 C.2   1 <1>   0.1390 
 18 C       -7.9660    -8.0200     1.0650 C.2   1 <1>  -0.1500 
 19 H        1.3640     0.1350    -0.8880 H     1 <1>   0.1500 
 20 H       -3.6730     0.4520    -0.6290 H     1 <1>   0.0800 
 21 H       -3.3390    -0.0350     1.0300 H     1 <1>   0.0800 
 22 H        0.7660     2.5090     0.0550 H     1 <1>   0.1500 
 23 H       -2.5410     2.4530     1.7250 H     1 <1>   0.0800 
 24 H       -2.9080     3.0030     0.1000 H     1 <1>   0.0800 
 25 H       -1.5250     3.6390     0.9500 H     1 <1>   0.0800 
 26 H       -2.3050    -2.1200     0.1910 H     1 <1>   0.0800 
 27 H       -2.6890    -1.6640    -1.4440 H     1 <1>   0.0800 
 28 H       -4.7120    -2.1460     0.6690 H     1 <1>   0.4500 
 29 H       -3.3000    -4.0800     0.0510 H     1 <1>   0.0800 
 30 H       -4.0240    -3.9650    -1.5350 H     1 <1>   0.0800 
 31 H       -5.0330    -1.8770    -2.2750 H     1 <1>   0.0800 
 32 H       -5.5060    -0.6700    -1.0980 H     1 <1>   0.0800 
 33 H       -6.3220    -2.2120    -1.1400 H     1 <1>   0.0800 
 34 H       -6.2690    -4.1940    -0.5010 H     1 <1>   0.0800 
 35 H       -5.5250    -4.3260     1.0810 H     1 <1>   0.0800 
 36 H       -4.4360    -6.4220     0.4280 H     1 <1>   0.0800 
 37 H       -5.0120    -6.2440    -1.2140 H     1 <1>   0.0800 
 38 H       -5.8770    -8.0410     1.7360 H     1 <1>   0.1500 
 39 H       -9.5480    -7.2570    -0.2380 H     1 <1>   0.1500 
 40 H       -8.4940    -8.7410     1.6630 H     1 <1>   0.1500 
@<TRIPOS>BOND
  1   1   2  1   
  2   1   3  2   
  3   2   4  1   
  4   2   5  1   
  5   3   6  1   
  6   3  19  1   
  7   4   6  2   
  8   4   7  1   
  9   5   8  1   
 10   5  20  1   
 11   5  21  1   
 12   6  22  1   
 13   7  23  1   
 14   7  24  1   
 15   7  25  1   
 16   8   9  1   
 17   8  26  1   
 18   8  27  1   
 19   9  10  1   
 20   9  11  1   
 21   9  28  1   
 22  10  12  1   
 23  10  29  1   
 24  10  30  1   
 25  11  31  1   
 26  11  32  1   
 27  11  33  1   
 28  12  13  1   
 29  12  34  1   
 30  12  35  1   
 31  13  14  1   
 32  13  36  1   
 33  13  37  1   
 34  14  15  1   
 35  14  16  1   
 36  15  17  2   
 37  16  18  2   
 38  16  38  1   
 39  17  18  1   
 40  17  39  1   
 41  18  40  1   
@<TRIPOS>SUBSTRUCTURE
  1 ****   9 GROUP 4 **** **** 0

# MOE 2024.06 (io_trps.svl 2023.06)
