@<TRIPOS>MOLECULE
NONAME
55 57 1 0 0 
SMALL
USER_CHARGES


@<TRIPOS>ATOM
  1 O        0.9620    -0.2720    -3.1870 O.2   1 <1>  -0.5700 
  2 C        1.2040    -1.0120    -2.2600 C.2   1 <1>   0.5690 
  3 N        1.8910    -0.6170    -1.1490 N.am  1 <1>  -0.4930 
  4 C        0.7560    -2.4760    -2.3320 C.3   1 <1>   0.1710 
  5 C        2.4300     0.6580    -0.8420 C.2   1 <1>   0.0630 
  6 N       -0.5430    -2.8370    -1.6800 N.3   1 <1>  -0.8100 
  7 C        2.8560     1.0960     0.3640 C.2   1 <1>  -0.3320 
  8 C        2.6520     1.7310    -1.7060 C.2   1 <1>   0.1390 
  9 C       -0.7090    -4.3090    -1.6280 C.3   1 <1>   0.1100 
 10 C       -0.8470    -2.0900    -0.4500 C.3   1 <1>   0.1100 
 11 N        3.3080     2.3620     0.1760 N.pl3 1 <1>   0.3140 
 12 C        2.8530     0.3960     1.7150 C.3   1 <1>  -0.0600 
 13 N        3.1820     2.7520    -1.1010 N.2   1 <1>  -0.7070 
 14 C       -1.1310    -4.8920    -0.2570 C.3   1 <1>   0.0000 
 15 C       -2.1670    -2.5390     0.1780 C.3   1 <1>  -0.1600 
 16 C        3.8720     3.2660     1.1860 C.3   1 <1>   0.0160 
 17 C       -2.3660    -4.0620     0.1830 C.3   1 <1>   0.2000 
 18 C       -1.6510    -6.3390    -0.4720 C.3   1 <1>   0.1200 
 19 C        0.0050    -4.9020     0.8310 C.3   1 <1>  -0.0170 
 20 O       -2.8140    -4.4590     1.4340 O.3   1 <1>  -0.6800 
 21 O       -0.6970    -7.1570    -1.0640 O.3   1 <1>  -0.6800 
 22 C        1.4480    -4.6190     0.3950 C.ar  1 <1>  -0.1440 
 23 C        2.1130    -3.4950     0.8680 C.ar  1 <1>  -0.1500 
 24 C        2.1290    -5.4880    -0.4450 C.ar  1 <1>  -0.1500 
 25 C        3.4110    -3.2180     0.4710 C.ar  1 <1>  -0.1500 
 26 C        3.4250    -5.2130    -0.8480 C.ar  1 <1>  -0.1500 
 27 C        4.0640    -4.0740    -0.3960 C.ar  1 <1>  -0.1500 
 28 H        2.0580    -1.3410    -0.4520 H     1 <1>   0.3700 
 29 H        1.5430    -3.0680    -1.9010 H     1 <1>   0.0800 
 30 H        0.6940    -2.7430    -3.3720 H     1 <1>   0.0800 
 31 H        2.4150     1.7200    -2.7560 H     1 <1>   0.1500 
 32 H       -1.4770    -4.5500    -2.3440 H     1 <1>   0.0800 
 33 H        0.1810    -4.8020    -1.9740 H     1 <1>   0.0800 
 34 H       -0.0540    -2.2170     0.2590 H     1 <1>   0.0800 
 35 H       -0.9180    -1.0380    -0.6780 H     1 <1>   0.0800 
 36 H        2.3420    -0.5450     1.6520 H     1 <1>   0.0800 
 37 H        2.3470     1.0030     2.4450 H     1 <1>   0.0800 
 38 H        3.8620     0.2220     2.0440 H     1 <1>   0.0800 
 39 H       -2.9640    -2.1010    -0.3960 H     1 <1>   0.0800 
 40 H       -2.2300    -2.1350     1.1720 H     1 <1>   0.0800 
 41 H        4.7050     2.7870     1.6650 H     1 <1>   0.0800 
 42 H        3.1150     3.5030     1.9090 H     1 <1>   0.0800 
 43 H        4.2040     4.1680     0.7040 H     1 <1>   0.0800 
 44 H       -3.1700    -4.2740    -0.5030 H     1 <1>   0.0800 
 45 H       -2.5230    -6.3480    -1.1030 H     1 <1>   0.0800 
 46 H       -1.9200    -6.7830     0.4720 H     1 <1>   0.0800 
 47 H       -0.2380    -4.1890     1.5950 H     1 <1>   0.0800 
 48 H        0.0080    -5.8560     1.3290 H     1 <1>   0.0800 
 49 H       -2.1860    -4.1850     2.1270 H     1 <1>   0.4000 
 50 H       -0.6220    -6.9690    -2.0190 H     1 <1>   0.4000 
 51 H        1.6260    -2.8340     1.5610 H     1 <1>   0.1500 
 52 H        1.6570    -6.3890    -0.7900 H     1 <1>   0.1500 
 53 H        3.9230    -2.3460     0.8390 H     1 <1>   0.1500 
 54 H        3.9360    -5.8920    -1.5080 H     1 <1>   0.1500 
 55 H        5.0720    -3.8620    -0.7090 H     1 <1>   0.1500 
@<TRIPOS>BOND
  1   1   2  2   
  2   2   3  am  
  3   2   4  1   
  4   3   5  1   
  5   3  28  1   
  6   4   6  1   
  7   4  29  1   
  8   4  30  1   
  9   5   7  2   
 10   5   8  1   
 11   6   9  1   
 12   6  10  1   
 13   7  11  1   
 14   7  12  1   
 15   8  13  2   
 16   8  31  1   
 17   9  14  1   
 18   9  32  1   
 19   9  33  1   
 20  10  15  1   
 21  10  34  1   
 22  10  35  1   
 23  11  13  1   
 24  11  16  1   
 25  12  36  1   
 26  12  37  1   
 27  12  38  1   
 28  14  17  1   
 29  14  18  1   
 30  14  19  1   
 31  15  17  1   
 32  15  39  1   
 33  15  40  1   
 34  16  41  1   
 35  16  42  1   
 36  16  43  1   
 37  17  20  1   
 38  17  44  1   
 39  18  21  1   
 40  18  45  1   
 41  18  46  1   
 42  19  22  1   
 43  19  47  1   
 44  19  48  1   
 45  20  49  1   
 46  21  50  1   
 47  22  23  ar  
 48  22  24  ar  
 49  23  25  ar  
 50  23  51  1   
 51  24  26  ar  
 52  24  52  1   
 53  25  27  ar  
 54  25  53  1   
 55  26  27  ar  
 56  26  54  1   
 57  27  55  1   
@<TRIPOS>SUBSTRUCTURE
  1 ****   4 GROUP 4 **** **** 0

# MOE 2024.06 (io_trps.svl 2023.06)
