@<TRIPOS>MOLECULE
NONAME
41 43 1 0 0 
SMALL
USER_CHARGES


@<TRIPOS>ATOM
  1 O       -0.2070    -0.8380    -1.6950 O.co2 1 <1>  -0.9000 
  2 C       -0.1370    -2.0520    -1.4500 C.2   1 <1>   1.0330 
  3 O       -1.1530    -2.7490    -1.6480 O.co2 1 <1>  -0.9000 
  4 C        1.0650    -2.6450    -0.9400 C.2   1 <1>  -0.2330 
  5 C        1.3280    -4.0140    -0.9610 C.2   1 <1>   0.3720 
  6 C        2.1800    -2.1250    -0.3550 C.2   1 <1>   0.0870 
  7 N        2.4750    -4.2890    -0.4500 N.2   1 <1>  -0.4100 
  8 N        0.4540    -4.9670    -1.4610 N.pl3 1 <1>  -0.8520 
  9 O        2.9760    -3.1370    -0.0950 O.3   1 <1>  -0.0190 
 10 C        2.6070    -0.7970     0.0210 C.ar  1 <1>   0.0530 
 11 C        0.0570    -6.0210    -0.5190 C.3   1 <1>   0.2890 
 12 C        1.7100     0.1910     0.4250 C.ar  1 <1>  -0.1500 
 13 C        3.9620    -0.4600     0.0170 C.ar  1 <1>  -0.1500 
 14 C        0.6440    -7.3390    -1.0340 C.3   1 <1>  -0.1600 
 15 C       -1.4720    -5.9960    -0.4050 C.3   1 <1>  -0.1600 
 16 C        2.1380     1.4490     0.8040 C.ar  1 <1>  -0.1500 
 17 C        4.4000     0.7960     0.3970 C.ar  1 <1>  -0.1500 
 18 C        0.2550    -8.5930    -0.2300 C.3   1 <1>  -0.1600 
 19 C       -1.9910    -6.8360     0.7740 C.3   1 <1>  -0.1600 
 20 C        3.4870     1.7560     0.7930 C.ar  1 <1>  -0.1500 
 21 C       -1.2060    -9.0050    -0.4630 C.3   1 <1>  -0.1600 
 22 C       -2.2280    -8.3220     0.4590 C.3   1 <1>  -0.1600 
 23 H       -0.3990    -4.4360    -1.7380 H     1 <1>   0.4000 
 24 H        0.4780    -5.8080     0.4500 H     1 <1>   0.0800 
 25 H        0.6570    -0.0320     0.4370 H     1 <1>   0.1500 
 26 H        4.6800    -1.1980    -0.2930 H     1 <1>   0.1500 
 27 H        1.7150    -7.2410    -1.0070 H     1 <1>   0.0800 
 28 H        0.3600    -7.4700    -2.0630 H     1 <1>   0.0800 
 29 H       -1.9260    -6.3080    -1.3280 H     1 <1>   0.0800 
 30 H       -1.7660    -4.9760    -0.2250 H     1 <1>   0.0800 
 31 H        1.4150     2.1880     1.1020 H     1 <1>   0.1500 
 32 H        5.4510     1.0260     0.3830 H     1 <1>   0.1500 
 33 H        0.4520    -8.4500     0.8180 H     1 <1>   0.0800 
 34 H        0.8840    -9.3980    -0.5680 H     1 <1>   0.0800 
 35 H       -2.9250    -6.4170     1.1050 H     1 <1>   0.0800 
 36 H       -1.3050    -6.7480     1.5990 H     1 <1>   0.0800 
 37 H        3.8200     2.7350     1.0870 H     1 <1>   0.1500 
 38 H       -1.2910   -10.0680    -0.3150 H     1 <1>   0.0800 
 39 H       -1.4700    -8.8150    -1.4890 H     1 <1>   0.0800 
 40 H       -3.1990    -8.4250     0.0060 H     1 <1>   0.0800 
 41 H       -2.2620    -8.8550     1.3940 H     1 <1>   0.0800 
@<TRIPOS>BOND
  1   1   2  ar  
  2   2   3  ar  
  3   2   4  1   
  4   4   5  1   
  5   4   6  2   
  6   5   7  2   
  7   5   8  1   
  8   6   9  1   
  9   6  10  1   
 10   7   9  1   
 11   8  11  1   
 12   8  23  1   
 13  10  12  ar  
 14  10  13  ar  
 15  11  14  1   
 16  11  15  1   
 17  11  24  1   
 18  12  16  ar  
 19  12  25  1   
 20  13  17  ar  
 21  13  26  1   
 22  14  18  1   
 23  14  27  1   
 24  14  28  1   
 25  15  19  1   
 26  15  29  1   
 27  15  30  1   
 28  16  20  ar  
 29  16  31  1   
 30  17  20  ar  
 31  17  32  1   
 32  18  21  1   
 33  18  33  1   
 34  18  34  1   
 35  19  22  1   
 36  19  35  1   
 37  19  36  1   
 38  20  37  1   
 39  21  22  1   
 40  21  38  1   
 41  21  39  1   
 42  22  40  1   
 43  22  41  1   
@<TRIPOS>SUBSTRUCTURE
  1 ****   5 GROUP 4 **** **** 0

# MOE 2024.06 (io_trps.svl 2023.06)
