@<TRIPOS>MOLECULE
NONAME
46 49 1 0 0 
SMALL
USER_CHARGES


@<TRIPOS>ATOM
  1 O       -2.0250     0.1980     1.1790 O.2   1 <1>  -0.5700 
  2 C       -1.9590     0.5000     0.0140 C.2   1 <1>   0.5690 
  3 N       -2.0350    -0.4170    -0.9900 N.am  1 <1>  -0.7300 
  4 C       -1.8080     1.9650    -0.3630 C.3   1 <1>  -0.0190 
  5 C       -2.1430    -1.9060    -0.9150 C.3   1 <1>   0.2200 
  6 C       -0.5720     2.6470     0.2540 C.3   1 <1>  -0.0170 
  7 C       -3.0120     2.8330     0.0510 C.3   1 <1>  -0.0170 
  8 C       -3.5640    -2.4400    -0.7910 C.3   1 <1>  -0.0800 
  9 C       -1.4260    -2.6100     0.2370 C.3   1 <1>   0.1200 
 10 C       -1.0170     4.0850     0.3710 C.ar  1 <1>  -0.1440 
 11 C       -2.3820     4.1890     0.2580 C.ar  1 <1>  -0.1440 
 12 C       -3.2870    -3.8680    -0.3060 C.3   1 <1>   0.1200 
 13 C       -4.4560    -1.6700     0.2080 C.3   1 <1>  -0.0170 
 14 O       -2.0670    -3.8450     0.3760 O.3   1 <1>  -0.5600 
 15 C       -0.2360     5.2080     0.5660 C.ar  1 <1>  -0.1500 
 16 C       -3.0060     5.4200     0.3360 C.ar  1 <1>  -0.1500 
 17 C       -5.8400    -2.2920     0.3290 C.ar  1 <1>  -0.1440 
 18 C       -0.8520     6.4470     0.6450 C.ar  1 <1>  -0.1500 
 19 C       -2.2310     6.5530     0.5300 C.ar  1 <1>  -0.1500 
 20 C       -6.7830    -2.1770    -0.6720 C.ar  1 <1>  -0.1500 
 21 C       -6.2240    -3.0010     1.4490 C.ar  1 <1>  -0.1500 
 22 C       -8.0270    -2.7650    -0.5120 C.ar  1 <1>   0.1600 
 23 C       -7.4940    -3.5500     1.5090 C.ar  1 <1>   0.1600 
 24 N       -8.4040    -3.4520     0.5540 N.ar  1 <1>  -0.6200 
 25 H       -2.0090    -0.0660    -1.9470 H     1 <1>   0.3700 
 26 H       -1.7120     2.0470    -1.4300 H     1 <1>   0.0800 
 27 H       -1.7160    -2.3030    -1.8200 H     1 <1>   0.0800 
 28 H        0.2950     2.5440    -0.3730 H     1 <1>   0.0800 
 29 H       -0.3640     2.2620     1.2370 H     1 <1>   0.0800 
 30 H       -3.4330     2.4940     0.9820 H     1 <1>   0.0800 
 31 H       -3.7700     2.8540    -0.7110 H     1 <1>   0.0800 
 32 H       -4.0440    -2.4690    -1.7520 H     1 <1>   0.0800 
 33 H       -1.5370    -2.0970     1.1730 H     1 <1>   0.0800 
 34 H       -0.3860    -2.7790     0.0260 H     1 <1>   0.0800 
 35 H       -3.1740    -4.5360    -1.1420 H     1 <1>   0.0800 
 36 H       -4.0460    -4.2530     0.3520 H     1 <1>   0.0800 
 37 H       -4.5730    -0.6520    -0.1160 H     1 <1>   0.0800 
 38 H       -3.9850    -1.6460     1.1760 H     1 <1>   0.0800 
 39 H        0.8330     5.1230     0.6560 H     1 <1>   0.1500 
 40 H       -4.0750     5.4970     0.2490 H     1 <1>   0.1500 
 41 H       -0.2580     7.3310     0.7960 H     1 <1>   0.1500 
 42 H       -2.7020     7.5180     0.5940 H     1 <1>   0.1500 
 43 H       -6.5640    -1.6350    -1.5740 H     1 <1>   0.1500 
 44 H       -5.5470    -3.1310     2.2740 H     1 <1>   0.1500 
 45 H       -8.7500    -2.6660    -1.3030 H     1 <1>   0.1500 
 46 H       -7.7740    -4.1010     2.3910 H     1 <1>   0.1500 
@<TRIPOS>BOND
  1   1   2  2   
  2   2   3  am  
  3   2   4  1   
  4   3   5  1   
  5   3  25  1   
  6   4   6  1   
  7   4   7  1   
  8   4  26  1   
  9   5   8  1   
 10   5   9  1   
 11   5  27  1   
 12   6  10  1   
 13   6  28  1   
 14   6  29  1   
 15   7  11  1   
 16   7  30  1   
 17   7  31  1   
 18   8  12  1   
 19   8  13  1   
 20   8  32  1   
 21   9  14  1   
 22   9  33  1   
 23   9  34  1   
 24  10  11  ar  
 25  10  15  ar  
 26  11  16  ar  
 27  12  14  1   
 28  12  35  1   
 29  12  36  1   
 30  13  17  1   
 31  13  37  1   
 32  13  38  1   
 33  15  18  ar  
 34  15  39  1   
 35  16  19  ar  
 36  16  40  1   
 37  17  20  ar  
 38  17  21  ar  
 39  18  19  ar  
 40  18  41  1   
 41  19  42  1   
 42  20  22  ar  
 43  20  43  1   
 44  21  23  ar  
 45  21  44  1   
 46  22  24  ar  
 47  22  45  1   
 48  23  24  ar  
 49  23  46  1   
@<TRIPOS>SUBSTRUCTURE
  1 ****   2 GROUP 4 **** **** 0

# MOE 2024.06 (io_trps.svl 2023.06)
