@<TRIPOS>MOLECULE
NONAME
43 45 1 0 0 
SMALL
USER_CHARGES


@<TRIPOS>ATOM
  1 S        0.0580    -0.3770    -0.3400 S.3   1 <1>  -0.4600 
  2 C       -1.3360     0.6330     0.2520 C.3   1 <1>   0.2510 
  3 C       -0.8020    -1.9660    -0.5190 C.3   1 <1>   0.2510 
  4 C       -2.4840    -0.3480     0.2690 C.2   1 <1>   0.1080 
  5 C       -2.2240    -1.6470    -0.1160 C.2   1 <1>  -0.1810 
  6 N       -3.7190    -0.1550     0.5990 N.2   1 <1>  -0.7070 
  7 C       -3.4060    -2.3020    -0.0060 C.2   1 <1>  -0.0880 
  8 N       -4.3050    -1.3650     0.4360 N.pl3 1 <1>   0.3140 
  9 N       -3.6210    -3.6690    -0.3140 N.am  1 <1>  -0.4940 
 10 C       -5.7520    -1.4820     0.6570 C.3   1 <1>   0.0160 
 11 C       -4.4660    -4.5870     0.2620 C.2   1 <1>   0.5690 
 12 O       -5.2550    -4.3020     1.1330 O.2   1 <1>  -0.5700 
 13 C       -4.4280    -6.0660    -0.2060 C.3   1 <1>   0.4840 
 14 N       -5.7400    -6.8100    -0.0120 N.4   1 <1>  -0.9590 
 15 C       -3.3080    -6.8000     0.5520 C.3   1 <1>  -0.1600 
 16 C       -5.6700    -8.2530    -0.3970 C.3   1 <1>   0.3430 
 17 C       -6.8770    -6.1170    -0.6820 C.3   1 <1>   0.3430 
 18 C       -3.2090    -8.2840     0.1820 C.3   1 <1>  -0.1600 
 19 C       -4.5660    -8.9630     0.3830 C.3   1 <1>  -0.1600 
 20 C       -8.1940    -6.5770    -0.0670 C.3   1 <1>  -0.2400 
 21 H       -1.4990     1.4350    -0.4430 H     1 <1>   0.0800 
 22 H       -1.1020     0.9980     1.2350 H     1 <1>   0.0800 
 23 H       -0.3350    -2.6710     0.1460 H     1 <1>   0.0800 
 24 H       -0.7200    -2.2710    -1.5470 H     1 <1>   0.0800 
 25 H       -2.9460    -4.0250    -0.9930 H     1 <1>   0.3700 
 26 H       -6.2010    -0.5100     0.5710 H     1 <1>   0.0800 
 27 H       -5.9250    -1.8670     1.6440 H     1 <1>   0.0800 
 28 H       -6.1760    -2.1390    -0.0770 H     1 <1>   0.0800 
 29 H       -4.1880    -6.0730    -1.2550 H     1 <1>   0.0800 
 30 H       -5.9260    -6.7460     1.0000 H     1 <1>   0.4500 
 31 H       -3.4790    -6.7050     1.6120 H     1 <1>   0.0800 
 32 H       -2.3650    -6.3260     0.3430 H     1 <1>   0.0800 
 33 H       -5.4730    -8.3380    -1.4540 H     1 <1>   0.0800 
 34 H       -6.6110    -8.7380    -0.1920 H     1 <1>   0.0800 
 35 H       -6.8700    -6.3180    -1.7410 H     1 <1>   0.0800 
 36 H       -6.7960    -5.0510    -0.5390 H     1 <1>   0.0800 
 37 H       -2.4680    -8.7650     0.7990 H     1 <1>   0.0800 
 38 H       -2.8980    -8.3870    -0.8450 H     1 <1>   0.0800 
 39 H       -4.5050    -9.9850     0.0500 H     1 <1>   0.0800 
 40 H       -4.8210    -8.9820     1.4290 H     1 <1>   0.0800 
 41 H       -8.3850    -7.6160    -0.2630 H     1 <1>   0.0800 
 42 H       -8.9990    -6.0120    -0.5030 H     1 <1>   0.0800 
 43 H       -8.2020    -6.3970     0.9930 H     1 <1>   0.0800 
@<TRIPOS>BOND
  1   1   2  1   
  2   1   3  1   
  3   2   4  1   
  4   2  21  1   
  5   2  22  1   
  6   3   5  1   
  7   3  23  1   
  8   3  24  1   
  9   4   5  1   
 10   4   6  2   
 11   5   7  2   
 12   6   8  1   
 13   7   8  1   
 14   7   9  1   
 15   8  10  1   
 16   9  11  am  
 17   9  25  1   
 18  10  26  1   
 19  10  27  1   
 20  10  28  1   
 21  11  12  2   
 22  11  13  1   
 23  13  14  1   
 24  13  15  1   
 25  13  29  1   
 26  14  16  1   
 27  14  17  1   
 28  14  30  1   
 29  15  18  1   
 30  15  31  1   
 31  15  32  1   
 32  16  19  1   
 33  16  33  1   
 34  16  34  1   
 35  17  20  1   
 36  17  35  1   
 37  17  36  1   
 38  18  19  1   
 39  18  37  1   
 40  18  38  1   
 41  19  39  1   
 42  19  40  1   
 43  20  41  1   
 44  20  42  1   
 45  20  43  1   
@<TRIPOS>SUBSTRUCTURE
  1 ****   9 GROUP 4 **** **** 0

# MOE 2024.06 (io_trps.svl 2023.06)
