@<TRIPOS>MOLECULE
NONAME
35 37 1 0 0 
SMALL
USER_CHARGES


@<TRIPOS>ATOM
  1 S       -0.2110    -0.2310     0.5790 S.3   1 <1>  -0.0800 
  2 C       -1.5210    -0.9330    -0.2990 C.2   1 <1>   0.4420 
  3 C       -0.5280     1.2740    -0.2380 C.2   1 <1>   0.3250 
  4 N       -2.0790    -0.0890    -1.0870 N.2   1 <1>  -0.3380 
  5 N       -1.7900    -2.2580    -0.0560 N.am  1 <1>  -0.4940 
  6 N       -1.5190     1.1510    -1.0500 N.2   1 <1>  -0.3380 
  7 C        0.2800     2.4410     0.0390 C.ar  1 <1>   0.0530 
  8 C       -2.7510    -3.0810    -0.5700 C.2   1 <1>   0.5690 
  9 C        1.3400     2.4450     0.9520 C.ar  1 <1>  -0.1500 
 10 C        0.0170     3.6430    -0.6210 C.ar  1 <1>  -0.1500 
 11 O       -3.5870    -2.7280    -1.3640 O.2   1 <1>  -0.5700 
 12 C       -2.7400    -4.5360    -0.0850 C.3   1 <1>   0.2610 
 13 C        2.0890     3.5820     1.1890 C.ar  1 <1>  -0.1500 
 14 C        0.7630     4.7830    -0.3870 C.ar  1 <1>  -0.1500 
 15 O       -1.7660    -4.7470     0.9050 O.3   1 <1>  -0.5600 
 16 C       -2.3860    -5.5500    -1.1670 C.3   1 <1>  -0.1600 
 17 C        1.8070     4.7610     0.5210 C.ar  1 <1>  -0.1430 
 18 C       -1.4810    -6.1060     0.9970 C.3   1 <1>   0.1200 
 19 C       -1.7350    -6.6870    -0.3920 C.3   1 <1>  -0.1600 
 20 C        2.6210     6.0180     0.7710 C.3   1 <1>  -0.0970 
 21 H       -1.1930    -2.7350     0.6220 H     1 <1>   0.3700 
 22 H        1.5950     1.5530     1.4940 H     1 <1>   0.1500 
 23 H       -0.7900     3.6850    -1.3320 H     1 <1>   0.1500 
 24 H       -3.6970    -4.7720     0.3460 H     1 <1>   0.0800 
 25 H        2.8970     3.5470     1.8990 H     1 <1>   0.1500 
 26 H        0.5290     5.6900    -0.9160 H     1 <1>   0.1500 
 27 H       -1.6810    -5.1140    -1.8550 H     1 <1>   0.0800 
 28 H       -3.2590    -5.8620    -1.7120 H     1 <1>   0.0800 
 29 H       -2.1440    -6.5390     1.7270 H     1 <1>   0.0800 
 30 H       -0.4580    -6.2280     1.3110 H     1 <1>   0.0800 
 31 H       -0.8120    -6.9950    -0.8530 H     1 <1>   0.0800 
 32 H       -2.3890    -7.5390    -0.3190 H     1 <1>   0.0800 
 33 H        3.3900     5.8400     1.5010 H     1 <1>   0.0800 
 34 H        1.9800     6.8020     1.1320 H     1 <1>   0.0800 
 35 H        3.0840     6.3410    -0.1440 H     1 <1>   0.0800 
@<TRIPOS>BOND
  1   1   2  1   
  2   1   3  1   
  3   2   4  2   
  4   2   5  1   
  5   3   6  2   
  6   3   7  1   
  7   4   6  1   
  8   5   8  am  
  9   5  21  1   
 10   7   9  ar  
 11   7  10  ar  
 12   8  11  2   
 13   8  12  1   
 14   9  13  ar  
 15   9  22  1   
 16  10  14  ar  
 17  10  23  1   
 18  12  15  1   
 19  12  16  1   
 20  12  24  1   
 21  13  17  ar  
 22  13  25  1   
 23  14  17  ar  
 24  14  26  1   
 25  15  18  1   
 26  16  19  1   
 27  16  27  1   
 28  16  28  1   
 29  17  20  1   
 30  18  19  1   
 31  18  29  1   
 32  18  30  1   
 33  19  31  1   
 34  19  32  1   
 35  20  33  1   
 36  20  34  1   
 37  20  35  1   
@<TRIPOS>SUBSTRUCTURE
  1 ****   1 GROUP 4 **** **** 0

# MOE 2024.06 (io_trps.svl 2023.06)
