@<TRIPOS>MOLECULE
NONAME
48 50 1 0 0 
SMALL
USER_CHARGES


@<TRIPOS>ATOM
  1 CL      -3.8710     0.2540     2.4410 Cl    1 <1>  -0.1770 
  2 C       -3.6010    -0.7540     1.0370 C.ar  1 <1>   0.1770 
  3 C       -3.1860    -0.2050    -0.1650 C.ar  1 <1>   0.1900 
  4 C       -3.8050    -2.1170     1.1320 C.ar  1 <1>  -0.1500 
  5 F       -2.9910     1.0860    -0.2630 F     1 <1>  -0.1900 
  6 C       -2.9680    -0.9920    -1.2810 C.ar  1 <1>  -0.1500 
  7 C       -3.5930    -2.9250     0.0230 C.ar  1 <1>   0.0830 
  8 C       -3.1730    -2.3600    -1.1840 C.ar  1 <1>  -0.1500 
  9 O       -3.8160    -4.2500     0.1940 O.3   1 <1>  -0.3630 
 10 C       -3.7200    -5.1660    -0.8880 C.3   1 <1>   0.1810 
 11 C       -4.0600    -6.5900    -0.4510 C.2   1 <1>   0.5690 
 12 O       -3.2420    -7.4500    -0.6880 O.2   1 <1>  -0.5700 
 13 N       -5.2600    -6.9070     0.1390 N.am  1 <1>  -0.6600 
 14 C       -5.5320    -8.2800     0.6620 C.3   1 <1>   0.1400 
 15 C       -6.4390    -5.9980     0.2400 C.3   1 <1>   0.1400 
 16 C       -6.6680    -8.9200    -0.1680 C.3   1 <1>   0.4230 
 17 C       -7.5990    -6.6150    -0.5570 C.3   1 <1>  -0.1600 
 18 N       -6.9760   -10.3450     0.1940 N.4   1 <1>  -0.9590 
 19 C       -7.9450    -8.0540    -0.0740 C.3   1 <1>  -0.1060 
 20 C       -7.9800   -10.9480    -0.7200 C.3   1 <1>   0.3430 
 21 C       -5.7940   -11.2230     0.4040 C.3   1 <1>   0.2630 
 22 C       -8.4260    -8.0340     1.3900 C.2   1 <1>   0.9060 
 23 C       -9.0360    -8.6430    -1.0000 C.3   1 <1>  -0.1600 
 24 C       -9.2750   -10.1330    -0.7080 C.3   1 <1>  -0.1600 
 25 O       -8.2210    -9.0300     2.1030 O.co2 1 <1>  -0.9000 
 26 O       -8.9940    -7.0350     1.8270 O.co2 1 <1>  -0.9000 
 27 H       -4.1280    -2.5530     2.0610 H     1 <1>   0.1500 
 28 H       -2.6440    -0.5400    -2.2020 H     1 <1>   0.1500 
 29 H       -2.9970    -2.9650    -2.0540 H     1 <1>   0.1500 
 30 H       -4.3990    -4.8560    -1.6600 H     1 <1>   0.0800 
 31 H       -2.7110    -5.1420    -1.2560 H     1 <1>   0.0800 
 32 H       -4.6400    -8.8740     0.5920 H     1 <1>   0.0800 
 33 H       -5.8100    -8.2110     1.7000 H     1 <1>   0.0800 
 34 H       -6.7160    -5.8850     1.2760 H     1 <1>   0.0800 
 35 H       -6.2180    -5.0200    -0.1470 H     1 <1>   0.0800 
 36 H       -6.3380    -8.9080    -1.1920 H     1 <1>   0.0800 
 37 H       -8.4630    -5.9820    -0.4460 H     1 <1>   0.0800 
 38 H       -7.3360    -6.6190    -1.6000 H     1 <1>   0.0800 
 39 H       -7.4700   -10.2070     1.1190 H     1 <1>   0.4500 
 40 H       -7.5830   -10.9780    -1.7210 H     1 <1>   0.0800 
 41 H       -8.1970   -11.9570    -0.4070 H     1 <1>   0.0800 
 42 H       -5.2100   -11.2870    -0.5000 H     1 <1>   0.0800 
 43 H       -6.1140   -12.2120     0.6870 H     1 <1>   0.0800 
 44 H       -5.1750   -10.8300     1.1930 H     1 <1>   0.0800 
 45 H       -9.9550    -8.0990    -0.8580 H     1 <1>   0.0800 
 46 H       -8.7420    -8.5310    -2.0290 H     1 <1>   0.0800 
 47 H       -9.9530   -10.5360    -1.4390 H     1 <1>   0.0800 
 48 H       -9.7470   -10.2430     0.2550 H     1 <1>   0.0800 
@<TRIPOS>BOND
  1   1   2  1   
  2   2   3  ar  
  3   2   4  ar  
  4   3   5  1   
  5   3   6  ar  
  6   4   7  ar  
  7   4  27  1   
  8   6   8  ar  
  9   6  28  1   
 10   7   8  ar  
 11   7   9  1   
 12   8  29  1   
 13   9  10  1   
 14  10  11  1   
 15  10  30  1   
 16  10  31  1   
 17  11  12  2   
 18  11  13  am  
 19  13  14  1   
 20  13  15  1   
 21  14  16  1   
 22  14  32  1   
 23  14  33  1   
 24  15  17  1   
 25  15  34  1   
 26  15  35  1   
 27  16  18  1   
 28  16  19  1   
 29  16  36  1   
 30  17  19  1   
 31  17  37  1   
 32  17  38  1   
 33  18  20  1   
 34  18  21  1   
 35  18  39  1   
 36  19  22  1   
 37  19  23  1   
 38  20  24  1   
 39  20  40  1   
 40  20  41  1   
 41  21  42  1   
 42  21  43  1   
 43  21  44  1   
 44  22  25  ar  
 45  22  26  ar  
 46  23  24  1   
 47  23  45  1   
 48  23  46  1   
 49  24  47  1   
 50  24  48  1   
@<TRIPOS>SUBSTRUCTURE
  1 ****  15 GROUP 4 **** **** 0

# MOE 2024.06 (io_trps.svl 2023.06)
