@<TRIPOS>MOLECULE
NONAME
54 56 1 0 0 
SMALL
USER_CHARGES


@<TRIPOS>ATOM
  1 O        1.8790     0.1320     1.0110 O.2   1 <1>  -0.5700 
  2 C        2.4150     1.2120     1.0610 C.2   1 <1>   0.5690 
  3 N        2.4890     2.1060     0.0560 N.am  1 <1>  -0.6600 
  4 C        3.1060     1.7340     2.2890 C.3   1 <1>  -0.0990 
  5 C        3.1920     3.3410     0.4240 C.3   1 <1>   0.1400 
  6 C        1.9220     1.9150    -1.2950 C.3   1 <1>   0.2840 
  7 C        3.4460     3.1920     1.9310 C.3   1 <1>  -0.1600 
  8 C        0.7520     2.8720    -1.5180 C.ar  1 <1>  -0.1440 
  9 C        0.8430     4.0800    -2.2130 C.ar  1 <1>  -0.1430 
 10 C       -0.4710     2.4850    -0.9880 C.ar  1 <1>  -0.1500 
 11 C       -0.3010     4.8510    -2.3820 C.ar  1 <1>  -0.1500 
 12 C        2.1400     4.6230    -2.8000 C.3   1 <1>   0.2840 
 13 C       -1.5990     3.2650    -1.1540 C.ar  1 <1>  -0.1500 
 14 C       -1.5150     4.4500    -1.8570 C.ar  1 <1>  -0.1500 
 15 N        2.5340     5.8120    -2.0210 N.am  1 <1>  -0.7300 
 16 C        3.7870     6.0900    -1.5890 C.2   1 <1>   0.5690 
 17 O        4.7180     5.3620    -1.8320 O.2   1 <1>  -0.5700 
 18 C        4.0220     7.3370    -0.7410 C.3   1 <1>  -0.0190 
 19 C        3.2480     7.2730     0.5910 C.3   1 <1>  -0.1600 
 20 C        3.7090     8.6400    -1.5190 C.3   1 <1>  -0.1600 
 21 C        3.5870     8.4550     1.5230 C.3   1 <1>   0.2000 
 22 C        3.3890     9.8440    -0.6110 C.3   1 <1>  -0.1600 
 23 O        2.4290     8.7710     2.2560 O.3   1 <1>  -0.5600 
 24 C        4.0660     9.7160     0.7560 C.3   1 <1>   0.2000 
 25 C        2.1890     7.9620     3.3650 C.3   1 <1>   0.0400 
 26 O        3.7540    10.8400     1.4930 O.3   1 <1>  -0.6800 
 27 H        2.4530     1.6710     3.1400 H     1 <1>   0.0800 
 28 H        3.9950     1.1560     2.4620 H     1 <1>   0.0800 
 29 H        4.1160     3.4110    -0.1240 H     1 <1>   0.0800 
 30 H        2.5720     4.1970     0.2200 H     1 <1>   0.0800 
 31 H        2.6960     2.0390    -2.0290 H     1 <1>   0.0800 
 32 H        1.5670     0.9020    -1.3860 H     1 <1>   0.0800 
 33 H        4.4650     3.4360     2.1760 H     1 <1>   0.0800 
 34 H        2.7930     3.8610     2.4630 H     1 <1>   0.0800 
 35 H       -0.5440     1.5620    -0.4360 H     1 <1>   0.1500 
 36 H       -0.2530     5.7780    -2.9270 H     1 <1>   0.1500 
 37 H        1.9780     4.9120    -3.8240 H     1 <1>   0.0800 
 38 H        2.9340     3.9000    -2.7870 H     1 <1>   0.0800 
 39 H       -2.5390     2.9480    -0.7360 H     1 <1>   0.1500 
 40 H       -2.3930     5.0570    -1.9940 H     1 <1>   0.1500 
 41 H        1.7510     6.3940    -1.7210 H     1 <1>   0.3700 
 42 H        5.0710     7.3500    -0.4970 H     1 <1>   0.0800 
 43 H        3.4830     6.3540     1.0950 H     1 <1>   0.0800 
 44 H        2.1930     7.2830     0.3760 H     1 <1>   0.0800 
 45 H        4.5610     8.8750    -2.1340 H     1 <1>   0.0800 
 46 H        2.8740     8.4930    -2.1820 H     1 <1>   0.0800 
 47 H        4.3690     8.1750     2.2100 H     1 <1>   0.0800 
 48 H        2.3240     9.8950    -0.4580 H     1 <1>   0.0800 
 49 H        3.7050    10.7530    -1.0920 H     1 <1>   0.0800 
 50 H        5.1340     9.6930     0.6240 H     1 <1>   0.0800 
 51 H        1.2900     8.3100     3.8430 H     1 <1>   0.0800 
 52 H        3.0150     8.0420     4.0510 H     1 <1>   0.0800 
 53 H        2.0550     6.9430     3.0480 H     1 <1>   0.0800 
 54 H        2.9400    10.6100     1.9960 H     1 <1>   0.4000 
@<TRIPOS>BOND
  1   1   2  2   
  2   2   3  am  
  3   2   4  1   
  4   3   5  1   
  5   3   6  1   
  6   4   7  1   
  7   4  27  1   
  8   4  28  1   
  9   5   7  1   
 10   5  29  1   
 11   5  30  1   
 12   6   8  1   
 13   6  31  1   
 14   6  32  1   
 15   7  33  1   
 16   7  34  1   
 17   8   9  ar  
 18   8  10  ar  
 19   9  11  ar  
 20   9  12  1   
 21  10  13  ar  
 22  10  35  1   
 23  11  14  ar  
 24  11  36  1   
 25  12  15  1   
 26  12  37  1   
 27  12  38  1   
 28  13  14  ar  
 29  13  39  1   
 30  14  40  1   
 31  15  16  am  
 32  15  41  1   
 33  16  17  2   
 34  16  18  1   
 35  18  19  1   
 36  18  20  1   
 37  18  42  1   
 38  19  21  1   
 39  19  43  1   
 40  19  44  1   
 41  20  22  1   
 42  20  45  1   
 43  20  46  1   
 44  21  23  1   
 45  21  24  1   
 46  21  47  1   
 47  22  24  1   
 48  22  48  1   
 49  22  49  1   
 50  23  25  1   
 51  24  26  1   
 52  24  50  1   
 53  25  51  1   
 54  25  52  1   
 55  25  53  1   
 56  26  54  1   
@<TRIPOS>SUBSTRUCTURE
  1 ****  15 GROUP 4 **** **** 0

# MOE 2024.06 (io_trps.svl 2023.06)
