@<TRIPOS>MOLECULE
NONAME
56 58 1 0 0 
SMALL
USER_CHARGES


@<TRIPOS>ATOM
  1 O       -0.3680     0.5710    -1.0450 O.3   1 <1>  -0.5600 
  2 C       -0.5080     1.7280    -1.7960 C.3   1 <1>   0.1200 
  3 C       -1.5770     0.3170    -0.3900 C.3   1 <1>   0.1200 
  4 C       -1.2260     2.6520    -0.8190 C.3   1 <1>   0.4230 
  5 C       -2.2670     1.6890    -0.2500 C.3   1 <1>  -0.0800 
  6 N       -0.2730     2.9940     0.2810 N.4   1 <1>  -0.9060 
  7 C       -3.5960     1.7500    -1.0310 C.3   1 <1>  -0.0170 
  8 C        0.8080     3.9540    -0.0490 C.3   1 <1>   0.4230 
  9 C       -4.6160     0.7900    -0.4410 C.ar  1 <1>  -0.1440 
 10 C        1.8750     3.8850     1.0390 C.3   1 <1>  -0.1600 
 11 C        0.2590     5.3780    -0.1190 C.3   1 <1>  -0.1600 
 12 C       -4.9080    -0.4240    -1.0330 C.ar  1 <1>  -0.1500 
 13 C       -5.3070     1.0830     0.7180 C.ar  1 <1>  -0.1500 
 14 C        3.0390     4.8480     0.7590 C.3   1 <1>   0.5030 
 15 C        1.3640     6.3990    -0.4350 C.3   1 <1>   0.5030 
 16 C       -5.8390    -1.2660    -0.4460 C.ar  1 <1>   0.1600 
 17 C       -6.2200     0.1700     1.2220 C.ar  1 <1>   0.1600 
 18 N        2.5470     6.1910     0.4140 N.4   1 <1>  -0.9060 
 19 C        3.8800     5.0250     2.0210 C.3   1 <1>  -0.2400 
 20 C        3.9500     4.3290    -0.3570 C.3   1 <1>  -0.2400 
 21 C        1.7740     6.3530    -1.9090 C.3   1 <1>  -0.2400 
 22 C        0.8700     7.8090    -0.1190 C.3   1 <1>  -0.2400 
 23 N       -6.4960    -0.9980     0.6690 N.ar  1 <1>  -0.6200 
 24 H        0.4580     2.0760    -2.1130 H     1 <1>   0.0800 
 25 H       -1.1140     1.5040    -2.6600 H     1 <1>   0.0800 
 26 H       -2.1450    -0.3740    -0.9910 H     1 <1>   0.0800 
 27 H       -1.3650    -0.1360     0.5640 H     1 <1>   0.0800 
 28 H       -1.6570     3.5260    -1.2790 H     1 <1>   0.0800 
 29 H       -2.4820     1.8960     0.7840 H     1 <1>   0.0800 
 30 H       -0.7920     3.2770     1.1190 H     1 <1>   0.4500 
 31 H        0.1530     2.0750     0.4970 H     1 <1>   0.4500 
 32 H       -3.4430     1.5090    -2.0700 H     1 <1>   0.0800 
 33 H       -4.0040     2.7460    -0.9880 H     1 <1>   0.0800 
 34 H        1.2510     3.6850    -0.9960 H     1 <1>   0.0800 
 35 H        2.2660     2.8840     1.1040 H     1 <1>   0.0800 
 36 H        1.4380     4.1270     1.9920 H     1 <1>   0.0800 
 37 H       -0.2000     5.6330     0.8210 H     1 <1>   0.0800 
 38 H       -0.4980     5.4480    -0.8800 H     1 <1>   0.0800 
 39 H       -4.4290    -0.7310    -1.9440 H     1 <1>   0.1500 
 40 H       -5.1560     2.0100     1.2390 H     1 <1>   0.1500 
 41 H       -6.0540    -2.2090    -0.9200 H     1 <1>   0.1500 
 42 H       -6.7520     0.4130     2.1260 H     1 <1>   0.1500 
 43 H        3.3280     6.7040    -0.0120 H     1 <1>   0.4500 
 44 H        2.3770     6.6840     1.2970 H     1 <1>   0.4500 
 45 H        4.2790     4.0750     2.3360 H     1 <1>   0.0800 
 46 H        3.2960     5.4160     2.8360 H     1 <1>   0.0800 
 47 H        4.7160     5.6800     1.8450 H     1 <1>   0.0800 
 48 H        4.4590     3.4400    -0.0240 H     1 <1>   0.0800 
 49 H        4.7070     5.0520    -0.6090 H     1 <1>   0.0800 
 50 H        3.4140     4.0580    -1.2440 H     1 <1>   0.0800 
 51 H        0.9580     6.6950    -2.5230 H     1 <1>   0.0800 
 52 H        2.0170     5.3650    -2.2450 H     1 <1>   0.0800 
 53 H        2.6080     7.0040    -2.1010 H     1 <1>   0.0800 
 54 H       -0.0010     8.0390    -0.7100 H     1 <1>   0.0800 
 55 H        1.6190     8.5470    -0.3530 H     1 <1>   0.0800 
 56 H        0.5930     7.9110     0.9160 H     1 <1>   0.0800 
@<TRIPOS>BOND
  1   1   2  1   
  2   1   3  1   
  3   2   4  1   
  4   2  24  1   
  5   2  25  1   
  6   3   5  1   
  7   3  26  1   
  8   3  27  1   
  9   4   5  1   
 10   4   6  1   
 11   4  28  1   
 12   5   7  1   
 13   5  29  1   
 14   6   8  1   
 15   6  30  1   
 16   6  31  1   
 17   7   9  1   
 18   7  32  1   
 19   7  33  1   
 20   8  10  1   
 21   8  11  1   
 22   8  34  1   
 23   9  12  ar  
 24   9  13  ar  
 25  10  14  1   
 26  10  35  1   
 27  10  36  1   
 28  11  15  1   
 29  11  37  1   
 30  11  38  1   
 31  12  16  ar  
 32  12  39  1   
 33  13  17  ar  
 34  13  40  1   
 35  14  18  1   
 36  14  19  1   
 37  14  20  1   
 38  15  18  1   
 39  15  21  1   
 40  15  22  1   
 41  16  23  ar  
 42  16  41  1   
 43  17  23  ar  
 44  17  42  1   
 45  18  43  1   
 46  18  44  1   
 47  19  45  1   
 48  19  46  1   
 49  19  47  1   
 50  20  48  1   
 51  20  49  1   
 52  20  50  1   
 53  21  51  1   
 54  21  52  1   
 55  21  53  1   
 56  22  54  1   
 57  22  55  1   
 58  22  56  1   
@<TRIPOS>SUBSTRUCTURE
  1 ****   4 GROUP 4 **** **** 0

# MOE 2024.06 (io_trps.svl 2023.06)
