@<TRIPOS>MOLECULE
NONAME
48 50 1 0 0 
SMALL
USER_CHARGES


@<TRIPOS>ATOM
  1 O        0.4780    -0.3040    -0.7530 O.2   1 <1>  -0.5700 
  2 C        0.4830    -1.5280    -0.6900 C.2   1 <1>   0.5410 
  3 C        1.6000    -2.3210    -0.2700 C.2   1 <1>   0.0910 
  4 C       -0.6840    -2.2540    -1.0500 C.2   1 <1>  -0.1360 
  5 O        2.7610    -1.7050     0.0860 O.3   1 <1>  -0.5270 
  6 C        1.5230    -3.6910    -0.2190 C.2   1 <1>   0.1230 
  7 C       -0.7060    -3.6030    -0.9870 C.2   1 <1>  -0.0610 
  8 O        0.3670    -4.2820    -0.5850 O.3   1 <1>  -0.1530 
  9 C        2.5720    -4.5970     0.1890 C.2   1 <1>   0.1810 
 10 C       -1.8870    -4.4840    -1.3450 C.3   1 <1>  -0.1020 
 11 N        3.8250    -4.1670     0.5050 N.2   1 <1>  -0.5650 
 12 C        2.5160    -5.9650     0.3200 C.2   1 <1>  -0.2050 
 13 C        4.4840    -5.2350     0.7980 C.2   1 <1>   0.0060 
 14 N        3.7430    -6.3540     0.7040 N.pl3 1 <1>   0.0330 
 15 C        1.4360    -6.8900     0.1250 C.ar  1 <1>   0.0530 
 16 C        5.9460    -5.2460     1.2150 C.3   1 <1>   0.0200 
 17 C        0.4050    -6.9860     1.0550 C.ar  1 <1>  -0.1500 
 18 C        1.3820    -7.7030    -1.0030 C.ar  1 <1>  -0.1500 
 19 C        6.9050    -5.3490     0.0140 C.3   1 <1>  -0.0800 
 20 C       -0.6490    -7.8620     0.8700 C.ar  1 <1>  -0.1500 
 21 C        0.3320    -8.5810    -1.1950 C.ar  1 <1>  -0.1500 
 22 C        6.7380    -6.6660    -0.7600 C.3   1 <1>  -0.2400 
 23 C        8.3590    -5.2130     0.4850 C.3   1 <1>  -0.2400 
 24 C       -0.6910    -8.6690    -0.2640 C.ar  1 <1>   0.0830 
 25 O       -1.6850    -9.5500    -0.5280 O.3   1 <1>  -0.3630 
 26 C       -2.7480    -9.7540     0.3770 C.3   1 <1>   0.0400 
 27 H       -1.5250    -1.6680    -1.3680 H     1 <1>   0.1500 
 28 H        3.4330    -2.3960     0.3230 H     1 <1>   0.4500 
 29 H       -1.6130    -5.1540    -2.1400 H     1 <1>   0.0800 
 30 H       -2.7240    -3.8900    -1.6630 H     1 <1>   0.0800 
 31 H       -2.1780    -5.0680    -0.4900 H     1 <1>   0.0800 
 32 H        4.0470    -7.3140     0.8880 H     1 <1>   0.2700 
 33 H        6.1210    -6.0560     1.9000 H     1 <1>   0.0800 
 34 H        6.1440    -4.3290     1.7420 H     1 <1>   0.0800 
 35 H        0.4340    -6.3580     1.9280 H     1 <1>   0.1500 
 36 H        2.1660    -7.6370    -1.7360 H     1 <1>   0.1500 
 37 H        6.6910    -4.5320    -0.6560 H     1 <1>   0.0800 
 38 H       -1.4230    -7.9030     1.6110 H     1 <1>   0.1500 
 39 H        0.2950    -9.2050    -2.0700 H     1 <1>   0.1500 
 40 H        6.8880    -7.5120    -0.1130 H     1 <1>   0.0800 
 41 H        7.4560    -6.7170    -1.5600 H     1 <1>   0.0800 
 42 H        5.7580    -6.7260    -1.1980 H     1 <1>   0.0800 
 43 H        8.6200    -6.0130     1.1560 H     1 <1>   0.0800 
 44 H        8.5030    -4.2760     0.9930 H     1 <1>   0.0800 
 45 H        9.0280    -5.2410    -0.3580 H     1 <1>   0.0800 
 46 H       -3.3950   -10.5080    -0.0340 H     1 <1>   0.0800 
 47 H       -3.2890    -8.8320     0.4950 H     1 <1>   0.0800 
 48 H       -2.3460   -10.0900     1.3160 H     1 <1>   0.0800 
@<TRIPOS>BOND
  1   1   2  2   
  2   2   3  1   
  3   2   4  1   
  4   3   5  1   
  5   3   6  2   
  6   4   7  2   
  7   4  27  1   
  8   5  28  1   
  9   6   8  1   
 10   6   9  1   
 11   7   8  1   
 12   7  10  1   
 13   9  11  1   
 14   9  12  2   
 15  10  29  1   
 16  10  30  1   
 17  10  31  1   
 18  11  13  2   
 19  12  14  1   
 20  12  15  1   
 21  13  14  1   
 22  13  16  1   
 23  14  32  1   
 24  15  17  ar  
 25  15  18  ar  
 26  16  19  1   
 27  16  33  1   
 28  16  34  1   
 29  17  20  ar  
 30  17  35  1   
 31  18  21  ar  
 32  18  36  1   
 33  19  22  1   
 34  19  23  1   
 35  19  37  1   
 36  20  24  ar  
 37  20  38  1   
 38  21  24  ar  
 39  21  39  1   
 40  22  40  1   
 41  22  41  1   
 42  22  42  1   
 43  23  43  1   
 44  23  44  1   
 45  23  45  1   
 46  24  25  1   
 47  25  26  1   
 48  26  46  1   
 49  26  47  1   
 50  26  48  1   
@<TRIPOS>SUBSTRUCTURE
  1 ****  12 GROUP 4 **** **** 0

# MOE 2024.06 (io_trps.svl 2023.06)
