@<TRIPOS>MOLECULE
NONAME
41 42 1 0 0 
SMALL
USER_CHARGES


@<TRIPOS>ATOM
  1 CL      -1.7390    -0.9750     1.7860 Cl    1 <1>  -0.1770 
  2 C       -2.7260     0.1980     0.9440 C.ar  1 <1>   0.1770 
  3 C       -3.4430    -0.1430    -0.2070 C.ar  1 <1>   0.0860 
  4 C       -2.7470     1.4770     1.4720 C.ar  1 <1>  -0.1500 
  5 C       -3.4630    -1.4720    -0.7860 C.2   1 <1>   0.5440 
  6 C       -4.1730     0.8830    -0.8130 C.ar  1 <1>  -0.1500 
  7 C       -3.4880     2.4660     0.8530 C.ar  1 <1>  -0.1500 
  8 O       -3.5030    -1.6150    -1.9920 O.2   1 <1>  -0.5700 
  9 N       -3.4940    -2.5950    -0.0140 N.am  1 <1>  -0.7300 
 10 C       -4.2010     2.1660    -0.2940 C.ar  1 <1>  -0.1500 
 11 C       -3.3690    -3.9860    -0.5130 C.3   1 <1>   0.2200 
 12 C       -4.7130    -4.6950    -0.4880 C.3   1 <1>  -0.0800 
 13 C       -2.6000    -4.8070     0.5130 C.3   1 <1>   0.1200 
 14 C       -4.8180    -5.1700     0.9660 C.3   1 <1>   0.1200 
 15 C       -5.9000    -3.8440    -0.9910 C.3   1 <1>  -0.0550 
 16 O       -3.5310    -5.1030     1.5090 O.3   1 <1>  -0.5600 
 17 S       -7.4340    -4.7550    -1.1770 S.o2  1 <1>   1.3330 
 18 O       -7.1420    -5.9870    -1.8760 O.2   1 <1>  -0.6500 
 19 O       -8.4570    -3.8700    -1.6860 O.2   1 <1>  -0.6500 
 20 N       -7.8690    -5.1560     0.4160 N.am  1 <1>  -0.8490 
 21 C       -8.5270    -4.0580     1.1320 C.3   1 <1>   0.1160 
 22 C       -8.7100    -6.3560     0.4720 C.3   1 <1>   0.1160 
 23 H       -2.1820     1.6960     2.3610 H     1 <1>   0.1500 
 24 H       -4.7290     0.6650    -1.7100 H     1 <1>   0.1500 
 25 H       -3.5090     3.4640     1.2580 H     1 <1>   0.1500 
 26 H       -3.4210    -2.5190     1.0050 H     1 <1>   0.3700 
 27 H       -4.7760     2.9330    -0.7850 H     1 <1>   0.1500 
 28 H       -2.9030    -4.0050    -1.4840 H     1 <1>   0.0800 
 29 H       -4.6340    -5.5690    -1.1110 H     1 <1>   0.0800 
 30 H       -1.7670    -4.2740     0.9370 H     1 <1>   0.0800 
 31 H       -2.2660    -5.7360     0.0860 H     1 <1>   0.0800 
 32 H       -5.1760    -6.1830     1.0310 H     1 <1>   0.0800 
 33 H       -5.4490    -4.5240     1.5520 H     1 <1>   0.0800 
 34 H       -5.6330    -3.4400    -1.9490 H     1 <1>   0.0800 
 35 H       -6.0570    -3.0140    -0.3310 H     1 <1>   0.0800 
 36 H       -8.7000    -4.3360     2.1580 H     1 <1>   0.0800 
 37 H       -9.4720    -3.8180     0.6710 H     1 <1>   0.0800 
 38 H       -7.9050    -3.1800     1.1200 H     1 <1>   0.0800 
 39 H       -8.9600    -6.5910     1.4920 H     1 <1>   0.0800 
 40 H       -8.1820    -7.1970     0.0530 H     1 <1>   0.0800 
 41 H       -9.6170    -6.2040    -0.0900 H     1 <1>   0.0800 
@<TRIPOS>BOND
  1   1   2  1   
  2   2   3  ar  
  3   2   4  ar  
  4   3   5  1   
  5   3   6  ar  
  6   4   7  ar  
  7   4  23  1   
  8   5   8  2   
  9   5   9  am  
 10   6  10  ar  
 11   6  24  1   
 12   7  10  ar  
 13   7  25  1   
 14   9  11  1   
 15   9  26  1   
 16  10  27  1   
 17  11  12  1   
 18  11  13  1   
 19  11  28  1   
 20  12  14  1   
 21  12  15  1   
 22  12  29  1   
 23  13  16  1   
 24  13  30  1   
 25  13  31  1   
 26  14  16  1   
 27  14  32  1   
 28  14  33  1   
 29  15  17  1   
 30  15  34  1   
 31  15  35  1   
 32  17  18  2   
 33  17  19  2   
 34  17  20  am  
 35  20  21  1   
 36  20  22  1   
 37  21  36  1   
 38  21  37  1   
 39  21  38  1   
 40  22  39  1   
 41  22  40  1   
 42  22  41  1   
@<TRIPOS>SUBSTRUCTURE
  1 ****   9 GROUP 4 **** **** 0

# MOE 2024.06 (io_trps.svl 2023.06)
