@<TRIPOS>MOLECULE
NONAME
44 45 1 0 0 
SMALL
USER_CHARGES


@<TRIPOS>ATOM
  1 CL      -0.7520    -2.3960    -0.9160 Cl    1 <1>  -0.1770 
  2 C        0.9420    -2.3260    -0.4870 C.ar  1 <1>   0.1770 
  3 C        1.4140    -2.9910     0.6370 C.ar  1 <1>  -0.1440 
  4 C        1.7850    -1.5860    -1.2960 C.ar  1 <1>  -0.1500 
  5 C        2.7670    -2.9060     0.9350 C.ar  1 <1>  -0.1500 
  6 C        0.4770    -3.8030     1.5310 C.3   1 <1>   0.0450 
  7 C        3.1310    -1.5040    -0.9840 C.ar  1 <1>  -0.1500 
  8 C        3.6190    -2.1660     0.1310 C.ar  1 <1>  -0.1500 
  9 C        0.1220    -5.1690     0.9460 C.2   1 <1>   0.5690 
 10 O        1.0110    -5.7860     0.4050 O.2   1 <1>  -0.5700 
 11 N       -1.1460    -5.6880     1.0510 N.am  1 <1>  -0.6600 
 12 C       -1.5640    -6.8880     0.2580 C.3   1 <1>   0.1400 
 13 C       -2.2690    -5.1470     1.8680 C.3   1 <1>   0.1400 
 14 C       -2.7250    -6.5100    -0.6770 C.3   1 <1>   0.2000 
 15 C       -3.4160    -4.7310     0.9380 C.3   1 <1>  -0.1600 
 16 O       -3.1010    -7.6320    -1.3980 O.3   1 <1>  -0.6800 
 17 C       -3.9450    -5.9270     0.0910 C.3   1 <1>  -0.1060 
 18 C       -4.5550    -7.0190     1.0030 C.2   1 <1>   0.9060 
 19 C       -4.9990    -5.4230    -0.9380 C.3   1 <1>  -0.1600 
 20 O       -4.6580    -8.1790     0.5740 O.co2 1 <1>  -0.9000 
 21 O       -4.9210    -6.7320     2.1510 O.co2 1 <1>  -0.9000 
 22 C       -6.2510    -4.7740    -0.3220 C.3   1 <1>  -0.1600 
 23 C       -7.2660    -4.4030    -1.4060 C.3   1 <1>  -0.2400 
 24 H        1.3900    -1.0820    -2.1590 H     1 <1>   0.1500 
 25 H        3.1660    -3.4220     1.7910 H     1 <1>   0.1500 
 26 H       -0.4040    -3.2150     1.6890 H     1 <1>   0.0800 
 27 H        0.9340    -3.9660     2.4880 H     1 <1>   0.0800 
 28 H        3.7970    -0.9320    -1.6060 H     1 <1>   0.1500 
 29 H        4.6660    -2.1090     0.3720 H     1 <1>   0.1500 
 30 H       -0.7440    -7.2550    -0.3340 H     1 <1>   0.0800 
 31 H       -1.8760    -7.6660     0.9320 H     1 <1>   0.0800 
 32 H       -2.6070    -5.9150     2.5440 H     1 <1>   0.0800 
 33 H       -1.9650    -4.3150     2.4720 H     1 <1>   0.0800 
 34 H       -2.3600    -5.7910    -1.3890 H     1 <1>   0.0800 
 35 H       -4.2080    -4.3420     1.5520 H     1 <1>   0.0800 
 36 H       -3.0790    -3.9380     0.2950 H     1 <1>   0.0800 
 37 H       -3.7390    -8.1270    -0.7960 H     1 <1>   0.4000 
 38 H       -4.5330    -4.7200    -1.6060 H     1 <1>   0.0800 
 39 H       -5.3190    -6.2640    -1.5290 H     1 <1>   0.0800 
 40 H       -6.7110    -5.4600     0.3710 H     1 <1>   0.0800 
 41 H       -5.9830    -3.8850     0.2210 H     1 <1>   0.0800 
 42 H       -7.5760    -5.2840    -1.9410 H     1 <1>   0.0800 
 43 H       -6.8340    -3.7060    -2.1020 H     1 <1>   0.0800 
 44 H       -8.1340    -3.9530    -0.9580 H     1 <1>   0.0800 
@<TRIPOS>BOND
  1   1   2  1   
  2   2   3  ar  
  3   2   4  ar  
  4   3   5  ar  
  5   3   6  1   
  6   4   7  ar  
  7   4  24  1   
  8   5   8  ar  
  9   5  25  1   
 10   6   9  1   
 11   6  26  1   
 12   6  27  1   
 13   7   8  ar  
 14   7  28  1   
 15   8  29  1   
 16   9  10  2   
 17   9  11  am  
 18  11  12  1   
 19  11  13  1   
 20  12  14  1   
 21  12  30  1   
 22  12  31  1   
 23  13  15  1   
 24  13  32  1   
 25  13  33  1   
 26  14  16  1   
 27  14  17  1   
 28  14  34  1   
 29  15  17  1   
 30  15  35  1   
 31  15  36  1   
 32  16  37  1   
 33  17  18  1   
 34  17  19  1   
 35  18  20  ar  
 36  18  21  ar  
 37  19  22  1   
 38  19  38  1   
 39  19  39  1   
 40  22  23  1   
 41  22  40  1   
 42  22  41  1   
 43  23  42  1   
 44  23  43  1   
 45  23  44  1   
@<TRIPOS>SUBSTRUCTURE
  1 ****  11 GROUP 4 **** **** 0

# MOE 2024.06 (io_trps.svl 2023.06)
