@<TRIPOS>MOLECULE
NONAME
45 47 1 0 0 
SMALL
USER_CHARGES


@<TRIPOS>ATOM
  1 O        0.3030    -2.8870     1.5910 O.3   1 <1>  -0.6800 
  2 C        0.2820    -2.1910     0.3920 C.3   1 <1>   0.2000 
  3 C        1.7320    -1.8950    -0.0420 C.3   1 <1>   0.0000 
  4 C       -0.2920    -3.1090    -0.6830 C.3   1 <1>  -0.1600 
  5 C        2.5810    -1.5130     1.1950 C.3   1 <1>   0.3430 
  6 C        1.7430    -0.7390    -1.0710 C.3   1 <1>  -0.1600 
  7 C        2.1650    -3.2260    -0.6980 C.3   1 <1>  -0.1600 
  8 C        0.8990    -3.8680    -1.2800 C.3   1 <1>  -0.1600 
  9 N        3.9540    -0.9940     0.8730 N.4   1 <1>  -0.9590 
 10 C        3.1650    -0.2380    -1.3740 C.3   1 <1>  -0.1600 
 11 C        3.9210     0.1420    -0.0970 C.3   1 <1>   0.3430 
 12 C        4.8920    -2.0730     0.4640 C.3   1 <1>   0.4860 
 13 C        6.3010    -1.5210     0.5200 C.ar  1 <1>  -0.1440 
 14 C        6.9690    -1.1860    -0.6490 C.ar  1 <1>  -0.1500 
 15 C        6.9350    -1.3400     1.7410 C.ar  1 <1>  -0.1500 
 16 C        8.2480    -0.6620    -0.5940 C.ar  1 <1>  -0.1500 
 17 C        8.2140    -0.8160     1.7910 C.ar  1 <1>  -0.1500 
 18 C        8.8750    -0.4700     0.6250 C.ar  1 <1>  -0.1440 
 19 C       10.2810     0.1020     0.6820 C.3   1 <1>  -0.0970 
 20 H       -0.5840    -3.2570     1.7790 H     1 <1>   0.4000 
 21 H       -0.3120    -1.3020     0.5310 H     1 <1>   0.0800 
 22 H       -1.0470    -3.7730    -0.3010 H     1 <1>   0.0800 
 23 H       -0.7360    -2.5040    -1.4540 H     1 <1>   0.0800 
 24 H        2.6540    -2.3690     1.8470 H     1 <1>   0.0800 
 25 H        2.0430    -0.7510     1.7350 H     1 <1>   0.0800 
 26 H        1.2720    -1.0460    -1.9900 H     1 <1>   0.0800 
 27 H        1.1720     0.0860    -0.6810 H     1 <1>   0.0800 
 28 H        2.9100    -3.1050    -1.4630 H     1 <1>   0.0800 
 29 H        2.5490    -3.8900     0.0580 H     1 <1>   0.0800 
 30 H        0.8540    -4.9110    -1.0150 H     1 <1>   0.0800 
 31 H        0.8870    -3.7860    -2.3540 H     1 <1>   0.0800 
 32 H        4.3590    -0.6210     1.7400 H     1 <1>   0.4500 
 33 H        3.1010     0.6330    -2.0040 H     1 <1>   0.0800 
 34 H        3.7200    -0.9760    -1.9230 H     1 <1>   0.0800 
 35 H        3.4240     0.9830     0.3600 H     1 <1>   0.0800 
 36 H        4.9260     0.4500    -0.3440 H     1 <1>   0.0800 
 37 H        4.8110    -2.9110     1.1370 H     1 <1>   0.0800 
 38 H        4.6700    -2.4110    -0.5330 H     1 <1>   0.0800 
 39 H        6.5090    -1.3280    -1.6120 H     1 <1>   0.1500 
 40 H        6.4500    -1.6070     2.6650 H     1 <1>   0.1500 
 41 H        8.7600    -0.4050    -1.5070 H     1 <1>   0.1500 
 42 H        8.6990    -0.6800     2.7430 H     1 <1>   0.1500 
 43 H       10.4530     0.7640    -0.1470 H     1 <1>   0.0800 
 44 H       11.0010    -0.6950     0.6450 H     1 <1>   0.0800 
 45 H       10.4260     0.6570     1.5920 H     1 <1>   0.0800 
@<TRIPOS>BOND
  1   1   2  1   
  2   1  20  1   
  3   2   3  1   
  4   2   4  1   
  5   2  21  1   
  6   3   5  1   
  7   3   6  1   
  8   3   7  1   
  9   4   8  1   
 10   4  22  1   
 11   4  23  1   
 12   5   9  1   
 13   5  24  1   
 14   5  25  1   
 15   6  10  1   
 16   6  26  1   
 17   6  27  1   
 18   7   8  1   
 19   7  28  1   
 20   7  29  1   
 21   8  30  1   
 22   8  31  1   
 23   9  11  1   
 24   9  12  1   
 25   9  32  1   
 26  10  11  1   
 27  10  33  1   
 28  10  34  1   
 29  11  35  1   
 30  11  36  1   
 31  12  13  1   
 32  12  37  1   
 33  12  38  1   
 34  13  14  ar  
 35  13  15  ar  
 36  14  16  ar  
 37  14  39  1   
 38  15  17  ar  
 39  15  40  1   
 40  16  18  ar  
 41  16  41  1   
 42  17  18  ar  
 43  17  42  1   
 44  18  19  1   
 45  19  43  1   
 46  19  44  1   
 47  19  45  1   
@<TRIPOS>SUBSTRUCTURE
  1 ****  12 GROUP 4 **** **** 0

# MOE 2024.06 (io_trps.svl 2023.06)
