@<TRIPOS>MOLECULE
NONAME
17 18 1 0 0 
SMALL
USER_CHARGES


@<TRIPOS>ATOM
  1 S       -0.0970    -0.3100    -0.0430 S.3   1 <1>  -0.0800 
  2 C       -0.8210     1.2850     0.0320 C.2   1 <1>   0.4620 
  3 C        1.4810     0.4370    -0.0540 C.2   1 <1>  -0.0450 
  4 N        0.0230     2.2570     0.0440 N.2   1 <1>  -0.5650 
  5 N       -2.1620     1.3950     0.0730 N.pl3 1 <1>  -0.8840 
  6 C        2.7320    -0.2280    -0.0790 C.2   1 <1>   0.5940 
  7 C        1.2980     1.7710    -0.0140 C.2   1 <1>   0.0460 
  8 O        2.9060    -1.4230    -0.1200 O.2   1 <1>  -0.5700 
  9 C        3.9270     0.7250     0.0010 C.3   1 <1>   0.1810 
 10 C        2.5130     2.6920    -0.0220 C.3   1 <1>   0.3010 
 11 O        3.6460     2.0120    -0.5290 O.3   1 <1>  -0.5600 
 12 H       -2.6010     2.3150     0.1070 H     1 <1>   0.4000 
 13 H       -2.7850     0.5880     0.0500 H     1 <1>   0.4000 
 14 H        4.7460     0.3140    -0.5610 H     1 <1>   0.0800 
 15 H        4.2300     0.8390     1.0260 H     1 <1>   0.0800 
 16 H        2.7310     3.0390     0.9730 H     1 <1>   0.0800 
 17 H        2.3290     3.5380    -0.6590 H     1 <1>   0.0800 
@<TRIPOS>BOND
  1   1   2  1   
  2   1   3  1   
  3   2   4  2   
  4   2   5  1   
  5   3   6  1   
  6   3   7  2   
  7   4   7  1   
  8   5  12  1   
  9   5  13  1   
 10   6   8  2   
 11   6   9  1   
 12   7  10  1   
 13   9  11  1   
 14   9  14  1   
 15   9  15  1   
 16  10  11  1   
 17  10  16  1   
 18  10  17  1   
@<TRIPOS>SUBSTRUCTURE
  1 ****   3 GROUP 4 **** **** 0

# MOE 2024.06 (io_trps.svl 2023.06)
