@<TRIPOS>MOLECULE
NONAME
36 37 1 0 0 
SMALL
USER_CHARGES


@<TRIPOS>ATOM
  1 O       -0.4450    -0.2410     0.3830 O.2   1 <1>  -0.5700 
  2 C       -0.5290    -1.3370    -0.1350 C.2   1 <1>   0.7800 
  3 O        0.5520    -2.0990    -0.3170 O.3   1 <1>  -0.4300 
  4 N       -1.7270    -1.8450    -0.5560 N.am  1 <1>  -0.6600 
  5 C        1.8830    -1.7980     0.0420 C.3   1 <1>   0.2800 
  6 C       -2.9990    -1.1300    -0.2880 C.3   1 <1>   0.2840 
  7 C       -1.8760    -3.1520    -1.2420 C.3   1 <1>   0.1400 
  8 C        1.9980    -1.6290     1.5610 C.3   1 <1>  -0.2400 
  9 C        2.6970    -3.0180    -0.3920 C.3   1 <1>  -0.2400 
 10 C        2.3750    -0.5640    -0.7240 C.3   1 <1>  -0.2400 
 11 C       -4.0850    -2.0800     0.2090 C.ar  1 <1>  -0.1440 
 12 C       -2.6560    -4.0980    -0.3340 C.3   1 <1>  -0.0170 
 13 C       -3.9360    -3.4640     0.1850 C.ar  1 <1>   0.1670 
 14 C       -5.2590    -1.5500     0.7010 C.ar  1 <1>  -0.1500 
 15 N       -4.8540    -4.3170     0.6060 N.ar  1 <1>  -0.6200 
 16 C       -6.2170    -2.4350     1.1420 C.ar  1 <1>  -0.1500 
 17 C       -5.9880    -3.8050     1.0840 C.ar  1 <1>   0.3830 
 18 C       -7.0100    -4.7020     1.5570 C.1   1 <1>   0.4840 
 19 N       -7.8520    -5.3700     1.9440 N.1   1 <1>  -0.5570 
 20 H       -3.3270    -0.6570    -1.1970 H     1 <1>   0.0800 
 21 H       -2.8440    -0.3610     0.4500 H     1 <1>   0.0800 
 22 H       -0.9180    -3.5810    -1.4810 H     1 <1>   0.0800 
 23 H       -2.4150    -3.0040    -2.1620 H     1 <1>   0.0800 
 24 H        1.5800    -2.4820     2.0650 H     1 <1>   0.0800 
 25 H        1.4950    -0.7400     1.8930 H     1 <1>   0.0800 
 26 H        3.0320    -1.5400     1.8430 H     1 <1>   0.0800 
 27 H        2.3500    -3.8980     0.1170 H     1 <1>   0.0800 
 28 H        3.7360    -2.8770    -0.1550 H     1 <1>   0.0800 
 29 H        2.6090    -3.1670    -1.4530 H     1 <1>   0.0800 
 30 H        1.8710     0.3250    -0.3920 H     1 <1>   0.0800 
 31 H        2.2120    -0.6890    -1.7790 H     1 <1>   0.0800 
 32 H        3.4260    -0.4230    -0.5560 H     1 <1>   0.0800 
 33 H       -2.0420    -4.3800     0.5020 H     1 <1>   0.0800 
 34 H       -2.8940    -4.9910    -0.8840 H     1 <1>   0.0800 
 35 H       -5.4250    -0.4860     0.7430 H     1 <1>   0.1500 
 36 H       -7.1480    -2.0660     1.5360 H     1 <1>   0.1500 
@<TRIPOS>BOND
  1   1   2  2   
  2   2   3  1   
  3   2   4  am  
  4   3   5  1   
  5   4   6  1   
  6   4   7  1   
  7   5   8  1   
  8   5   9  1   
  9   5  10  1   
 10   6  11  1   
 11   6  20  1   
 12   6  21  1   
 13   7  12  1   
 14   7  22  1   
 15   7  23  1   
 16   8  24  1   
 17   8  25  1   
 18   8  26  1   
 19   9  27  1   
 20   9  28  1   
 21   9  29  1   
 22  10  30  1   
 23  10  31  1   
 24  10  32  1   
 25  11  13  ar  
 26  11  14  ar  
 27  12  13  1   
 28  12  33  1   
 29  12  34  1   
 30  13  15  ar  
 31  14  16  ar  
 32  14  35  1   
 33  15  17  ar  
 34  16  17  ar  
 35  16  36  1   
 36  17  18  1   
 37  18  19  3   
@<TRIPOS>SUBSTRUCTURE
  1 ****   4 GROUP 4 **** **** 0

# MOE 2024.06 (io_trps.svl 2023.06)
