@<TRIPOS>MOLECULE
NONAME
53 56 1 0 0 
SMALL
USER_CHARGES


@<TRIPOS>ATOM
  1 O        1.3080    -0.8380     2.0150 O.3   1 <1>  -0.3630 
  2 C        0.4080    -0.1350     1.3320 C.ar  1 <1>   0.3920 
  3 C        2.4420    -1.0810     1.1950 C.3   1 <1>   0.2000 
  4 N       -0.8360    -0.0560     1.7140 N.ar  1 <1>  -0.6200 
  5 C        0.8990     0.3660     0.1660 C.ar  1 <1>  -0.1440 
  6 C        2.3420    -0.0400     0.0560 C.3   1 <1>  -0.0160 
  7 C        2.3530    -2.5580     0.7280 C.3   1 <1>   0.3430 
  8 C       -1.5960     0.6250     0.8710 C.ar  1 <1>   0.4760 
  9 C        0.0260     1.0520    -0.6370 C.ar  1 <1>   0.1660 
 10 N        0.9320    -3.0110     0.5070 N.4   1 <1>  -0.9590 
 11 N       -1.2370     1.1730    -0.2840 N.ar  1 <1>  -0.6200 
 12 C       -3.0470     0.7810     1.2580 C.3   1 <1>  -0.0970 
 13 C        0.4370     1.6860    -1.9500 C.3   1 <1>  -0.0970 
 14 C        0.7060    -4.4200     0.9260 C.3   1 <1>   0.3430 
 15 C        0.4130    -2.7460    -0.8660 C.3   1 <1>   0.3430 
 16 C       -0.7930    -4.7110     0.9340 C.3   1 <1>  -0.1600 
 17 C       -1.0910    -2.9860    -0.8860 C.3   1 <1>  -0.1600 
 18 C       -1.4320    -4.4010    -0.4240 C.3   1 <1>   0.2000 
 19 O       -2.8080    -4.4430    -0.2840 O.3   1 <1>  -0.5600 
 20 C       -3.4050    -5.7050    -0.4530 C.3   1 <1>   0.2630 
 21 C       -4.9080    -5.6770    -0.1890 C.ar  1 <1>   0.1670 
 22 N       -5.4980    -6.8660    -0.1890 N.ar  1 <1>  -0.6200 
 23 C       -5.5870    -4.4840     0.0300 C.ar  1 <1>  -0.1500 
 24 C       -6.8020    -6.8660     0.0380 C.ar  1 <1>   0.1600 
 25 C       -6.9450    -4.4990     0.2640 C.ar  1 <1>  -0.1500 
 26 C       -7.5610    -5.7310     0.2670 C.ar  1 <1>  -0.1500 
 27 H        3.3330    -0.9220     1.7780 H     1 <1>   0.0800 
 28 H        2.5900    -0.4510    -0.9060 H     1 <1>   0.0800 
 29 H        2.9800     0.8030     0.2630 H     1 <1>   0.0800 
 30 H        2.7920    -3.1610     1.5060 H     1 <1>   0.0800 
 31 H        2.9430    -2.7050    -0.1610 H     1 <1>   0.0800 
 32 H        0.3590    -2.4270     1.1510 H     1 <1>   0.4500 
 33 H       -3.1520     0.7550     2.3270 H     1 <1>   0.0800 
 34 H       -3.6190    -0.0190     0.8270 H     1 <1>   0.0800 
 35 H       -3.4250     1.7190     0.8960 H     1 <1>   0.0800 
 36 H        1.4880     1.5670    -2.1340 H     1 <1>   0.0800 
 37 H        0.2100     2.7360    -1.9230 H     1 <1>   0.0800 
 38 H       -0.1160     1.2390    -2.7570 H     1 <1>   0.0800 
 39 H        1.1020    -4.5790     1.9170 H     1 <1>   0.0800 
 40 H        1.2050    -5.0920     0.2460 H     1 <1>   0.0800 
 41 H        0.8970    -3.3980    -1.5760 H     1 <1>   0.0800 
 42 H        0.6060    -1.7260    -1.1520 H     1 <1>   0.0800 
 43 H       -1.2620    -4.1160     1.6990 H     1 <1>   0.0800 
 44 H       -0.9410    -5.7470     1.1790 H     1 <1>   0.0800 
 45 H       -1.4580    -2.8410    -1.8870 H     1 <1>   0.0800 
 46 H       -1.5720    -2.2640    -0.2490 H     1 <1>   0.0800 
 47 H       -1.1250    -5.1150    -1.1730 H     1 <1>   0.0800 
 48 H       -2.9500    -6.4000     0.2290 H     1 <1>   0.0800 
 49 H       -3.2340    -6.0330    -1.4630 H     1 <1>   0.0800 
 50 H       -5.0620    -3.5460     0.0170 H     1 <1>   0.1500 
 51 H       -7.2940    -7.8230     0.0410 H     1 <1>   0.1500 
 52 H       -7.4970    -3.5910     0.4370 H     1 <1>   0.1500 
 53 H       -8.6170    -5.8150     0.4430 H     1 <1>   0.1500 
@<TRIPOS>BOND
  1   1   2  1   
  2   1   3  1   
  3   2   4  ar  
  4   2   5  ar  
  5   3   6  1   
  6   3   7  1   
  7   3  27  1   
  8   4   8  ar  
  9   5   6  1   
 10   5   9  ar  
 11   6  28  1   
 12   6  29  1   
 13   7  10  1   
 14   7  30  1   
 15   7  31  1   
 16   8  11  ar  
 17   8  12  1   
 18   9  11  ar  
 19   9  13  1   
 20  10  14  1   
 21  10  15  1   
 22  10  32  1   
 23  12  33  1   
 24  12  34  1   
 25  12  35  1   
 26  13  36  1   
 27  13  37  1   
 28  13  38  1   
 29  14  16  1   
 30  14  39  1   
 31  14  40  1   
 32  15  17  1   
 33  15  41  1   
 34  15  42  1   
 35  16  18  1   
 36  16  43  1   
 37  16  44  1   
 38  17  18  1   
 39  17  45  1   
 40  17  46  1   
 41  18  19  1   
 42  18  47  1   
 43  19  20  1   
 44  20  21  1   
 45  20  48  1   
 46  20  49  1   
 47  21  22  ar  
 48  21  23  ar  
 49  22  24  ar  
 50  23  25  ar  
 51  23  50  1   
 52  24  26  ar  
 53  24  51  1   
 54  25  26  ar  
 55  25  52  1   
 56  26  53  1   
@<TRIPOS>SUBSTRUCTURE
  1 ****  17 GROUP 4 **** **** 0

# MOE 2024.06 (io_trps.svl 2023.06)
