@<TRIPOS>MOLECULE
NONAME
42 43 1 0 0 
SMALL
USER_CHARGES


@<TRIPOS>ATOM
  1 O       -0.2940    -0.5080    -0.4840 O.2   1 <1>  -0.5700 
  2 C       -0.2700    -1.6550    -0.0830 C.2   1 <1>   0.5440 
  3 N        0.9360    -2.1870     0.2900 N.am  1 <1>  -0.7300 
  4 C       -1.4870    -2.4330    -0.0110 C.ar  1 <1>   0.0860 
  5 C        2.2310    -1.4780     0.2500 C.3   1 <1>   0.1400 
  6 C       -2.6260    -2.0310    -0.7110 C.ar  1 <1>   0.1600 
  7 C       -1.6050    -3.6010     0.7420 C.ar  1 <1>  -0.1500 
  8 C        3.2920    -2.4340    -0.2820 C.3   1 <1>  -0.2400 
  9 N       -3.7900    -2.6580    -0.7390 N.ar  1 <1>  -0.6200 
 10 C       -2.8070    -4.2650     0.7260 C.ar  1 <1>  -0.1500 
 11 C       -3.8670    -3.7710    -0.0310 C.ar  1 <1>   0.4100 
 12 N       -5.0860    -4.3700    -0.0960 N.pl3 1 <1>  -0.8690 
 13 C       -5.3660    -5.7930    -0.4170 C.3   1 <1>   0.2890 
 14 C       -5.5960    -6.5870     0.8750 C.3   1 <1>   0.0210 
 15 C       -4.2670    -6.3810    -1.3090 C.3   1 <1>  -0.2400 
 16 C       -6.0230    -8.0120     0.5820 C.2   1 <1>   0.1080 
 17 N       -7.0830    -8.3010    -0.1080 N.2   1 <1>  -0.7070 
 18 C       -5.3450    -9.1510     1.0040 C.2   1 <1>  -0.1500 
 19 N       -7.1110    -9.6460    -0.1420 N.pl3 1 <1>   0.3000 
 20 C       -6.0670   -10.1840     0.5230 C.2   1 <1>  -0.3320 
 21 C       -5.8230   -11.6760     0.6620 C.3   1 <1>  -0.0600 
 22 H        0.9900    -3.1640     0.5740 H     1 <1>   0.3700 
 23 H        2.4880    -1.1490     1.2430 H     1 <1>   0.0800 
 24 H        2.1610    -0.6130    -0.3890 H     1 <1>   0.0800 
 25 H       -2.5600    -1.1240    -1.2880 H     1 <1>   0.1500 
 26 H       -0.7850    -3.9710     1.3290 H     1 <1>   0.1500 
 27 H        3.3920    -3.2870     0.3640 H     1 <1>   0.0800 
 28 H        4.2400    -1.9280    -0.3270 H     1 <1>   0.0800 
 29 H        3.0340    -2.7580    -1.2750 H     1 <1>   0.0800 
 30 H       -2.9470    -5.1600     1.2970 H     1 <1>   0.1500 
 31 H       -5.7360    -3.7510    -0.5870 H     1 <1>   0.4000 
 32 H       -6.2860    -5.8200    -0.9780 H     1 <1>   0.0800 
 33 H       -6.3770    -6.1130     1.4410 H     1 <1>   0.0800 
 34 H       -4.7030    -6.5990     1.4670 H     1 <1>   0.0800 
 35 H       -3.3490    -6.5050    -0.7690 H     1 <1>   0.0800 
 36 H       -4.1040    -5.7430    -2.1590 H     1 <1>   0.0800 
 37 H       -4.5750    -7.3450    -1.6710 H     1 <1>   0.0800 
 38 H       -4.4430    -9.1740     1.5870 H     1 <1>   0.1500 
 39 H       -7.8540   -10.1640    -0.6260 H     1 <1>   0.2700 
 40 H       -4.9300   -11.8530     1.2350 H     1 <1>   0.0800 
 41 H       -5.7020   -12.1260    -0.3080 H     1 <1>   0.0800 
 42 H       -6.6510   -12.1430     1.1650 H     1 <1>   0.0800 
@<TRIPOS>BOND
  1   1   2  2   
  2   2   3  am  
  3   2   4  1   
  4   3   5  1   
  5   3  22  1   
  6   4   6  ar  
  7   4   7  ar  
  8   5   8  1   
  9   5  23  1   
 10   5  24  1   
 11   6   9  ar  
 12   6  25  1   
 13   7  10  ar  
 14   7  26  1   
 15   8  27  1   
 16   8  28  1   
 17   8  29  1   
 18   9  11  ar  
 19  10  11  ar  
 20  10  30  1   
 21  11  12  1   
 22  12  13  1   
 23  12  31  1   
 24  13  14  1   
 25  13  15  1   
 26  13  32  1   
 27  14  16  1   
 28  14  33  1   
 29  14  34  1   
 30  15  35  1   
 31  15  36  1   
 32  15  37  1   
 33  16  17  2   
 34  16  18  1   
 35  17  19  1   
 36  18  20  2   
 37  18  38  1   
 38  19  20  1   
 39  19  39  1   
 40  20  21  1   
 41  21  40  1   
 42  21  41  1   
 43  21  42  1   
@<TRIPOS>SUBSTRUCTURE
  1 ****  10 GROUP 4 **** **** 0

# MOE 2024.06 (io_trps.svl 2023.06)
