@<TRIPOS>MOLECULE
NONAME
41 42 1 0 0 
SMALL
USER_CHARGES


@<TRIPOS>ATOM
  1 S        0.4240     0.2980    -1.5690 S.o2  1 <1>   1.3330 
  2 O       -0.4030     1.1890    -2.3490 O.2   1 <1>  -0.6500 
  3 O        0.7480    -1.0150    -2.0830 O.2   1 <1>  -0.6500 
  4 N       -0.3440     0.0880    -0.0670 N.am  1 <1>  -0.8490 
  5 C        1.9620     1.1260    -1.1530 C.3   1 <1>  -0.0550 
  6 C       -1.0490     1.2900     0.3950 C.3   1 <1>   0.1160 
  7 C       -1.2660    -1.0510    -0.0750 C.3   1 <1>   0.1160 
  8 C        2.9600     0.2470    -0.3680 C.3   1 <1>  -0.0800 
  9 C        4.3420     0.8540    -0.1730 C.3   1 <1>   0.2200 
 10 C        2.5400    -0.1050     1.0660 C.3   1 <1>   0.1200 
 11 N        4.2460     2.2800     0.2190 N.am  1 <1>  -0.7300 
 12 C        4.8210     0.0590     1.0320 C.3   1 <1>   0.1200 
 13 O        3.6970    -0.0440     1.8500 O.3   1 <1>  -0.5600 
 14 C        4.4760     3.3540    -0.5980 C.2   1 <1>   0.7160 
 15 O        4.6420     3.1220    -1.7820 O.2   1 <1>  -0.5700 
 16 C        4.5030     4.7070    -0.0460 C.2   1 <1>   0.2030 
 17 N        4.3240     5.8350    -0.7090 N.2   1 <1>  -0.7070 
 18 C        4.7290     4.9910     1.3090 C.2   1 <1>  -0.1500 
 19 N        4.4360     6.8340     0.1950 N.pl3 1 <1>   0.3140 
 20 C        4.6790     6.3310     1.4260 C.2   1 <1>  -0.3020 
 21 C        4.3070     8.2840    -0.1760 C.3   1 <1>   0.8560 
 22 F        5.3840     8.9590     0.2240 F     1 <1>  -0.3400 
 23 F        3.2910     8.8380     0.4840 F     1 <1>  -0.3400 
 24 H        2.4370     1.4270    -2.0680 H     1 <1>   0.0800 
 25 H        1.7470     2.0190    -0.6000 H     1 <1>   0.0800 
 26 H       -1.4400     1.1320     1.3850 H     1 <1>   0.0800 
 27 H       -1.8640     1.5280    -0.2690 H     1 <1>   0.0800 
 28 H       -0.3750     2.1290     0.4260 H     1 <1>   0.0800 
 29 H       -1.7300    -1.1640     0.8900 H     1 <1>   0.0800 
 30 H       -0.7310    -1.9590    -0.2980 H     1 <1>   0.0800 
 31 H       -2.0300    -0.9090    -0.8220 H     1 <1>   0.0800 
 32 H        3.0850    -0.6790    -0.9040 H     1 <1>   0.0800 
 33 H        4.9810     0.7300    -1.0320 H     1 <1>   0.0800 
 34 H        2.1250    -1.0970     1.1270 H     1 <1>   0.0800 
 35 H        1.8390     0.6060     1.4670 H     1 <1>   0.0800 
 36 H        3.9930     2.4250     1.1980 H     1 <1>   0.3700 
 37 H        5.6200     0.5430     1.5650 H     1 <1>   0.0800 
 38 H        5.1170    -0.9350     0.7450 H     1 <1>   0.0800 
 39 H        4.9120     4.2690     2.0850 H     1 <1>   0.1500 
 40 H        4.8040     6.9540     2.2950 H     1 <1>   0.1500 
 41 H        4.1680     8.4360    -1.2300 H     1 <1>   0.0800 
@<TRIPOS>BOND
  1   1   2  2   
  2   1   3  2   
  3   1   4  am  
  4   1   5  1   
  5   4   6  1   
  6   4   7  1   
  7   5   8  1   
  8   5  24  1   
  9   5  25  1   
 10   6  26  1   
 11   6  27  1   
 12   6  28  1   
 13   7  29  1   
 14   7  30  1   
 15   7  31  1   
 16   8   9  1   
 17   8  10  1   
 18   8  32  1   
 19   9  11  1   
 20   9  12  1   
 21   9  33  1   
 22  10  13  1   
 23  10  34  1   
 24  10  35  1   
 25  11  14  am  
 26  11  36  1   
 27  12  13  1   
 28  12  37  1   
 29  12  38  1   
 30  14  15  2   
 31  14  16  1   
 32  16  17  2   
 33  16  18  1   
 34  17  19  1   
 35  18  20  2   
 36  18  39  1   
 37  19  20  1   
 38  19  21  1   
 39  20  40  1   
 40  21  22  1   
 41  21  23  1   
 42  21  41  1   
@<TRIPOS>SUBSTRUCTURE
  1 ****  11 GROUP 4 **** **** 0

# MOE 2024.06 (io_trps.svl 2023.06)
