@<TRIPOS>MOLECULE
NONAME
42 43 1 0 0 
SMALL
USER_CHARGES


@<TRIPOS>ATOM
  1 S       -0.1190    -0.2160    -0.4720 S.3   1 <1>  -0.0800 
  2 C       -1.5860    -0.8010     0.2430 C.2   1 <1>   0.4420 
  3 C       -0.6190     1.3790    -0.0260 C.2   1 <1>   0.1980 
  4 N       -2.2960     0.1500     0.7330 N.2   1 <1>  -0.3380 
  5 N       -1.7840    -2.1650     0.2050 N.am  1 <1>  -0.4940 
  6 N       -1.7390     1.3890     0.5760 N.2   1 <1>  -0.3380 
  7 C        0.2970     2.5310    -0.3880 C.3   1 <1>   0.0200 
  8 C       -2.8760    -2.9100     0.5760 C.2   1 <1>   0.5440 
  9 C       -0.2840     3.8700     0.0600 C.3   1 <1>   0.1200 
 10 O       -3.9260    -2.3680     0.8460 O.2   1 <1>  -0.5700 
 11 C       -2.7620    -4.3540     0.6030 C.ar  1 <1>   0.0860 
 12 O        0.6100     4.8720    -0.3040 O.3   1 <1>  -0.5600 
 13 C       -3.7900    -5.1590     0.1220 C.ar  1 <1>  -0.1500 
 14 C       -1.6230    -4.9900     1.1010 C.ar  1 <1>  -0.1500 
 15 C        0.1950     6.1480     0.0500 C.3   1 <1>   0.1200 
 16 C       -3.7060    -6.5440     0.1130 C.ar  1 <1>   0.1000 
 17 C       -1.5180    -6.3690     1.1020 C.ar  1 <1>  -0.1500 
 18 C        1.2690     7.1230    -0.4120 C.3   1 <1>  -0.2400 
 19 N       -4.7710    -7.2940    -0.3840 N.pl3 1 <1>  -0.8380 
 20 C       -2.5530    -7.1410     0.6100 C.ar  1 <1>  -0.1500 
 21 C       -4.5200    -8.5540    -1.1330 C.3   1 <1>   0.1290 
 22 C       -6.0650    -7.2380     0.3450 C.3   1 <1>   0.1290 
 23 H       -1.0180    -2.6990    -0.1940 H     1 <1>   0.3700 
 24 H        0.4350     2.5450    -1.4530 H     1 <1>   0.0800 
 25 H        1.2490     2.3830     0.0880 H     1 <1>   0.0800 
 26 H       -0.4120     3.8860     1.1300 H     1 <1>   0.0800 
 27 H       -1.2290     4.0510    -0.4240 H     1 <1>   0.0800 
 28 H       -4.6810    -4.6970    -0.2630 H     1 <1>   0.1500 
 29 H       -0.8150    -4.4050     1.5040 H     1 <1>   0.1500 
 30 H        0.0750     6.1920     1.1200 H     1 <1>   0.0800 
 31 H       -0.7430     6.3570    -0.4360 H     1 <1>   0.0800 
 32 H       -0.6340    -6.8460     1.4910 H     1 <1>   0.1500 
 33 H        2.2040     6.8970     0.0690 H     1 <1>   0.0800 
 34 H        0.9850     8.1270    -0.1550 H     1 <1>   0.0800 
 35 H        1.3900     7.0610    -1.4780 H     1 <1>   0.0800 
 36 H       -2.4740    -8.2110     0.6200 H     1 <1>   0.1500 
 37 H       -3.5760    -8.4950    -1.6460 H     1 <1>   0.0800 
 38 H       -5.2970    -8.7030    -1.8620 H     1 <1>   0.0800 
 39 H       -4.5030    -9.3890    -0.4540 H     1 <1>   0.0800 
 40 H       -6.0790    -6.3980     1.0190 H     1 <1>   0.0800 
 41 H       -6.2070    -8.1390     0.9150 H     1 <1>   0.0800 
 42 H       -6.8720    -7.1310    -0.3580 H     1 <1>   0.0800 
@<TRIPOS>BOND
  1   1   2  1   
  2   1   3  1   
  3   2   4  2   
  4   2   5  1   
  5   3   6  2   
  6   3   7  1   
  7   4   6  1   
  8   5   8  am  
  9   5  23  1   
 10   7   9  1   
 11   7  24  1   
 12   7  25  1   
 13   8  10  2   
 14   8  11  1   
 15   9  12  1   
 16   9  26  1   
 17   9  27  1   
 18  11  13  ar  
 19  11  14  ar  
 20  12  15  1   
 21  13  16  ar  
 22  13  28  1   
 23  14  17  ar  
 24  14  29  1   
 25  15  18  1   
 26  15  30  1   
 27  15  31  1   
 28  16  19  1   
 29  16  20  ar  
 30  17  20  ar  
 31  17  32  1   
 32  18  33  1   
 33  18  34  1   
 34  18  35  1   
 35  19  21  1   
 36  19  22  1   
 37  20  36  1   
 38  21  37  1   
 39  21  38  1   
 40  21  39  1   
 41  22  40  1   
 42  22  41  1   
 43  22  42  1   
@<TRIPOS>SUBSTRUCTURE
  1 ****   5 GROUP 4 **** **** 0

# MOE 2024.06 (io_trps.svl 2023.06)
