@<TRIPOS>MOLECULE
NONAME
34 35 1 0 0 
SMALL
USER_CHARGES


@<TRIPOS>ATOM
  1 S       -0.6600    -0.4610    -0.2330 S.3   1 <1>  -0.0800 
  2 C       -2.1240    -1.1370    -0.8920 C.2   1 <1>  -0.1400 
  3 C       -1.3760     1.1290    -0.3520 C.2   1 <1>   0.2280 
  4 C       -2.9900    -0.1370    -1.1280 C.2   1 <1>   0.0460 
  5 C       -2.1810    -2.6420    -1.0770 C.3   1 <1>   0.0200 
  6 N       -2.5590     1.1430    -0.8210 N.2   1 <1>  -0.5650 
  7 C       -4.3930    -0.2550    -1.6850 C.3   1 <1>  -0.0590 
  8 C       -2.4190    -3.3370     0.2630 C.3   1 <1>   0.2090 
  9 N       -2.5610    -4.8060     0.0560 N.pl3 1 <1>  -0.8380 
 10 C       -3.8040    -5.3920    -0.1050 C.ar  1 <1>   0.7200 
 11 C       -1.3350    -5.6190     0.2960 C.3   1 <1>   0.1290 
 12 N       -3.8890    -6.7040     0.1130 N.ar  1 <1>  -0.6200 
 13 N       -4.8070    -4.5920    -0.4700 N.ar  1 <1>  -0.6200 
 14 C       -5.0740    -7.2470    -0.0460 C.ar  1 <1>   0.1600 
 15 C       -5.9800    -5.1640    -0.6200 C.ar  1 <1>   0.1600 
 16 C       -6.1830    -6.5110    -0.4200 C.ar  1 <1>   0.0820 
 17 O       -7.4390    -7.0160    -0.6000 O.3   1 <1>  -0.3630 
 18 C       -7.6890    -8.3910    -0.4020 C.3   1 <1>   0.0400 
 19 H       -0.7790     1.9620    -0.0270 H     1 <1>   0.1500 
 20 H       -1.2620    -2.9890    -1.5120 H     1 <1>   0.0800 
 21 H       -2.9840    -2.8910    -1.7460 H     1 <1>   0.0800 
 22 H       -4.6590    -1.2820    -1.8510 H     1 <1>   0.0800 
 23 H       -4.4570     0.2790    -2.6160 H     1 <1>   0.0800 
 24 H       -5.0920     0.1750    -0.9910 H     1 <1>   0.0800 
 25 H       -3.3100    -2.9410     0.7190 H     1 <1>   0.0800 
 26 H       -1.5980    -3.1390     0.9300 H     1 <1>   0.0800 
 27 H       -0.4600    -5.0710    -0.0060 H     1 <1>   0.0800 
 28 H       -1.3750    -6.5330    -0.2720 H     1 <1>   0.0800 
 29 H       -1.2610    -5.8600     1.3420 H     1 <1>   0.0800 
 30 H       -5.1520    -8.3030     0.1290 H     1 <1>   0.1500 
 31 H       -6.8130    -4.5510    -0.9120 H     1 <1>   0.1500 
 32 H       -8.7320    -8.5710    -0.5950 H     1 <1>   0.0800 
 33 H       -7.4590    -8.6470     0.6170 H     1 <1>   0.0800 
 34 H       -7.0890    -8.9610    -1.0900 H     1 <1>   0.0800 
@<TRIPOS>BOND
  1   1   2  1   
  2   1   3  1   
  3   2   4  2   
  4   2   5  1   
  5   3   6  2   
  6   3  19  1   
  7   4   6  1   
  8   4   7  1   
  9   5   8  1   
 10   5  20  1   
 11   5  21  1   
 12   7  22  1   
 13   7  23  1   
 14   7  24  1   
 15   8   9  1   
 16   8  25  1   
 17   8  26  1   
 18   9  10  1   
 19   9  11  1   
 20  10  12  ar  
 21  10  13  ar  
 22  11  27  1   
 23  11  28  1   
 24  11  29  1   
 25  12  14  ar  
 26  13  15  ar  
 27  14  16  ar  
 28  14  30  1   
 29  15  16  ar  
 30  15  31  1   
 31  16  17  1   
 32  17  18  1   
 33  18  32  1   
 34  18  33  1   
 35  18  34  1   
@<TRIPOS>SUBSTRUCTURE
  1 ****  13 GROUP 4 **** **** 0

# MOE 2024.06 (io_trps.svl 2023.06)
