@<TRIPOS>MOLECULE
NONAME
54 56 1 0 0 
SMALL
USER_CHARGES


@<TRIPOS>ATOM
  1 O       -0.7440     0.1950    -0.9530 O.2   1 <1>  -0.5700 
  2 C       -1.1840     0.8590    -0.0350 C.2   1 <1>   0.7150 
  3 N       -1.9740     0.2450     0.8830 N.am  1 <1>  -0.7300 
  4 C       -0.9110     2.2600     0.1080 C.2   1 <1>  -0.2370 
  5 C       -2.3640    -1.1810     0.8760 C.3   1 <1>   0.2200 
  6 N       -0.1390     3.0100    -0.7300 N.pl3 1 <1>   0.3140 
  7 C       -1.3420     3.1260     1.0690 C.2   1 <1>  -0.1500 
  8 C       -3.7890    -1.3030     0.3640 C.3   1 <1>  -0.0800 
  9 C       -2.5060    -1.6770     2.3100 C.3   1 <1>   0.1200 
 10 N       -0.0780     4.2950    -0.3300 N.2   1 <1>  -0.7070 
 11 C        0.5740     2.5290    -1.9500 C.3   1 <1>   0.0960 
 12 C       -0.8010     4.3540     0.7430 C.2   1 <1>   0.1080 
 13 C       -4.6140    -1.0380     1.6300 C.3   1 <1>   0.1200 
 14 C       -4.0590    -2.7000    -0.2280 C.3   1 <1>  -0.0160 
 15 O       -3.7810    -1.2870     2.7260 O.3   1 <1>  -0.5600 
 16 C        1.3700     3.6210    -2.6850 C.3   1 <1>  -0.2400 
 17 C       -1.0060     5.6390     1.5260 C.3   1 <1>   0.0210 
 18 C       -5.4790    -2.8150    -0.7600 C.ar  1 <1>  -0.1430 
 19 C       -2.4620     6.1440     1.4720 C.3   1 <1>  -0.0800 
 20 C       -6.4560    -3.5300    -0.0960 C.ar  1 <1>  -0.1500 
 21 C       -5.8630    -2.2090    -1.9390 C.ar  1 <1>  -0.1500 
 22 C       -2.8910     6.4800     0.0360 C.3   1 <1>  -0.2400 
 23 C       -2.6330     7.3800     2.3640 C.3   1 <1>  -0.2400 
 24 C       -7.7340    -3.5970    -0.6250 C.ar  1 <1>   0.1600 
 25 C       -7.1690    -2.3380    -2.3820 C.ar  1 <1>   0.1600 
 26 N       -8.1150    -3.0170    -1.7520 N.ar  1 <1>  -0.6200 
 27 H       -2.3830     0.8000     1.6340 H     1 <1>   0.3700 
 28 H       -1.6550    -1.7630     0.3110 H     1 <1>   0.0800 
 29 H       -1.9710     2.9330     1.9170 H     1 <1>   0.1500 
 30 H       -3.9960    -0.5650    -0.3900 H     1 <1>   0.0800 
 31 H       -1.7650    -1.2610     2.9700 H     1 <1>   0.0800 
 32 H       -2.4650    -2.7510     2.3480 H     1 <1>   0.0800 
 33 H        1.2430     1.7430    -1.6530 H     1 <1>   0.0800 
 34 H       -0.1570     2.1150    -2.6180 H     1 <1>   0.0800 
 35 H       -5.4860    -1.6640     1.7060 H     1 <1>   0.0800 
 36 H       -4.9130    -0.0060     1.6790 H     1 <1>   0.0800 
 37 H       -3.8890    -3.4600     0.5140 H     1 <1>   0.0800 
 38 H       -3.3740    -2.8800    -1.0390 H     1 <1>   0.0800 
 39 H        2.1220     4.0330    -2.0350 H     1 <1>   0.0800 
 40 H        0.7120     4.4080    -3.0070 H     1 <1>   0.0800 
 41 H        1.8540     3.2020    -3.5480 H     1 <1>   0.0800 
 42 H       -0.7230     5.4580     2.5470 H     1 <1>   0.0800 
 43 H       -0.3460     6.3920     1.1330 H     1 <1>   0.0800 
 44 H       -3.1070     5.3670     1.8460 H     1 <1>   0.0800 
 45 H       -6.2380    -4.0340     0.8270 H     1 <1>   0.1500 
 46 H       -5.1610    -1.6370    -2.5170 H     1 <1>   0.1500 
 47 H       -2.2540     7.2410    -0.3800 H     1 <1>   0.0800 
 48 H       -3.9070     6.8320     0.0190 H     1 <1>   0.0800 
 49 H       -2.8270     5.6080    -0.5900 H     1 <1>   0.0800 
 50 H       -2.0060     8.1840     2.0210 H     1 <1>   0.0800 
 51 H       -2.3700     7.1490     3.3810 H     1 <1>   0.0800 
 52 H       -3.6560     7.7130     2.3480 H     1 <1>   0.0800 
 53 H       -8.4830    -4.1590    -0.0940 H     1 <1>   0.1500 
 54 H       -7.4510    -1.8580    -3.3030 H     1 <1>   0.1500 
@<TRIPOS>BOND
  1   1   2  2   
  2   2   3  am  
  3   2   4  1   
  4   3   5  1   
  5   3  27  1   
  6   4   6  1   
  7   4   7  2   
  8   5   8  1   
  9   5   9  1   
 10   5  28  1   
 11   6  10  1   
 12   6  11  1   
 13   7  12  1   
 14   7  29  1   
 15   8  13  1   
 16   8  14  1   
 17   8  30  1   
 18   9  15  1   
 19   9  31  1   
 20   9  32  1   
 21  10  12  2   
 22  11  16  1   
 23  11  33  1   
 24  11  34  1   
 25  12  17  1   
 26  13  15  1   
 27  13  35  1   
 28  13  36  1   
 29  14  18  1   
 30  14  37  1   
 31  14  38  1   
 32  16  39  1   
 33  16  40  1   
 34  16  41  1   
 35  17  19  1   
 36  17  42  1   
 37  17  43  1   
 38  18  20  ar  
 39  18  21  ar  
 40  19  22  1   
 41  19  23  1   
 42  19  44  1   
 43  20  24  ar  
 44  20  45  1   
 45  21  25  ar  
 46  21  46  1   
 47  22  47  1   
 48  22  48  1   
 49  22  49  1   
 50  23  50  1   
 51  23  51  1   
 52  23  52  1   
 53  24  26  ar  
 54  24  53  1   
 55  25  26  ar  
 56  25  54  1   
@<TRIPOS>SUBSTRUCTURE
  1 ****   3 GROUP 4 **** **** 0

# MOE 2024.06 (io_trps.svl 2023.06)
