@<TRIPOS>MOLECULE
NONAME
49 51 1 0 0 
SMALL
USER_CHARGES


@<TRIPOS>ATOM
  1 S        2.0860     1.7300     0.7160 S.o2  1 <1>   1.4470 
  2 O        2.0740     2.7540    -0.2990 O.2   1 <1>  -0.6500 
  3 O        1.0510     1.6250     1.7160 O.2   1 <1>  -0.6500 
  4 N        3.5070     1.9460     1.5570 N.am  1 <1>  -0.9780 
  5 C        2.3320     0.1060    -0.0520 C.ar  1 <1>  -0.0090 
  6 C        2.2080    -1.0580     0.6910 C.ar  1 <1>  -0.1500 
  7 C        2.6710    -0.0180    -1.3940 C.ar  1 <1>  -0.1500 
  8 C        2.4110    -2.3290     0.1540 C.ar  1 <1>   0.0860 
  9 C        2.8830    -1.2610    -1.9580 C.ar  1 <1>  -0.1500 
 10 C        2.7710    -2.4150    -1.2010 C.ar  1 <1>   0.0830 
 11 C        2.2180    -3.4680     1.0210 C.2   1 <1>   0.5440 
 12 O        3.0150    -3.5700    -1.8610 O.3   1 <1>  -0.3630 
 13 O        3.0910    -3.7290     1.8270 O.2   1 <1>  -0.5700 
 14 N        1.0750    -4.2440     0.9840 N.am  1 <1>  -0.6600 
 15 C        3.7040    -4.6470    -1.2580 C.3   1 <1>   0.0400 
 16 C       -0.0040    -4.0050    -0.0230 C.3   1 <1>   0.2200 
 17 C        0.8750    -5.3370     1.9880 C.3   1 <1>   0.0600 
 18 C       -0.5720    -5.2700    -0.6620 C.3   1 <1>  -0.1600 
 19 C       -1.2150    -3.3050     0.5820 C.3   1 <1>  -0.1600 
 20 C       -1.9170    -4.8190    -1.2460 C.3   1 <1>  -0.0800 
 21 C       -2.3640    -3.6070    -0.3900 C.3   1 <1>  -0.0800 
 22 C       -2.9340    -5.9720    -1.3670 C.3   1 <1>   0.1400 
 23 C       -3.7170    -3.8000     0.3210 C.3   1 <1>  -0.0990 
 24 N       -4.3090    -5.4310    -1.4070 N.am  1 <1>  -0.7300 
 25 C       -4.7260    -4.4160    -0.6230 C.2   1 <1>   0.5690 
 26 O       -5.8610    -4.0160    -0.6610 O.2   1 <1>  -0.5700 
 27 H        4.2670     1.9180     0.8870 H     1 <1>   0.4200 
 28 H        3.5940     1.1840     2.2210 H     1 <1>   0.4200 
 29 H        1.9330    -0.9910     1.7310 H     1 <1>   0.1500 
 30 H        2.7670     0.8660    -2.0050 H     1 <1>   0.1500 
 31 H        3.1440    -1.3450    -3.0000 H     1 <1>   0.1500 
 32 H        4.1660    -5.2260    -2.0380 H     1 <1>   0.0800 
 33 H        3.0020    -5.2610    -0.7230 H     1 <1>   0.0800 
 34 H        4.4580    -4.2630    -0.5930 H     1 <1>   0.0800 
 35 H        0.3620    -3.3900    -0.8250 H     1 <1>   0.0800 
 36 H       -0.1560    -5.3930     2.2890 H     1 <1>   0.0800 
 37 H        1.4680    -5.1580     2.8690 H     1 <1>   0.0800 
 38 H        1.1730    -6.2780     1.5610 H     1 <1>   0.0800 
 39 H        0.0860    -5.6500    -1.4240 H     1 <1>   0.0800 
 40 H       -0.7450    -6.0280     0.0780 H     1 <1>   0.0800 
 41 H       -1.4320    -3.7160     1.5520 H     1 <1>   0.0800 
 42 H       -1.0470    -2.2470     0.6760 H     1 <1>   0.0800 
 43 H       -1.7310    -4.4520    -2.2420 H     1 <1>   0.0800 
 44 H       -2.4700    -2.7680    -1.0600 H     1 <1>   0.0800 
 45 H       -2.8580    -6.6300    -0.5180 H     1 <1>   0.0800 
 46 H       -2.7390    -6.5440    -2.2590 H     1 <1>   0.0800 
 47 H       -4.0880    -2.8570     0.6780 H     1 <1>   0.0800 
 48 H       -3.6130    -4.4630     1.1600 H     1 <1>   0.0800 
 49 H       -4.9990    -5.8700    -2.0210 H     1 <1>   0.3700 
@<TRIPOS>BOND
  1   1   2  2   
  2   1   3  2   
  3   1   4  am  
  4   1   5  1   
  5   4  27  1   
  6   4  28  1   
  7   5   6  ar  
  8   5   7  ar  
  9   6   8  ar  
 10   6  29  1   
 11   7   9  ar  
 12   7  30  1   
 13   8  10  ar  
 14   8  11  1   
 15   9  10  ar  
 16   9  31  1   
 17  10  12  1   
 18  11  13  2   
 19  11  14  am  
 20  12  15  1   
 21  14  16  1   
 22  14  17  1   
 23  15  32  1   
 24  15  33  1   
 25  15  34  1   
 26  16  18  1   
 27  16  19  1   
 28  16  35  1   
 29  17  36  1   
 30  17  37  1   
 31  17  38  1   
 32  18  20  1   
 33  18  39  1   
 34  18  40  1   
 35  19  21  1   
 36  19  41  1   
 37  19  42  1   
 38  20  21  1   
 39  20  22  1   
 40  20  43  1   
 41  21  23  1   
 42  21  44  1   
 43  22  24  1   
 44  22  45  1   
 45  22  46  1   
 46  23  25  1   
 47  23  47  1   
 48  23  48  1   
 49  24  25  am  
 50  24  49  1   
 51  25  26  2   
@<TRIPOS>SUBSTRUCTURE
  1 ****  16 GROUP 4 **** **** 0

# MOE 2024.06 (io_trps.svl 2023.06)
