@<TRIPOS>MOLECULE
NONAME
54 57 1 0 0 
SMALL
USER_CHARGES


@<TRIPOS>ATOM
  1 O        0.2720     1.3420    -1.8050 O.2   1 <1>  -0.5700 
  2 C        0.8780     1.9590    -0.9580 C.2   1 <1>   0.5690 
  3 N        0.2680     2.9120    -0.1840 N.am  1 <1>  -0.6600 
  4 C        2.3570     1.6390    -0.7860 C.3   1 <1>  -0.0190 
  5 C        1.0110     3.7290     0.8240 C.3   1 <1>   0.2200 
  6 C       -1.1880     3.2040    -0.2990 C.3   1 <1>   0.0600 
  7 C        3.2080     2.8350    -1.2350 C.3   1 <1>   0.2090 
  8 C        2.7400     1.0650     0.6040 C.3   1 <1>  -0.1600 
  9 C        2.1060     4.6020     0.1720 C.3   1 <1>   0.2090 
 10 C        1.5210     2.8710     2.0060 C.3   1 <1>  -0.1600 
 11 N        3.3610     3.8660    -0.1760 N.pl3 1 <1>  -0.8380 
 12 C        1.7530     1.3700     1.7440 C.3   1 <1>  -0.1600 
 13 C        4.5560     4.5580    -0.1210 C.ar  1 <1>   0.4100 
 14 N        4.5380     5.8360    -0.3410 N.ar  1 <1>  -0.6200 
 15 C        5.7390     3.8640     0.1630 C.ar  1 <1>  -0.1500 
 16 C        5.7120     6.5240    -0.3050 C.ar  1 <1>   0.3100 
 17 C        6.9420     4.4980     0.2060 C.ar  1 <1>  -0.1440 
 18 C        6.9660     5.9010    -0.0470 C.ar  1 <1>   0.0000 
 19 C        5.6600     7.9260    -0.5400 C.ar  1 <1>   0.0820 
 20 C        8.1700     3.6550     0.5300 C.3   1 <1>  -0.0970 
 21 C        8.1310     6.7250    -0.0610 C.ar  1 <1>   0.0820 
 22 O        4.4360     8.4930    -0.7690 O.3   1 <1>  -0.3630 
 23 C        6.8090     8.6800    -0.5350 C.ar  1 <1>  -0.1500 
 24 O        9.3430     6.1500     0.1640 O.3   1 <1>  -0.3630 
 25 C        8.0380     8.0790    -0.2980 C.ar  1 <1>  -0.1500 
 26 C        4.2790     9.8590    -1.0810 C.3   1 <1>   0.0400 
 27 C       10.5570     6.8710     0.1700 C.3   1 <1>   0.0400 
 28 H        2.5710     0.8650    -1.5010 H     1 <1>   0.0800 
 29 H        0.3110     4.4330     1.2400 H     1 <1>   0.0800 
 30 H       -1.6640     3.0550     0.6540 H     1 <1>   0.0800 
 31 H       -1.6540     2.5530    -1.0190 H     1 <1>   0.0800 
 32 H       -1.3300     4.2220    -0.6160 H     1 <1>   0.0800 
 33 H        2.7680     3.2870    -2.1090 H     1 <1>   0.0800 
 34 H        4.1820     2.4760    -1.5190 H     1 <1>   0.0800 
 35 H        2.8000    -0.0060     0.5150 H     1 <1>   0.0800 
 36 H        3.7210     1.4070     0.8840 H     1 <1>   0.0800 
 37 H        2.3550     5.3800     0.8740 H     1 <1>   0.0800 
 38 H        1.7140     5.0820    -0.7070 H     1 <1>   0.0800 
 39 H        2.4320     3.3050     2.3820 H     1 <1>   0.0800 
 40 H        0.8000     2.9530     2.8000 H     1 <1>   0.0800 
 41 H        2.1310     0.9250     2.6470 H     1 <1>   0.0800 
 42 H        0.8090     0.8940     1.5380 H     1 <1>   0.0800 
 43 H        5.6490     2.8140     0.3520 H     1 <1>   0.1500 
 44 H        7.9050     2.6290     0.7070 H     1 <1>   0.0800 
 45 H        8.6510     4.0300     1.4160 H     1 <1>   0.0800 
 46 H        8.8640     3.6830    -0.2910 H     1 <1>   0.0800 
 47 H        6.7990     9.7390    -0.7090 H     1 <1>   0.1500 
 48 H        8.9000     8.7180    -0.3100 H     1 <1>   0.1500 
 49 H        3.2320    10.0430    -1.2440 H     1 <1>   0.0800 
 50 H        4.8310    10.0780    -1.9770 H     1 <1>   0.0800 
 51 H        4.6280    10.4490    -0.2530 H     1 <1>   0.0800 
 52 H       11.3540     6.1780     0.3700 H     1 <1>   0.0800 
 53 H       10.5180     7.6140     0.9460 H     1 <1>   0.0800 
 54 H       10.7000     7.3230    -0.7950 H     1 <1>   0.0800 
@<TRIPOS>BOND
  1   1   2  2   
  2   2   3  am  
  3   2   4  1   
  4   3   5  1   
  5   3   6  1   
  6   4   7  1   
  7   4   8  1   
  8   4  28  1   
  9   5   9  1   
 10   5  10  1   
 11   5  29  1   
 12   6  30  1   
 13   6  31  1   
 14   6  32  1   
 15   7  11  1   
 16   7  33  1   
 17   7  34  1   
 18   8  12  1   
 19   8  35  1   
 20   8  36  1   
 21   9  11  1   
 22   9  37  1   
 23   9  38  1   
 24  10  12  1   
 25  10  39  1   
 26  10  40  1   
 27  11  13  1   
 28  12  41  1   
 29  12  42  1   
 30  13  14  ar  
 31  13  15  ar  
 32  14  16  ar  
 33  15  17  ar  
 34  15  43  1   
 35  16  18  ar  
 36  16  19  ar  
 37  17  18  ar  
 38  17  20  1   
 39  18  21  ar  
 40  19  22  1   
 41  19  23  ar  
 42  20  44  1   
 43  20  45  1   
 44  20  46  1   
 45  21  24  1   
 46  21  25  ar  
 47  22  26  1   
 48  23  25  ar  
 49  23  47  1   
 50  24  27  1   
 51  25  48  1   
 52  26  49  1   
 53  26  50  1   
 54  26  51  1   
 55  27  52  1   
 56  27  53  1   
 57  27  54  1   
@<TRIPOS>SUBSTRUCTURE
  1 ****  13 GROUP 4 **** **** 0

# MOE 2024.06 (io_trps.svl 2023.06)
