@<TRIPOS>MOLECULE
NONAME
61 64 1 0 0 
SMALL
USER_CHARGES


@<TRIPOS>ATOM
  1 O        1.7760     1.2240    -2.0140 O.3   1 <1>  -0.5600 
  2 C        2.7990     0.2840    -1.7820 C.3   1 <1>   0.2000 
  3 C        2.0940     2.5480    -1.7050 C.3   1 <1>   0.1200 
  4 C        3.3030     0.3510    -0.3140 C.3   1 <1>   0.5660 
  5 C        2.2520    -1.1180    -2.0980 C.3   1 <1>   0.1200 
  6 C        2.4440     2.6690    -0.2120 C.3   1 <1>   0.3430 
  7 N        3.5680     1.7470     0.1600 N.4   1 <1>  -0.9590 
  8 C        4.5740    -0.4660    -0.1240 C.ar  1 <1>  -0.1430 
  9 O        1.4010    -1.5430    -1.0800 O.3   1 <1>  -0.6800 
 10 C        3.8690     1.7750     1.6180 C.3   1 <1>   0.5240 
 11 C        4.5680    -1.5190     0.7800 C.ar  1 <1>  -0.1500 
 12 C        5.7360    -0.1880    -0.8340 C.ar  1 <1>  -0.1500 
 13 C        4.0910     3.2090     2.0570 C.2   1 <1>  -0.1810 
 14 C        5.7050    -2.2800     0.9890 C.ar  1 <1>   0.0820 
 15 C        6.8790    -0.9410    -0.6240 C.ar  1 <1>  -0.1500 
 16 C        5.0160     4.0890     1.4870 C.2   1 <1>   0.2350 
 17 C        3.4650     3.9200     3.0190 C.2   1 <1>  -0.3020 
 18 O        5.6060    -3.3020     1.8720 O.3   1 <1>  -0.3620 
 19 C        6.8810    -1.9740     0.2960 C.ar  1 <1>   0.0820 
 20 N        4.9390     5.2670     2.0420 N.2   1 <1>  -0.7070 
 21 C        5.9020     3.7470     0.4000 C.ar  1 <1>   0.0540 
 22 N        4.0020     5.1560     2.9960 N.pl3 1 <1>   0.3000 
 23 C        5.7800    -4.6060     1.3590 C.3   1 <1>   0.0400 
 24 O        8.0450    -2.6420     0.4750 O.3   1 <1>  -0.3630 
 25 C        5.7280     4.3040    -0.8620 C.ar  1 <1>  -0.1500 
 26 C        6.9230     2.8160     0.5690 C.ar  1 <1>  -0.1500 
 27 C        8.6520    -2.5380     1.7450 C.3   1 <1>   0.0400 
 28 C        6.5160     3.9150    -1.9290 C.ar  1 <1>  -0.1500 
 29 C        7.7200     2.4320    -0.4930 C.ar  1 <1>  -0.1500 
 30 C        7.5120     2.9700    -1.7520 C.ar  1 <1>  -0.1430 
 31 C        8.3890     2.5490    -2.9180 C.3   1 <1>  -0.0970 
 32 H        3.5970     0.5060    -2.4670 H     1 <1>   0.0800 
 33 H        2.9130     2.8680    -2.3270 H     1 <1>   0.0800 
 34 H        1.2330     3.1520    -1.9320 H     1 <1>   0.0800 
 35 H        2.5310    -0.0780     0.3030 H     1 <1>   0.0800 
 36 H        3.0570    -1.8300    -2.1730 H     1 <1>   0.0800 
 37 H        1.7060    -1.1030    -3.0260 H     1 <1>   0.0800 
 38 H        1.5660     2.4310     0.3650 H     1 <1>   0.0800 
 39 H        2.7170     3.6900     0.0050 H     1 <1>   0.0800 
 40 H        4.4220     2.0670    -0.3140 H     1 <1>   0.4500 
 41 H        0.8710    -2.3140    -1.3730 H     1 <1>   0.4000 
 42 H        3.0480     1.3530     2.1740 H     1 <1>   0.0800 
 43 H        4.7550     1.1950     1.8250 H     1 <1>   0.0800 
 44 H        3.6800    -1.7770     1.3310 H     1 <1>   0.1500 
 45 H        5.7790     0.6110    -1.5550 H     1 <1>   0.1500 
 46 H        7.7810    -0.7300    -1.1710 H     1 <1>   0.1500 
 47 H        2.6870     3.6400     3.7080 H     1 <1>   0.1500 
 48 H        3.7530     5.9440     3.6110 H     1 <1>   0.2700 
 49 H        5.5590    -5.3080     2.1430 H     1 <1>   0.0800 
 50 H        6.7970    -4.7320     1.0340 H     1 <1>   0.0800 
 51 H        5.1040    -4.7500     0.5350 H     1 <1>   0.0800 
 52 H        4.9730     5.0600    -0.9990 H     1 <1>   0.1500 
 53 H        7.1030     2.3980     1.5450 H     1 <1>   0.1500 
 54 H        9.5970    -3.0490     1.7080 H     1 <1>   0.0800 
 55 H        8.0200    -2.9960     2.4840 H     1 <1>   0.0800 
 56 H        8.8040    -1.4980     1.9750 H     1 <1>   0.0800 
 57 H        6.3650     4.3630    -2.8970 H     1 <1>   0.1500 
 58 H        8.5100     1.7170    -0.3350 H     1 <1>   0.1500 
 59 H        7.8440     2.6090    -3.8440 H     1 <1>   0.0800 
 60 H        8.7310     1.5380    -2.7910 H     1 <1>   0.0800 
 61 H        9.2450     3.1970    -2.9800 H     1 <1>   0.0800 
@<TRIPOS>BOND
  1   1   2  1   
  2   1   3  1   
  3   2   4  1   
  4   2   5  1   
  5   2  32  1   
  6   3   6  1   
  7   3  33  1   
  8   3  34  1   
  9   4   7  1   
 10   4   8  1   
 11   4  35  1   
 12   5   9  1   
 13   5  36  1   
 14   5  37  1   
 15   6   7  1   
 16   6  38  1   
 17   6  39  1   
 18   7  10  1   
 19   7  40  1   
 20   8  11  ar  
 21   8  12  ar  
 22   9  41  1   
 23  10  13  1   
 24  10  42  1   
 25  10  43  1   
 26  11  14  ar  
 27  11  44  1   
 28  12  15  ar  
 29  12  45  1   
 30  13  16  1   
 31  13  17  2   
 32  14  18  1   
 33  14  19  ar  
 34  15  19  ar  
 35  15  46  1   
 36  16  20  2   
 37  16  21  1   
 38  17  22  1   
 39  17  47  1   
 40  18  23  1   
 41  19  24  1   
 42  20  22  1   
 43  21  25  ar  
 44  21  26  ar  
 45  22  48  1   
 46  23  49  1   
 47  23  50  1   
 48  23  51  1   
 49  24  27  1   
 50  25  28  ar  
 51  25  52  1   
 52  26  29  ar  
 53  26  53  1   
 54  27  54  1   
 55  27  55  1   
 56  27  56  1   
 57  28  30  ar  
 58  28  57  1   
 59  29  30  ar  
 60  29  58  1   
 61  30  31  1   
 62  31  59  1   
 63  31  60  1   
 64  31  61  1   
@<TRIPOS>SUBSTRUCTURE
  1 ****   8 GROUP 4 **** **** 0

# MOE 2024.06 (io_trps.svl 2023.06)
