@<TRIPOS>MOLECULE
NONAME
36 37 1 0 0 
SMALL
USER_CHARGES


@<TRIPOS>ATOM
  1 S       -0.7420     0.4390     1.3550 S.o2  1 <1>   1.4470 
  2 O       -0.6590    -0.8260     2.0520 O.2   1 <1>  -0.6500 
  3 O       -1.2870     1.5950     2.0350 O.2   1 <1>  -0.6500 
  4 N       -1.6440     0.2140    -0.0650 N.am  1 <1>  -0.8490 
  5 C        0.8970     0.8840     0.7130 C.ar  1 <1>  -0.0090 
  6 C       -1.2390    -0.9630    -0.8630 C.3   1 <1>   0.1960 
  7 C       -3.1070     0.3650     0.1000 C.3   1 <1>   0.1960 
  8 C        2.0220     0.1210     1.0050 C.ar  1 <1>  -0.1500 
  9 C        1.0640     1.9990    -0.0980 C.ar  1 <1>  -0.1500 
 10 C       -1.8370    -2.3120    -0.3950 C.3   1 <1>   0.2000 
 11 C       -3.9150    -0.9030    -0.2190 C.3   1 <1>  -0.1600 
 12 C        3.2680     0.4580     0.5040 C.ar  1 <1>  -0.1500 
 13 C        2.3060     2.3420    -0.6020 C.ar  1 <1>  -0.1500 
 14 O       -1.9830    -3.0830    -1.5330 O.3   1 <1>  -0.6800 
 15 C       -3.2000    -2.1560     0.3150 C.3   1 <1>  -0.1860 
 16 C        3.4160     1.5710    -0.3050 C.ar  1 <1>  -0.1440 
 17 C       -4.1000    -3.3860     0.3340 C.2   1 <1>   0.9060 
 18 C        4.7800     1.9450    -0.8560 C.3   1 <1>  -0.0960 
 19 O       -5.0530    -3.3890     1.1170 O.co2 1 <1>  -0.9000 
 20 O       -3.8800    -4.3390    -0.4270 O.co2 1 <1>  -0.9000 
 21 H       -1.5710    -0.7870    -1.8720 H     1 <1>   0.0800 
 22 H       -0.1670    -1.0450    -0.8910 H     1 <1>   0.0800 
 23 H       -3.3330     0.6500     1.1140 H     1 <1>   0.0800 
 24 H       -3.4460     1.1640    -0.5360 H     1 <1>   0.0800 
 25 H        1.9220    -0.7490     1.6320 H     1 <1>   0.1500 
 26 H        0.2060     2.6050    -0.3350 H     1 <1>   0.1500 
 27 H       -1.1520    -2.8300     0.2540 H     1 <1>   0.0800 
 28 H       -4.8880    -0.8220     0.2340 H     1 <1>   0.0800 
 29 H       -4.0610    -0.9960    -1.2820 H     1 <1>   0.0800 
 30 H        4.1210    -0.1510     0.7490 H     1 <1>   0.1500 
 31 H        2.4040     3.2140    -1.2260 H     1 <1>   0.1500 
 32 H       -2.6950    -3.7650    -1.3050 H     1 <1>   0.4000 
 33 H       -2.9860    -1.9680     1.3500 H     1 <1>   0.0800 
 34 H        5.3910     1.0680    -0.9780 H     1 <1>   0.0800 
 35 H        5.2730     2.6200    -0.1790 H     1 <1>   0.0800 
 36 H        4.6810     2.4240    -1.8130 H     1 <1>   0.0800 
@<TRIPOS>BOND
  1   1   2  2   
  2   1   3  2   
  3   1   4  am  
  4   1   5  1   
  5   4   6  1   
  6   4   7  1   
  7   5   8  ar  
  8   5   9  ar  
  9   6  10  1   
 10   6  21  1   
 11   6  22  1   
 12   7  11  1   
 13   7  23  1   
 14   7  24  1   
 15   8  12  ar  
 16   8  25  1   
 17   9  13  ar  
 18   9  26  1   
 19  10  14  1   
 20  10  15  1   
 21  10  27  1   
 22  11  15  1   
 23  11  28  1   
 24  11  29  1   
 25  12  16  ar  
 26  12  30  1   
 27  13  16  ar  
 28  13  31  1   
 29  14  32  1   
 30  15  17  1   
 31  15  33  1   
 32  16  18  1   
 33  17  19  ar  
 34  17  20  ar  
 35  18  34  1   
 36  18  35  1   
 37  18  36  1   
@<TRIPOS>SUBSTRUCTURE
  1 ****   4 GROUP 4 **** **** 0

# MOE 2024.06 (io_trps.svl 2023.06)
