@<TRIPOS>MOLECULE
NONAME
49 51 1 0 0 
SMALL
USER_CHARGES


@<TRIPOS>ATOM
  1 O        1.5290     0.2730     1.0060 O.2   1 <1>  -0.5700 
  2 C        2.3800    -0.2700     0.3240 C.2   1 <1>   0.7160 
  3 N        2.5300     0.1610    -0.9850 N.am  1 <1>  -0.6600 
  4 C        3.2580    -1.2840     0.9040 C.2   1 <1>   0.1410 
  5 C        3.2120    -0.6530    -2.0430 C.3   1 <1>   0.1400 
  6 C        2.1310     1.5330    -1.3910 C.3   1 <1>   0.1400 
  7 N        4.5990    -1.3690     0.6150 N.2   1 <1>  -0.5650 
  8 C        2.9490    -2.2650     1.8070 C.2   1 <1>  -0.3320 
  9 C        4.6680    -0.2060    -2.3050 C.3   1 <1>   0.3430 
 10 C        3.2630     2.5150    -1.0600 C.3   1 <1>  -0.1600 
 11 C        5.0290    -2.3580     1.3270 C.2   1 <1>   0.0360 
 12 N        4.0720    -2.9420     2.0730 N.pl3 1 <1>   0.0330 
 13 C        1.6180    -2.6100     2.4600 C.3   1 <1>  -0.0600 
 14 N        5.0990     0.8630    -1.3540 N.4   1 <1>  -0.9590 
 15 C        4.6050     2.2160    -1.7360 C.3   1 <1>   0.3430 
 16 C        6.5690     0.8100    -1.0420 C.3   1 <1>   0.3430 
 17 C        6.9320     1.3390     0.3670 C.3   1 <1>   0.3430 
 18 O        6.4960     2.6460     0.5350 O.3   1 <1>  -0.6800 
 19 C        8.4350     1.3090     0.5830 C.ar  1 <1>  -0.1440 
 20 C        9.2740     2.1900    -0.0880 C.ar  1 <1>  -0.1500 
 21 C        8.9870     0.3820     1.4570 C.ar  1 <1>  -0.1500 
 22 C       10.6430     2.1390     0.1080 C.ar  1 <1>  -0.1500 
 23 C       10.3560     0.3320     1.6520 C.ar  1 <1>  -0.1500 
 24 C       11.1850     1.2100     0.9770 C.ar  1 <1>  -0.1500 
 25 H        2.6490    -0.5940    -2.9590 H     1 <1>   0.0800 
 26 H        3.2160    -1.6890    -1.7510 H     1 <1>   0.0800 
 27 H        1.2370     1.8240    -0.8620 H     1 <1>   0.0800 
 28 H        1.9050     1.5570    -2.4430 H     1 <1>   0.0800 
 29 H        4.7710     0.1340    -3.3210 H     1 <1>   0.0800 
 30 H        5.3000    -1.0700    -2.1840 H     1 <1>   0.0800 
 31 H        3.4010     2.5550     0.0070 H     1 <1>   0.0800 
 32 H        2.9500     3.4970    -1.3640 H     1 <1>   0.0800 
 33 H        6.0470    -2.7080     1.3460 H     1 <1>   0.1500 
 34 H        4.1860    -3.7350     2.7140 H     1 <1>   0.2700 
 35 H        0.8280    -1.9900     2.0760 H     1 <1>   0.0800 
 36 H        1.6760    -2.4570     3.5230 H     1 <1>   0.0800 
 37 H        1.3620    -3.6370     2.2690 H     1 <1>   0.0800 
 38 H        4.6120     0.6140    -0.4730 H     1 <1>   0.4500 
 39 H        5.3150     2.9650    -1.4240 H     1 <1>   0.0800 
 40 H        4.5030     2.2840    -2.8060 H     1 <1>   0.0800 
 41 H        7.1250     1.3630    -1.7790 H     1 <1>   0.0800 
 42 H        6.9000    -0.2130    -1.0870 H     1 <1>   0.0800 
 43 H        6.4440     0.7360     1.1140 H     1 <1>   0.0800 
 44 H        6.9330     3.0190     1.3290 H     1 <1>   0.4000 
 45 H        8.8720     2.9250    -0.7630 H     1 <1>   0.1500 
 46 H        8.3610    -0.3090     1.9960 H     1 <1>   0.1500 
 47 H       11.2900     2.8240    -0.4140 H     1 <1>   0.1500 
 48 H       10.7800    -0.3880     2.3310 H     1 <1>   0.1500 
 49 H       12.2500     1.1710     1.1290 H     1 <1>   0.1500 
@<TRIPOS>BOND
  1   1   2  2   
  2   2   3  am  
  3   2   4  1   
  4   3   5  1   
  5   3   6  1   
  6   4   7  1   
  7   4   8  2   
  8   5   9  1   
  9   5  25  1   
 10   5  26  1   
 11   6  10  1   
 12   6  27  1   
 13   6  28  1   
 14   7  11  2   
 15   8  12  1   
 16   8  13  1   
 17   9  14  1   
 18   9  29  1   
 19   9  30  1   
 20  10  15  1   
 21  10  31  1   
 22  10  32  1   
 23  11  12  1   
 24  11  33  1   
 25  12  34  1   
 26  13  35  1   
 27  13  36  1   
 28  13  37  1   
 29  14  15  1   
 30  14  16  1   
 31  14  38  1   
 32  15  39  1   
 33  15  40  1   
 34  16  17  1   
 35  16  41  1   
 36  16  42  1   
 37  17  18  1   
 38  17  19  1   
 39  17  43  1   
 40  18  44  1   
 41  19  20  ar  
 42  19  21  ar  
 43  20  22  ar  
 44  20  45  1   
 45  21  23  ar  
 46  21  46  1   
 47  22  24  ar  
 48  22  47  1   
 49  23  24  ar  
 50  23  48  1   
 51  24  49  1   
@<TRIPOS>SUBSTRUCTURE
  1 ****  14 GROUP 4 **** **** 0

# MOE 2024.06 (io_trps.svl 2023.06)
