@<TRIPOS>MOLECULE
NONAME
47 48 1 0 0 
SMALL
USER_CHARGES


@<TRIPOS>ATOM
  1 O        1.5750    -0.0220     2.4850 O.co2 1 <1>  -0.9000 
  2 C        1.4870    -0.2800     1.2790 C.2   1 <1>   0.9060 
  3 O        0.9700    -1.3330     0.8760 O.co2 1 <1>  -0.9000 
  4 C        2.1050     0.6640     0.2310 C.3   1 <1>  -0.1060 
  5 C        3.2600    -0.1950    -0.3510 C.3   1 <1>   0.2000 
  6 C        2.6850     1.9590     0.8900 C.3   1 <1>  -0.1600 
  7 C        0.9930     1.0810    -0.7880 C.3   1 <1>  -0.1600 
  8 O        2.7650    -1.0960    -1.2820 O.3   1 <1>  -0.6800 
  9 C        4.4420     0.6060    -0.9230 C.3   1 <1>   0.2090 
 10 C        4.1500     1.7890     1.2910 C.3   1 <1>   0.2090 
 11 C        1.4570     1.7760    -2.0830 C.3   1 <1>  -0.1600 
 12 N        4.9740     1.6520     0.0410 N.pl3 1 <1>  -0.8380 
 13 C        0.2560     2.2410    -2.9100 C.3   1 <1>  -0.2400 
 14 C        6.1720     2.2490    -0.1650 C.ar  1 <1>   0.4100 
 15 N        7.1020     1.4650    -0.7300 N.ar  1 <1>  -0.6200 
 16 C        6.4920     3.5870     0.1780 C.ar  1 <1>  -0.1430 
 17 C        8.3110     1.9030    -0.8460 C.ar  1 <1>   0.5280 
 18 C        7.7960     3.9980     0.0600 C.ar  1 <1>   0.2180 
 19 C        5.4050     4.5830     0.5990 C.3   1 <1>  -0.0970 
 20 N        8.6900     3.1290    -0.4500 N.ar  1 <1>  -0.1790 
 21 C        9.3490     0.9850    -1.4590 C.3   1 <1>  -0.0970 
 22 C        8.3240     5.3770     0.4400 C.3   1 <1>  -0.0970 
 23 H        3.6690    -0.8000     0.4420 H     1 <1>   0.0800 
 24 H        2.1060     2.2240     1.7570 H     1 <1>   0.0800 
 25 H        2.6240     2.7960     0.2250 H     1 <1>   0.0800 
 26 H        0.4390     0.2030    -1.0740 H     1 <1>   0.0800 
 27 H        0.2970     1.7200    -0.2720 H     1 <1>   0.0800 
 28 H        1.9890    -1.5260    -0.8350 H     1 <1>   0.4000 
 29 H        4.1310     1.1020    -1.8230 H     1 <1>   0.0800 
 30 H        5.2180    -0.0940    -1.1730 H     1 <1>   0.0800 
 31 H        4.2540     0.9020     1.8950 H     1 <1>   0.0800 
 32 H        4.4730     2.6140     1.8940 H     1 <1>   0.0800 
 33 H        2.0790     2.6240    -1.8670 H     1 <1>   0.0800 
 34 H        2.0290     1.0830    -2.6730 H     1 <1>   0.0800 
 35 H       -0.3290     2.9530    -2.3550 H     1 <1>   0.0800 
 36 H       -0.3680     1.4020    -3.1630 H     1 <1>   0.0800 
 37 H        0.5930     2.7050    -3.8200 H     1 <1>   0.0800 
 38 H        5.6060     5.5680     0.2190 H     1 <1>   0.0800 
 39 H        5.3290     4.6350     1.6700 H     1 <1>   0.0800 
 40 H        4.4520     4.2950     0.1930 H     1 <1>   0.0800 
 41 H        9.6660     3.3990    -0.5630 H     1 <1>   0.4570 
 42 H        8.9000     0.0380    -1.7040 H     1 <1>   0.0800 
 43 H       10.1500     0.8060    -0.7650 H     1 <1>   0.0800 
 44 H        9.7420     1.4140    -2.3620 H     1 <1>   0.0800 
 45 H        7.6820     5.8610     1.1540 H     1 <1>   0.0800 
 46 H        8.3920     6.0010    -0.4340 H     1 <1>   0.0800 
 47 H        9.2970     5.3030     0.8910 H     1 <1>   0.0800 
@<TRIPOS>BOND
  1   1   2  ar  
  2   2   3  ar  
  3   2   4  1   
  4   4   5  1   
  5   4   6  1   
  6   4   7  1   
  7   5   8  1   
  8   5   9  1   
  9   5  23  1   
 10   6  10  1   
 11   6  24  1   
 12   6  25  1   
 13   7  11  1   
 14   7  26  1   
 15   7  27  1   
 16   8  28  1   
 17   9  12  1   
 18   9  29  1   
 19   9  30  1   
 20  10  12  1   
 21  10  31  1   
 22  10  32  1   
 23  11  13  1   
 24  11  33  1   
 25  11  34  1   
 26  12  14  1   
 27  13  35  1   
 28  13  36  1   
 29  13  37  1   
 30  14  15  ar  
 31  14  16  ar  
 32  15  17  ar  
 33  16  18  ar  
 34  16  19  1   
 35  17  20  ar  
 36  17  21  1   
 37  18  20  ar  
 38  18  22  1   
 39  19  38  1   
 40  19  39  1   
 41  19  40  1   
 42  20  41  1   
 43  21  42  1   
 44  21  43  1   
 45  21  44  1   
 46  22  45  1   
 47  22  46  1   
 48  22  47  1   
@<TRIPOS>SUBSTRUCTURE
  1 ****  12 GROUP 4 **** **** 0

# MOE 2024.06 (io_trps.svl 2023.06)
