@<TRIPOS>MOLECULE
NONAME
31 32 1 0 0 
SMALL
USER_CHARGES


@<TRIPOS>ATOM
  1 S        0.2210    -0.2260     1.2520 S.3   1 <1>  -0.0800 
  2 C       -1.3940     0.2440     0.7560 C.2   1 <1>   0.1980 
  3 C        0.7750     1.3810     0.8880 C.2   1 <1>  -0.1100 
  4 N       -1.4840     1.4590     0.3750 N.2   1 <1>  -0.5650 
  5 C       -2.4840    -0.8230     0.8480 C.3   1 <1>   0.3890 
  6 C       -0.2630     2.1060     0.4450 C.2   1 <1>   0.0460 
  7 N       -2.7310    -1.5740    -0.4340 N.pl3 1 <1>  -0.8380 
  8 C       -0.2320     3.5550     0.0160 C.3   1 <1>  -0.0590 
  9 C       -3.8890    -2.3100    -0.5600 C.ar  1 <1>   0.4100 
 10 C       -1.5740    -1.7530    -1.3560 C.3   1 <1>   0.1290 
 11 N       -4.4510    -2.7490     0.5460 N.ar  1 <1>  -0.6200 
 12 C       -4.4510    -2.5760    -1.7960 C.ar  1 <1>  -0.1500 
 13 C       -5.5480    -3.4560     0.3700 C.ar  1 <1>   0.7220 
 14 C       -5.5970    -3.3230    -1.8390 C.ar  1 <1>   0.1600 
 15 S       -6.2950    -4.0540     1.8820 S.3   1 <1>  -0.3320 
 16 N       -6.1730    -3.7870    -0.7490 N.ar  1 <1>  -0.6200 
 17 C       -7.7880    -4.9990     1.3400 C.3   1 <1>  -0.0100 
 18 H        1.8130     1.6080     1.0460 H     1 <1>   0.1500 
 19 H       -3.3980    -0.3380     1.1410 H     1 <1>   0.0800 
 20 H       -2.2260    -1.5260     1.6200 H     1 <1>   0.0800 
 21 H        0.7600     3.9560     0.1100 H     1 <1>   0.0800 
 22 H       -0.9020     4.1280     0.6320 H     1 <1>   0.0800 
 23 H       -0.5480     3.6350    -1.0080 H     1 <1>   0.0800 
 24 H       -1.3350    -0.8140    -1.8250 H     1 <1>   0.0800 
 25 H       -1.7980    -2.4780    -2.1180 H     1 <1>   0.0800 
 26 H       -0.7170    -2.1020    -0.8060 H     1 <1>   0.0800 
 27 H       -4.0010    -2.1940    -2.6900 H     1 <1>   0.1500 
 28 H       -6.0600    -3.5480    -2.7850 H     1 <1>   0.1500 
 29 H       -8.2740    -5.3800     2.2190 H     1 <1>   0.0800 
 30 H       -7.4580    -5.8000     0.7030 H     1 <1>   0.0800 
 31 H       -8.4310    -4.3220     0.8050 H     1 <1>   0.0800 
@<TRIPOS>BOND
  1   1   2  1   
  2   1   3  1   
  3   2   4  2   
  4   2   5  1   
  5   3   6  2   
  6   3  18  1   
  7   4   6  1   
  8   5   7  1   
  9   5  19  1   
 10   5  20  1   
 11   6   8  1   
 12   7   9  1   
 13   7  10  1   
 14   8  21  1   
 15   8  22  1   
 16   8  23  1   
 17   9  11  ar  
 18   9  12  ar  
 19  10  24  1   
 20  10  25  1   
 21  10  26  1   
 22  11  13  ar  
 23  12  14  ar  
 24  12  27  1   
 25  13  15  1   
 26  13  16  ar  
 27  14  16  ar  
 28  14  28  1   
 29  15  17  1   
 30  17  29  1   
 31  17  30  1   
 32  17  31  1   
@<TRIPOS>SUBSTRUCTURE
  1 ****   7 GROUP 4 **** **** 0

# MOE 2024.06 (io_trps.svl 2023.06)
