@<TRIPOS>MOLECULE
NONAME
54 56 1 0 0 
SMALL
USER_CHARGES


@<TRIPOS>ATOM
  1 S        0.5990    -0.5650    -3.2470 S.3   1 <1>  -0.0800 
  2 C        1.2710    -0.4680    -1.6220 C.2   1 <1>   0.3250 
  3 C        1.0230    -2.2440    -3.3360 C.2   1 <1>  -0.1100 
  4 N        1.7540    -1.5980    -1.2270 N.2   1 <1>  -0.5650 
  5 C        1.2330     0.7900    -0.9080 C.ar  1 <1>   0.0530 
  6 C        1.6180    -2.5910    -2.1860 C.2   1 <1>   0.0460 
  7 C        2.0590     0.9930     0.1970 C.ar  1 <1>  -0.1500 
  8 C        0.3890     1.8440    -1.2640 C.ar  1 <1>  -0.1500 
  9 C        2.1380    -3.9720    -1.8150 C.3   1 <1>   0.5240 
 10 C        2.0480     2.1780     0.9090 C.ar  1 <1>  -0.1500 
 11 C        0.3730     3.0320    -0.5570 C.ar  1 <1>  -0.1500 
 12 N        1.6920    -4.2470    -0.4220 N.4   1 <1>  -0.9590 
 13 C        1.2040     3.2200     0.5420 C.ar  1 <1>  -0.1430 
 14 C        0.2310    -4.5870    -0.3790 C.3   1 <1>   0.3430 
 15 C        2.5460    -5.2240     0.2920 C.3   1 <1>   0.3430 
 16 C        1.1840     4.5370     1.3360 C.3   1 <1>   1.1630 
 17 C       -0.2900    -5.0060     1.0180 C.3   1 <1>   0.0000 
 18 C        2.2160    -5.2170     1.7840 C.3   1 <1>  -0.1600 
 19 F        2.3630     4.8320     1.8730 F     1 <1>  -0.3400 
 20 F        0.8440     5.5830     0.5930 F     1 <1>  -0.3400 
 21 F        0.3180     4.4930     2.3400 F     1 <1>  -0.3400 
 22 C        0.7920    -4.7380     2.1010 C.3   1 <1>   0.2000 
 23 C       -1.4920    -4.0910     1.3570 C.3   1 <1>   0.1200 
 24 C       -0.8160    -6.4760     0.9720 C.3   1 <1>  -0.1600 
 25 O        0.4130    -5.2680     3.3170 O.3   1 <1>  -0.6800 
 26 O       -2.3860    -4.0620     0.2930 O.3   1 <1>  -0.6800 
 27 C        0.1850    -7.5850     0.6050 C.3   1 <1>  -0.1600 
 28 C       -0.5250    -8.9380     0.5150 C.3   1 <1>  -0.2400 
 29 H        0.7760    -2.7730    -4.2410 H     1 <1>   0.1500 
 30 H        2.7280     0.2080     0.5040 H     1 <1>   0.1500 
 31 H       -0.2760     1.7440    -2.1040 H     1 <1>   0.1500 
 32 H        3.2150    -3.9520    -1.8560 H     1 <1>   0.0800 
 33 H        1.7720    -4.7200    -2.4980 H     1 <1>   0.0800 
 34 H        2.7050     2.2850     1.7570 H     1 <1>   0.1500 
 35 H       -0.2990     3.8150    -0.8690 H     1 <1>   0.1500 
 36 H        1.7940    -3.3150     0.0200 H     1 <1>   0.4500 
 37 H       -0.3310    -3.7310    -0.7190 H     1 <1>   0.0800 
 38 H        0.0240    -5.3880    -1.0690 H     1 <1>   0.0800 
 39 H        2.3750    -6.2090    -0.1100 H     1 <1>   0.0800 
 40 H        3.5890    -4.9830     0.1570 H     1 <1>   0.0800 
 41 H        2.9060    -4.5570     2.2800 H     1 <1>   0.0800 
 42 H        2.3950    -6.2000     2.1790 H     1 <1>   0.0800 
 43 H        0.8520    -3.6720     2.2500 H     1 <1>   0.0800 
 44 H       -1.1740    -3.0780     1.5400 H     1 <1>   0.0800 
 45 H       -2.0110    -4.4520     2.2300 H     1 <1>   0.0800 
 46 H       -1.2630    -6.7210     1.9210 H     1 <1>   0.0800 
 47 H       -1.6170    -6.5220     0.2530 H     1 <1>   0.0800 
 48 H        0.2890    -6.2360     3.2600 H     1 <1>   0.4000 
 49 H       -3.2150    -3.6030     0.5490 H     1 <1>   0.4000 
 50 H        0.6420    -7.3840    -0.3470 H     1 <1>   0.0800 
 51 H        0.9500    -7.6670     1.3530 H     1 <1>   0.0800 
 52 H       -1.2890    -8.9190    -0.2440 H     1 <1>   0.0800 
 53 H       -0.9830    -9.1900     1.4560 H     1 <1>   0.0800 
 54 H        0.1800    -9.7110     0.2650 H     1 <1>   0.0800 
@<TRIPOS>BOND
  1   1   2  1   
  2   1   3  1   
  3   2   4  2   
  4   2   5  1   
  5   3   6  2   
  6   3  29  1   
  7   4   6  1   
  8   5   7  ar  
  9   5   8  ar  
 10   6   9  1   
 11   7  10  ar  
 12   7  30  1   
 13   8  11  ar  
 14   8  31  1   
 15   9  12  1   
 16   9  32  1   
 17   9  33  1   
 18  10  13  ar  
 19  10  34  1   
 20  11  13  ar  
 21  11  35  1   
 22  12  14  1   
 23  12  15  1   
 24  12  36  1   
 25  13  16  1   
 26  14  17  1   
 27  14  37  1   
 28  14  38  1   
 29  15  18  1   
 30  15  39  1   
 31  15  40  1   
 32  16  19  1   
 33  16  20  1   
 34  16  21  1   
 35  17  22  1   
 36  17  23  1   
 37  17  24  1   
 38  18  22  1   
 39  18  41  1   
 40  18  42  1   
 41  22  25  1   
 42  22  43  1   
 43  23  26  1   
 44  23  44  1   
 45  23  45  1   
 46  24  27  1   
 47  24  46  1   
 48  24  47  1   
 49  25  48  1   
 50  26  49  1   
 51  27  28  1   
 52  27  50  1   
 53  27  51  1   
 54  28  52  1   
 55  28  53  1   
 56  28  54  1   
@<TRIPOS>SUBSTRUCTURE
  1 ****   4 GROUP 4 **** **** 0

# MOE 2024.06 (io_trps.svl 2023.06)
