@<TRIPOS>MOLECULE
NONAME
48 51 1 0 0 
SMALL
USER_CHARGES


@<TRIPOS>ATOM
  1 O       -1.2120    -0.6580    -0.8480 O.co2 1 <1>  -0.9000 
  2 C       -1.6480     0.3210    -1.4840 C.2   1 <1>   0.9790 
  3 O       -1.2130     0.5140    -2.6330 O.co2 1 <1>  -0.9000 
  4 C       -2.6710     1.1700    -0.9430 C.ar  1 <1>  -0.1790 
  5 C       -2.5870     1.9840     0.1940 C.ar  1 <1>   0.1000 
  6 C       -3.8670     1.1480    -1.6770 C.ar  1 <1>   0.1600 
  7 N       -1.4010     2.3520     0.8470 N.pl3 1 <1>  -0.8380 
  8 C       -3.8240     2.5200     0.6240 C.ar  1 <1>   0.0000 
  9 N       -4.9840     1.7560    -1.3710 N.ar  1 <1>  -0.5670 
 10 C       -1.0250     3.7990     0.9960 C.3   1 <1>   0.4690 
 11 C       -0.1550     1.5360     0.8300 C.3   1 <1>   0.2090 
 12 C       -4.9210     2.4190    -0.2030 C.ar  1 <1>   0.1050 
 13 C       -4.3440     3.1950     1.7550 C.2   1 <1>   0.1080 
 14 C       -1.7350     4.7920     0.0690 C.2   1 <1>   0.2980 
 15 C        0.4980     3.8260     0.8770 C.3   1 <1>  -0.1600 
 16 C        0.9250     2.4530     1.3820 C.3   1 <1>  -0.1600 
 17 N       -5.9340     3.0870     0.4070 N.pl3 1 <1>   0.3140 
 18 N       -5.5790     3.5490     1.6240 N.2   1 <1>  -0.7070 
 19 C       -3.6090     3.4590     3.0480 C.3   1 <1>  -0.0590 
 20 O       -1.6230     4.6630    -1.2300 O.3   1 <1>  -0.0190 
 21 N       -2.4560     5.7710     0.4600 N.2   1 <1>  -0.5650 
 22 C       -7.2820     3.2730    -0.1360 C.3   1 <1>   0.0160 
 23 N       -2.3610     5.6210    -1.7060 N.2   1 <1>  -0.4100 
 24 C       -2.8580     6.2430    -0.7110 C.2   1 <1>   0.3350 
 25 C       -3.8510     7.4040    -0.7750 C.3   1 <1>   0.1010 
 26 C       -5.2780     6.8880    -0.5360 C.3   1 <1>  -0.2400 
 27 C       -3.7830     8.1690    -2.1060 C.3   1 <1>  -0.2400 
 28 H       -3.8570     0.5690    -2.5860 H     1 <1>   0.1500 
 29 H       -1.2570     4.0840     2.0030 H     1 <1>   0.0800 
 30 H       -0.2720     0.6290     1.3990 H     1 <1>   0.0800 
 31 H        0.1240     1.2960    -0.1790 H     1 <1>   0.0800 
 32 H        0.7720     3.9340    -0.1590 H     1 <1>   0.0800 
 33 H        0.9260     4.6320     1.4440 H     1 <1>   0.0800 
 34 H        0.9050     2.4170     2.4570 H     1 <1>   0.0800 
 35 H        1.9000     2.1680     1.0290 H     1 <1>   0.0800 
 36 H       -2.8070     2.7560     3.1700 H     1 <1>   0.0800 
 37 H       -4.2880     3.3490     3.8730 H     1 <1>   0.0800 
 38 H       -3.2280     4.4630     3.0470 H     1 <1>   0.0800 
 39 H       -7.2050     3.6740    -1.1290 H     1 <1>   0.0800 
 40 H       -7.8270     3.9500     0.4930 H     1 <1>   0.0800 
 41 H       -7.7770     2.3210    -0.1680 H     1 <1>   0.0800 
 42 H       -3.5990     8.0870     0.0170 H     1 <1>   0.0800 
 43 H       -5.5520     6.1890    -1.3070 H     1 <1>   0.0800 
 44 H       -5.9800     7.7020    -0.5300 H     1 <1>   0.0800 
 45 H       -5.3280     6.3800     0.4120 H     1 <1>   0.0800 
 46 H       -4.0460     7.5210    -2.9240 H     1 <1>   0.0800 
 47 H       -2.7840     8.5340    -2.2680 H     1 <1>   0.0800 
 48 H       -4.4580     9.0060    -2.0940 H     1 <1>   0.0800 
@<TRIPOS>BOND
  1   1   2  ar  
  2   2   3  ar  
  3   2   4  1   
  4   4   5  ar  
  5   4   6  ar  
  6   5   7  1   
  7   5   8  ar  
  8   6   9  ar  
  9   6  28  1   
 10   7  10  1   
 11   7  11  1   
 12   8  12  ar  
 13   8  13  1   
 14   9  12  ar  
 15  10  14  1   
 16  10  15  1   
 17  10  29  1   
 18  11  16  1   
 19  11  30  1   
 20  11  31  1   
 21  12  17  1   
 22  13  18  2   
 23  13  19  1   
 24  14  20  1   
 25  14  21  2   
 26  15  16  1   
 27  15  32  1   
 28  15  33  1   
 29  16  34  1   
 30  16  35  1   
 31  17  18  1   
 32  17  22  1   
 33  19  36  1   
 34  19  37  1   
 35  19  38  1   
 36  20  23  1   
 37  21  24  1   
 38  22  39  1   
 39  22  40  1   
 40  22  41  1   
 41  23  24  2   
 42  24  25  1   
 43  25  26  1   
 44  25  27  1   
 45  25  42  1   
 46  26  43  1   
 47  26  44  1   
 48  26  45  1   
 49  27  46  1   
 50  27  47  1   
 51  27  48  1   
@<TRIPOS>SUBSTRUCTURE
  1 ****   8 GROUP 4 **** **** 0

# MOE 2024.06 (io_trps.svl 2023.06)
