@<TRIPOS>MOLECULE
NONAME
39 40 1 0 0 
SMALL
USER_CHARGES


@<TRIPOS>ATOM
  1 O        1.7010    -0.6760     2.4430 O.2   1 <1>  -0.5700 
  2 C        1.8270    -0.8930     1.2620 C.2   1 <1>   0.5690 
  3 N        2.2440     0.0440     0.3650 N.am  1 <1>  -0.4930 
  4 C        1.5100    -2.2850     0.7500 C.3   1 <1>  -0.0990 
  5 C        2.5840     1.4010     0.5950 C.2   1 <1>   0.0630 
  6 C        0.0030    -2.5100     0.5210 C.3   1 <1>  -0.0800 
  7 C        2.5800     2.1290     1.7860 C.2   1 <1>   0.1390 
  8 C        2.9930     2.2850    -0.3380 C.2   1 <1>  -0.3020 
  9 C       -0.2660    -3.9780     0.1450 C.3   1 <1>   0.1200 
 10 C       -0.5660    -1.5720    -0.5600 C.3   1 <1>  -0.1600 
 11 N        2.9550     3.3620     1.6120 N.2   1 <1>  -0.7070 
 12 N        3.2120     3.4620     0.2940 N.pl3 1 <1>   0.3140 
 13 O       -1.6280    -4.1710    -0.0840 O.3   1 <1>  -0.5600 
 14 C       -2.0220    -1.9470    -0.8630 C.3   1 <1>  -0.1600 
 15 C        3.6770     4.7400    -0.3130 C.3   1 <1>   0.1760 
 16 C       -2.1540    -3.4460    -1.1520 C.3   1 <1>   0.1200 
 17 C        2.6700     5.2460    -1.3550 C.3   1 <1>  -0.2400 
 18 C        5.0730     4.5730    -0.9310 C.3   1 <1>  -0.2400 
 19 H        2.3090    -0.2490    -0.6060 H     1 <1>   0.3700 
 20 H        1.8610    -2.9860     1.4870 H     1 <1>   0.0800 
 21 H        2.0550    -2.4710    -0.1570 H     1 <1>   0.0800 
 22 H       -0.5070    -2.3160     1.4510 H     1 <1>   0.0800 
 23 H        2.3000     1.7210     2.7420 H     1 <1>   0.1500 
 24 H        3.1400     2.1540    -1.3920 H     1 <1>   0.1500 
 25 H        0.0210    -4.6310     0.9520 H     1 <1>   0.0800 
 26 H        0.2720    -4.2620    -0.7430 H     1 <1>   0.0800 
 27 H        0.0130    -1.6630    -1.4630 H     1 <1>   0.0800 
 28 H       -0.5260    -0.5480    -0.2300 H     1 <1>   0.0800 
 29 H       -2.3780    -1.3840    -1.7070 H     1 <1>   0.0800 
 30 H       -2.6440    -1.7050    -0.0180 H     1 <1>   0.0800 
 31 H        3.7390     5.4620     0.4820 H     1 <1>   0.0800 
 32 H       -3.1890    -3.7210    -1.2570 H     1 <1>   0.0800 
 33 H       -1.6250    -3.7220    -2.0490 H     1 <1>   0.0800 
 34 H        2.5920     4.5590    -2.1790 H     1 <1>   0.0800 
 35 H        2.9840     6.2010    -1.7350 H     1 <1>   0.0800 
 36 H        1.7030     5.3650    -0.9000 H     1 <1>   0.0800 
 37 H        5.0510     3.8700    -1.7440 H     1 <1>   0.0800 
 38 H        5.7640     4.2280    -0.1820 H     1 <1>   0.0800 
 39 H        5.4240     5.5180    -1.3040 H     1 <1>   0.0800 
@<TRIPOS>BOND
  1   1   2  2   
  2   2   3  am  
  3   2   4  1   
  4   3   5  1   
  5   3  19  1   
  6   4   6  1   
  7   4  20  1   
  8   4  21  1   
  9   5   7  1   
 10   5   8  2   
 11   6   9  1   
 12   6  10  1   
 13   6  22  1   
 14   7  11  2   
 15   7  23  1   
 16   8  12  1   
 17   8  24  1   
 18   9  13  1   
 19   9  25  1   
 20   9  26  1   
 21  10  14  1   
 22  10  27  1   
 23  10  28  1   
 24  11  12  1   
 25  12  15  1   
 26  13  16  1   
 27  14  16  1   
 28  14  29  1   
 29  14  30  1   
 30  15  17  1   
 31  15  18  1   
 32  15  31  1   
 33  16  32  1   
 34  16  33  1   
 35  17  34  1   
 36  17  35  1   
 37  17  36  1   
 38  18  37  1   
 39  18  38  1   
 40  18  39  1   
@<TRIPOS>SUBSTRUCTURE
  1 ****   3 GROUP 4 **** **** 0

# MOE 2024.06 (io_trps.svl 2023.06)
