@<TRIPOS>MOLECULE
NONAME
50 53 1 0 0 
SMALL
USER_CHARGES


@<TRIPOS>ATOM
  1 S       -0.2640     0.4260     1.0900 S.3   1 <1>  -0.0800 
  2 C       -0.5220    -0.4080    -0.4260 C.2   1 <1>   0.1980 
  3 C       -1.2200    -0.7840     1.8940 C.2   1 <1>  -0.1100 
  4 N       -1.2410    -1.4560    -0.3330 N.2   1 <1>  -0.5650 
  5 C        0.1200     0.1880    -1.6580 C.3   1 <1>  -0.0600 
  6 C       -1.6350    -1.6800     0.9850 C.2   1 <1>   0.0460 
  7 C       -2.5040    -2.9030     1.2420 C.3   1 <1>   0.5240 
  8 N       -3.5140    -2.9540     0.1530 N.4   1 <1>  -0.9590 
  9 C       -4.5780    -1.9140     0.3400 C.3   1 <1>   0.3430 
 10 C       -4.0750    -4.3100    -0.0810 C.3   1 <1>   0.3430 
 11 C       -5.4960    -1.8200    -0.8880 C.3   1 <1>   0.1430 
 12 C       -4.9650    -4.2840    -1.3290 C.3   1 <1>  -0.1600 
 13 C       -6.6130    -0.8600    -0.5650 C.ar  1 <1>   0.1670 
 14 C       -6.0670    -3.2110    -1.2400 C.3   1 <1>  -0.1600 
 15 C       -4.8070    -1.1410    -2.1040 C.3   1 <1>  -0.1600 
 16 N       -7.3190    -0.8960     0.5360 N.ar  1 <1>  -0.6200 
 17 C       -6.7890     0.0650    -1.5450 C.ar  1 <1>  -0.1430 
 18 C       -5.8230    -0.1370    -2.6850 C.3   1 <1>  -0.0170 
 19 C       -8.2540     0.0540     0.6330 C.ar  1 <1>   0.7200 
 20 C       -7.7720     1.0040    -1.3580 C.ar  1 <1>   0.1600 
 21 N       -8.5060     1.0070    -0.2700 N.ar  1 <1>  -0.6200 
 22 N       -9.0240     0.0530     1.7770 N.pl3 1 <1>  -0.8380 
 23 C       -9.8570     1.2280     2.1580 C.3   1 <1>   0.1290 
 24 C       -9.2570    -1.1770     2.5810 C.3   1 <1>   0.1290 
 25 H       -1.3570    -0.6810     2.9570 H     1 <1>   0.1500 
 26 H        1.1870     0.2270    -1.5290 H     1 <1>   0.0800 
 27 H       -0.2510     1.1830    -1.8200 H     1 <1>   0.0800 
 28 H       -0.1030    -0.4150    -2.5190 H     1 <1>   0.0800 
 29 H       -2.9740    -2.8480     2.2090 H     1 <1>   0.0800 
 30 H       -1.8790    -3.7790     1.2000 H     1 <1>   0.0800 
 31 H       -2.9580    -2.6630    -0.6710 H     1 <1>   0.4500 
 32 H       -4.1310    -0.9480     0.5140 H     1 <1>   0.0800 
 33 H       -5.1810    -2.1590     1.1990 H     1 <1>   0.0800 
 34 H       -4.6620    -4.6150     0.7710 H     1 <1>   0.0800 
 35 H       -3.2790    -5.0240    -0.2220 H     1 <1>   0.0800 
 36 H       -5.4250    -5.2500    -1.4470 H     1 <1>   0.0800 
 37 H       -4.3520    -4.1190    -2.1970 H     1 <1>   0.0800 
 38 H       -6.6140    -3.1620    -2.1660 H     1 <1>   0.0800 
 39 H       -6.7680    -3.5000    -0.4740 H     1 <1>   0.0800 
 40 H       -4.4880    -1.8430    -2.8540 H     1 <1>   0.0800 
 41 H       -3.9460    -0.5870    -1.7700 H     1 <1>   0.0800 
 42 H       -6.3420    -0.5610    -3.5270 H     1 <1>   0.0800 
 43 H       -5.3500     0.7860    -2.9750 H     1 <1>   0.0800 
 44 H       -7.9570     1.7610    -2.1010 H     1 <1>   0.1500 
 45 H       -9.3870     2.1420     1.8360 H     1 <1>   0.0800 
 46 H       -9.9770     1.2670     3.2260 H     1 <1>   0.0800 
 47 H      -10.8240     1.1510     1.6920 H     1 <1>   0.0800 
 48 H       -8.9900    -2.0570     2.0220 H     1 <1>   0.0800 
 49 H      -10.2970    -1.2510     2.8470 H     1 <1>   0.0800 
 50 H       -8.6640    -1.1380     3.4780 H     1 <1>   0.0800 
@<TRIPOS>BOND
  1   1   2  1   
  2   1   3  1   
  3   2   4  2   
  4   2   5  1   
  5   3   6  2   
  6   3  25  1   
  7   4   6  1   
  8   5  26  1   
  9   5  27  1   
 10   5  28  1   
 11   6   7  1   
 12   7   8  1   
 13   7  29  1   
 14   7  30  1   
 15   8   9  1   
 16   8  10  1   
 17   8  31  1   
 18   9  11  1   
 19   9  32  1   
 20   9  33  1   
 21  10  12  1   
 22  10  34  1   
 23  10  35  1   
 24  11  13  1   
 25  11  14  1   
 26  11  15  1   
 27  12  14  1   
 28  12  36  1   
 29  12  37  1   
 30  13  16  ar  
 31  13  17  ar  
 32  14  38  1   
 33  14  39  1   
 34  15  18  1   
 35  15  40  1   
 36  15  41  1   
 37  16  19  ar  
 38  17  18  1   
 39  17  20  ar  
 40  18  42  1   
 41  18  43  1   
 42  19  21  ar  
 43  19  22  1   
 44  20  21  ar  
 45  20  44  1   
 46  22  23  1   
 47  22  24  1   
 48  23  45  1   
 49  23  46  1   
 50  23  47  1   
 51  24  48  1   
 52  24  49  1   
 53  24  50  1   
@<TRIPOS>SUBSTRUCTURE
  1 ****   9 GROUP 4 **** **** 0

# MOE 2024.06 (io_trps.svl 2023.06)
