@<TRIPOS>MOLECULE
NONAME
55 58 1 0 0 
SMALL
USER_CHARGES


@<TRIPOS>ATOM
  1 O       -2.8480    -1.5230     1.0570 O.2   1 <1>  -0.5700 
  2 C       -2.7710    -0.3270     0.7940 C.2   1 <1>   0.6160 
  3 N       -1.5930     0.1590     0.2330 N.am  1 <1>  -0.4690 
  4 C       -3.8460     0.5880     1.0310 C.2   1 <1>   0.0290 
  5 C       -1.4540     1.4940    -0.0640 C.2   1 <1>  -0.0410 
  6 C       -0.4670    -0.7780    -0.0210 C.3   1 <1>   0.0600 
  7 C       -5.0680     0.0880     1.5900 C.2   1 <1>   0.6160 
  8 C       -3.6740     1.9160     0.7330 C.2   1 <1>  -0.1500 
  9 C       -2.4640     2.3730     0.1770 C.2   1 <1>  -0.1500 
 10 O       -5.4030     0.4780     2.6950 O.2   1 <1>  -0.5700 
 11 N       -5.9130    -0.7600     0.8980 N.am  1 <1>  -0.6600 
 12 C       -7.0660    -1.4320     1.5550 C.3   1 <1>   0.1400 
 13 C       -5.7530    -1.1150    -0.5400 C.3   1 <1>   0.1400 
 14 C       -6.8870    -2.9470     1.4480 C.3   1 <1>  -0.1600 
 15 C       -5.5780    -2.6290    -0.6780 C.3   1 <1>  -0.1600 
 16 C       -6.7250    -3.4040    -0.0120 C.3   1 <1>   0.4240 
 17 O       -7.8820    -3.0270    -0.7230 O.3   1 <1>  -0.5600 
 18 C       -6.4710    -4.9240    -0.0980 C.ar  1 <1>  -0.1430 
 19 C       -8.9850    -3.8760    -0.6510 C.3   1 <1>   0.1200 
 20 C       -7.3780    -5.7710    -0.7260 C.ar  1 <1>  -0.1430 
 21 C       -5.3230    -5.4780     0.4600 C.ar  1 <1>  -0.1500 
 22 C       -8.6390    -5.1930    -1.3370 C.3   1 <1>  -0.0170 
 23 C       -7.1420    -7.1360    -0.7930 C.ar  1 <1>  -0.1500 
 24 C       -5.0740    -6.8380     0.3880 C.ar  1 <1>   0.0830 
 25 C       -6.0040    -7.6810    -0.2260 C.ar  1 <1>   0.0830 
 26 O       -3.9130    -7.2910     0.9200 O.3   1 <1>  -0.3620 
 27 O       -5.8550    -9.0280    -0.2950 O.3   1 <1>  -0.3620 
 28 C       -2.9560    -7.7600    -0.0020 C.3   1 <1>   0.0400 
 29 C       -5.8330    -9.7230     0.9320 C.3   1 <1>   0.0400 
 30 H       -0.5190     1.8230    -0.4890 H     1 <1>   0.1500 
 31 H       -0.7940    -1.5610    -0.6830 H     1 <1>   0.0800 
 32 H       -0.1510    -1.2180     0.9090 H     1 <1>   0.0800 
 33 H        0.3640    -0.2630    -0.4690 H     1 <1>   0.0800 
 34 H       -4.4620     2.6260     0.9240 H     1 <1>   0.1500 
 35 H       -2.3600     3.4200    -0.0490 H     1 <1>   0.1500 
 36 H       -7.9770    -1.1290     1.0670 H     1 <1>   0.0800 
 37 H       -7.1340    -1.1520     2.5930 H     1 <1>   0.0800 
 38 H       -4.9080    -0.6120    -0.9740 H     1 <1>   0.0800 
 39 H       -6.6340    -0.8030    -1.0750 H     1 <1>   0.0800 
 40 H       -7.7170    -3.4510     1.9050 H     1 <1>   0.0800 
 41 H       -6.0090    -3.2170     2.0070 H     1 <1>   0.0800 
 42 H       -4.6410    -2.9020    -0.2310 H     1 <1>   0.0800 
 43 H       -5.5280    -2.9000    -1.7160 H     1 <1>   0.0800 
 44 H       -9.8050    -3.3940    -1.1540 H     1 <1>   0.0800 
 45 H       -9.2470    -4.0320     0.3800 H     1 <1>   0.0800 
 46 H       -4.5980    -4.8590     0.9580 H     1 <1>   0.1500 
 47 H       -8.4860    -5.0210    -2.3880 H     1 <1>   0.0800 
 48 H       -9.4570    -5.8800    -1.2210 H     1 <1>   0.0800 
 49 H       -7.8410    -7.7910    -1.2790 H     1 <1>   0.1500 
 50 H       -2.0680    -8.0290     0.5410 H     1 <1>   0.0800 
 51 H       -2.7370    -6.9740    -0.7030 H     1 <1>   0.0800 
 52 H       -3.3470    -8.6200    -0.5160 H     1 <1>   0.0800 
 53 H       -5.8800   -10.7760     0.7230 H     1 <1>   0.0800 
 54 H       -6.6850    -9.4230     1.5170 H     1 <1>   0.0800 
 55 H       -4.9230    -9.4950     1.4560 H     1 <1>   0.0800 
@<TRIPOS>BOND
  1   1   2  2   
  2   2   3  am  
  3   2   4  1   
  4   3   5  1   
  5   3   6  1   
  6   4   7  1   
  7   4   8  2   
  8   5   9  2   
  9   5  30  1   
 10   6  31  1   
 11   6  32  1   
 12   6  33  1   
 13   7  10  2   
 14   7  11  am  
 15   8   9  1   
 16   8  34  1   
 17   9  35  1   
 18  11  12  1   
 19  11  13  1   
 20  12  14  1   
 21  12  36  1   
 22  12  37  1   
 23  13  15  1   
 24  13  38  1   
 25  13  39  1   
 26  14  16  1   
 27  14  40  1   
 28  14  41  1   
 29  15  16  1   
 30  15  42  1   
 31  15  43  1   
 32  16  17  1   
 33  16  18  1   
 34  17  19  1   
 35  18  20  ar  
 36  18  21  ar  
 37  19  22  1   
 38  19  44  1   
 39  19  45  1   
 40  20  22  1   
 41  20  23  ar  
 42  21  24  ar  
 43  21  46  1   
 44  22  47  1   
 45  22  48  1   
 46  23  25  ar  
 47  23  49  1   
 48  24  25  ar  
 49  24  26  1   
 50  25  27  1   
 51  26  28  1   
 52  27  29  1   
 53  28  50  1   
 54  28  51  1   
 55  28  52  1   
 56  29  53  1   
 57  29  54  1   
 58  29  55  1   
@<TRIPOS>SUBSTRUCTURE
  1 ****  15 GROUP 4 **** **** 0

# MOE 2024.06 (io_trps.svl 2023.06)
