@<TRIPOS>MOLECULE
Untitled Document
55 59 1 0 0 
SMALL
USER_CHARGES


@<TRIPOS>ATOM
  1 O       -3.9540     2.2900     1.4150 O.2   1 <1>  -0.5700 
  2 C       -3.0110     1.9610     0.7240 C.2   1 <1>   0.6900 
  3 N       -2.7590     0.7160     0.2410 N.am  1 <1>  -0.4230 
  4 N       -2.0420     2.8260     0.3810 N.am  1 <1>  -0.7300 
  5 C       -3.5170    -0.4530     0.3860 C.2   1 <1>   0.3520 
  6 C       -1.4550     0.7120    -0.4640 C.3   1 <1>   0.1400 
  7 C       -0.9410     2.1560    -0.3260 C.3   1 <1>   0.1400 
  8 N       -3.0370    -1.6230     0.1000 N.2   1 <1>  -0.7070 
  9 C       -4.8370    -0.5320     0.8320 C.2   1 <1>  -0.1500 
 10 N       -4.0370    -2.5060     0.3630 N.pl3 1 <1>   0.5930 
 11 C       -5.1360    -1.8430     0.8050 C.2   1 <1>  -0.3020 
 12 C       -3.8860    -3.8990     0.1980 C.ar  1 <1>  -0.0230 
 13 C       -2.7300    -4.5690     0.5530 C.ar  1 <1>  -0.1440 
 14 C       -4.9230    -4.6870    -0.3540 C.ar  1 <1>  -0.1500 
 15 C       -2.6130    -5.9300     0.3700 C.ar  1 <1>   0.4610 
 16 C       -1.4330    -4.0640     1.1680 C.3   1 <1>  -0.0160 
 17 C       -4.7770    -6.0420    -0.5250 C.ar  1 <1>   0.2180 
 18 N       -3.6140    -6.6480    -0.1570 N.ar  1 <1>  -0.1790 
 19 N       -1.4320    -6.4270     0.7710 N.pl3 1 <1>  -0.5690 
 20 C       -0.5850    -5.3440     1.3350 C.3   1 <1>   0.2090 
 21 C       -5.8740    -6.9110    -1.1190 C.3   1 <1>  -0.0970 
 22 C       -1.0170    -7.7640     0.7270 C.ar  1 <1>   0.1000 
 23 C       -0.4220    -8.3050    -0.4140 C.ar  1 <1>  -0.1430 
 24 C       -1.2400    -8.5730     1.8320 C.ar  1 <1>  -0.1500 
 25 C       -0.0760    -9.6480    -0.4330 C.ar  1 <1>  -0.1500 
 26 C       -0.1310    -7.4460    -1.6400 C.3   1 <1>  -0.0970 
 27 C       -0.8940    -9.9100     1.8050 C.ar  1 <1>  -0.1500 
 28 C       -0.3140   -10.4570     0.6740 C.ar  1 <1>   0.0830 
 29 O       -0.0090   -11.7790     0.7280 O.3   1 <1>  -0.3620 
 30 C        0.7050   -12.4090    -0.3130 C.3   1 <1>   0.0400 
 31 H       -1.9660     3.7320     0.8430 H     1 <1>   0.3700 
 32 H       -1.5970     0.4480    -1.4970 H     1 <1>   0.0800 
 33 H       -0.7810     0.0140     0.0010 H     1 <1>   0.0800 
 34 H       -0.0380     2.1900     0.2580 H     1 <1>   0.0800 
 35 H       -0.7770     2.6060    -1.2900 H     1 <1>   0.0800 
 36 H       -5.4490     0.3030     1.1270 H     1 <1>   0.1500 
 37 H       -6.0480    -2.3380     1.0770 H     1 <1>   0.1500 
 38 H       -5.8370    -4.1960    -0.6480 H     1 <1>   0.1500 
 39 H       -1.6060    -3.5900     2.1180 H     1 <1>   0.0800 
 40 H       -0.9370    -3.3700     0.5110 H     1 <1>   0.0800 
 41 H       -3.4450    -7.6520    -0.2580 H     1 <1>   0.4570 
 42 H       -0.3790    -5.5420     2.3730 H     1 <1>   0.0800 
 43 H        0.3410    -5.2740     0.7880 H     1 <1>   0.0800 
 44 H       -6.7360    -6.3170    -1.3670 H     1 <1>   0.0800 
 45 H       -6.1770    -7.6650    -0.4140 H     1 <1>   0.0800 
 46 H       -5.5270    -7.3900    -2.0180 H     1 <1>   0.0800 
 47 H       -1.6850    -8.1580     2.7190 H     1 <1>   0.1500 
 48 H        0.3810   -10.0580    -1.3140 H     1 <1>   0.1500 
 49 H        0.5220    -6.6350    -1.3720 H     1 <1>   0.0800 
 50 H       -1.0410    -7.0410    -2.0420 H     1 <1>   0.0800 
 51 H        0.3510    -8.0210    -2.4100 H     1 <1>   0.0800 
 52 H       -1.0660   -10.5400     2.6600 H     1 <1>   0.1500 
 53 H        0.8740   -13.4320    -0.0300 H     1 <1>   0.0800 
 54 H        1.6470   -11.9060    -0.4440 H     1 <1>   0.0800 
 55 H        0.1180   -12.3720    -1.2130 H     1 <1>   0.0800 
@<TRIPOS>BOND
  1   1   2  2   
  2   2   3  am  
  3   2   4  am  
  4   3   5  1   
  5   3   6  1   
  6   4   7  1   
  7   4  31  1   
  8   5   8  2   
  9   5   9  1   
 10   6   7  1   
 11   6  32  1   
 12   6  33  1   
 13   7  34  1   
 14   7  35  1   
 15   8  10  1   
 16   9  11  2   
 17   9  36  1   
 18  10  11  1   
 19  10  12  1   
 20  11  37  1   
 21  12  13  ar  
 22  12  14  ar  
 23  13  15  ar  
 24  13  16  1   
 25  14  17  ar  
 26  14  38  1   
 27  15  18  ar  
 28  15  19  1   
 29  16  20  1   
 30  16  39  1   
 31  16  40  1   
 32  17  18  ar  
 33  17  21  1   
 34  18  41  1   
 35  19  20  1   
 36  19  22  1   
 37  20  42  1   
 38  20  43  1   
 39  21  44  1   
 40  21  45  1   
 41  21  46  1   
 42  22  23  ar  
 43  22  24  ar  
 44  23  25  ar  
 45  23  26  1   
 46  24  27  ar  
 47  24  47  1   
 48  25  28  ar  
 49  25  48  1   
 50  26  49  1   
 51  26  50  1   
 52  26  51  1   
 53  27  28  ar  
 54  27  52  1   
 55  28  29  1   
 56  29  30  1   
 57  30  53  1   
 58  30  54  1   
 59  30  55  1   
@<TRIPOS>SUBSTRUCTURE
  1 ****  13 GROUP 4 **** **** 0

# MOE 2024.06 (io_trps.svl 2023.06)
