@<TRIPOS>MOLECULE
NONAME
43 46 1 0 0 
SMALL
USER_CHARGES


@<TRIPOS>ATOM
  1 CL      -1.2140     0.0990    -1.8770 Cl    1 <1>  -0.1770 
  2 C       -1.8070    -0.9430    -0.6090 C.ar  1 <1>   0.1770 
  3 C       -2.1000    -0.4190     0.6380 C.ar  1 <1>   0.1600 
  4 C       -1.9840    -2.2840    -0.8580 C.ar  1 <1>  -0.1500 
  5 N       -2.5520    -1.1410     1.6550 N.ar  1 <1>  -0.6200 
  6 C       -2.4650    -3.0680     0.1820 C.ar  1 <1>   0.0860 
  7 C       -2.7090    -2.4340     1.4020 C.ar  1 <1>   0.1600 
  8 C       -2.7000    -4.4860     0.0210 C.2   1 <1>   0.5440 
  9 O       -1.9090    -5.1540    -0.6140 O.2   1 <1>  -0.5700 
 10 N       -3.8110    -5.1030     0.5520 N.am  1 <1>  -0.6600 
 11 C       -3.9050    -6.5960     0.6580 C.3   1 <1>   0.1400 
 12 C       -5.1480    -4.4380     0.6570 C.3   1 <1>   0.1400 
 13 C       -4.9920    -7.1530    -0.2790 C.3   1 <1>   0.3440 
 14 C       -6.1720    -5.1150    -0.2770 C.3   1 <1>   0.2950 
 15 O       -6.2100    -6.4930    -0.0470 O.3   1 <1>  -0.5600 
 16 C       -5.1690    -8.6530    -0.0580 C.ar  1 <1>  -0.1440 
 17 C       -7.5840    -4.5700    -0.0470 C.3   1 <1>  -0.1950 
 18 C       -6.0710    -9.1500     0.8730 C.ar  1 <1>  -0.1500 
 19 C       -4.4000    -9.5450    -0.7930 C.ar  1 <1>  -0.1500 
 20 C       -8.6360    -4.6740    -1.1060 C.3   1 <1>  -0.2000 
 21 C       -8.0600    -3.3340    -0.7460 C.3   1 <1>  -0.2000 
 22 C       -6.2020   -10.5140     1.0670 C.ar  1 <1>  -0.1500 
 23 C       -4.5300   -10.9100    -0.6000 C.ar  1 <1>  -0.1500 
 24 C       -5.4310   -11.3950     0.3310 C.ar  1 <1>  -0.1500 
 25 H       -1.9540     0.6350     0.8010 H     1 <1>   0.1500 
 26 H       -1.7560    -2.7110    -1.8190 H     1 <1>   0.1500 
 27 H       -3.0570    -3.0430     2.2200 H     1 <1>   0.1500 
 28 H       -2.9620    -7.0550     0.4170 H     1 <1>   0.0800 
 29 H       -4.1460    -6.8650     1.6710 H     1 <1>   0.0800 
 30 H       -5.4980    -4.5040     1.6720 H     1 <1>   0.0800 
 31 H       -5.0810    -3.3980     0.3940 H     1 <1>   0.0800 
 32 H       -4.7090    -6.9780    -1.3030 H     1 <1>   0.0800 
 33 H       -5.8890    -4.9560    -1.3040 H     1 <1>   0.0800 
 34 H       -7.9070    -4.7100     0.9700 H     1 <1>   0.1000 
 35 H       -6.6780    -8.4730     1.4490 H     1 <1>   0.1500 
 36 H       -3.6940    -9.1830    -1.5200 H     1 <1>   0.1500 
 37 H       -8.3750    -5.1240    -2.0490 H     1 <1>   0.1000 
 38 H       -9.6420    -4.9120    -0.8040 H     1 <1>   0.1000 
 39 H       -8.6800    -2.6380    -0.2070 H     1 <1>   0.1000 
 40 H       -7.4260    -2.8470    -1.4670 H     1 <1>   0.1000 
 41 H       -6.9060   -10.8880     1.7900 H     1 <1>   0.1500 
 42 H       -3.9300   -11.5940    -1.1740 H     1 <1>   0.1500 
 43 H       -5.5330   -12.4560     0.4810 H     1 <1>   0.1500 
@<TRIPOS>BOND
  1   1   2  1   
  2   2   3  ar  
  3   2   4  ar  
  4   3   5  ar  
  5   3  25  1   
  6   4   6  ar  
  7   4  26  1   
  8   5   7  ar  
  9   6   7  ar  
 10   6   8  1   
 11   7  27  1   
 12   8   9  2   
 13   8  10  am  
 14  10  11  1   
 15  10  12  1   
 16  11  13  1   
 17  11  28  1   
 18  11  29  1   
 19  12  14  1   
 20  12  30  1   
 21  12  31  1   
 22  13  15  1   
 23  13  16  1   
 24  13  32  1   
 25  14  15  1   
 26  14  17  1   
 27  14  33  1   
 28  16  18  ar  
 29  16  19  ar  
 30  17  20  1   
 31  17  21  1   
 32  17  34  1   
 33  18  22  ar  
 34  18  35  1   
 35  19  23  ar  
 36  19  36  1   
 37  20  21  1   
 38  20  37  1   
 39  20  38  1   
 40  21  39  1   
 41  21  40  1   
 42  22  24  ar  
 43  22  41  1   
 44  23  24  ar  
 45  23  42  1   
 46  24  43  1   
@<TRIPOS>SUBSTRUCTURE
  1 ****  10 GROUP 4 **** **** 0

# MOE 2024.06 (io_trps.svl 2023.06)
