@<TRIPOS>MOLECULE
NONAME
41 43 1 0 0 
SMALL
USER_CHARGES


@<TRIPOS>ATOM
  1 CL      -0.0070     0.0120     0.8830 Cl    1 <1>  -0.1770 
  2 C        1.3280    -0.9310     0.2280 C.ar  1 <1>   0.1770 
  3 C        1.1720    -2.3060    -0.1270 C.ar  1 <1>   0.4100 
  4 C        2.5440    -0.3310     0.0830 C.ar  1 <1>   0.2170 
  5 N        2.2150    -2.9990    -0.5620 N.ar  1 <1>  -0.6200 
  6 N        0.0010    -3.0120    -0.0610 N.pl3 1 <1>  -0.8380 
  7 N        3.5600    -1.0990    -0.3890 N.ar  1 <1>  -0.1790 
  8 C        2.8720     1.1230     0.4110 C.3   1 <1>  -0.0970 
  9 C        3.3730    -2.3940    -0.6880 C.ar  1 <1>   0.7710 
 10 C       -1.3910    -2.4720    -0.0330 C.3   1 <1>   0.2090 
 11 C       -0.0620    -4.4960    -0.2480 C.3   1 <1>   0.2090 
 12 N        4.3810    -3.1350    -1.1380 N.pl3 1 <1>  -0.9000 
 13 C       -2.2980    -3.6480    -0.4000 C.3   1 <1>   0.2000 
 14 C       -1.5170    -4.8930    -0.0010 C.3   1 <1>  -0.0800 
 15 O       -3.5070    -3.6030     0.2790 O.3   1 <1>  -0.6800 
 16 C       -1.9620    -6.1480    -0.7700 C.3   1 <1>  -0.0170 
 17 C       -1.2020    -7.3850    -0.3210 C.ar  1 <1>   0.1670 
 18 N        0.0170    -7.5420    -0.8160 N.ar  1 <1>  -0.6200 
 19 C       -1.8000    -8.2720     0.5620 C.ar  1 <1>  -0.1500 
 20 C        0.6620    -8.6280    -0.4190 C.ar  1 <1>   0.1600 
 21 C       -1.1150    -9.3960     0.9710 C.ar  1 <1>  -0.1500 
 22 C        0.1520    -9.5700     0.4590 C.ar  1 <1>  -0.1500 
 23 H        4.4950    -0.7270    -0.5250 H     1 <1>   0.4570 
 24 H        2.0100     1.6620     0.7600 H     1 <1>   0.0800 
 25 H        3.2390     1.6300    -0.4640 H     1 <1>   0.0800 
 26 H        3.6210     1.1730     1.1820 H     1 <1>   0.0800 
 27 H       -1.6200    -2.1310     0.9620 H     1 <1>   0.0800 
 28 H       -1.5080    -1.6730    -0.7430 H     1 <1>   0.0800 
 29 H        0.2270    -4.7390    -1.2580 H     1 <1>   0.0800 
 30 H        0.5990    -5.0030     0.4350 H     1 <1>   0.0800 
 31 H        5.3530    -2.8750    -1.3100 H     1 <1>   0.4000 
 32 H        4.1740    -4.1170    -1.3520 H     1 <1>   0.4000 
 33 H       -2.5000    -3.6340    -1.4580 H     1 <1>   0.0800 
 34 H       -1.6250    -5.0630     1.0550 H     1 <1>   0.0800 
 35 H       -3.3620    -3.6640     1.2430 H     1 <1>   0.4000 
 36 H       -1.8090    -6.0090    -1.8260 H     1 <1>   0.0800 
 37 H       -3.0160    -6.3000    -0.6170 H     1 <1>   0.0800 
 38 H       -2.7930    -8.0890     0.9300 H     1 <1>   0.1500 
 39 H        1.6520    -8.7770    -0.8140 H     1 <1>   0.1500 
 40 H       -1.5490   -10.1050     1.6550 H     1 <1>   0.1500 
 41 H        0.7410   -10.4260     0.7330 H     1 <1>   0.1500 
@<TRIPOS>BOND
  1   1   2  1   
  2   2   3  ar  
  3   2   4  ar  
  4   3   5  ar  
  5   3   6  1   
  6   4   7  ar  
  7   4   8  1   
  8   5   9  ar  
  9   6  10  1   
 10   6  11  1   
 11   7   9  ar  
 12   7  23  1   
 13   8  24  1   
 14   8  25  1   
 15   8  26  1   
 16   9  12  1   
 17  10  13  1   
 18  10  27  1   
 19  10  28  1   
 20  11  14  1   
 21  11  29  1   
 22  11  30  1   
 23  12  31  1   
 24  12  32  1   
 25  13  14  1   
 26  13  15  1   
 27  13  33  1   
 28  14  16  1   
 29  14  34  1   
 30  15  35  1   
 31  16  17  1   
 32  16  36  1   
 33  16  37  1   
 34  17  18  ar  
 35  17  19  ar  
 36  18  20  ar  
 37  19  21  ar  
 38  19  38  1   
 39  20  22  ar  
 40  20  39  1   
 41  21  22  ar  
 42  21  40  1   
 43  22  41  1   
@<TRIPOS>SUBSTRUCTURE
  1 ****  11 GROUP 4 **** **** 0

# MOE 2024.06 (io_trps.svl 2023.06)
