@<TRIPOS>MOLECULE
NONAME
48 50 1 0 0 
SMALL
USER_CHARGES


@<TRIPOS>ATOM
  1 O        0.5410    -0.9440     1.9670 O.2   1 <1>  -0.5700 
  2 C        0.8180    -1.2830     0.8320 C.2   1 <1>   0.5440 
  3 N        0.9880    -0.3160    -0.1420 N.am  1 <1>  -0.6600 
  4 C        1.0020    -2.6970     0.5670 C.ar  1 <1>   0.0860 
  5 C        0.4480     1.0930    -0.1430 C.3   1 <1>   0.2200 
  6 C        1.8760    -0.5530    -1.3200 C.3   1 <1>   0.1400 
  7 C        0.3760    -3.3620    -0.4960 C.ar  1 <1>   0.0820 
  8 C        1.8170    -3.4600     1.4060 C.ar  1 <1>  -0.1500 
  9 C        1.6270     2.0820    -0.2470 C.3   1 <1>   0.1200 
 10 C       -0.4940     1.4520     1.0260 C.3   1 <1>   0.1200 
 11 C        2.9770     0.5180    -1.3760 C.3   1 <1>   0.1200 
 12 O       -0.4300    -2.6940    -1.3460 O.3   1 <1>  -0.3630 
 13 C        0.5830    -4.7160    -0.7160 C.ar  1 <1>  -0.1500 
 14 C        2.0190    -4.8100     1.1920 C.ar  1 <1>  -0.1500 
 15 O        2.4220     1.8030    -1.3690 O.3   1 <1>  -0.5600 
 16 O       -1.0540     2.7150     0.8400 O.3   1 <1>  -0.6800 
 17 C       -1.8250    -2.8750    -1.2200 C.3   1 <1>   0.1200 
 18 C        1.4030    -5.4420     0.1250 C.ar  1 <1>  -0.1500 
 19 C       -2.3860    -1.8480    -0.2360 C.3   1 <1>  -0.0170 
 20 C       -3.8990    -1.9690    -0.1630 C.ar  1 <1>  -0.1440 
 21 C       -4.4870    -2.8380     0.7430 C.ar  1 <1>  -0.1500 
 22 C       -4.7030    -1.2140    -1.0020 C.ar  1 <1>  -0.1500 
 23 C       -5.8650    -2.9530     0.8070 C.ar  1 <1>  -0.1500 
 24 C       -6.0810    -1.3270    -0.9390 C.ar  1 <1>  -0.1500 
 25 C       -6.6630    -2.1970    -0.0340 C.ar  1 <1>  -0.1500 
 26 H       -0.1400     1.2000    -1.0380 H     1 <1>   0.0800 
 27 H        1.2900    -0.5170    -2.2220 H     1 <1>   0.0800 
 28 H        2.3390    -1.5220    -1.2640 H     1 <1>   0.0800 
 29 H        2.2930    -2.9760     2.2420 H     1 <1>   0.1500 
 30 H        2.2410     2.0310     0.6350 H     1 <1>   0.0800 
 31 H        1.2620     3.0870    -0.3600 H     1 <1>   0.0800 
 32 H        0.0320     1.4560     1.9640 H     1 <1>   0.0800 
 33 H       -1.3040     0.7460     1.0730 H     1 <1>   0.0800 
 34 H        3.5500     0.4150    -2.2800 H     1 <1>   0.0800 
 35 H        3.6390     0.4250    -0.5330 H     1 <1>   0.0800 
 36 H        0.1040    -5.1970    -1.5500 H     1 <1>   0.1500 
 37 H        2.6550    -5.3730     1.8550 H     1 <1>   0.1500 
 38 H       -0.4660     3.4110     1.1890 H     1 <1>   0.4000 
 39 H       -2.0300    -3.8790    -0.8910 H     1 <1>   0.0800 
 40 H       -2.2600    -2.7280    -2.1930 H     1 <1>   0.0800 
 41 H        1.5630    -6.4930    -0.0450 H     1 <1>   0.1500 
 42 H       -2.1190    -0.8590    -0.5610 H     1 <1>   0.0800 
 43 H       -1.9690    -2.0100     0.7420 H     1 <1>   0.0800 
 44 H       -3.8750    -3.4280     1.4030 H     1 <1>   0.1500 
 45 H       -4.2600    -0.5320    -1.7080 H     1 <1>   0.1500 
 46 H       -6.3150    -3.6280     1.5140 H     1 <1>   0.1500 
 47 H       -6.7000    -0.7380    -1.5920 H     1 <1>   0.1500 
 48 H       -7.7340    -2.2850     0.0170 H     1 <1>   0.1500 
@<TRIPOS>BOND
  1   1   2  2   
  2   2   3  am  
  3   2   4  1   
  4   3   5  1   
  5   3   6  1   
  6   4   7  ar  
  7   4   8  ar  
  8   5   9  1   
  9   5  10  1   
 10   5  26  1   
 11   6  11  1   
 12   6  27  1   
 13   6  28  1   
 14   7  12  1   
 15   7  13  ar  
 16   8  14  ar  
 17   8  29  1   
 18   9  15  1   
 19   9  30  1   
 20   9  31  1   
 21  10  16  1   
 22  10  32  1   
 23  10  33  1   
 24  11  15  1   
 25  11  34  1   
 26  11  35  1   
 27  12  17  1   
 28  13  18  ar  
 29  13  36  1   
 30  14  18  ar  
 31  14  37  1   
 32  16  38  1   
 33  17  19  1   
 34  17  39  1   
 35  17  40  1   
 36  18  41  1   
 37  19  20  1   
 38  19  42  1   
 39  19  43  1   
 40  20  21  ar  
 41  20  22  ar  
 42  21  23  ar  
 43  21  44  1   
 44  22  24  ar  
 45  22  45  1   
 46  23  25  ar  
 47  23  46  1   
 48  24  25  ar  
 49  24  47  1   
 50  25  48  1   
@<TRIPOS>SUBSTRUCTURE
  1 ****  19 GROUP 4 **** **** 0

# MOE 2024.06 (io_trps.svl 2023.06)
