@<TRIPOS>MOLECULE
NONAME
47 48 1 0 0 
SMALL
USER_CHARGES


@<TRIPOS>ATOM
  1 S        0.0420     0.0210    -0.9590 S.o2  1 <1>   1.3330 
  2 O        0.5890     0.2880    -2.2700 O.2   1 <1>  -0.6500 
  3 O       -0.7760    -1.1510    -0.7470 O.2   1 <1>  -0.6500 
  4 N        1.3290    -0.0480     0.1480 N.am  1 <1>  -0.8490 
  5 C       -0.8750     1.4750    -0.4430 C.3   1 <1>  -0.0550 
  6 C        0.9890    -0.7370     1.3980 C.3   1 <1>   0.1160 
  7 C        2.5400    -0.6350    -0.4330 C.3   1 <1>   0.1160 
  8 C       -0.1410     2.8110    -0.6950 C.3   1 <1>  -0.0800 
  9 C       -0.9920     4.0530    -0.4270 C.3   1 <1>   0.2000 
 10 C        1.1160     3.0270     0.1590 C.3   1 <1>   0.1400 
 11 O       -1.6550     3.8960     0.7800 O.3   1 <1>  -0.6800 
 12 C        0.0380     5.1680    -0.2610 C.3   1 <1>   0.1400 
 13 N        1.2120     4.4980     0.3570 N.am  1 <1>  -0.6600 
 14 C        2.4110     5.1200     0.6320 C.2   1 <1>   0.7160 
 15 O        3.4020     4.4320     0.7850 O.2   1 <1>  -0.5700 
 16 C        2.5140     6.5550     0.7230 C.2   1 <1>  -0.0860 
 17 C        1.6540     7.4180     1.4060 C.2   1 <1>   0.1390 
 18 C        3.4450     7.4010     0.2040 C.2   1 <1>  -0.3020 
 19 N        1.9940     8.6630     1.3030 N.2   1 <1>  -0.7070 
 20 N        3.1170     8.6550     0.5590 N.pl3 1 <1>   0.3140 
 21 C        3.8440     9.9110     0.2300 C.3   1 <1>   0.1760 
 22 C        3.8800    10.1370    -1.2890 C.3   1 <1>  -0.2400 
 23 C        5.2620     9.8880     0.8160 C.3   1 <1>  -0.2400 
 24 H       -1.7980     1.4970    -0.9890 H     1 <1>   0.0800 
 25 H       -1.1240     1.3860     0.5960 H     1 <1>   0.0800 
 26 H        1.8060    -0.6620     2.0950 H     1 <1>   0.0800 
 27 H        0.7830    -1.7780     1.2100 H     1 <1>   0.0800 
 28 H        0.1190    -0.2890     1.8450 H     1 <1>   0.0800 
 29 H        3.3360    -0.6460     0.2920 H     1 <1>   0.0800 
 30 H        2.8650    -0.0510    -1.2780 H     1 <1>   0.0800 
 31 H        2.3460    -1.6430    -0.7630 H     1 <1>   0.0800 
 32 H        0.1630     2.8430    -1.7270 H     1 <1>   0.0800 
 33 H       -1.7180     4.2540    -1.1970 H     1 <1>   0.0800 
 34 H        1.9930     2.6430    -0.3370 H     1 <1>   0.0800 
 35 H        1.0200     2.5520     1.1200 H     1 <1>   0.0800 
 36 H       -0.9980     3.9160     1.5050 H     1 <1>   0.4000 
 37 H       -0.3500     5.9660     0.3470 H     1 <1>   0.0800 
 38 H        0.3210     5.5550    -1.2250 H     1 <1>   0.0800 
 39 H        0.7970     7.0890     1.9690 H     1 <1>   0.1500 
 40 H        4.3090     7.1590    -0.3860 H     1 <1>   0.1500 
 41 H        3.2980    10.7200     0.6840 H     1 <1>   0.0800 
 42 H        4.4310     9.3540    -1.7790 H     1 <1>   0.0800 
 43 H        4.3530    11.0770    -1.5090 H     1 <1>   0.0800 
 44 H        2.8780    10.1640    -1.6780 H     1 <1>   0.0800 
 45 H        5.8460     9.1000     0.3760 H     1 <1>   0.0800 
 46 H        5.2140     9.7400     1.8810 H     1 <1>   0.0800 
 47 H        5.7530    10.8250     0.6280 H     1 <1>   0.0800 
@<TRIPOS>BOND
  1   1   2  2   
  2   1   3  2   
  3   1   4  am  
  4   1   5  1   
  5   4   6  1   
  6   4   7  1   
  7   5   8  1   
  8   5  24  1   
  9   5  25  1   
 10   6  26  1   
 11   6  27  1   
 12   6  28  1   
 13   7  29  1   
 14   7  30  1   
 15   7  31  1   
 16   8   9  1   
 17   8  10  1   
 18   8  32  1   
 19   9  11  1   
 20   9  12  1   
 21   9  33  1   
 22  10  13  1   
 23  10  34  1   
 24  10  35  1   
 25  11  36  1   
 26  12  13  1   
 27  12  37  1   
 28  12  38  1   
 29  13  14  am  
 30  14  15  2   
 31  14  16  1   
 32  16  17  1   
 33  16  18  2   
 34  17  19  2   
 35  17  39  1   
 36  18  20  1   
 37  18  40  1   
 38  19  20  1   
 39  20  21  1   
 40  21  22  1   
 41  21  23  1   
 42  21  41  1   
 43  22  42  1   
 44  22  43  1   
 45  22  44  1   
 46  23  45  1   
 47  23  46  1   
 48  23  47  1   
@<TRIPOS>SUBSTRUCTURE
  1 ****  13 GROUP 4 **** **** 0

# MOE 2024.06 (io_trps.svl 2023.06)
