@<TRIPOS>MOLECULE
NONAME
56 59 1 0 0 
SMALL
USER_CHARGES


@<TRIPOS>ATOM
  1 O       -0.5490    -2.9840    -2.3780 O.2   1 <1>  -0.5700 
  2 C       -0.0760    -2.4860    -1.3860 C.2   1 <1>   0.5690 
  3 N        0.6030    -3.1430    -0.4250 N.am  1 <1>  -0.6600 
  4 C       -0.1970    -1.0260    -1.0510 C.3   1 <1>  -0.0990 
  5 C        1.0110    -2.2770     0.6920 C.3   1 <1>   0.1400 
  6 C        0.8620    -4.6160    -0.3870 C.3   1 <1>   0.2010 
  7 C        0.6980    -0.8590     0.1910 C.3   1 <1>  -0.1600 
  8 C        0.2790    -5.3070     0.8510 C.2   1 <1>   0.5690 
  9 O        1.0640    -5.6380     1.7110 O.2   1 <1>  -0.5700 
 10 N       -1.0710    -5.5410     0.9830 N.am  1 <1>  -0.6600 
 11 C       -1.6370    -6.1800     2.2020 C.3   1 <1>   0.1400 
 12 C       -2.1070    -5.1650    -0.0210 C.3   1 <1>   0.1400 
 13 C       -2.3840    -7.4520     1.7980 C.3   1 <1>  -0.1600 
 14 C       -2.8680    -6.4210    -0.4510 C.3   1 <1>  -0.1600 
 15 C       -3.4730    -7.1670     0.7480 C.3   1 <1>   0.4240 
 16 O       -4.3980    -6.2670     1.3120 O.3   1 <1>  -0.5600 
 17 C       -4.1530    -8.4730     0.2820 C.ar  1 <1>  -0.1430 
 18 C       -5.4130    -6.7960     2.1070 C.3   1 <1>   0.1200 
 19 C       -5.5050    -8.6970     0.5090 C.ar  1 <1>  -0.1430 
 20 C       -3.4180    -9.4580    -0.3690 C.ar  1 <1>  -0.1500 
 21 C       -6.3260    -7.6520     1.2350 C.3   1 <1>  -0.0170 
 22 C       -6.1020    -9.8680     0.0760 C.ar  1 <1>  -0.1500 
 23 C       -4.0030   -10.6470    -0.8000 C.ar  1 <1>   0.0820 
 24 C       -5.3750   -10.8430    -0.5840 C.ar  1 <1>   0.0820 
 25 O       -3.2630   -11.6220    -1.4060 O.3   1 <1>  -0.3630 
 26 O       -6.0920   -11.9380    -0.9650 O.3   1 <1>  -0.3620 
 27 C       -1.8520   -11.5960    -1.4210 C.3   1 <1>   0.0400 
 28 C       -5.7850   -12.6250    -2.1570 C.3   1 <1>   0.0400 
 29 H       -1.2230    -0.8040    -0.8240 H     1 <1>   0.0800 
 30 H        0.1390    -0.4210    -1.8730 H     1 <1>   0.0800 
 31 H        2.0590    -2.3990     0.9070 H     1 <1>   0.0800 
 32 H        0.4270    -2.5170     1.5660 H     1 <1>   0.0800 
 33 H        1.9250    -4.7750    -0.3940 H     1 <1>   0.0800 
 34 H        0.4620    -5.0780    -1.2700 H     1 <1>   0.0800 
 35 H        0.2200    -0.2730     0.9560 H     1 <1>   0.0800 
 36 H        1.6190    -0.3780    -0.0870 H     1 <1>   0.0800 
 37 H       -2.3120    -5.4900     2.6800 H     1 <1>   0.0800 
 38 H       -0.8580    -6.4250     2.9030 H     1 <1>   0.0800 
 39 H       -1.6730    -4.7040    -0.8870 H     1 <1>   0.0800 
 40 H       -2.7870    -4.4570     0.4230 H     1 <1>   0.0800 
 41 H       -2.8170    -7.9140     2.6640 H     1 <1>   0.0800 
 42 H       -1.6670    -8.1440     1.3990 H     1 <1>   0.0800 
 43 H       -2.1860    -7.0570    -0.9820 H     1 <1>   0.0800 
 44 H       -3.6550    -6.1540    -1.1310 H     1 <1>   0.0800 
 45 H       -5.9610    -5.9740     2.5330 H     1 <1>   0.0800 
 46 H       -4.9770    -7.3780     2.9000 H     1 <1>   0.0800 
 47 H       -2.3740    -9.2850    -0.5370 H     1 <1>   0.1500 
 48 H       -6.8300    -7.0260     0.5200 H     1 <1>   0.0800 
 49 H       -7.0670    -8.1250     1.8540 H     1 <1>   0.0800 
 50 H       -7.1490   -10.0390     0.2460 H     1 <1>   0.1500 
 51 H       -1.5060   -12.5200    -1.8470 H     1 <1>   0.0800 
 52 H       -1.4930   -11.5030    -0.4110 H     1 <1>   0.0800 
 53 H       -1.5240   -10.7700    -2.0270 H     1 <1>   0.0800 
 54 H       -6.6560   -13.1770    -2.4590 H     1 <1>   0.0800 
 55 H       -4.9730   -13.3040    -1.9670 H     1 <1>   0.0800 
 56 H       -5.5170   -11.9120    -2.9160 H     1 <1>   0.0800 
@<TRIPOS>BOND
  1   1   2  2   
  2   2   3  am  
  3   2   4  1   
  4   3   5  1   
  5   3   6  1   
  6   4   7  1   
  7   4  29  1   
  8   4  30  1   
  9   5   7  1   
 10   5  31  1   
 11   5  32  1   
 12   6   8  1   
 13   6  33  1   
 14   6  34  1   
 15   7  35  1   
 16   7  36  1   
 17   8   9  2   
 18   8  10  am  
 19  10  11  1   
 20  10  12  1   
 21  11  13  1   
 22  11  37  1   
 23  11  38  1   
 24  12  14  1   
 25  12  39  1   
 26  12  40  1   
 27  13  15  1   
 28  13  41  1   
 29  13  42  1   
 30  14  15  1   
 31  14  43  1   
 32  14  44  1   
 33  15  16  1   
 34  15  17  1   
 35  16  18  1   
 36  17  19  ar  
 37  17  20  ar  
 38  18  21  1   
 39  18  45  1   
 40  18  46  1   
 41  19  21  1   
 42  19  22  ar  
 43  20  23  ar  
 44  20  47  1   
 45  21  48  1   
 46  21  49  1   
 47  22  24  ar  
 48  22  50  1   
 49  23  24  ar  
 50  23  25  1   
 51  24  26  1   
 52  25  27  1   
 53  26  28  1   
 54  27  51  1   
 55  27  52  1   
 56  27  53  1   
 57  28  54  1   
 58  28  55  1   
 59  28  56  1   
@<TRIPOS>SUBSTRUCTURE
  1 ****  14 GROUP 4 **** **** 0

# MOE 2024.06 (io_trps.svl 2023.06)
