@<TRIPOS>MOLECULE
NONAME
51 54 1 0 0 
SMALL
USER_CHARGES


@<TRIPOS>ATOM
  1 O       -0.5950    -0.2680     0.9060 O.2   1 <1>  -0.5700 
  2 C       -1.3940     0.4360     0.3290 C.2   1 <1>   0.5690 
  3 N       -2.4800    -0.1490    -0.2810 N.am  1 <1>  -0.6600 
  4 C       -1.1520     1.9710     0.3370 C.3   1 <1>   0.0610 
  5 C       -3.6670     0.4970    -0.8970 C.3   1 <1>   0.1400 
  6 C       -2.6560    -1.6260    -0.2840 C.3   1 <1>   0.1400 
  7 C        0.3350     2.3110     0.5650 C.3   1 <1>  -0.1600 
  8 C       -1.4130     2.6690    -1.0120 C.3   1 <1>  -0.1600 
  9 C       -1.9910     2.6290     1.4560 C.3   1 <1>  -0.2400 
 10 C       -4.7570    -0.5690    -0.8300 C.3   1 <1>   0.2000 
 11 C       -3.9860    -1.8820    -1.0070 C.3   1 <1>  -0.0800 
 12 C        0.5570     3.7170     0.0070 C.3   1 <1>  -0.1600 
 13 C       -0.5250     3.9180    -1.0550 C.3   1 <1>  -0.1600 
 14 O       -5.3210    -0.5240     0.4360 O.3   1 <1>  -0.6800 
 15 C       -4.7390    -3.1380    -0.5200 C.3   1 <1>  -0.0170 
 16 C       -4.0870    -4.4950    -0.8170 C.ar  1 <1>  -0.1440 
 17 C       -4.6380    -5.6730    -0.2520 C.ar  1 <1>   0.0000 
 18 C       -2.9900    -4.6500    -1.6180 C.ar  1 <1>  -0.1500 
 19 C       -4.0050    -6.9080    -0.5370 C.ar  1 <1>   0.3100 
 20 C       -5.7860    -5.7000     0.5760 C.ar  1 <1>  -0.1500 
 21 C       -2.4430    -5.9190    -1.8380 C.ar  1 <1>   0.1600 
 22 N       -2.9100    -7.0140    -1.3300 N.ar  1 <1>  -0.6200 
 23 C       -4.5270    -8.0880     0.0160 C.ar  1 <1>  -0.1500 
 24 C       -6.2710    -6.8680     1.0980 C.ar  1 <1>  -0.1500 
 25 C       -5.6350    -8.0790     0.8180 C.ar  1 <1>  -0.1500 
 26 H       -3.9680     1.3900    -0.3810 H     1 <1>   0.0800 
 27 H       -3.4460     0.7260    -1.9250 H     1 <1>   0.0800 
 28 H       -1.8270    -2.0990    -0.7800 H     1 <1>   0.0800 
 29 H       -2.6980    -1.9750     0.7350 H     1 <1>   0.0800 
 30 H        0.6190     2.2340     1.6000 H     1 <1>   0.0800 
 31 H        0.9430     1.6240     0.0000 H     1 <1>   0.0800 
 32 H       -1.1150     2.0090    -1.8090 H     1 <1>   0.0800 
 33 H       -2.4450     2.9370    -1.1490 H     1 <1>   0.0800 
 34 H       -1.8240     3.6900     1.5000 H     1 <1>   0.0800 
 35 H       -1.7230     2.2050     2.4080 H     1 <1>   0.0800 
 36 H       -3.0390     2.4610     1.3010 H     1 <1>   0.0800 
 37 H       -5.5370    -0.4270    -1.5590 H     1 <1>   0.0800 
 38 H       -3.7830    -1.9830    -2.0580 H     1 <1>   0.0800 
 39 H        0.4350     4.4440     0.7920 H     1 <1>   0.0800 
 40 H        1.5450     3.8170    -0.4080 H     1 <1>   0.0800 
 41 H       -0.0910     4.0400    -2.0330 H     1 <1>   0.0800 
 42 H       -1.1030     4.7950    -0.8210 H     1 <1>   0.0800 
 43 H       -4.5990    -0.5110     1.0980 H     1 <1>   0.4000 
 44 H       -5.7200    -3.1370    -0.9650 H     1 <1>   0.0800 
 45 H       -4.8690    -3.0570     0.5450 H     1 <1>   0.0800 
 46 H       -2.5050    -3.8290    -2.1080 H     1 <1>   0.1500 
 47 H       -6.2980    -4.7850     0.8040 H     1 <1>   0.1500 
 48 H       -1.5760    -5.9890    -2.4730 H     1 <1>   0.1500 
 49 H       -4.0220    -9.0070    -0.2160 H     1 <1>   0.1500 
 50 H       -7.1450    -6.8700     1.7280 H     1 <1>   0.1500 
 51 H       -6.0250    -8.9920     1.2350 H     1 <1>   0.1500 
@<TRIPOS>BOND
  1   1   2  2   
  2   2   3  am  
  3   2   4  1   
  4   3   5  1   
  5   3   6  1   
  6   4   7  1   
  7   4   8  1   
  8   4   9  1   
  9   5  10  1   
 10   5  26  1   
 11   5  27  1   
 12   6  11  1   
 13   6  28  1   
 14   6  29  1   
 15   7  12  1   
 16   7  30  1   
 17   7  31  1   
 18   8  13  1   
 19   8  32  1   
 20   8  33  1   
 21   9  34  1   
 22   9  35  1   
 23   9  36  1   
 24  10  11  1   
 25  10  14  1   
 26  10  37  1   
 27  11  15  1   
 28  11  38  1   
 29  12  13  1   
 30  12  39  1   
 31  12  40  1   
 32  13  41  1   
 33  13  42  1   
 34  14  43  1   
 35  15  16  1   
 36  15  44  1   
 37  15  45  1   
 38  16  17  ar  
 39  16  18  ar  
 40  17  19  ar  
 41  17  20  ar  
 42  18  21  ar  
 43  18  46  1   
 44  19  22  ar  
 45  19  23  ar  
 46  20  24  ar  
 47  20  47  1   
 48  21  22  ar  
 49  21  48  1   
 50  23  25  ar  
 51  23  49  1   
 52  24  25  ar  
 53  24  50  1   
 54  25  51  1   
@<TRIPOS>SUBSTRUCTURE
  1 ****   6 GROUP 4 **** **** 0

# MOE 2024.06 (io_trps.svl 2023.06)
