@<TRIPOS>MOLECULE
NONAME
47 49 1 0 0 
SMALL
USER_CHARGES


@<TRIPOS>ATOM
  1 O       -0.4260     0.3060     0.6970 O.2   1 <1>  -0.5700 
  2 C       -1.4500     0.9140     0.4500 C.2   1 <1>   0.5440 
  3 N       -2.6070     0.1950     0.2490 N.am  1 <1>  -0.6600 
  4 C       -1.4300     2.3620     0.3550 C.ar  1 <1>   0.0860 
  5 C       -3.7940     0.6940    -0.4900 C.3   1 <1>   0.1400 
  6 C       -2.6390    -1.2840     0.3530 C.3   1 <1>   0.1400 
  7 C       -2.3730     3.1500     1.0100 C.ar  1 <1>  -0.1500 
  8 C       -0.4590     3.0150    -0.3990 C.ar  1 <1>  -0.1500 
  9 C       -4.4670    -0.5630    -1.0410 C.3   1 <1>   0.2000 
 10 C       -4.0360    -1.6960    -0.1130 C.3   1 <1>  -0.0800 
 11 C       -2.3690     4.5290     0.9030 C.ar  1 <1>   0.0830 
 12 C       -0.4350     4.3940    -0.5170 C.ar  1 <1>   0.0830 
 13 O       -5.8480    -0.4450    -1.0420 O.3   1 <1>  -0.6800 
 14 C       -4.0770    -3.0740    -0.7910 C.3   1 <1>  -0.0170 
 15 O       -3.3450     5.1880     1.5750 O.3   1 <1>  -0.3630 
 16 C       -1.3970     5.1590     0.1350 C.ar  1 <1>  -0.1500 
 17 O        0.5540     4.9190    -1.2830 O.3   1 <1>  -0.3630 
 18 C       -3.6480    -4.1700     0.1720 C.ar  1 <1>  -0.1440 
 19 C       -3.4110     6.5970     1.5880 C.3   1 <1>   0.0400 
 20 C        0.7240     6.3120    -1.4190 C.3   1 <1>   0.0400 
 21 C       -2.3540    -4.6520     0.2090 C.ar  1 <1>  -0.1500 
 22 C       -4.5350    -4.7380     1.0630 C.ar  1 <1>  -0.1500 
 23 C       -2.0200    -5.6460     1.1130 C.ar  1 <1>   0.1600 
 24 C       -4.0980    -5.7300     1.9260 C.ar  1 <1>   0.1600 
 25 N       -2.8610    -6.1960     1.9730 N.ar  1 <1>  -0.6200 
 26 H       -4.4460     1.2070     0.1930 H     1 <1>   0.0800 
 27 H       -3.4970     1.3510    -1.2900 H     1 <1>   0.0800 
 28 H       -1.8790    -1.6930    -0.2920 H     1 <1>   0.0800 
 29 H       -2.4490    -1.5980     1.3660 H     1 <1>   0.0800 
 30 H       -3.1220     2.6810     1.6200 H     1 <1>   0.1500 
 31 H        0.2940     2.4350    -0.9010 H     1 <1>   0.1500 
 32 H       -4.1390    -0.7370    -2.0520 H     1 <1>   0.0800 
 33 H       -4.6690    -1.7070     0.7570 H     1 <1>   0.0800 
 34 H       -6.1780    -0.2960    -0.1350 H     1 <1>   0.4000 
 35 H       -3.4370    -3.0790    -1.6550 H     1 <1>   0.0800 
 36 H       -5.0790    -3.2730    -1.1310 H     1 <1>   0.0800 
 37 H       -1.3880     6.2250     0.0450 H     1 <1>   0.1500 
 38 H       -4.2470     6.8870     2.2000 H     1 <1>   0.0800 
 39 H       -3.5560     6.9500     0.5830 H     1 <1>   0.0800 
 40 H       -2.5000     6.9860     2.0080 H     1 <1>   0.0800 
 41 H        1.5830     6.4830    -2.0440 H     1 <1>   0.0800 
 42 H        0.8900     6.7410    -0.4470 H     1 <1>   0.0800 
 43 H       -0.1520     6.7280    -1.8820 H     1 <1>   0.0800 
 44 H       -1.6020    -4.2650    -0.4540 H     1 <1>   0.1500 
 45 H       -5.5610    -4.4200     1.0950 H     1 <1>   0.1500 
 46 H       -1.0060    -6.0080     1.1290 H     1 <1>   0.1500 
 47 H       -4.8040    -6.1620     2.6150 H     1 <1>   0.1500 
@<TRIPOS>BOND
  1   1   2  2   
  2   2   3  am  
  3   2   4  1   
  4   3   5  1   
  5   3   6  1   
  6   4   7  ar  
  7   4   8  ar  
  8   5   9  1   
  9   5  26  1   
 10   5  27  1   
 11   6  10  1   
 12   6  28  1   
 13   6  29  1   
 14   7  11  ar  
 15   7  30  1   
 16   8  12  ar  
 17   8  31  1   
 18   9  10  1   
 19   9  13  1   
 20   9  32  1   
 21  10  14  1   
 22  10  33  1   
 23  11  15  1   
 24  11  16  ar  
 25  12  16  ar  
 26  12  17  1   
 27  13  34  1   
 28  14  18  1   
 29  14  35  1   
 30  14  36  1   
 31  15  19  1   
 32  16  37  1   
 33  17  20  1   
 34  18  21  ar  
 35  18  22  ar  
 36  19  38  1   
 37  19  39  1   
 38  19  40  1   
 39  20  41  1   
 40  20  42  1   
 41  20  43  1   
 42  21  23  ar  
 43  21  44  1   
 44  22  24  ar  
 45  22  45  1   
 46  23  25  ar  
 47  23  46  1   
 48  24  25  ar  
 49  24  47  1   
@<TRIPOS>SUBSTRUCTURE
  1 ****   3 GROUP 4 **** **** 0

# MOE 2024.06 (io_trps.svl 2023.06)
