@<TRIPOS>MOLECULE
NONAME
46 48 1 0 0 
SMALL
USER_CHARGES


@<TRIPOS>ATOM
  1 O        1.6430     2.2550    -0.2800 O.3   1 <1>  -0.0190 
  2 N        2.8370     1.7510    -0.1870 N.2   1 <1>  -0.4100 
  3 C        1.6690     3.4760    -0.7400 C.2   1 <1>  -0.0400 
  4 C        3.6440     2.6520    -0.6230 C.2   1 <1>   0.1080 
  5 C        2.9460     3.7960    -0.9960 C.2   1 <1>  -0.1500 
  6 C        0.3870     4.2750    -0.8630 C.3   1 <1>   0.0200 
  7 C        5.1450     2.4860    -0.7080 C.3   1 <1>  -0.0590 
  8 C       -0.4290     4.2960     0.4540 C.3   1 <1>  -0.0800 
  9 C       -1.1830     5.6090     0.6200 C.3   1 <1>   0.2000 
 10 C        0.4320     4.2750     1.7240 C.3   1 <1>   0.3430 
 11 O       -2.1750     5.4210     1.5740 O.3   1 <1>  -0.6800 
 12 C       -0.1220     6.5510     1.2110 C.3   1 <1>   0.3430 
 13 N        0.8370     5.6890     1.9890 N.4   1 <1>  -0.9590 
 14 C        2.2690     5.8860     1.6050 C.3   1 <1>   0.3430 
 15 C        2.8030     7.2750     1.9530 C.3   1 <1>  -0.0170 
 16 C        4.1680     7.4270     1.3140 C.ar  1 <1>   0.1670 
 17 N        4.2290     7.1440     0.0210 N.ar  1 <1>  -0.6200 
 18 C        5.2510     7.8410     2.0740 C.ar  1 <1>  -0.1500 
 19 C        5.4160     7.2910    -0.5470 C.ar  1 <1>   0.1670 
 20 C        6.4830     7.9800     1.4750 C.ar  1 <1>  -0.1500 
 21 C        6.5560     7.6970     0.1290 C.ar  1 <1>  -0.1500 
 22 C        5.4910     6.9900    -2.0300 C.3   1 <1>  -0.0970 
 23 H        3.3740     4.7030    -1.3850 H     1 <1>   0.1500 
 24 H        0.6520     5.2710    -1.1720 H     1 <1>   0.0800 
 25 H       -0.2140     3.8480    -1.6480 H     1 <1>   0.0800 
 26 H        5.6370     3.3640    -0.3330 H     1 <1>   0.0800 
 27 H        5.4340     2.3270    -1.7300 H     1 <1>   0.0800 
 28 H        5.4540     1.6370    -0.1250 H     1 <1>   0.0800 
 29 H       -1.0920     3.4480     0.4540 H     1 <1>   0.0800 
 30 H       -1.6320     5.9910    -0.2810 H     1 <1>   0.0800 
 31 H        1.2830     3.6180     1.6380 H     1 <1>   0.0800 
 32 H       -0.1810     3.9290     2.5400 H     1 <1>   0.0800 
 33 H       -2.9510     4.9510     1.1990 H     1 <1>   0.4000 
 34 H       -0.5850     7.2980     1.8340 H     1 <1>   0.0800 
 35 H        0.4030     7.0370     0.4060 H     1 <1>   0.0800 
 36 H        0.7060     5.8670     2.9940 H     1 <1>   0.4500 
 37 H        2.8850     5.1460     2.0910 H     1 <1>   0.0800 
 38 H        2.3690     5.7390     0.5430 H     1 <1>   0.0800 
 39 H        2.8710     7.3890     3.0190 H     1 <1>   0.0800 
 40 H        2.1680     8.0420     1.5520 H     1 <1>   0.0800 
 41 H        5.1440     8.0590     3.1210 H     1 <1>   0.1500 
 42 H        7.3500     8.2990     2.0300 H     1 <1>   0.1500 
 43 H        7.4930     7.7950    -0.3880 H     1 <1>   0.1500 
 44 H        6.4470     7.2710    -2.4330 H     1 <1>   0.0800 
 45 H        4.7270     7.5400    -2.5490 H     1 <1>   0.0800 
 46 H        5.3410     5.9400    -2.1970 H     1 <1>   0.0800 
@<TRIPOS>BOND
  1   1   2  1   
  2   1   3  1   
  3   2   4  2   
  4   3   5  2   
  5   3   6  1   
  6   4   5  1   
  7   4   7  1   
  8   5  23  1   
  9   6   8  1   
 10   6  24  1   
 11   6  25  1   
 12   7  26  1   
 13   7  27  1   
 14   7  28  1   
 15   8   9  1   
 16   8  10  1   
 17   8  29  1   
 18   9  11  1   
 19   9  12  1   
 20   9  30  1   
 21  10  13  1   
 22  10  31  1   
 23  10  32  1   
 24  11  33  1   
 25  12  13  1   
 26  12  34  1   
 27  12  35  1   
 28  13  14  1   
 29  13  36  1   
 30  14  15  1   
 31  14  37  1   
 32  14  38  1   
 33  15  16  1   
 34  15  39  1   
 35  15  40  1   
 36  16  17  ar  
 37  16  18  ar  
 38  17  19  ar  
 39  18  20  ar  
 40  18  41  1   
 41  19  21  ar  
 42  19  22  1   
 43  20  21  ar  
 44  20  42  1   
 45  21  43  1   
 46  22  44  1   
 47  22  45  1   
 48  22  46  1   
@<TRIPOS>SUBSTRUCTURE
  1 ****  14 GROUP 4 **** **** 0

# MOE 2024.06 (io_trps.svl 2023.06)
