@<TRIPOS>MOLECULE
NONAME
50 52 1 0 0 
SMALL
USER_CHARGES


@<TRIPOS>ATOM
  1 O       -1.8420    -0.6540     2.0780 O.co2 1 <1>  -0.9000 
  2 C       -2.7090    -0.1860     1.3370 C.2   1 <1>   0.9060 
  3 O       -3.8830    -0.0280     1.6880 O.co2 1 <1>  -0.9000 
  4 C       -2.2230     0.4640     0.0290 C.3   1 <1>   0.3170 
  5 N       -1.9320     1.9560     0.1970 N.4   1 <1>  -0.9590 
  6 C       -3.2360     0.2240    -1.1200 C.3   1 <1>   0.1200 
  7 C       -3.2470     2.6570     0.3920 C.3   1 <1>   0.3430 
  8 C       -1.0150     2.1550     1.3490 C.3   1 <1>   0.5240 
  9 O       -3.6810     1.4390    -1.6740 O.3   1 <1>  -0.5600 
 10 C       -4.2590     2.2900    -0.7180 C.3   1 <1>   0.1200 
 11 C       -0.7000     3.6320     1.4520 C.2   1 <1>  -0.1810 
 12 C       -1.0790     4.4550     2.5040 C.2   1 <1>   0.1390 
 13 C       -0.0410     4.4500     0.6030 C.2   1 <1>  -0.3020 
 14 N       -0.7040     5.6790     2.3210 N.2   1 <1>  -0.7070 
 15 N       -0.0360     5.6980     1.1380 N.pl3 1 <1>   0.5930 
 16 C        0.5270     6.8730     0.5620 C.ar  1 <1>  -0.0230 
 17 C       -0.0630     8.1160     0.7690 C.ar  1 <1>  -0.1500 
 18 C        1.6760     6.8110    -0.2240 C.ar  1 <1>  -0.1500 
 19 C        0.4690     9.2590     0.1990 C.ar  1 <1>  -0.1500 
 20 C        2.2060     7.9550    -0.7940 C.ar  1 <1>  -0.1500 
 21 C        1.6050     9.1850    -0.5890 C.ar  1 <1>  -0.1430 
 22 C        2.1890    10.4420    -1.2150 C.3   1 <1>  -0.0170 
 23 C        3.2140    11.0840    -0.2740 C.3   1 <1>  -0.1600 
 24 C        3.8180    12.3570    -0.8810 C.3   1 <1>  -0.1600 
 25 C        4.8390    12.9880     0.0690 C.3   1 <1>  -0.2400 
 26 H       -1.3110    -0.0470    -0.2200 H     1 <1>   0.0800 
 27 H       -1.5190     2.3020    -0.6730 H     1 <1>   0.4500 
 28 H       -4.0940    -0.3290    -0.7760 H     1 <1>   0.0800 
 29 H       -2.7700    -0.3440    -1.9040 H     1 <1>   0.0800 
 30 H       -3.6720     2.3720     1.3420 H     1 <1>   0.0800 
 31 H       -3.1010     3.7250     0.4060 H     1 <1>   0.0800 
 32 H       -1.4780     1.8080     2.2610 H     1 <1>   0.0800 
 33 H       -0.1070     1.5940     1.2020 H     1 <1>   0.0800 
 34 H       -4.5980     3.1770    -1.2230 H     1 <1>   0.0800 
 35 H       -5.1130     1.7930    -0.2880 H     1 <1>   0.0800 
 36 H       -1.6260     4.1310     3.3770 H     1 <1>   0.1500 
 37 H        0.4210     4.2390    -0.3440 H     1 <1>   0.1500 
 38 H       -0.9440     8.1920     1.3840 H     1 <1>   0.1500 
 39 H        2.1690     5.8710    -0.3920 H     1 <1>   0.1500 
 40 H       -0.0050    10.2090     0.3750 H     1 <1>   0.1500 
 41 H        3.0950     7.8860    -1.3980 H     1 <1>   0.1500 
 42 H        2.6590    10.1930    -2.1500 H     1 <1>   0.0800 
 43 H        1.3980    11.1410    -1.4230 H     1 <1>   0.0800 
 44 H        2.7330    11.3230     0.6600 H     1 <1>   0.0800 
 45 H        3.9970    10.3750    -0.0690 H     1 <1>   0.0800 
 46 H        4.3030    12.1200    -1.8130 H     1 <1>   0.0800 
 47 H        3.0360    13.0690    -1.0830 H     1 <1>   0.0800 
 48 H        5.6440    12.3010     0.2680 H     1 <1>   0.0800 
 49 H        4.3720    13.2530     1.0020 H     1 <1>   0.0800 
 50 H        5.2520    13.8780    -0.3720 H     1 <1>   0.0800 
@<TRIPOS>BOND
  1   1   2  ar  
  2   2   3  ar  
  3   2   4  1   
  4   4   5  1   
  5   4   6  1   
  6   4  26  1   
  7   5   7  1   
  8   5   8  1   
  9   5  27  1   
 10   6   9  1   
 11   6  28  1   
 12   6  29  1   
 13   7  10  1   
 14   7  30  1   
 15   7  31  1   
 16   8  11  1   
 17   8  32  1   
 18   8  33  1   
 19   9  10  1   
 20  10  34  1   
 21  10  35  1   
 22  11  12  1   
 23  11  13  2   
 24  12  14  2   
 25  12  36  1   
 26  13  15  1   
 27  13  37  1   
 28  14  15  1   
 29  15  16  1   
 30  16  17  ar  
 31  16  18  ar  
 32  17  19  ar  
 33  17  38  1   
 34  18  20  ar  
 35  18  39  1   
 36  19  21  ar  
 37  19  40  1   
 38  20  21  ar  
 39  20  41  1   
 40  21  22  1   
 41  22  23  1   
 42  22  42  1   
 43  22  43  1   
 44  23  24  1   
 45  23  44  1   
 46  23  45  1   
 47  24  25  1   
 48  24  46  1   
 49  24  47  1   
 50  25  48  1   
 51  25  49  1   
 52  25  50  1   
@<TRIPOS>SUBSTRUCTURE
  1 ****  13 GROUP 4 **** **** 0

# MOE 2024.06 (io_trps.svl 2023.06)
