@<TRIPOS>MOLECULE
NONAME
51 53 1 0 0 
SMALL
USER_CHARGES


@<TRIPOS>ATOM
  1 S        0.5580     0.1120    -0.6030 S.o2  1 <1>   1.3330 
  2 O       -0.3500    -0.1130    -1.7070 O.2   1 <1>  -0.6500 
  3 O        1.9750     0.2340    -0.8620 O.2   1 <1>  -0.6500 
  4 N        0.3330    -1.1390     0.5210 N.am  1 <1>  -0.8490 
  5 C        0.0320     1.5680     0.2980 C.3   1 <1>  -0.0550 
  6 C       -1.0560    -1.6040     0.6060 C.3   1 <1>   0.1160 
  7 C        1.2230    -2.2760     0.2700 C.3   1 <1>   0.1160 
  8 C        0.1780     2.8680    -0.5170 C.3   1 <1>  -0.0800 
  9 C       -0.4460     4.1000     0.1330 C.3   1 <1>   0.2000 
 10 C        1.6390     3.2730    -0.7830 C.3   1 <1>   0.1100 
 11 O       -0.1620     4.0910     1.4860 O.3   1 <1>  -0.6800 
 12 C        0.3580     5.2310    -0.4930 C.3   1 <1>   0.1100 
 13 N        1.7380     4.7180    -0.5160 N.3   1 <1>  -0.8100 
 14 C        2.5780     5.4220    -1.5250 C.3   1 <1>   0.1710 
 15 C        2.6760     6.9490    -1.3510 C.2   1 <1>   0.5690 
 16 O        2.1940     7.6010    -2.2490 O.2   1 <1>  -0.5700 
 17 N        3.3010     7.5130    -0.2440 N.am  1 <1>  -0.4770 
 18 C        3.4980     8.9120    -0.0220 C.ar  1 <1>   0.1170 
 19 C        4.0220     6.5910     0.6950 C.3   1 <1>   0.1400 
 20 C        4.5710     9.3520     0.7690 C.ar  1 <1>   0.0820 
 21 C        2.6670     9.8970    -0.5560 C.ar  1 <1>  -0.1500 
 22 C        4.6840     7.3100     1.8750 C.3   1 <1>   0.1200 
 23 O        5.3550     8.4640     1.4260 O.3   1 <1>  -0.3630 
 24 C        4.8460    10.6970     0.9420 C.ar  1 <1>  -0.1500 
 25 C        2.9290    11.2450    -0.3730 C.ar  1 <1>  -0.1500 
 26 C        4.0250    11.6490     0.3660 C.ar  1 <1>  -0.1500 
 27 H       -0.9970     1.4540     0.5750 H     1 <1>   0.0800 
 28 H        0.6040     1.6460     1.2020 H     1 <1>   0.0800 
 29 H       -1.1530    -2.3350     1.3900 H     1 <1>   0.0800 
 30 H       -1.3630    -2.0480    -0.3270 H     1 <1>   0.0800 
 31 H       -1.7120    -0.7800     0.8290 H     1 <1>   0.0800 
 32 H        1.0670    -3.0430     1.0090 H     1 <1>   0.0800 
 33 H        2.2510    -1.9600     0.3280 H     1 <1>   0.0800 
 34 H        1.0420    -2.6840    -0.7100 H     1 <1>   0.0800 
 35 H       -0.2990     2.7270    -1.4720 H     1 <1>   0.0800 
 36 H       -1.5100     4.1850    -0.0080 H     1 <1>   0.0800 
 37 H        1.9030     3.0380    -1.8020 H     1 <1>   0.0800 
 38 H        2.3160     2.7510    -0.1260 H     1 <1>   0.0800 
 39 H        0.7980     4.2750     1.5640 H     1 <1>   0.4000 
 40 H        0.2800     6.1440     0.0740 H     1 <1>   0.0800 
 41 H        0.0090     5.4060    -1.4970 H     1 <1>   0.0800 
 42 H        3.5710     5.0120    -1.5060 H     1 <1>   0.0800 
 43 H        2.1770     5.2330    -2.5060 H     1 <1>   0.0800 
 44 H        3.3320     5.8670     1.0910 H     1 <1>   0.0800 
 45 H        4.7850     6.0650     0.1500 H     1 <1>   0.0800 
 46 H        1.8010     9.6260    -1.1280 H     1 <1>   0.1500 
 47 H        5.4010     6.6720     2.3600 H     1 <1>   0.0800 
 48 H        3.9430     7.6150     2.5930 H     1 <1>   0.0800 
 49 H        5.6930    10.9910     1.5340 H     1 <1>   0.1500 
 50 H        2.2760    11.9790    -0.8120 H     1 <1>   0.1500 
 51 H        4.2340    12.6960     0.4990 H     1 <1>   0.1500 
@<TRIPOS>BOND
  1   1   2  2   
  2   1   3  2   
  3   1   4  am  
  4   1   5  1   
  5   4   6  1   
  6   4   7  1   
  7   5   8  1   
  8   5  27  1   
  9   5  28  1   
 10   6  29  1   
 11   6  30  1   
 12   6  31  1   
 13   7  32  1   
 14   7  33  1   
 15   7  34  1   
 16   8   9  1   
 17   8  10  1   
 18   8  35  1   
 19   9  11  1   
 20   9  12  1   
 21   9  36  1   
 22  10  13  1   
 23  10  37  1   
 24  10  38  1   
 25  11  39  1   
 26  12  13  1   
 27  12  40  1   
 28  12  41  1   
 29  13  14  1   
 30  14  15  1   
 31  14  42  1   
 32  14  43  1   
 33  15  16  2   
 34  15  17  am  
 35  17  18  1   
 36  17  19  1   
 37  18  20  ar  
 38  18  21  ar  
 39  19  22  1   
 40  19  44  1   
 41  19  45  1   
 42  20  23  1   
 43  20  24  ar  
 44  21  25  ar  
 45  21  46  1   
 46  22  23  1   
 47  22  47  1   
 48  22  48  1   
 49  24  26  ar  
 50  24  49  1   
 51  25  26  ar  
 52  25  50  1   
 53  26  51  1   
@<TRIPOS>SUBSTRUCTURE
  1 ****  13 GROUP 4 **** **** 0

# MOE 2024.06 (io_trps.svl 2023.06)
