@<TRIPOS>MOLECULE
NONAME
43 44 1 0 0 
SMALL
USER_CHARGES


@<TRIPOS>ATOM
  1 S       -0.4170     0.4470     0.9550 S.o2  1 <1>   1.4470 
  2 O       -1.0300     1.5350     1.6760 O.2   1 <1>  -0.6500 
  3 O       -0.1530    -0.8010     1.6300 O.2   1 <1>  -0.6500 
  4 N       -1.5050     0.1550    -0.2940 N.am  1 <1>  -0.9140 
  5 C        1.0660     1.0490     0.0960 C.ar  1 <1>  -0.0090 
  6 C       -1.6090    -1.1770    -0.9000 C.3   1 <1>   0.2760 
  7 C        1.0030     2.1540    -0.7440 C.ar  1 <1>  -0.1500 
  8 C        2.2960     0.4220     0.2550 C.ar  1 <1>  -0.1500 
  9 C       -2.2610    -2.2270     0.0050 C.3   1 <1>  -0.0800 
 10 C       -0.2970    -1.8270    -1.3570 C.3   1 <1>   0.1200 
 11 C        2.1190     2.6360    -1.4190 C.ar  1 <1>   0.0730 
 12 C        3.4210     0.8810    -0.4070 C.ar  1 <1>  -0.1500 
 13 C       -1.2170    -3.3480     0.0310 C.3   1 <1>   0.1200 
 14 C       -3.5980    -2.7110    -0.5880 C.3   1 <1>  -0.0550 
 15 O       -0.4850    -3.1860    -1.1390 O.3   1 <1>  -0.5600 
 16 C        2.0230     3.7810    -2.2800 C.1   1 <1>   0.4840 
 17 C        3.3300     1.9810    -1.2380 C.ar  1 <1>  -0.1500 
 18 S       -4.5900    -3.6700     0.5570 S.o2  1 <1>   1.3330 
 19 N        1.9460     4.6870    -2.9670 N.1   1 <1>  -0.5570 
 20 O       -4.9830    -2.7800     1.6260 O.2   1 <1>  -0.6500 
 21 O       -3.9270    -4.9170     0.8630 O.2   1 <1>  -0.6500 
 22 N       -5.9680    -4.0280    -0.3670 N.am  1 <1>  -0.8490 
 23 C       -7.1650    -4.1910     0.4630 C.3   1 <1>   0.1160 
 24 C       -5.7990    -5.2030    -1.2300 C.3   1 <1>   0.1160 
 25 H       -2.4050     0.3960     0.1210 H     1 <1>   0.4200 
 26 H       -2.2110    -1.0660    -1.7860 H     1 <1>   0.0800 
 27 H        0.0550     2.6530    -0.8720 H     1 <1>   0.1500 
 28 H        2.3770    -0.4350     0.9040 H     1 <1>   0.1500 
 29 H       -2.4260    -1.8590     1.0040 H     1 <1>   0.0800 
 30 H        0.5510    -1.5250    -0.7730 H     1 <1>   0.0800 
 31 H       -0.1080    -1.6670    -2.4040 H     1 <1>   0.0800 
 32 H        4.3660     0.3810    -0.2720 H     1 <1>   0.1500 
 33 H       -1.6360    -4.3390     0.0470 H     1 <1>   0.0800 
 34 H       -0.5440    -3.2330     0.8650 H     1 <1>   0.0800 
 35 H       -3.4050    -3.2890    -1.4710 H     1 <1>   0.0800 
 36 H       -4.1770    -1.8560    -0.8790 H     1 <1>   0.0800 
 37 H        4.2100     2.3340    -1.7510 H     1 <1>   0.1500 
 38 H       -8.0220    -4.4020    -0.1530 H     1 <1>   0.0800 
 39 H       -7.3610    -3.2840     1.0110 H     1 <1>   0.0800 
 40 H       -7.0260    -4.9960     1.1670 H     1 <1>   0.0800 
 41 H       -6.6640    -5.3270    -1.8590 H     1 <1>   0.0800 
 42 H       -5.6680    -6.0920    -0.6350 H     1 <1>   0.0800 
 43 H       -4.9360    -5.0810    -1.8620 H     1 <1>   0.0800 
@<TRIPOS>BOND
  1   1   2  2   
  2   1   3  2   
  3   1   4  am  
  4   1   5  1   
  5   4   6  1   
  6   4  25  1   
  7   5   7  ar  
  8   5   8  ar  
  9   6   9  1   
 10   6  10  1   
 11   6  26  1   
 12   7  11  ar  
 13   7  27  1   
 14   8  12  ar  
 15   8  28  1   
 16   9  13  1   
 17   9  14  1   
 18   9  29  1   
 19  10  15  1   
 20  10  30  1   
 21  10  31  1   
 22  11  16  1   
 23  11  17  ar  
 24  12  17  ar  
 25  12  32  1   
 26  13  15  1   
 27  13  33  1   
 28  13  34  1   
 29  14  18  1   
 30  14  35  1   
 31  14  36  1   
 32  16  19  3   
 33  17  37  1   
 34  18  20  2   
 35  18  21  2   
 36  18  22  am  
 37  22  23  1   
 38  22  24  1   
 39  23  38  1   
 40  23  39  1   
 41  23  40  1   
 42  24  41  1   
 43  24  42  1   
 44  24  43  1   
@<TRIPOS>SUBSTRUCTURE
  1 ****   6 GROUP 4 **** **** 0

# MOE 2024.06 (io_trps.svl 2023.06)
