@<TRIPOS>MOLECULE
NONAME
50 52 1 0 0 
SMALL
USER_CHARGES


@<TRIPOS>ATOM
  1 CL      -0.9940    -0.1630    -1.3700 Cl    1 <1>  -0.1770 
  2 C       -1.8270    -1.5880    -0.8030 C.ar  1 <1>   0.1770 
  3 C       -3.1780    -1.5200    -0.5260 C.ar  1 <1>  -0.1500 
  4 C       -1.1220    -2.7660    -0.6370 C.ar  1 <1>  -0.1500 
  5 C       -3.8350    -2.6540    -0.0780 C.ar  1 <1>  -0.1500 
  6 C       -1.7840    -3.8960    -0.1890 C.ar  1 <1>  -0.1500 
  7 C       -3.1520    -3.8580     0.0910 C.ar  1 <1>  -0.0230 
  8 N       -3.8430    -5.0220     0.5410 N.pl3 1 <1>   0.5930 
  9 N       -4.9040    -4.9870     1.3870 N.2   1 <1>  -0.7070 
 10 C       -3.5930    -6.3120     0.1940 C.2   1 <1>  -0.3020 
 11 C       -5.2660    -6.2150     1.5670 C.2   1 <1>   0.1390 
 12 C       -4.4870    -7.0990     0.8330 C.2   1 <1>  -0.1810 
 13 C       -4.6750    -8.5990     0.8070 C.3   1 <1>   0.5240 
 14 N       -5.2910    -8.9700    -0.4970 N.4   1 <1>  -0.9590 
 15 C       -6.6730    -8.4070    -0.6300 C.3   1 <1>   0.3430 
 16 C       -5.4280   -10.4540    -0.5940 C.3   1 <1>   0.3430 
 17 C       -7.6120    -9.5040    -0.1220 C.3   1 <1>   0.2000 
 18 C       -6.9330   -10.7760    -0.6290 C.3   1 <1>  -0.0800 
 19 O       -7.5940    -9.4880     1.2710 O.3   1 <1>  -0.6800 
 20 C       -7.3020   -12.0750     0.1230 C.3   1 <1>  -0.0550 
 21 S       -6.4120   -13.4960    -0.5050 S.o2  1 <1>   1.3330 
 22 O       -5.0260   -13.2700    -0.1570 O.2   1 <1>  -0.6500 
 23 O       -6.7790   -13.6570    -1.8910 O.2   1 <1>  -0.6500 
 24 N       -7.0280   -14.7810     0.4100 N.am  1 <1>  -0.8490 
 25 C       -6.0260   -15.8230     0.6650 C.3   1 <1>   0.1160 
 26 C       -8.2320   -15.3880    -0.1730 C.3   1 <1>   0.1160 
 27 H       -3.7050    -0.5920    -0.6570 H     1 <1>   0.1500 
 28 H       -0.0690    -2.7890    -0.8560 H     1 <1>   0.1500 
 29 H       -4.8880    -2.6020     0.1450 H     1 <1>   0.1500 
 30 H       -1.2260    -4.8060    -0.0530 H     1 <1>   0.1500 
 31 H       -2.7990    -6.5690    -0.4830 H     1 <1>   0.1500 
 32 H       -6.0840    -6.4950     2.2130 H     1 <1>   0.1500 
 33 H       -5.3070    -8.9070     1.6240 H     1 <1>   0.0800 
 34 H       -3.7170    -9.0810     0.9140 H     1 <1>   0.0800 
 35 H       -4.6840    -8.5970    -1.2380 H     1 <1>   0.4500 
 36 H       -6.8050    -7.4900    -0.0790 H     1 <1>   0.0800 
 37 H       -6.8850    -8.2220    -1.6700 H     1 <1>   0.0800 
 38 H       -4.9430   -10.8330    -1.4800 H     1 <1>   0.0800 
 39 H       -4.9740   -10.9230     0.2660 H     1 <1>   0.0800 
 40 H       -8.6250    -9.3750    -0.4660 H     1 <1>   0.0800 
 41 H       -7.2010   -10.9050    -1.6650 H     1 <1>   0.0800 
 42 H       -8.4070    -9.8950     1.6430 H     1 <1>   0.4000 
 43 H       -8.3560   -12.2500     0.0250 H     1 <1>   0.0800 
 44 H       -7.0810   -11.9730     1.1680 H     1 <1>   0.0800 
 45 H       -6.4480   -16.6080     1.2680 H     1 <1>   0.0800 
 46 H       -5.1860   -15.4070     1.1970 H     1 <1>   0.0800 
 47 H       -5.6740   -16.2410    -0.2640 H     1 <1>   0.0800 
 48 H       -8.6270   -16.1380     0.4910 H     1 <1>   0.0800 
 49 H       -8.0020   -15.8460    -1.1210 H     1 <1>   0.0800 
 50 H       -8.9900   -14.6390    -0.3260 H     1 <1>   0.0800 
@<TRIPOS>BOND
  1   1   2  1   
  2   2   3  ar  
  3   2   4  ar  
  4   3   5  ar  
  5   3  27  1   
  6   4   6  ar  
  7   4  28  1   
  8   5   7  ar  
  9   5  29  1   
 10   6   7  ar  
 11   6  30  1   
 12   7   8  1   
 13   8   9  1   
 14   8  10  1   
 15   9  11  2   
 16  10  12  2   
 17  10  31  1   
 18  11  12  1   
 19  11  32  1   
 20  12  13  1   
 21  13  14  1   
 22  13  33  1   
 23  13  34  1   
 24  14  15  1   
 25  14  16  1   
 26  14  35  1   
 27  15  17  1   
 28  15  36  1   
 29  15  37  1   
 30  16  18  1   
 31  16  38  1   
 32  16  39  1   
 33  17  18  1   
 34  17  19  1   
 35  17  40  1   
 36  18  20  1   
 37  18  41  1   
 38  19  42  1   
 39  20  21  1   
 40  20  43  1   
 41  20  44  1   
 42  21  22  2   
 43  21  23  2   
 44  21  24  am  
 45  24  25  1   
 46  24  26  1   
 47  25  45  1   
 48  25  46  1   
 49  25  47  1   
 50  26  48  1   
 51  26  49  1   
 52  26  50  1   
@<TRIPOS>SUBSTRUCTURE
  1 ****  13 GROUP 4 **** **** 0

# MOE 2024.06 (io_trps.svl 2023.06)
