@<TRIPOS>MOLECULE
NONAME
48 50 1 0 0 
SMALL
USER_CHARGES


@<TRIPOS>ATOM
  1 S       -0.4130     0.0230     1.7630 S.3   1 <1>  -0.0800 
  2 C       -0.6310     1.3050     0.5870 C.2   1 <1>  -0.0450 
  3 C       -1.2880    -1.0740     0.7320 C.2   1 <1>   0.1980 
  4 C       -1.3440     0.7770    -0.4390 C.2   1 <1>   0.0460 
  5 C       -0.0880     2.6100     0.8670 C.2   1 <1>   0.7150 
  6 N       -1.6930    -0.5530    -0.3520 N.2   1 <1>  -0.5650 
  7 C       -1.4740    -2.4940     1.2120 C.3   1 <1>  -0.0600 
  8 C       -1.8180     1.4830    -1.6950 C.3   1 <1>  -0.0590 
  9 O       -0.5190     3.6030     0.3110 O.2   1 <1>  -0.5700 
 10 N        0.9940     2.7870     1.7010 N.am  1 <1>  -0.6600 
 11 C        2.2840     2.1070     1.4010 C.3   1 <1>   0.1400 
 12 C        1.0480     3.9630     2.6090 C.3   1 <1>   0.1400 
 13 C        2.9120     2.6750     0.1130 C.3   1 <1>   0.3430 
 14 C        2.1150     4.9790     2.1840 C.3   1 <1>  -0.1600 
 15 N        3.3470     4.1100     0.2100 N.4   1 <1>  -0.9590 
 16 C        2.3040     5.0810     0.6700 C.3   1 <1>   0.3430 
 17 C        3.9720     4.5620    -1.0590 C.3   1 <1>   0.4860 
 18 C        4.7550     5.8300    -0.7910 C.ar  1 <1>  -0.1440 
 19 C        5.7350     5.8530     0.2030 C.ar  1 <1>   0.4100 
 20 C        4.5020     6.9820    -1.5050 C.ar  1 <1>  -0.1500 
 21 N        6.4320     6.9130     0.5380 N.ar  1 <1>  -0.6200 
 22 N        6.0570     4.7650     0.9490 N.pl3 1 <1>  -0.9000 
 23 C        5.2430     8.0980    -1.1710 C.ar  1 <1>  -0.1500 
 24 C        6.1790     8.0110    -0.1560 C.ar  1 <1>   0.1600 
 25 H       -2.0130    -2.4970     2.1410 H     1 <1>   0.0800 
 26 H       -0.5170    -2.9620     1.3530 H     1 <1>   0.0800 
 27 H       -2.0320    -3.0520     0.4820 H     1 <1>   0.0800 
 28 H       -1.4930     2.5050    -1.7270 H     1 <1>   0.0800 
 29 H       -2.8920     1.4630    -1.7300 H     1 <1>   0.0800 
 30 H       -1.4390     0.9710    -2.5600 H     1 <1>   0.0800 
 31 H        2.1080     1.0550     1.2600 H     1 <1>   0.0800 
 32 H        2.9640     2.2110     2.2290 H     1 <1>   0.0800 
 33 H        1.2370     3.6290     3.6160 H     1 <1>   0.0800 
 34 H        0.0840     4.4460     2.6100 H     1 <1>   0.0800 
 35 H        2.1950     2.5700    -0.6850 H     1 <1>   0.0800 
 36 H        3.7670     2.0690    -0.1380 H     1 <1>   0.0800 
 37 H        3.0510     4.7660     2.6690 H     1 <1>   0.0800 
 38 H        1.7960     5.9400     2.5470 H     1 <1>   0.0800 
 39 H        4.1360     4.1780     0.8820 H     1 <1>   0.4500 
 40 H        2.6310     6.0840     0.4470 H     1 <1>   0.0800 
 41 H        1.3700     4.9160     0.1580 H     1 <1>   0.0800 
 42 H        3.2150     4.7380    -1.8060 H     1 <1>   0.0800 
 43 H        4.6500     3.8090    -1.4250 H     1 <1>   0.0800 
 44 H        3.7650     7.0340    -2.2890 H     1 <1>   0.1500 
 45 H        6.4440     5.1110     1.8370 H     1 <1>   0.4000 
 46 H        6.8410     4.2540     0.5290 H     1 <1>   0.4000 
 47 H        5.0980     9.0300    -1.6900 H     1 <1>   0.1500 
 48 H        6.7480     8.8910     0.0990 H     1 <1>   0.1500 
@<TRIPOS>BOND
  1   1   2  1   
  2   1   3  1   
  3   2   4  2   
  4   2   5  1   
  5   3   6  2   
  6   3   7  1   
  7   4   6  1   
  8   4   8  1   
  9   5   9  2   
 10   5  10  am  
 11   7  25  1   
 12   7  26  1   
 13   7  27  1   
 14   8  28  1   
 15   8  29  1   
 16   8  30  1   
 17  10  11  1   
 18  10  12  1   
 19  11  13  1   
 20  11  31  1   
 21  11  32  1   
 22  12  14  1   
 23  12  33  1   
 24  12  34  1   
 25  13  15  1   
 26  13  35  1   
 27  13  36  1   
 28  14  16  1   
 29  14  37  1   
 30  14  38  1   
 31  15  16  1   
 32  15  17  1   
 33  15  39  1   
 34  16  40  1   
 35  16  41  1   
 36  17  18  1   
 37  17  42  1   
 38  17  43  1   
 39  18  19  ar  
 40  18  20  ar  
 41  19  21  ar  
 42  19  22  1   
 43  20  23  ar  
 44  20  44  1   
 45  21  24  ar  
 46  22  45  1   
 47  22  46  1   
 48  23  24  ar  
 49  23  47  1   
 50  24  48  1   
@<TRIPOS>SUBSTRUCTURE
  1 ****  13 GROUP 4 **** **** 0

# MOE 2024.06 (io_trps.svl 2023.06)
