@<TRIPOS>MOLECULE
NONAME
58 61 1 0 0 
SMALL
USER_CHARGES


@<TRIPOS>ATOM
  1 O        1.0730    -0.2690    -0.9860 O.3   1 <1>  -0.5600 
  2 C        2.1770    -0.7660    -0.2720 C.3   1 <1>   0.4240 
  3 C       -0.2010    -0.5270    -0.4690 C.3   1 <1>   0.1200 
  4 C        1.9010    -2.1350     0.3740 C.ar  1 <1>  -0.1440 
  5 C        2.5590     0.2910     0.7680 C.3   1 <1>  -0.1600 
  6 C        3.2920    -0.8890    -1.3130 C.3   1 <1>  -0.1600 
  7 C       -0.4530    -2.0320    -0.4790 C.3   1 <1>  -0.0160 
  8 C        0.6570    -2.7390     0.2740 C.ar  1 <1>  -0.1440 
  9 C        2.8990    -2.7980     1.0760 C.ar  1 <1>  -0.1500 
 10 C        2.8380     1.6310     0.0880 C.3   1 <1>   0.3430 
 11 C        3.5570     0.4600    -1.9770 C.3   1 <1>   0.3430 
 12 C        0.4250    -3.9740     0.8560 C.ar  1 <1>  -0.1500 
 13 C        2.6900    -4.0340     1.6640 C.ar  1 <1>   0.0820 
 14 N        3.9030     1.5010    -0.9600 N.4   1 <1>  -0.9590 
 15 C        1.4260    -4.6400     1.5600 C.ar  1 <1>   0.0820 
 16 O        3.7920    -4.5300     2.3000 O.3   1 <1>  -0.3630 
 17 C        5.2640     1.3240    -0.3870 C.3   1 <1>   0.5240 
 18 O        1.1870    -5.8510     2.1450 O.3   1 <1>  -0.3620 
 19 C        3.8840    -5.8580     2.7660 C.3   1 <1>   0.0400 
 20 C        5.5990     2.5800     0.3800 C.2   1 <1>  -0.1810 
 21 C       -0.0740    -6.4810     2.1040 C.3   1 <1>   0.0400 
 22 C        5.7340     2.6760     1.7590 C.2   1 <1>   0.1390 
 23 C        5.8210     3.8340    -0.0740 C.2   1 <1>  -0.3020 
 24 N        6.0020     3.8840     2.1360 N.2   1 <1>  -0.7070 
 25 N        6.0720     4.6100     1.0040 N.pl3 1 <1>   0.3140 
 26 C        6.3750     6.0630     1.0250 C.3   1 <1>   0.2340 
 27 C        7.2000     6.4870    -0.1860 C.2   1 <1>  -0.2880 
 28 C        6.8170     7.3690    -1.1140 C.2   1 <1>  -0.3000 
 29 H       -0.9200    -0.0230    -1.0910 H     1 <1>   0.0800 
 30 H       -0.2640    -0.1340     0.5310 H     1 <1>   0.0800 
 31 H        3.4200    -0.0230     1.3270 H     1 <1>   0.0800 
 32 H        1.7580     0.4050     1.4750 H     1 <1>   0.0800 
 33 H        2.9860    -1.6000    -2.0600 H     1 <1>   0.0800 
 34 H        4.1930    -1.2670    -0.8690 H     1 <1>   0.0800 
 35 H       -0.4900    -2.3860    -1.4940 H     1 <1>   0.0800 
 36 H       -1.4030    -2.2340    -0.0170 H     1 <1>   0.0800 
 37 H        3.8760    -2.3680     1.1840 H     1 <1>   0.1500 
 38 H        3.1270     2.3640     0.8260 H     1 <1>   0.0800 
 39 H        1.9260     1.9730    -0.3760 H     1 <1>   0.0800 
 40 H        2.6640     0.7610    -2.5030 H     1 <1>   0.0800 
 41 H        4.3520     0.3630    -2.6990 H     1 <1>   0.0800 
 42 H       -0.5510    -4.4050     0.7490 H     1 <1>   0.1500 
 43 H        3.9430     2.4110    -1.4390 H     1 <1>   0.4500 
 44 H        5.9850     1.1890    -1.1770 H     1 <1>   0.0800 
 45 H        5.2970     0.4660     0.2630 H     1 <1>   0.0800 
 46 H        4.8920    -6.0280     3.0980 H     1 <1>   0.0800 
 47 H        3.6450    -6.5280     1.9600 H     1 <1>   0.0800 
 48 H        3.2040    -5.9860     3.5880 H     1 <1>   0.0800 
 49 H       -0.0030    -7.4050     2.6480 H     1 <1>   0.0800 
 50 H       -0.3320    -6.6810     1.0790 H     1 <1>   0.0800 
 51 H       -0.8010    -5.8400     2.5690 H     1 <1>   0.0800 
 52 H        5.6310     1.8600     2.4580 H     1 <1>   0.1500 
 53 H        5.8270     4.2310    -1.0740 H     1 <1>   0.1500 
 54 H        6.9170     6.2810     1.9270 H     1 <1>   0.0800 
 55 H        5.4450     6.5990     1.0510 H     1 <1>   0.0800 
 56 H        8.1570     5.9910    -0.2200 H     1 <1>   0.1500 
 57 H        7.4240     7.6520    -1.9580 H     1 <1>   0.1500 
 58 H        5.8730     7.8890    -1.1150 H     1 <1>   0.1500 
@<TRIPOS>BOND
  1   1   2  1   
  2   1   3  1   
  3   2   4  1   
  4   2   5  1   
  5   2   6  1   
  6   3   7  1   
  7   3  29  1   
  8   3  30  1   
  9   4   8  ar  
 10   4   9  ar  
 11   5  10  1   
 12   5  31  1   
 13   5  32  1   
 14   6  11  1   
 15   6  33  1   
 16   6  34  1   
 17   7   8  1   
 18   7  35  1   
 19   7  36  1   
 20   8  12  ar  
 21   9  13  ar  
 22   9  37  1   
 23  10  14  1   
 24  10  38  1   
 25  10  39  1   
 26  11  14  1   
 27  11  40  1   
 28  11  41  1   
 29  12  15  ar  
 30  12  42  1   
 31  13  15  ar  
 32  13  16  1   
 33  14  17  1   
 34  14  43  1   
 35  15  18  1   
 36  16  19  1   
 37  17  20  1   
 38  17  44  1   
 39  17  45  1   
 40  18  21  1   
 41  19  46  1   
 42  19  47  1   
 43  19  48  1   
 44  20  22  1   
 45  20  23  2   
 46  21  49  1   
 47  21  50  1   
 48  21  51  1   
 49  22  24  2   
 50  22  52  1   
 51  23  25  1   
 52  23  53  1   
 53  24  25  1   
 54  25  26  1   
 55  26  27  1   
 56  26  54  1   
 57  26  55  1   
 58  27  28  2   
 59  27  56  1   
 60  28  57  1   
 61  28  58  1   
@<TRIPOS>SUBSTRUCTURE
  1 ****   5 GROUP 4 **** **** 0

# MOE 2024.06 (io_trps.svl 2023.06)
