@<TRIPOS>MOLECULE
NONAME
57 59 1 0 0 
SMALL
USER_CHARGES


@<TRIPOS>ATOM
  1 S        0.4470    -0.5120    -0.1030 S.o2  1 <1>   1.2040 
  2 O        1.0380    -0.4240    -1.4190 O.2   1 <1>  -0.6500 
  3 O       -0.7220     0.2720     0.2240 O.2   1 <1>  -0.6500 
  4 C        0.1020    -2.2510     0.2630 C.ar  1 <1>  -0.0090 
  5 C        1.7140    -0.1090     1.0840 C.3   1 <1>  -0.1350 
  6 C       -0.8620    -2.6110     1.1960 C.ar  1 <1>  -0.1500 
  7 C        0.8020    -3.2700    -0.3710 C.ar  1 <1>  -0.1500 
  8 C       -1.1330    -3.9390     1.4760 C.ar  1 <1>  -0.1500 
  9 C        0.5400    -4.6010    -0.0990 C.ar  1 <1>  -0.1500 
 10 C       -0.4410    -4.9440     0.8180 C.ar  1 <1>  -0.1430 
 11 C       -0.7580    -6.4030     1.0750 C.3   1 <1>   0.4860 
 12 N       -1.5970    -6.8770    -0.0560 N.4   1 <1>  -0.9590 
 13 C       -1.6250    -8.3730    -0.1250 C.3   1 <1>   0.5660 
 14 C       -2.9790    -6.2940    -0.0220 C.3   1 <1>   0.3430 
 15 C       -0.2130    -8.8400    -0.4540 C.ar  1 <1>  -0.1430 
 16 C       -2.6560    -8.9280    -1.1460 C.3   1 <1>   0.2000 
 17 C       -3.8660    -6.8860    -1.1290 C.3   1 <1>   0.1200 
 18 C        0.4550    -9.6450     0.4570 C.ar  1 <1>  -0.1500 
 19 C        0.4270    -8.4740    -1.6340 C.ar  1 <1>  -0.1500 
 20 O       -3.8990    -8.2780    -1.0200 O.3   1 <1>  -0.5600 
 21 C       -2.8690   -10.4350    -0.9280 C.3   1 <1>   0.1200 
 22 C        1.7470   -10.0740     0.2100 C.ar  1 <1>   0.0830 
 23 C        1.7230    -8.8910    -1.8820 C.ar  1 <1>  -0.1500 
 24 O       -3.0550   -10.7030     0.4260 O.3   1 <1>  -0.6800 
 25 O        2.3160   -10.8770     1.1410 O.3   1 <1>  -0.3630 
 26 C        2.3980    -9.6730    -0.9610 C.ar  1 <1>   0.0830 
 27 C        2.6390   -12.1910     0.7370 C.3   1 <1>   0.0400 
 28 O        3.6760   -10.0140    -1.2560 O.3   1 <1>  -0.3630 
 29 C        4.6840    -9.5160    -0.4030 C.3   1 <1>   0.0400 
 30 H        2.5760    -0.7300     0.9390 H     1 <1>   0.0800 
 31 H        1.3500    -0.2460     2.0830 H     1 <1>   0.0800 
 32 H        2.0100     0.9160     0.9670 H     1 <1>   0.0800 
 33 H       -1.4140    -1.8370     1.7060 H     1 <1>   0.1500 
 34 H        1.5610    -3.0150    -1.0940 H     1 <1>   0.1500 
 35 H       -1.8890    -4.1720     2.2080 H     1 <1>   0.1500 
 36 H        1.1100    -5.3590    -0.6130 H     1 <1>   0.1500 
 37 H       -1.2790    -6.5210     2.0110 H     1 <1>   0.0800 
 38 H        0.1640    -6.9600     1.1220 H     1 <1>   0.0800 
 39 H       -1.1320    -6.5520    -0.9070 H     1 <1>   0.4500 
 40 H       -1.8970    -8.7590     0.8440 H     1 <1>   0.0800 
 41 H       -3.4420    -6.5030     0.9290 H     1 <1>   0.0800 
 42 H       -2.9290    -5.2240    -0.1400 H     1 <1>   0.0800 
 43 H       -2.3140    -8.7710    -2.1530 H     1 <1>   0.0800 
 44 H       -3.5070    -6.6180    -2.1080 H     1 <1>   0.0800 
 45 H       -4.8760    -6.5280    -1.0240 H     1 <1>   0.0800 
 46 H       -0.0170    -9.9640     1.3710 H     1 <1>   0.1500 
 47 H       -0.0620    -7.8670    -2.3770 H     1 <1>   0.1500 
 48 H       -2.0080   -10.9920    -1.2580 H     1 <1>   0.0800 
 49 H       -3.7370   -10.7700    -1.4720 H     1 <1>   0.0800 
 50 H        2.2270    -8.6120    -2.7920 H     1 <1>   0.1500 
 51 H       -3.4240   -11.6040     0.5530 H     1 <1>   0.4000 
 52 H        2.9740   -12.7350     1.6020 H     1 <1>   0.0800 
 53 H        3.4220   -12.1590     0.0020 H     1 <1>   0.0800 
 54 H        1.7600   -12.6560     0.3270 H     1 <1>   0.0800 
 55 H        5.6380    -9.7940    -0.8140 H     1 <1>   0.0800 
 56 H        4.5720    -9.9440     0.5760 H     1 <1>   0.0800 
 57 H        4.6020    -8.4450    -0.3560 H     1 <1>   0.0800 
@<TRIPOS>BOND
  1   1   2  2   
  2   1   3  2   
  3   1   4  1   
  4   1   5  1   
  5   4   6  ar  
  6   4   7  ar  
  7   5  30  1   
  8   5  31  1   
  9   5  32  1   
 10   6   8  ar  
 11   6  33  1   
 12   7   9  ar  
 13   7  34  1   
 14   8  10  ar  
 15   8  35  1   
 16   9  10  ar  
 17   9  36  1   
 18  10  11  1   
 19  11  12  1   
 20  11  37  1   
 21  11  38  1   
 22  12  13  1   
 23  12  14  1   
 24  12  39  1   
 25  13  15  1   
 26  13  16  1   
 27  13  40  1   
 28  14  17  1   
 29  14  41  1   
 30  14  42  1   
 31  15  18  ar  
 32  15  19  ar  
 33  16  20  1   
 34  16  21  1   
 35  16  43  1   
 36  17  20  1   
 37  17  44  1   
 38  17  45  1   
 39  18  22  ar  
 40  18  46  1   
 41  19  23  ar  
 42  19  47  1   
 43  21  24  1   
 44  21  48  1   
 45  21  49  1   
 46  22  25  1   
 47  22  26  ar  
 48  23  26  ar  
 49  23  50  1   
 50  24  51  1   
 51  25  27  1   
 52  26  28  1   
 53  27  52  1   
 54  27  53  1   
 55  27  54  1   
 56  28  29  1   
 57  29  55  1   
 58  29  56  1   
 59  29  57  1   
@<TRIPOS>SUBSTRUCTURE
  1 ****  11 GROUP 4 **** **** 0

# MOE 2024.06 (io_trps.svl 2023.06)
