@<TRIPOS>MOLECULE
NONAME
46 48 1 0 0 
SMALL
USER_CHARGES


@<TRIPOS>ATOM
  1 CL       0.2470     0.5110    -0.1840 Cl    1 <1>  -0.1230 
  2 C        1.8730    -0.0570     0.1600 C.2   1 <1>   0.1230 
  3 C        3.0130     0.7270     0.3620 C.2   1 <1>   0.2030 
  4 C        2.2420    -1.3440     0.2570 C.2   1 <1>  -0.3020 
  5 N        4.0500    -0.0790     0.5650 N.2   1 <1>  -0.7070 
  6 C        3.0110     2.1850     0.3490 C.2   1 <1>   0.7160 
  7 N        3.5640    -1.3290     0.5060 N.pl3 1 <1>   0.3140 
  8 O        2.0640     2.7830     0.8360 O.2   1 <1>  -0.5700 
  9 N        4.0420     2.9470    -0.1940 N.am  1 <1>  -0.6600 
 10 C        4.4200    -2.5060     0.6980 C.3   1 <1>   0.0160 
 11 C        5.1510     2.3330    -0.9890 C.3   1 <1>   0.1400 
 12 C        4.0190     4.4400    -0.1040 C.3   1 <1>   0.1400 
 13 C        6.3840     2.0560    -0.1150 C.3   1 <1>   0.1400 
 14 C        5.3930     5.0830     0.1420 C.3   1 <1>  -0.1600 
 15 N        7.1070     3.3160     0.2420 N.am  1 <1>  -0.6600 
 16 C        6.3150     4.2750     1.0610 C.3   1 <1>   0.1400 
 17 C        8.3800     3.5480    -0.2170 C.2   1 <1>   0.5690 
 18 O        8.9620     2.7440    -0.9070 O.2   1 <1>  -0.5700 
 19 C        9.0900     4.8500     0.1270 C.3   1 <1>  -0.0990 
 20 C       10.4410     5.0270    -0.5800 C.3   1 <1>   0.0210 
 21 C       11.0470     6.3670    -0.2120 C.2   1 <1>  -0.1810 
 22 C       10.6620     7.6140    -0.6960 C.2   1 <1>   0.1390 
 23 C       12.0570     6.6300     0.6440 C.2   1 <1>  -0.3020 
 24 N       11.3630     8.5790    -0.1850 N.2   1 <1>  -0.7070 
 25 N       12.2310     7.9670     0.6430 N.pl3 1 <1>   0.3000 
 26 H        1.6560    -2.2380     0.1630 H     1 <1>   0.1500 
 27 H        4.0410    -3.0900     1.5150 H     1 <1>   0.0800 
 28 H        5.4210    -2.1830     0.9200 H     1 <1>   0.0800 
 29 H        4.4220    -3.0920    -0.2020 H     1 <1>   0.0800 
 30 H        5.4260     2.9780    -1.8050 H     1 <1>   0.0800 
 31 H        4.8170     1.4060    -1.4200 H     1 <1>   0.0800 
 32 H        3.3750     4.7350     0.7070 H     1 <1>   0.0800 
 33 H        3.5930     4.8380    -1.0090 H     1 <1>   0.0800 
 34 H        7.0380     1.3950    -0.6550 H     1 <1>   0.0800 
 35 H        6.0890     1.5460     0.7840 H     1 <1>   0.0800 
 36 H        5.2170     6.0420     0.5930 H     1 <1>   0.0800 
 37 H        5.8820     5.2690    -0.7980 H     1 <1>   0.0800 
 38 H        5.7400     3.7410     1.8000 H     1 <1>   0.0800 
 39 H        6.9720     4.9420     1.5900 H     1 <1>   0.0800 
 40 H        9.2530     4.8790     1.1880 H     1 <1>   0.0800 
 41 H        8.4520     5.6690    -0.1440 H     1 <1>   0.0800 
 42 H       10.3100     4.9730    -1.6470 H     1 <1>   0.0800 
 43 H       11.1100     4.2360    -0.2860 H     1 <1>   0.0800 
 44 H        9.8740     7.7730    -1.4130 H     1 <1>   0.1500 
 45 H       12.6490     5.9590     1.2390 H     1 <1>   0.1500 
 46 H       12.9250     8.4890     1.1900 H     1 <1>   0.2700 
@<TRIPOS>BOND
  1   1   2  1   
  2   2   3  1   
  3   2   4  2   
  4   3   5  2   
  5   3   6  1   
  6   4   7  1   
  7   4  26  1   
  8   5   7  1   
  9   6   8  2   
 10   6   9  am  
 11   7  10  1   
 12   9  11  1   
 13   9  12  1   
 14  10  27  1   
 15  10  28  1   
 16  10  29  1   
 17  11  13  1   
 18  11  30  1   
 19  11  31  1   
 20  12  14  1   
 21  12  32  1   
 22  12  33  1   
 23  13  15  1   
 24  13  34  1   
 25  13  35  1   
 26  14  16  1   
 27  14  36  1   
 28  14  37  1   
 29  15  16  1   
 30  15  17  am  
 31  16  38  1   
 32  16  39  1   
 33  17  18  2   
 34  17  19  1   
 35  19  20  1   
 36  19  40  1   
 37  19  41  1   
 38  20  21  1   
 39  20  42  1   
 40  20  43  1   
 41  21  22  1   
 42  21  23  2   
 43  22  24  2   
 44  22  44  1   
 45  23  25  1   
 46  23  45  1   
 47  24  25  1   
 48  25  46  1   
@<TRIPOS>SUBSTRUCTURE
  1 ****  15 GROUP 4 **** **** 0

# MOE 2024.06 (io_trps.svl 2023.06)
