@<TRIPOS>MOLECULE
NONAME
41 42 1 0 0 
SMALL
USER_CHARGES


@<TRIPOS>ATOM
  1 S       -1.2640    -0.0500     0.6010 S.o2  1 <1>   1.0900 
  2 O       -1.0230    -0.1520     2.0210 O.2   1 <1>  -0.6500 
  3 O       -2.2780     0.8450     0.1000 O.2   1 <1>  -0.6500 
  4 C       -1.6310    -1.6920    -0.0150 C.3   1 <1>  -0.0550 
  5 C        0.2740     0.3810    -0.1910 C.3   1 <1>  -0.1350 
  6 C       -0.6800    -2.7780     0.5120 C.3   1 <1>  -0.0990 
  7 C       -1.0460    -4.1200    -0.0730 C.2   1 <1>   0.5690 
  8 O       -0.8550    -4.3050    -1.2490 O.2   1 <1>  -0.5700 
  9 N       -1.5960    -5.0620     0.7270 N.am  1 <1>  -0.7300 
 10 C       -2.0210    -6.4060     0.2740 C.3   1 <1>   0.2200 
 11 C       -3.5370    -6.4440     0.1910 C.3   1 <1>  -0.0800 
 12 C       -1.7440    -7.4280     1.3700 C.3   1 <1>   0.1200 
 13 C       -3.9390    -6.7800     1.6340 C.3   1 <1>   0.1200 
 14 C       -4.0220    -7.5070    -0.8130 C.3   1 <1>  -0.0160 
 15 O       -2.8150    -7.3300     2.2600 O.3   1 <1>  -0.5600 
 16 C       -5.5390    -7.5130    -0.9250 C.ar  1 <1>  -0.1430 
 17 C       -6.3140    -8.5030    -0.3570 C.ar  1 <1>  -0.1500 
 18 C       -6.2180    -6.5220    -1.6050 C.ar  1 <1>  -0.1500 
 19 C       -7.6920    -8.4530    -0.4870 C.ar  1 <1>   0.1600 
 20 C       -7.6010    -6.5660    -1.6770 C.ar  1 <1>   0.1600 
 21 N       -8.3540    -7.5070    -1.1330 N.ar  1 <1>  -0.6200 
 22 H       -2.6310    -1.9520     0.2780 H     1 <1>   0.0800 
 23 H       -1.6060    -1.6890    -1.0890 H     1 <1>   0.0800 
 24 H        1.0570    -0.2890     0.1030 H     1 <1>   0.0800 
 25 H        0.5610     1.3760     0.0920 H     1 <1>   0.0800 
 26 H        0.1710     0.3520    -1.2590 H     1 <1>   0.0800 
 27 H        0.3330    -2.5570     0.2300 H     1 <1>   0.0800 
 28 H       -0.7290    -2.8210     1.5850 H     1 <1>   0.0800 
 29 H       -1.7650    -4.8850     1.7200 H     1 <1>   0.3700 
 30 H       -1.5360    -6.6610    -0.6540 H     1 <1>   0.0800 
 31 H       -3.9330    -5.4890    -0.1040 H     1 <1>   0.0800 
 32 H       -0.8210    -7.2420     1.8900 H     1 <1>   0.0800 
 33 H       -1.7420    -8.4260     0.9700 H     1 <1>   0.0800 
 34 H       -4.7480    -7.4860     1.6930 H     1 <1>   0.0800 
 35 H       -4.2060    -5.8880     2.1730 H     1 <1>   0.0800 
 36 H       -3.6770    -8.4840    -0.5210 H     1 <1>   0.0800 
 37 H       -3.6080    -7.2940    -1.7840 H     1 <1>   0.0800 
 38 H       -5.8630    -9.3130     0.1870 H     1 <1>   0.1500 
 39 H       -5.6860    -5.7180    -2.0800 H     1 <1>   0.1500 
 40 H       -8.2810    -9.2340    -0.0370 H     1 <1>   0.1500 
 41 H       -8.1130    -5.7840    -2.2120 H     1 <1>   0.1500 
@<TRIPOS>BOND
  1   1   2  2   
  2   1   3  2   
  3   1   4  1   
  4   1   5  1   
  5   4   6  1   
  6   4  22  1   
  7   4  23  1   
  8   5  24  1   
  9   5  25  1   
 10   5  26  1   
 11   6   7  1   
 12   6  27  1   
 13   6  28  1   
 14   7   8  2   
 15   7   9  am  
 16   9  10  1   
 17   9  29  1   
 18  10  11  1   
 19  10  12  1   
 20  10  30  1   
 21  11  13  1   
 22  11  14  1   
 23  11  31  1   
 24  12  15  1   
 25  12  32  1   
 26  12  33  1   
 27  13  15  1   
 28  13  34  1   
 29  13  35  1   
 30  14  16  1   
 31  14  36  1   
 32  14  37  1   
 33  16  17  ar  
 34  16  18  ar  
 35  17  19  ar  
 36  17  38  1   
 37  18  20  ar  
 38  18  39  1   
 39  19  21  ar  
 40  19  40  1   
 41  20  21  ar  
 42  20  41  1   
@<TRIPOS>SUBSTRUCTURE
  1 ****  11 GROUP 4 **** **** 0

# MOE 2024.06 (io_trps.svl 2023.06)
