@<TRIPOS>MOLECULE
NONAME
57 60 1 0 0 
SMALL
USER_CHARGES


@<TRIPOS>ATOM
  1 O       -0.0980    -1.0120    -0.6670 O.2   1 <1>  -0.5700 
  2 C        0.9280    -1.2950    -0.0780 C.2   1 <1>   0.5440 
  3 N        1.9040    -0.3350     0.0550 N.am  1 <1>  -0.6600 
  4 C        1.0980    -2.6320     0.4530 C.ar  1 <1>   0.0860 
  5 C        3.3280    -0.6090     0.3540 C.3   1 <1>   0.1400 
  6 C        1.7320     1.0360    -0.4770 C.3   1 <1>   0.1400 
  7 C        0.8340    -3.7590    -0.3020 C.ar  1 <1>  -0.1500 
  8 C        1.5240    -2.8840     1.7510 C.ar  1 <1>  -0.1500 
  9 C        4.0880     0.5410    -0.2960 C.3   1 <1>  -0.1600 
 10 C        3.0950     1.6990    -0.3060 C.3   1 <1>  -0.1600 
 11 C        1.0100    -5.0310     0.2220 C.ar  1 <1>   0.4100 
 12 C        1.6740    -4.1830     2.1900 C.ar  1 <1>   0.1600 
 13 N        1.4320    -5.2560     1.4590 N.ar  1 <1>  -0.6200 
 14 N        0.7330    -6.1200    -0.5720 N.pl3 1 <1>  -0.8690 
 15 C        0.6470    -7.4980    -0.0590 C.3   1 <1>   0.2890 
 16 C        0.9300    -8.4660    -1.2060 C.3   1 <1>  -0.1600 
 17 C       -0.7460    -7.7300     0.5270 C.3   1 <1>  -0.1600 
 18 C        0.7420    -9.9140    -0.7510 C.3   1 <1>   0.1400 
 19 C       -0.9090    -9.1850     0.9680 C.3   1 <1>   0.1400 
 20 N       -0.6290   -10.0830    -0.1890 N.am  1 <1>  -0.6600 
 21 C       -1.5190   -10.9700    -0.7540 C.2   1 <1>   0.5690 
 22 O       -1.2060   -11.6380    -1.7130 O.2   1 <1>  -0.5700 
 23 C       -2.9400   -11.1350    -0.1920 C.3   1 <1>  -0.0190 
 24 C       -3.6890   -12.3980    -0.6330 C.3   1 <1>  -0.1600 
 25 C       -3.8980   -10.0130    -0.6080 C.3   1 <1>  -0.1600 
 26 C       -5.1580   -12.1040    -0.3280 C.3   1 <1>  -0.1600 
 27 C       -5.3090   -10.5800    -0.4150 C.3   1 <1>  -0.1600 
 28 H        3.6370    -1.5600    -0.0460 H     1 <1>   0.0800 
 29 H        3.4740    -0.5940     1.4200 H     1 <1>   0.0800 
 30 H        0.9600     1.5590     0.0620 H     1 <1>   0.0800 
 31 H        1.4660     0.9780    -1.5190 H     1 <1>   0.0800 
 32 H        0.4870    -3.6450    -1.3110 H     1 <1>   0.1500 
 33 H        1.7320    -2.0620     2.4110 H     1 <1>   0.1500 
 34 H        4.3390     0.2670    -1.3060 H     1 <1>   0.0800 
 35 H        4.9910     0.7780     0.2390 H     1 <1>   0.0800 
 36 H        3.1170     2.2100     0.6410 H     1 <1>   0.0800 
 37 H        3.2950     2.4060    -1.0910 H     1 <1>   0.0800 
 38 H        2.0090    -4.3520     3.1990 H     1 <1>   0.1500 
 39 H        0.1360    -5.9470    -1.3800 H     1 <1>   0.4000 
 40 H        1.3890    -7.6480     0.7100 H     1 <1>   0.0800 
 41 H        1.9410    -8.3300    -1.5460 H     1 <1>   0.0800 
 42 H        0.2640    -8.2750    -2.0280 H     1 <1>   0.0800 
 43 H       -1.4990    -7.4990    -0.2040 H     1 <1>   0.0800 
 44 H       -0.8840    -7.0860     1.3770 H     1 <1>   0.0800 
 45 H        1.4660   -10.1610     0.0070 H     1 <1>   0.0800 
 46 H        0.9020   -10.5750    -1.5870 H     1 <1>   0.0800 
 47 H       -1.8990    -9.3290     1.3570 H     1 <1>   0.0800 
 48 H       -0.2100    -9.4050     1.7580 H     1 <1>   0.0800 
 49 H       -2.8850   -11.1720     0.8800 H     1 <1>   0.0800 
 50 H       -3.3330   -13.2760    -0.1250 H     1 <1>   0.0800 
 51 H       -3.5760   -12.5390    -1.6950 H     1 <1>   0.0800 
 52 H       -3.7450    -9.7930    -1.6510 H     1 <1>   0.0800 
 53 H       -3.7480    -9.1140    -0.0380 H     1 <1>   0.0800 
 54 H       -5.3910   -12.4310     0.6710 H     1 <1>   0.0800 
 55 H       -5.8080   -12.6090    -1.0210 H     1 <1>   0.0800 
 56 H       -5.9400   -10.3020    -1.2420 H     1 <1>   0.0800 
 57 H       -5.7430   -10.2050     0.4960 H     1 <1>   0.0800 
@<TRIPOS>BOND
  1   1   2  2   
  2   2   3  am  
  3   2   4  1   
  4   3   5  1   
  5   3   6  1   
  6   4   7  ar  
  7   4   8  ar  
  8   5   9  1   
  9   5  28  1   
 10   5  29  1   
 11   6  10  1   
 12   6  30  1   
 13   6  31  1   
 14   7  11  ar  
 15   7  32  1   
 16   8  12  ar  
 17   8  33  1   
 18   9  10  1   
 19   9  34  1   
 20   9  35  1   
 21  10  36  1   
 22  10  37  1   
 23  11  13  ar  
 24  11  14  1   
 25  12  13  ar  
 26  12  38  1   
 27  14  15  1   
 28  14  39  1   
 29  15  16  1   
 30  15  17  1   
 31  15  40  1   
 32  16  18  1   
 33  16  41  1   
 34  16  42  1   
 35  17  19  1   
 36  17  43  1   
 37  17  44  1   
 38  18  20  1   
 39  18  45  1   
 40  18  46  1   
 41  19  20  1   
 42  19  47  1   
 43  19  48  1   
 44  20  21  am  
 45  21  22  2   
 46  21  23  1   
 47  23  24  1   
 48  23  25  1   
 49  23  49  1   
 50  24  26  1   
 51  24  50  1   
 52  24  51  1   
 53  25  27  1   
 54  25  52  1   
 55  25  53  1   
 56  26  27  1   
 57  26  54  1   
 58  26  55  1   
 59  27  56  1   
 60  27  57  1   
@<TRIPOS>SUBSTRUCTURE
  1 ****  14 GROUP 4 **** **** 0

# MOE 2024.06 (io_trps.svl 2023.06)
