@<TRIPOS>MOLECULE
NONAME
40 42 1 0 0 
SMALL
USER_CHARGES


@<TRIPOS>ATOM
  1 O       -0.5460    -1.1590     1.3130 O.2   1 <1>  -0.5700 
  2 C       -0.3220    -2.3210     1.0410 C.2   1 <1>   0.5440 
  3 N       -1.2190    -3.2130     1.5170 N.am  1 <1>  -0.8000 
  4 C        0.8440    -2.7090     0.2740 C.ar  1 <1>   0.0860 
  5 C        0.9260    -3.9060    -0.4680 C.ar  1 <1>   0.4100 
  6 C        1.9620    -1.8860     0.2610 C.ar  1 <1>  -0.1500 
  7 N        2.0140    -4.2990    -1.1220 N.ar  1 <1>  -0.6200 
  8 N       -0.1390    -4.7730    -0.5950 N.pl3 1 <1>  -0.8380 
  9 C        3.0860    -2.2780    -0.4330 C.ar  1 <1>  -0.1430 
 10 C        3.0590    -3.4990    -1.0990 C.ar  1 <1>   0.1670 
 11 C        0.1000    -6.2130    -0.2750 C.3   1 <1>   0.3900 
 12 C       -1.2190    -4.4140    -1.5830 C.3   1 <1>   0.2090 
 13 C        4.3070    -1.3670    -0.4420 C.3   1 <1>  -0.0970 
 14 C        4.2690    -3.9950    -1.8690 C.3   1 <1>  -0.0970 
 15 C       -1.2410    -6.9030    -0.1370 C.2   1 <1>  -0.1810 
 16 C       -2.0090    -5.6120    -2.1370 C.3   1 <1>   0.0210 
 17 C       -2.2500    -6.6160    -1.0380 C.2   1 <1>   0.1080 
 18 C       -1.7780    -7.8090     0.7090 C.2   1 <1>  -0.3320 
 19 N       -3.3390    -7.2750    -0.8050 N.2   1 <1>  -0.7070 
 20 N       -3.0450    -8.0180     0.2820 N.pl3 1 <1>   0.3000 
 21 C       -1.1650    -8.5020     1.9130 C.3   1 <1>  -0.0600 
 22 H       -2.0650    -2.8860     1.9800 H     1 <1>   0.3700 
 23 H       -1.2270    -4.1670     1.1320 H     1 <1>   0.3700 
 24 H        1.9380    -0.9530     0.7990 H     1 <1>   0.1500 
 25 H        0.6630    -6.2960     0.6380 H     1 <1>   0.0800 
 26 H        0.6620    -6.6680    -1.0720 H     1 <1>   0.0800 
 27 H       -0.7850    -3.8670    -2.4030 H     1 <1>   0.0800 
 28 H       -1.9160    -3.7590    -1.0890 H     1 <1>   0.0800 
 29 H        4.0850    -0.4210     0.0190 H     1 <1>   0.0800 
 30 H        4.6240    -1.1780    -1.4530 H     1 <1>   0.0800 
 31 H        5.1140    -1.8260     0.1000 H     1 <1>   0.0800 
 32 H        4.1490    -5.0330    -2.1240 H     1 <1>   0.0800 
 33 H        5.1600    -3.8950    -1.2790 H     1 <1>   0.0800 
 34 H        4.3750    -3.4320    -2.7780 H     1 <1>   0.0800 
 35 H       -1.4480    -6.0820    -2.9230 H     1 <1>   0.0800 
 36 H       -2.9460    -5.2790    -2.5440 H     1 <1>   0.0800 
 37 H       -3.7290    -8.6550     0.7060 H     1 <1>   0.2700 
 38 H       -0.1500    -8.1760     2.0560 H     1 <1>   0.0800 
 39 H       -1.1630    -9.5670     1.7660 H     1 <1>   0.0800 
 40 H       -1.7270    -8.2700     2.8000 H     1 <1>   0.0800 
@<TRIPOS>BOND
  1   1   2  2   
  2   2   3  am  
  3   2   4  1   
  4   3  22  1   
  5   3  23  1   
  6   4   5  ar  
  7   4   6  ar  
  8   5   7  ar  
  9   5   8  1   
 10   6   9  ar  
 11   6  24  1   
 12   7  10  ar  
 13   8  11  1   
 14   8  12  1   
 15   9  10  ar  
 16   9  13  1   
 17  10  14  1   
 18  11  15  1   
 19  11  25  1   
 20  11  26  1   
 21  12  16  1   
 22  12  27  1   
 23  12  28  1   
 24  13  29  1   
 25  13  30  1   
 26  13  31  1   
 27  14  32  1   
 28  14  33  1   
 29  14  34  1   
 30  15  17  1   
 31  15  18  2   
 32  16  17  1   
 33  16  35  1   
 34  16  36  1   
 35  17  19  2   
 36  18  20  1   
 37  18  21  1   
 38  19  20  1   
 39  20  37  1   
 40  21  38  1   
 41  21  39  1   
 42  21  40  1   
@<TRIPOS>SUBSTRUCTURE
  1 ****   8 GROUP 4 **** **** 0

# MOE 2024.06 (io_trps.svl 2023.06)
