@<TRIPOS>MOLECULE
NONAME
60 64 1 0 0 
SMALL
USER_CHARGES


@<TRIPOS>ATOM
  1 O        0.2680    -0.6360    -2.1290 O.2   1 <1>  -0.5700 
  2 C       -0.5390     0.1820    -1.7490 C.2   1 <1>   0.5690 
  3 N       -1.7100    -0.2090    -1.1560 N.am  1 <1>  -0.6600 
  4 C       -0.2210     1.6700    -1.9670 C.3   1 <1>   0.1710 
  5 C       -2.7210     0.6840    -0.5330 C.3   1 <1>   0.1400 
  6 C       -2.0610    -1.6310    -0.9260 C.3   1 <1>   0.1400 
  7 N        0.0330     2.4570    -0.7280 N.3   1 <1>  -0.8100 
  8 C       -3.4670    -0.2210     0.4450 C.3   1 <1>   0.2000 
  9 C       -3.4280    -1.5990    -0.2290 C.3   1 <1>  -0.0800 
 10 C        1.2400     1.9500    -0.0260 C.3   1 <1>   0.1100 
 11 C        0.2100     3.8930    -1.0510 C.3   1 <1>   0.1100 
 12 O       -2.7440    -0.2600     1.6280 O.3   1 <1>  -0.6800 
 13 C       -3.6760    -2.7860     0.7270 C.3   1 <1>  -0.0170 
 14 C        1.5780     2.7640     1.2390 C.3   1 <1>   0.2090 
 15 C        0.5030     4.7400     0.2000 C.3   1 <1>   0.2090 
 16 C       -3.8040    -4.1750     0.0880 C.ar  1 <1>  -0.1440 
 17 N        1.7100     4.2180     0.9100 N.pl3 1 <1>  -0.8380 
 18 C       -3.8440    -5.3250     0.9170 C.ar  1 <1>   0.0000 
 19 C       -3.8980    -4.3840    -1.2600 C.ar  1 <1>  -0.1500 
 20 C        2.9130     4.8910     0.9570 C.ar  1 <1>   0.7200 
 21 C       -3.9500    -6.5930     0.2940 C.ar  1 <1>   0.3100 
 22 C       -3.7910    -5.2910     2.3310 C.ar  1 <1>  -0.1500 
 23 C       -4.0040    -5.6820    -1.7740 C.ar  1 <1>   0.1600 
 24 N        3.0020     6.0350     0.2750 N.ar  1 <1>  -0.6200 
 25 N        3.8890     4.3420     1.6800 N.ar  1 <1>  -0.6200 
 26 N       -4.0280    -6.7540    -1.0500 N.ar  1 <1>  -0.6200 
 27 C       -3.9820    -7.7470     1.0930 C.ar  1 <1>  -0.1500 
 28 C       -3.8270    -6.4350     3.0820 C.ar  1 <1>  -0.1500 
 29 C        4.1490     6.6640     0.3350 C.ar  1 <1>   0.1600 
 30 C        5.0250     4.9940     1.7220 C.ar  1 <1>   0.1600 
 31 C       -3.9220    -7.6810     2.4580 C.ar  1 <1>  -0.1500 
 32 C        5.2110     6.1790     1.0570 C.ar  1 <1>  -0.1500 
 33 H       -1.0520     2.1030    -2.4910 H     1 <1>   0.0800 
 34 H        0.6380     1.7370    -2.6110 H     1 <1>   0.0800 
 35 H       -2.2720     1.5230    -0.0300 H     1 <1>   0.0800 
 36 H       -3.3930     1.0360    -1.2950 H     1 <1>   0.0800 
 37 H       -2.0930    -2.1650    -1.8600 H     1 <1>   0.0800 
 38 H       -1.3140    -2.0780    -0.2910 H     1 <1>   0.0800 
 39 H       -4.4640     0.1200     0.6650 H     1 <1>   0.0800 
 40 H       -4.1920    -1.5950    -0.9850 H     1 <1>   0.0800 
 41 H        1.0850     0.9250     0.2620 H     1 <1>   0.0800 
 42 H        2.0880     1.9830    -0.6880 H     1 <1>   0.0800 
 43 H        1.0260     4.0160    -1.7430 H     1 <1>   0.0800 
 44 H       -0.6850     4.2660    -1.5170 H     1 <1>   0.0800 
 45 H       -1.7930    -0.3340     1.4070 H     1 <1>   0.4000 
 46 H       -4.5780    -2.5910     1.2810 H     1 <1>   0.0800 
 47 H       -2.8650    -2.8180     1.4330 H     1 <1>   0.0800 
 48 H        2.4820     2.3750     1.6720 H     1 <1>   0.0800 
 49 H        0.7920     2.6390     1.9610 H     1 <1>   0.0800 
 50 H       -0.3420     4.6900     0.8640 H     1 <1>   0.0800 
 51 H        0.6260     5.7690    -0.0840 H     1 <1>   0.0800 
 52 H       -3.8960    -3.5850    -1.9750 H     1 <1>   0.1500 
 53 H       -3.7230    -4.3480     2.8390 H     1 <1>   0.1500 
 54 H       -4.0700    -5.7950    -2.8430 H     1 <1>   0.1500 
 55 H       -4.0580    -8.6930     0.5900 H     1 <1>   0.1500 
 56 H       -3.7830    -6.3910     4.1570 H     1 <1>   0.1500 
 57 H        4.2450     7.5910    -0.2050 H     1 <1>   0.1500 
 58 H        5.8270     4.5710     2.3030 H     1 <1>   0.1500 
 59 H       -3.9480    -8.5740     3.0590 H     1 <1>   0.1500 
 60 H        6.1460     6.7040     1.0990 H     1 <1>   0.1500 
@<TRIPOS>BOND
  1   1   2  2   
  2   2   3  am  
  3   2   4  1   
  4   3   5  1   
  5   3   6  1   
  6   4   7  1   
  7   4  33  1   
  8   4  34  1   
  9   5   8  1   
 10   5  35  1   
 11   5  36  1   
 12   6   9  1   
 13   6  37  1   
 14   6  38  1   
 15   7  10  1   
 16   7  11  1   
 17   8   9  1   
 18   8  12  1   
 19   8  39  1   
 20   9  13  1   
 21   9  40  1   
 22  10  14  1   
 23  10  41  1   
 24  10  42  1   
 25  11  15  1   
 26  11  43  1   
 27  11  44  1   
 28  12  45  1   
 29  13  16  1   
 30  13  46  1   
 31  13  47  1   
 32  14  17  1   
 33  14  48  1   
 34  14  49  1   
 35  15  17  1   
 36  15  50  1   
 37  15  51  1   
 38  16  18  ar  
 39  16  19  ar  
 40  17  20  1   
 41  18  21  ar  
 42  18  22  ar  
 43  19  23  ar  
 44  19  52  1   
 45  20  24  ar  
 46  20  25  ar  
 47  21  26  ar  
 48  21  27  ar  
 49  22  28  ar  
 50  22  53  1   
 51  23  26  ar  
 52  23  54  1   
 53  24  29  ar  
 54  25  30  ar  
 55  27  31  ar  
 56  27  55  1   
 57  28  31  ar  
 58  28  56  1   
 59  29  32  ar  
 60  29  57  1   
 61  30  32  ar  
 62  30  58  1   
 63  31  59  1   
 64  32  60  1   
@<TRIPOS>SUBSTRUCTURE
  1 ****   3 GROUP 4 **** **** 0

# MOE 2024.06 (io_trps.svl 2023.06)
