@<TRIPOS>MOLECULE
NONAME
47 49 1 0 0 
SMALL
USER_CHARGES


@<TRIPOS>ATOM
  1 O       -0.7960    -1.1420     0.1800 O.2   1 <1>  -0.5700 
  2 C        0.1070    -1.9300     0.2780 C.2   1 <1>   0.5690 
  3 N       -0.0890    -3.1760     0.7550 N.am  1 <1>  -0.7300 
  4 C        1.5160    -1.5510    -0.1220 C.3   1 <1>  -0.0990 
  5 C        0.9880    -4.1730     0.9020 C.3   1 <1>   0.1400 
  6 C        2.1870    -2.6990    -0.9050 C.3   1 <1>  -0.0800 
  7 C        1.9160    -4.1140    -0.3300 C.3   1 <1>  -0.0800 
  8 C        3.7110    -2.5540    -1.0020 C.3   1 <1>  -0.1600 
  9 C        3.2970    -4.7400    -0.0800 C.3   1 <1>  -0.1600 
 10 C        4.2260    -3.9890    -1.0310 C.3   1 <1>   0.4230 
 11 N        5.6710    -4.1240    -0.6970 N.4   1 <1>  -0.9590 
 12 C        6.1290    -3.5500     0.6110 C.3   1 <1>   0.4860 
 13 C        6.1880    -5.5060    -0.9110 C.3   1 <1>   0.2630 
 14 C        6.7170    -2.1590     0.3710 C.ar  1 <1>   0.1670 
 15 N        7.2330    -1.9320    -0.8350 N.ar  1 <1>  -0.6200 
 16 C        6.6770    -1.2160     1.3870 C.ar  1 <1>  -0.1500 
 17 C        7.7370    -0.7200    -1.0220 C.ar  1 <1>   0.1600 
 18 C        7.1990     0.0400     1.1690 C.ar  1 <1>  -0.1500 
 19 C        7.7450     0.2910    -0.0730 C.ar  1 <1>  -0.1440 
 20 C        8.3480     1.6510    -0.3890 C.3   1 <1>  -0.0170 
 21 C        9.8340     1.6770    -0.0270 C.3   1 <1>  -0.2400 
 22 H       -1.0360    -3.4180     1.0610 H     1 <1>   0.3700 
 23 H        1.4890    -0.6590    -0.7200 H     1 <1>   0.0800 
 24 H        2.0560    -1.3340     0.7810 H     1 <1>   0.0800 
 25 H        1.5350    -3.9460     1.8020 H     1 <1>   0.0800 
 26 H        0.5630    -5.1570     0.9990 H     1 <1>   0.0800 
 27 H        1.7790    -2.6820    -1.9030 H     1 <1>   0.0800 
 28 H        1.4340    -4.6820    -1.1090 H     1 <1>   0.0800 
 29 H        4.0670    -2.0300    -0.1350 H     1 <1>   0.0800 
 30 H        3.9960    -2.0120    -1.8870 H     1 <1>   0.0800 
 31 H        3.2810    -5.7950    -0.2870 H     1 <1>   0.0800 
 32 H        3.5840    -4.5740     0.9410 H     1 <1>   0.0800 
 33 H        4.0600    -4.3710    -2.0260 H     1 <1>   0.0800 
 34 H        6.1770    -3.4960    -1.3570 H     1 <1>   0.4500 
 35 H        5.3150    -3.4900     1.3120 H     1 <1>   0.0800 
 36 H        6.9020    -4.1700     1.0320 H     1 <1>   0.0800 
 37 H        5.7400    -6.1890    -0.2070 H     1 <1>   0.0800 
 38 H        7.2590    -5.5280    -0.7840 H     1 <1>   0.0800 
 39 H        5.9580    -5.8400    -1.9100 H     1 <1>   0.0800 
 40 H        6.2470    -1.4470     2.3460 H     1 <1>   0.1500 
 41 H        8.1710    -0.5160    -1.9870 H     1 <1>   0.1500 
 42 H        7.1850     0.7930     1.9390 H     1 <1>   0.1500 
 43 H        8.2290     1.8710    -1.4360 H     1 <1>   0.0800 
 44 H        7.8310     2.4170     0.1640 H     1 <1>   0.0800 
 45 H       10.3700     0.9310    -0.5870 H     1 <1>   0.0800 
 46 H        9.9660     1.4810     1.0230 H     1 <1>   0.0800 
 47 H       10.2530     2.6420    -0.2520 H     1 <1>   0.0800 
@<TRIPOS>BOND
  1   1   2  2   
  2   2   3  am  
  3   2   4  1   
  4   3   5  1   
  5   3  22  1   
  6   4   6  1   
  7   4  23  1   
  8   4  24  1   
  9   5   7  1   
 10   5  25  1   
 11   5  26  1   
 12   6   7  1   
 13   6   8  1   
 14   6  27  1   
 15   7   9  1   
 16   7  28  1   
 17   8  10  1   
 18   8  29  1   
 19   8  30  1   
 20   9  10  1   
 21   9  31  1   
 22   9  32  1   
 23  10  11  1   
 24  10  33  1   
 25  11  12  1   
 26  11  13  1   
 27  11  34  1   
 28  12  14  1   
 29  12  35  1   
 30  12  36  1   
 31  13  37  1   
 32  13  38  1   
 33  13  39  1   
 34  14  15  ar  
 35  14  16  ar  
 36  15  17  ar  
 37  16  18  ar  
 38  16  40  1   
 39  17  19  ar  
 40  17  41  1   
 41  18  19  ar  
 42  18  42  1   
 43  19  20  1   
 44  20  21  1   
 45  20  43  1   
 46  20  44  1   
 47  21  45  1   
 48  21  46  1   
 49  21  47  1   
@<TRIPOS>SUBSTRUCTURE
  1 ****   8 GROUP 4 **** **** 0

# MOE 2024.06 (io_trps.svl 2023.06)
