@<TRIPOS>MOLECULE
NONAME
55 59 1 0 0 
SMALL
USER_CHARGES


@<TRIPOS>ATOM
  1 O       -4.2370     1.9880    -2.0270 O.2   1 <1>  -0.5700 
  2 C       -3.0560     1.8750    -1.7970 C.2   1 <1>   0.6300 
  3 N       -2.3860     0.7330    -2.0870 N.am  1 <1>  -0.7300 
  4 C       -2.2780     3.0040    -1.1120 C.3   1 <1>   0.0320 
  5 C       -3.0350    -0.5380    -2.4610 C.3   1 <1>   0.2200 
  6 C       -1.3480     2.4660    -0.0320 C.ar  1 <1>  -0.0320 
  7 C       -1.8650     4.2040    -1.9190 C.3   1 <1>  -0.2000 
  8 C       -2.9190     4.3430    -0.8680 C.3   1 <1>  -0.2000 
  9 C       -3.3930    -1.2850    -1.1890 C.3   1 <1>  -0.0800 
 10 C       -2.0200    -1.4770    -3.1070 C.3   1 <1>   0.1200 
 11 C       -1.8670     2.0930     1.1970 C.ar  1 <1>  -0.1500 
 12 C        0.0080     2.3050    -0.2720 C.ar  1 <1>  -0.1500 
 13 C       -2.0750    -1.9860    -0.8550 C.3   1 <1>   0.1200 
 14 C       -4.5470    -2.2790    -1.4180 C.3   1 <1>  -0.0170 
 15 O       -1.4060    -2.1840    -2.0680 O.3   1 <1>  -0.5600 
 16 C       -1.0430     1.5630     2.1740 C.ar  1 <1>  -0.1500 
 17 C        0.8330     1.7750     0.7050 C.ar  1 <1>  -0.1500 
 18 C       -4.9930    -2.9200    -0.1080 C.ar  1 <1>  -0.1440 
 19 C        0.3110     1.4010     1.9330 C.ar  1 <1>  -0.1440 
 20 C       -5.7710    -2.2230     0.8480 C.ar  1 <1>   0.0000 
 21 C       -4.6440    -4.2070     0.1800 C.ar  1 <1>  -0.1500 
 22 C        1.2160     0.8160     3.0020 C.3   1 <1>  -0.0970 
 23 C       -6.1160    -2.9070     2.0390 C.ar  1 <1>   0.3100 
 24 C       -6.2270    -0.8920     0.6940 C.ar  1 <1>  -0.1500 
 25 C       -5.0420    -4.7920     1.3880 C.ar  1 <1>   0.1600 
 26 N       -5.7450    -4.1880     2.2930 N.ar  1 <1>  -0.6200 
 27 C       -6.8790    -2.2400     3.0100 C.ar  1 <1>  -0.1500 
 28 C       -6.9700    -0.2710     1.6600 C.ar  1 <1>  -0.1500 
 29 C       -7.3020    -0.9500     2.8350 C.ar  1 <1>  -0.1500 
 30 H       -1.4270     0.6370    -1.7430 H     1 <1>   0.3700 
 31 H       -3.8820    -0.3450    -3.0990 H     1 <1>   0.0800 
 32 H       -0.9080     4.6610    -1.7390 H     1 <1>   0.1000 
 33 H       -2.1640     4.2590    -2.9510 H     1 <1>   0.1000 
 34 H       -3.9400     4.4900    -1.1730 H     1 <1>   0.1000 
 35 H       -2.6790     4.8700     0.0390 H     1 <1>   0.1000 
 36 H       -3.6640    -0.6040    -0.4010 H     1 <1>   0.0800 
 37 H       -1.2740    -0.9510    -3.6770 H     1 <1>   0.0800 
 38 H       -2.5170    -2.1950    -3.7350 H     1 <1>   0.0800 
 39 H       -2.9190     2.2120     1.3920 H     1 <1>   0.1500 
 40 H        0.4270     2.5880    -1.2210 H     1 <1>   0.1500 
 41 H       -2.2090    -2.9340    -0.3650 H     1 <1>   0.0800 
 42 H       -1.4550    -1.3520    -0.2430 H     1 <1>   0.0800 
 43 H       -4.2360    -3.0440    -2.1080 H     1 <1>   0.0800 
 44 H       -5.3850    -1.7750    -1.8650 H     1 <1>   0.0800 
 45 H       -1.4630     1.2760     3.1220 H     1 <1>   0.1500 
 46 H        1.8830     1.6540     0.5060 H     1 <1>   0.1500 
 47 H       -4.0580    -4.7980    -0.5000 H     1 <1>   0.1500 
 48 H        0.8180     1.0100     3.9810 H     1 <1>   0.0800 
 49 H        2.1970     1.2520     2.9420 H     1 <1>   0.0800 
 50 H        1.2990    -0.2470     2.8660 H     1 <1>   0.0800 
 51 H       -5.9890    -0.3480    -0.2020 H     1 <1>   0.1500 
 52 H       -4.7440    -5.8100     1.5750 H     1 <1>   0.1500 
 53 H       -7.1240    -2.7830     3.9040 H     1 <1>   0.1500 
 54 H       -7.3080     0.7430     1.5280 H     1 <1>   0.1500 
 55 H       -7.8870    -0.4510     3.5870 H     1 <1>   0.1500 
@<TRIPOS>BOND
  1   1   2  2   
  2   2   3  am  
  3   2   4  1   
  4   3   5  1   
  5   3  30  1   
  6   4   6  1   
  7   4   7  1   
  8   4   8  1   
  9   5   9  1   
 10   5  10  1   
 11   5  31  1   
 12   6  11  ar  
 13   6  12  ar  
 14   7   8  1   
 15   7  32  1   
 16   7  33  1   
 17   8  34  1   
 18   8  35  1   
 19   9  13  1   
 20   9  14  1   
 21   9  36  1   
 22  10  15  1   
 23  10  37  1   
 24  10  38  1   
 25  11  16  ar  
 26  11  39  1   
 27  12  17  ar  
 28  12  40  1   
 29  13  15  1   
 30  13  41  1   
 31  13  42  1   
 32  14  18  1   
 33  14  43  1   
 34  14  44  1   
 35  16  19  ar  
 36  16  45  1   
 37  17  19  ar  
 38  17  46  1   
 39  18  20  ar  
 40  18  21  ar  
 41  19  22  1   
 42  20  23  ar  
 43  20  24  ar  
 44  21  25  ar  
 45  21  47  1   
 46  22  48  1   
 47  22  49  1   
 48  22  50  1   
 49  23  26  ar  
 50  23  27  ar  
 51  24  28  ar  
 52  24  51  1   
 53  25  26  ar  
 54  25  52  1   
 55  27  29  ar  
 56  27  53  1   
 57  28  29  ar  
 58  28  54  1   
 59  29  55  1   
@<TRIPOS>SUBSTRUCTURE
  1 ****   9 GROUP 4 **** **** 0

# MOE 2024.06 (io_trps.svl 2023.06)
