@<TRIPOS>MOLECULE
NONAME
46 48 1 0 0 
SMALL
USER_CHARGES


@<TRIPOS>ATOM
  1 CL      -0.8470    -0.2060     0.4160 Cl    1 <1>  -0.1770 
  2 C       -0.6980     1.4570    -0.1050 C.ar  1 <1>   0.1770 
  3 C       -1.7860     2.3200    -0.0310 C.ar  1 <1>  -0.1440 
  4 C        0.5320     1.8680    -0.5850 C.ar  1 <1>  -0.1500 
  5 C       -1.6000     3.6320    -0.4590 C.ar  1 <1>  -0.1500 
  6 C       -3.1190     1.7930     0.5110 C.3   1 <1>  -0.0160 
  7 C        0.6970     3.1750    -1.0060 C.ar  1 <1>  -0.1500 
  8 C       -0.3700     4.0530    -0.9410 C.ar  1 <1>  -0.1500 
  9 C       -4.2840     2.7980     0.4960 C.3   1 <1>  -0.0990 
 10 C       -5.5970     2.2330     1.0210 C.2   1 <1>   0.5690 
 11 O       -5.6150     1.0920     1.4200 O.2   1 <1>  -0.5700 
 12 N       -6.7270     3.0130     1.0260 N.am  1 <1>  -0.6600 
 13 C       -8.0410     2.4620     1.4730 C.3   1 <1>   0.1400 
 14 C       -6.8290     4.4050     0.5100 C.3   1 <1>   0.1400 
 15 C       -9.0230     2.3970     0.2870 C.3   1 <1>   0.0000 
 16 C       -7.7800     4.4320    -0.6930 C.3   1 <1>  -0.1600 
 17 C      -10.3730     1.8080     0.7410 C.3   1 <1>   0.2000 
 18 C       -9.1490     3.8090    -0.3560 C.3   1 <1>  -0.1600 
 19 C       -8.5860     1.3560    -0.7590 C.3   1 <1>  -0.1600 
 20 O      -11.2120     2.7490     1.3090 O.3   1 <1>  -0.6800 
 21 C      -11.0200     1.2030    -0.5040 C.3   1 <1>  -0.1600 
 22 C       -9.8680     0.9220    -1.4780 C.3   1 <1>  -0.1600 
 23 H        1.3470     1.1700    -0.6260 H     1 <1>   0.1500 
 24 H       -2.3970     4.3500    -0.4270 H     1 <1>   0.1500 
 25 H       -3.4060     0.9330    -0.0690 H     1 <1>   0.0800 
 26 H       -2.9670     1.4590     1.5240 H     1 <1>   0.0800 
 27 H        1.6500     3.5070    -1.3820 H     1 <1>   0.1500 
 28 H       -0.2440     5.0710    -1.2680 H     1 <1>   0.1500 
 29 H       -4.4440     3.1240    -0.5150 H     1 <1>   0.0800 
 30 H       -4.0230     3.6430     1.1050 H     1 <1>   0.0800 
 31 H       -7.9170     1.4810     1.9000 H     1 <1>   0.0800 
 32 H       -8.4460     3.0990     2.2410 H     1 <1>   0.0800 
 33 H       -7.2180     5.0350     1.2920 H     1 <1>   0.0800 
 34 H       -5.8700     4.7930     0.2220 H     1 <1>   0.0800 
 35 H       -7.9210     5.4520    -1.0050 H     1 <1>   0.0800 
 36 H       -7.3210     3.9100    -1.5130 H     1 <1>   0.0800 
 37 H      -10.2070     1.0310     1.4680 H     1 <1>   0.0800 
 38 H       -9.7520     3.7680    -1.2460 H     1 <1>   0.0800 
 39 H       -9.6340     4.4730     0.3370 H     1 <1>   0.0800 
 40 H       -7.8450     1.7210    -1.4460 H     1 <1>   0.0800 
 41 H       -8.1700     0.5000    -0.2540 H     1 <1>   0.0800 
 42 H      -11.4400     3.4240     0.6440 H     1 <1>   0.4000 
 43 H      -11.5350     0.2940    -0.2470 H     1 <1>   0.0800 
 44 H      -11.7130     1.8910    -0.9560 H     1 <1>   0.0800 
 45 H       -9.8230    -0.1200    -1.7470 H     1 <1>   0.0800 
 46 H      -10.0000     1.5050    -2.3740 H     1 <1>   0.0800 
@<TRIPOS>BOND
  1   1   2  1   
  2   2   3  ar  
  3   2   4  ar  
  4   3   5  ar  
  5   3   6  1   
  6   4   7  ar  
  7   4  23  1   
  8   5   8  ar  
  9   5  24  1   
 10   6   9  1   
 11   6  25  1   
 12   6  26  1   
 13   7   8  ar  
 14   7  27  1   
 15   8  28  1   
 16   9  10  1   
 17   9  29  1   
 18   9  30  1   
 19  10  11  2   
 20  10  12  am  
 21  12  13  1   
 22  12  14  1   
 23  13  15  1   
 24  13  31  1   
 25  13  32  1   
 26  14  16  1   
 27  14  33  1   
 28  14  34  1   
 29  15  17  1   
 30  15  18  1   
 31  15  19  1   
 32  16  18  1   
 33  16  35  1   
 34  16  36  1   
 35  17  20  1   
 36  17  21  1   
 37  17  37  1   
 38  18  38  1   
 39  18  39  1   
 40  19  22  1   
 41  19  40  1   
 42  19  41  1   
 43  20  42  1   
 44  21  22  1   
 45  21  43  1   
 46  21  44  1   
 47  22  45  1   
 48  22  46  1   
@<TRIPOS>SUBSTRUCTURE
  1 ****  10 GROUP 4 **** **** 0

# MOE 2024.06 (io_trps.svl 2023.06)
