@<TRIPOS>MOLECULE
NONAME
53 55 1 0 0 
SMALL
USER_CHARGES


@<TRIPOS>ATOM
  1 S       -2.9390     1.4870    -0.3280 S.o2  1 <1>   1.3330 
  2 O       -3.9900     1.8900     0.5780 O.2   1 <1>  -0.6500 
  3 O       -2.2020     2.4470    -1.1080 O.2   1 <1>  -0.6500 
  4 N       -3.6200     0.4220    -1.4320 N.am  1 <1>  -0.9140 
  5 C       -1.7660     0.4880     0.5660 C.3   1 <1>  -0.1350 
  6 C       -4.3560    -0.6970    -0.8680 C.3   1 <1>   0.1960 
  7 C       -5.2010    -1.3520    -1.9500 C.3   1 <1>  -0.0990 
  8 C       -6.1520    -2.3300    -1.2930 C.2   1 <1>   0.5690 
  9 O       -5.7400    -3.4570    -1.1470 O.2   1 <1>  -0.5700 
 10 N       -7.4000    -1.9580    -0.8610 N.am  1 <1>  -0.6600 
 11 C       -7.9810    -0.5740    -0.9490 C.3   1 <1>   0.1400 
 12 C       -8.3350    -3.0200    -0.3740 C.3   1 <1>   0.1400 
 13 C       -8.6320    -0.1090     0.3770 C.3   1 <1>   0.1430 
 14 C       -9.6370    -2.4490     0.2080 C.3   1 <1>  -0.1600 
 15 C       -9.5790     1.0280     0.0270 C.ar  1 <1>   0.1670 
 16 C       -9.3390    -1.2630     1.1330 C.3   1 <1>  -0.1600 
 17 C       -7.6130     0.6130     1.2970 C.3   1 <1>  -0.1600 
 18 N      -10.7680     0.8920    -0.5080 N.ar  1 <1>  -0.6200 
 19 C       -9.0320     2.2410     0.3210 C.ar  1 <1>  -0.1430 
 20 C       -7.6540     2.1030     0.9210 C.3   1 <1>  -0.0170 
 21 C      -11.4250     2.0330    -0.7370 C.ar  1 <1>   0.7200 
 22 C       -9.7760     3.3590     0.0430 C.ar  1 <1>   0.1600 
 23 N      -10.9740     3.2660    -0.4860 N.ar  1 <1>  -0.6200 
 24 N      -12.6890     1.9260    -1.2860 N.pl3 1 <1>  -0.8380 
 25 C      -13.4090     3.1030    -1.8480 C.3   1 <1>   0.1290 
 26 C      -13.4360     0.6390    -1.3100 C.3   1 <1>   0.1290 
 27 H       -2.8980     0.1380    -2.0910 H     1 <1>   0.4200 
 28 H       -1.2360     1.0980     1.2710 H     1 <1>   0.0800 
 29 H       -1.0540     0.0530    -0.1080 H     1 <1>   0.0800 
 30 H       -2.2650    -0.2930     1.1040 H     1 <1>   0.0800 
 31 H       -5.0060    -0.3360    -0.0920 H     1 <1>   0.0800 
 32 H       -3.6840    -1.4220    -0.4390 H     1 <1>   0.0800 
 33 H       -4.5650    -1.8930    -2.6260 H     1 <1>   0.0800 
 34 H       -5.7420    -0.6220    -2.5190 H     1 <1>   0.0800 
 35 H       -8.7350    -0.5860    -1.7170 H     1 <1>   0.0800 
 36 H       -7.2430     0.1490    -1.2420 H     1 <1>   0.0800 
 37 H       -7.8310    -3.5900     0.3890 H     1 <1>   0.0800 
 38 H       -8.5630    -3.6900    -1.1860 H     1 <1>   0.0800 
 39 H      -10.1480    -3.2210     0.7550 H     1 <1>   0.0800 
 40 H      -10.2880    -2.1360    -0.5920 H     1 <1>   0.0800 
 41 H      -10.2500    -0.9060     1.5820 H     1 <1>   0.0800 
 42 H       -8.7050    -1.6200     1.9250 H     1 <1>   0.0800 
 43 H       -6.6240     0.2020     1.2290 H     1 <1>   0.0800 
 44 H       -7.9390     0.5310     2.3200 H     1 <1>   0.0800 
 45 H       -6.9040     2.3330     0.1830 H     1 <1>   0.0800 
 46 H       -7.5220     2.7340     1.7830 H     1 <1>   0.0800 
 47 H       -9.3850     4.3390     0.2560 H     1 <1>   0.1500 
 48 H      -13.9980     3.5650    -1.0760 H     1 <1>   0.0800 
 49 H      -14.0520     2.7940    -2.6530 H     1 <1>   0.0800 
 50 H      -12.7090     3.8250    -2.2330 H     1 <1>   0.0800 
 51 H      -13.2480     0.1320    -2.2400 H     1 <1>   0.0800 
 52 H      -14.4920     0.8210    -1.2110 H     1 <1>   0.0800 
 53 H      -13.1250     0.0050    -0.4970 H     1 <1>   0.0800 
@<TRIPOS>BOND
  1   1   2  2   
  2   1   3  2   
  3   1   4  am  
  4   1   5  1   
  5   4   6  1   
  6   4  27  1   
  7   5  28  1   
  8   5  29  1   
  9   5  30  1   
 10   6   7  1   
 11   6  31  1   
 12   6  32  1   
 13   7   8  1   
 14   7  33  1   
 15   7  34  1   
 16   8   9  2   
 17   8  10  am  
 18  10  11  1   
 19  10  12  1   
 20  11  13  1   
 21  11  35  1   
 22  11  36  1   
 23  12  14  1   
 24  12  37  1   
 25  12  38  1   
 26  13  15  1   
 27  13  16  1   
 28  13  17  1   
 29  14  16  1   
 30  14  39  1   
 31  14  40  1   
 32  15  18  ar  
 33  15  19  ar  
 34  16  41  1   
 35  16  42  1   
 36  17  20  1   
 37  17  43  1   
 38  17  44  1   
 39  18  21  ar  
 40  19  20  1   
 41  19  22  ar  
 42  20  45  1   
 43  20  46  1   
 44  21  23  ar  
 45  21  24  1   
 46  22  23  ar  
 47  22  47  1   
 48  24  25  1   
 49  24  26  1   
 50  25  48  1   
 51  25  49  1   
 52  25  50  1   
 53  26  51  1   
 54  26  52  1   
 55  26  53  1   
@<TRIPOS>SUBSTRUCTURE
  1 ****  11 GROUP 4 **** **** 0

# MOE 2024.06 (io_trps.svl 2023.06)
