@<TRIPOS>MOLECULE
NONAME
41 43 1 0 0 
SMALL
USER_CHARGES


@<TRIPOS>ATOM
  1 O       -0.6460     2.6350    -2.0250 O.2   1 <1>  -0.5700 
  2 C       -0.8010     2.1360    -0.9320 C.2   1 <1>   0.5440 
  3 N       -0.2220     0.9240    -0.7480 N.am  1 <1>  -0.8000 
  4 C       -1.5780     2.7480     0.1140 C.ar  1 <1>   0.0860 
  5 C       -1.2030     3.9390     0.7770 C.ar  1 <1>   0.4100 
  6 C       -2.7600     2.1290     0.5000 C.ar  1 <1>  -0.1500 
  7 N       -1.9270     4.4690     1.7650 N.ar  1 <1>  -0.6200 
  8 N       -0.0550     4.6590     0.4770 N.pl3 1 <1>  -0.8380 
  9 C       -3.5030     2.6970     1.5080 C.ar  1 <1>  -0.1500 
 10 C       -3.0430     3.8570     2.1000 C.ar  1 <1>   0.1600 
 11 C        0.1040     6.0940     0.8760 C.3   1 <1>   0.4690 
 12 C        1.2500     4.0740     0.0990 C.3   1 <1>   0.2090 
 13 C       -0.8650     7.0650     0.1900 C.2   1 <1>   0.2980 
 14 C        1.5630     6.4150     0.5440 C.3   1 <1>  -0.1600 
 15 C        2.2840     5.0720     0.6010 C.3   1 <1>  -0.1600 
 16 O       -1.1470     6.8870    -1.0780 O.3   1 <1>  -0.0190 
 17 N       -1.4210     8.0780     0.7350 N.2   1 <1>  -0.5650 
 18 N       -1.9530     7.8640    -1.3620 N.2   1 <1>  -0.4100 
 19 C       -2.1130     8.5440    -0.2970 C.2   1 <1>   0.3350 
 20 C       -2.9880     9.7900    -0.1490 C.3   1 <1>   0.1010 
 21 C       -4.1800     9.7880    -1.1180 C.3   1 <1>  -0.2400 
 22 C       -2.1530    11.0640    -0.3430 C.3   1 <1>  -0.2400 
 23 H        0.2800     0.4970    -1.5270 H     1 <1>   0.3700 
 24 H       -0.2870     0.3890     0.1170 H     1 <1>   0.3700 
 25 H       -3.0890     1.2280     0.0120 H     1 <1>   0.1500 
 26 H       -4.4270     2.2530     1.8330 H     1 <1>   0.1500 
 27 H       -3.6250     4.3020     2.8900 H     1 <1>   0.1500 
 28 H       -0.0290     6.1710     1.9410 H     1 <1>   0.0800 
 29 H        1.3900     3.1030     0.5430 H     1 <1>   0.0800 
 30 H        1.3030     3.9970    -0.9750 H     1 <1>   0.0800 
 31 H        1.6190     6.8130    -0.4550 H     1 <1>   0.0800 
 32 H        1.9710     7.1350     1.2290 H     1 <1>   0.0800 
 33 H        2.5370     4.8310     1.6190 H     1 <1>   0.0800 
 34 H        3.1760     5.0570     0.0010 H     1 <1>   0.0800 
 35 H       -3.3780     9.7890     0.8550 H     1 <1>   0.0800 
 36 H       -3.8360     9.8130    -2.1370 H     1 <1>   0.0800 
 37 H       -4.8110    10.6410    -0.9420 H     1 <1>   0.0800 
 38 H       -4.7630     8.8940    -0.9780 H     1 <1>   0.0800 
 39 H       -1.7390    11.0880    -1.3350 H     1 <1>   0.0800 
 40 H       -1.3440    11.0810     0.3660 H     1 <1>   0.0800 
 41 H       -2.7590    11.9390    -0.1940 H     1 <1>   0.0800 
@<TRIPOS>BOND
  1   1   2  2   
  2   2   3  am  
  3   2   4  1   
  4   3  23  1   
  5   3  24  1   
  6   4   5  ar  
  7   4   6  ar  
  8   5   7  ar  
  9   5   8  1   
 10   6   9  ar  
 11   6  25  1   
 12   7  10  ar  
 13   8  11  1   
 14   8  12  1   
 15   9  10  ar  
 16   9  26  1   
 17  10  27  1   
 18  11  13  1   
 19  11  14  1   
 20  11  28  1   
 21  12  15  1   
 22  12  29  1   
 23  12  30  1   
 24  13  16  1   
 25  13  17  2   
 26  14  15  1   
 27  14  31  1   
 28  14  32  1   
 29  15  33  1   
 30  15  34  1   
 31  16  18  1   
 32  17  19  1   
 33  18  19  2   
 34  19  20  1   
 35  20  21  1   
 36  20  22  1   
 37  20  35  1   
 38  21  36  1   
 39  21  37  1   
 40  21  38  1   
 41  22  39  1   
 42  22  40  1   
 43  22  41  1   
@<TRIPOS>SUBSTRUCTURE
  1 ****   8 GROUP 4 **** **** 0

# MOE 2024.06 (io_trps.svl 2023.06)
