@<TRIPOS>MOLECULE
NONAME
49 53 1 0 0 
SMALL
USER_CHARGES


@<TRIPOS>ATOM
  1 O       -0.3410    -0.1390     0.9580 O.2   1 <1>  -0.5700 
  2 C       -1.2950     0.5820     1.1840 C.2   1 <1>   0.7150 
  3 N       -2.5420     0.0150     1.3120 N.am  1 <1>  -0.6600 
  4 C       -1.1190     2.0000     1.2890 C.2   1 <1>  -0.2370 
  5 C       -2.7400    -1.4690     1.3250 C.3   1 <1>   0.1400 
  6 C       -3.8010     0.7520     0.9870 C.3   1 <1>   0.1400 
  7 N       -0.4370     2.7330     0.3560 N.pl3 1 <1>   0.2940 
  8 C       -1.5590     2.8610     2.2640 C.2   1 <1>  -0.1500 
  9 C       -3.4410    -1.9370     0.0360 C.3   1 <1>   0.3440 
 10 C       -4.4490     0.1700    -0.2860 C.3   1 <1>   0.2950 
 11 C       -0.4560     4.0290     0.7530 C.2   1 <1>  -0.3020 
 12 C        0.1700     2.2260    -0.8970 C.3   1 <1>  -0.0910 
 13 C       -1.1380     4.1430     1.9240 C.2   1 <1>  -0.1500 
 14 O       -4.6290    -1.2110    -0.1580 O.3   1 <1>  -0.5600 
 15 C       -3.7540    -3.4290     0.1070 C.ar  1 <1>  -0.1430 
 16 C       -5.8220     0.7930    -0.5520 C.3   1 <1>  -0.1950 
 17 C        0.0320     2.9930    -2.1800 C.3   1 <1>  -0.2000 
 18 C       -0.7310     1.7210    -1.9860 C.3   1 <1>  -0.2000 
 19 C       -2.8120    -4.3450    -0.3390 C.ar  1 <1>  -0.1500 
 20 C       -4.9560    -3.8970     0.6220 C.ar  1 <1>  -0.1500 
 21 C       -6.4190     0.7940    -1.9230 C.3   1 <1>  -0.2000 
 22 C       -5.9510     2.0810    -1.3050 C.3   1 <1>  -0.2000 
 23 C       -3.0660    -5.7050    -0.2720 C.ar  1 <1>  -0.1500 
 24 C       -5.2120    -5.2550     0.6890 C.ar  1 <1>  -0.1500 
 25 C       -4.2660    -6.1610     0.2430 C.ar  1 <1>  -0.1500 
 26 H       -1.7980    -1.9810     1.4220 H     1 <1>   0.0800 
 27 H       -3.3440    -1.7400     2.1720 H     1 <1>   0.0800 
 28 H       -4.4870     0.6620     1.8100 H     1 <1>   0.0800 
 29 H       -3.6090     1.7970     0.8280 H     1 <1>   0.0800 
 30 H       -2.1240     2.6060     3.1450 H     1 <1>   0.1500 
 31 H       -2.8000    -1.7530    -0.8080 H     1 <1>   0.0800 
 32 H       -3.8080     0.3450    -1.1320 H     1 <1>   0.0800 
 33 H        0.0180     4.8060     0.1810 H     1 <1>   0.1500 
 34 H        1.0810     1.6860    -0.7050 H     1 <1>   0.1000 
 35 H       -1.3260     5.0380     2.4940 H     1 <1>   0.1500 
 36 H       -6.4980     0.6400     0.2720 H     1 <1>   0.1000 
 37 H       -0.5110     3.9230    -2.1840 H     1 <1>   0.1000 
 38 H        0.8520     2.9910    -2.8770 H     1 <1>   0.1000 
 39 H       -0.4270     0.8520    -2.5430 H     1 <1>   0.1000 
 40 H       -1.7970     1.7780    -1.8540 H     1 <1>   0.1000 
 41 H       -1.8730    -4.0060    -0.7400 H     1 <1>   0.1500 
 42 H       -5.7010    -3.2000     0.9690 H     1 <1>   0.1500 
 43 H       -5.8540     0.3610    -2.7310 H     1 <1>   0.1000 
 44 H       -7.4760     0.6120    -2.0190 H     1 <1>   0.1000 
 45 H       -6.6900     2.7970    -0.9880 H     1 <1>   0.1000 
 46 H       -5.0730     2.5510    -1.7150 H     1 <1>   0.1000 
 47 H       -2.3290    -6.4070    -0.6200 H     1 <1>   0.1500 
 48 H       -6.1480    -5.6060     1.0880 H     1 <1>   0.1500 
 49 H       -4.4650    -7.2170     0.2940 H     1 <1>   0.1500 
@<TRIPOS>BOND
  1   1   2  2   
  2   2   3  am  
  3   2   4  1   
  4   3   5  1   
  5   3   6  1   
  6   4   7  1   
  7   4   8  2   
  8   5   9  1   
  9   5  26  1   
 10   5  27  1   
 11   6  10  1   
 12   6  28  1   
 13   6  29  1   
 14   7  11  1   
 15   7  12  1   
 16   8  13  1   
 17   8  30  1   
 18   9  14  1   
 19   9  15  1   
 20   9  31  1   
 21  10  14  1   
 22  10  16  1   
 23  10  32  1   
 24  11  13  2   
 25  11  33  1   
 26  12  17  1   
 27  12  18  1   
 28  12  34  1   
 29  13  35  1   
 30  15  19  ar  
 31  15  20  ar  
 32  16  21  1   
 33  16  22  1   
 34  16  36  1   
 35  17  18  1   
 36  17  37  1   
 37  17  38  1   
 38  18  39  1   
 39  18  40  1   
 40  19  23  ar  
 41  19  41  1   
 42  20  24  ar  
 43  20  42  1   
 44  21  22  1   
 45  21  43  1   
 46  21  44  1   
 47  22  45  1   
 48  22  46  1   
 49  23  25  ar  
 50  23  47  1   
 51  24  25  ar  
 52  24  48  1   
 53  25  49  1   
@<TRIPOS>SUBSTRUCTURE
  1 ****   3 GROUP 4 **** **** 0

# MOE 2024.06 (io_trps.svl 2023.06)
