@<TRIPOS>MOLECULE
NONAME
45 48 1 0 0 
SMALL
USER_CHARGES


@<TRIPOS>ATOM
  1 O       -0.7590     0.7610    -0.6470 O.2   1 <1>  -0.5700 
  2 C       -0.4790     1.8740    -0.2790 C.2   1 <1>   0.5690 
  3 N       -1.4500     2.7610     0.0300 N.am  1 <1>  -0.7300 
  4 C        0.9870     2.3100    -0.1920 C.3   1 <1>   0.1810 
  5 C       -1.1800     4.1400     0.5040 C.3   1 <1>   0.3640 
  6 O        1.1770     3.4710     0.5890 O.3   1 <1>  -0.5600 
  7 C       -2.1180     5.1030    -0.2190 C.ar  1 <1>  -0.1440 
  8 C        0.3000     4.5420     0.2810 C.3   1 <1>   0.2610 
  9 C       -2.3420     5.0070    -1.5880 C.ar  1 <1>  -0.1500 
 10 C       -2.7560     6.1070     0.4960 C.ar  1 <1>  -0.1500 
 11 C        0.6640     5.7950     1.0880 C.2   1 <1>   0.5690 
 12 C       -3.1890     5.8960    -2.2260 C.ar  1 <1>  -0.1500 
 13 C       -3.6040     6.9960    -0.1410 C.ar  1 <1>  -0.1500 
 14 O        0.0740     6.0620     2.1120 O.2   1 <1>  -0.5700 
 15 N        1.6510     6.6050     0.6310 N.am  1 <1>  -0.7300 
 16 C       -3.8210     6.8920    -1.5030 C.ar  1 <1>  -0.1500 
 17 C        2.0430     7.8970     1.2200 C.3   1 <1>   0.3210 
 18 C        2.6000     8.7850     0.1160 C.2   1 <1>   0.1080 
 19 N        3.3000     8.3450    -0.8990 N.2   1 <1>  -0.7070 
 20 C        2.4270    10.1630     0.0500 C.2   1 <1>  -0.1810 
 21 N        3.5890     9.4500    -1.6270 N.pl3 1 <1>   0.3000 
 22 C        3.0600    10.5450    -1.0530 C.2   1 <1>  -0.3320 
 23 C        1.7960    11.3210     0.7720 C.3   1 <1>   0.0210 
 24 C        3.0010    12.0210    -1.3220 C.3   1 <1>   0.0200 
 25 C        2.0850    12.5150    -0.1740 C.3   1 <1>  -0.1600 
 26 H       -2.4270     2.4730    -0.0320 H     1 <1>   0.3700 
 27 H        1.3620     2.5030    -1.1800 H     1 <1>   0.0800 
 28 H        1.5670     1.5210     0.2500 H     1 <1>   0.0800 
 29 H       -1.3930     4.1670     1.5600 H     1 <1>   0.0800 
 30 H        0.4370     4.7770    -0.7590 H     1 <1>   0.0800 
 31 H       -1.8590     4.2390    -2.1680 H     1 <1>   0.1500 
 32 H       -2.5930     6.2070     1.5570 H     1 <1>   0.1500 
 33 H       -3.3570     5.8140    -3.2860 H     1 <1>   0.1500 
 34 H       -4.0920     7.7710     0.4240 H     1 <1>   0.1500 
 35 H        2.1740     6.4220    -0.2320 H     1 <1>   0.3700 
 36 H       -4.4800     7.5830    -1.9980 H     1 <1>   0.1500 
 37 H        1.1920     8.3660     1.6820 H     1 <1>   0.0800 
 38 H        2.8020     7.7330     1.9630 H     1 <1>   0.0800 
 39 H        4.1390     9.4170    -2.4930 H     1 <1>   0.2700 
 40 H        0.7390    11.1640     0.8960 H     1 <1>   0.0800 
 41 H        2.2650    11.4600     1.7300 H     1 <1>   0.0800 
 42 H        3.9820    12.4570    -1.2530 H     1 <1>   0.0800 
 43 H        2.5670    12.2260    -2.2850 H     1 <1>   0.0800 
 44 H        2.5550    13.3190     0.3650 H     1 <1>   0.0800 
 45 H        1.1590    12.8730    -0.5880 H     1 <1>   0.0800 
@<TRIPOS>BOND
  1   1   2  2   
  2   2   3  am  
  3   2   4  1   
  4   3   5  1   
  5   3  26  1   
  6   4   6  1   
  7   4  27  1   
  8   4  28  1   
  9   5   7  1   
 10   5   8  1   
 11   5  29  1   
 12   6   8  1   
 13   7   9  ar  
 14   7  10  ar  
 15   8  11  1   
 16   8  30  1   
 17   9  12  ar  
 18   9  31  1   
 19  10  13  ar  
 20  10  32  1   
 21  11  14  2   
 22  11  15  am  
 23  12  16  ar  
 24  12  33  1   
 25  13  16  ar  
 26  13  34  1   
 27  15  17  1   
 28  15  35  1   
 29  16  36  1   
 30  17  18  1   
 31  17  37  1   
 32  17  38  1   
 33  18  19  2   
 34  18  20  1   
 35  19  21  1   
 36  20  22  2   
 37  20  23  1   
 38  21  22  1   
 39  21  39  1   
 40  22  24  1   
 41  23  25  1   
 42  23  40  1   
 43  23  41  1   
 44  24  25  1   
 45  24  42  1   
 46  24  43  1   
 47  25  44  1   
 48  25  45  1   
@<TRIPOS>SUBSTRUCTURE
  1 ****  11 GROUP 4 **** **** 0

# MOE 2024.06 (io_trps.svl 2023.06)
