@<TRIPOS>MOLECULE
NONAME
53 55 1 0 0 
SMALL
USER_CHARGES


@<TRIPOS>ATOM
  1 O        1.4970    -0.6480     1.9440 O.2   1 <1>  -0.5700 
  2 C        1.6590    -0.3920     0.7760 C.2   1 <1>   0.5690 
  3 N        2.0830     0.8260     0.3570 N.am  1 <1>  -0.7300 
  4 C        1.3220    -1.4840    -0.2500 C.3   1 <1>   0.4040 
  5 C        2.5710     1.9060     1.2340 C.3   1 <1>   0.2840 
  6 N       -0.1410    -1.5930    -0.6570 N.4   1 <1>  -0.9590 
  7 C        3.9400     2.3230     0.7250 C.ar  1 <1>  -0.1430 
  8 C       -1.0180    -1.7150     0.5610 C.3   1 <1>   0.4230 
  9 C       -0.2750    -2.6810    -1.6780 C.3   1 <1>   0.2630 
 10 C        4.0880     2.9080    -0.5310 C.ar  1 <1>   0.0830 
 11 C        5.0560     2.1170     1.5220 C.ar  1 <1>  -0.1500 
 12 C       -2.3060    -2.5180     0.3390 C.3   1 <1>  -0.1600 
 13 C       -1.5770    -0.3270     0.8870 C.3   1 <1>  -0.1600 
 14 O        2.9710     3.0810    -1.2910 O.3   1 <1>  -0.3630 
 15 C        5.3560     3.2840    -0.9690 C.ar  1 <1>  -0.1500 
 16 C        6.3120     2.4930     1.0800 C.ar  1 <1>  -0.1500 
 17 C       -3.2670    -1.5670    -0.3890 C.3   1 <1>  -0.0800 
 18 C       -2.8110    -0.1530    -0.0120 C.3   1 <1>  -0.0800 
 19 C        2.9760     3.9640    -2.3930 C.3   1 <1>   0.0400 
 20 C        6.4610     3.0770    -0.1640 C.ar  1 <1>  -0.1500 
 21 C       -4.7430    -1.6830     0.0190 C.3   1 <1>  -0.1600 
 22 C       -4.0130     0.5360     0.6490 C.3   1 <1>  -0.1600 
 23 C       -5.2180    -0.2400     0.1350 C.3   1 <1>   0.2000 
 24 O       -6.2600    -0.1520     1.0290 O.3   1 <1>  -0.6800 
 25 H        2.2820     1.0540    -0.6240 H     1 <1>   0.3700 
 26 H        1.6360    -2.4210     0.1770 H     1 <1>   0.0800 
 27 H        1.9250    -1.3090    -1.1240 H     1 <1>   0.0800 
 28 H        1.8960     2.7430     1.1870 H     1 <1>   0.0800 
 29 H        2.6290     1.5690     2.2550 H     1 <1>   0.0800 
 30 H       -0.4160    -0.7020    -1.0920 H     1 <1>   0.4500 
 31 H       -0.4560    -2.1160     1.3920 H     1 <1>   0.0800 
 32 H       -0.0410    -3.6370    -1.2380 H     1 <1>   0.0800 
 33 H        0.3950    -2.5060    -2.5040 H     1 <1>   0.0800 
 34 H       -1.2820    -2.7150    -2.0610 H     1 <1>   0.0800 
 35 H        4.9560     1.6630     2.4930 H     1 <1>   0.1500 
 36 H       -2.1800    -3.4610    -0.1580 H     1 <1>   0.0800 
 37 H       -2.7030    -2.7370     1.3160 H     1 <1>   0.0800 
 38 H       -1.8750    -0.3370     1.9210 H     1 <1>   0.0800 
 39 H       -0.8720     0.4740     0.7610 H     1 <1>   0.0800 
 40 H        5.5050     3.7340    -1.9320 H     1 <1>   0.1500 
 41 H        7.1730     2.3300     1.7050 H     1 <1>   0.1500 
 42 H       -3.1800    -1.6870    -1.4560 H     1 <1>   0.0800 
 43 H       -2.5490     0.3780    -0.9130 H     1 <1>   0.0800 
 44 H        1.9670     4.0620    -2.7520 H     1 <1>   0.0800 
 45 H        3.6010     3.5560    -3.1680 H     1 <1>   0.0800 
 46 H        3.3420     4.9240    -2.0710 H     1 <1>   0.0800 
 47 H        7.4390     3.3690    -0.5060 H     1 <1>   0.1500 
 48 H       -4.8400    -2.1750     0.9710 H     1 <1>   0.0800 
 49 H       -5.3150    -2.2180    -0.7180 H     1 <1>   0.0800 
 50 H       -4.0750     1.5740     0.3750 H     1 <1>   0.0800 
 51 H       -3.9590     0.4510     1.7200 H     1 <1>   0.0800 
 52 H       -5.5450     0.1380    -0.8200 H     1 <1>   0.0800 
 53 H       -5.9870    -0.4780     1.9060 H     1 <1>   0.4000 
@<TRIPOS>BOND
  1   1   2  2   
  2   2   3  am  
  3   2   4  1   
  4   3   5  1   
  5   3  25  1   
  6   4   6  1   
  7   4  26  1   
  8   4  27  1   
  9   5   7  1   
 10   5  28  1   
 11   5  29  1   
 12   6   8  1   
 13   6   9  1   
 14   6  30  1   
 15   7  10  ar  
 16   7  11  ar  
 17   8  12  1   
 18   8  13  1   
 19   8  31  1   
 20   9  32  1   
 21   9  33  1   
 22   9  34  1   
 23  10  14  1   
 24  10  15  ar  
 25  11  16  ar  
 26  11  35  1   
 27  12  17  1   
 28  12  36  1   
 29  12  37  1   
 30  13  18  1   
 31  13  38  1   
 32  13  39  1   
 33  14  19  1   
 34  15  20  ar  
 35  15  40  1   
 36  16  20  ar  
 37  16  41  1   
 38  17  18  1   
 39  17  21  1   
 40  17  42  1   
 41  18  22  1   
 42  18  43  1   
 43  19  44  1   
 44  19  45  1   
 45  19  46  1   
 46  20  47  1   
 47  21  23  1   
 48  21  48  1   
 49  21  49  1   
 50  22  23  1   
 51  22  50  1   
 52  22  51  1   
 53  23  24  1   
 54  23  52  1   
 55  24  53  1   
@<TRIPOS>SUBSTRUCTURE
  1 ****   2 GROUP 4 **** **** 0

# MOE 2024.06 (io_trps.svl 2023.06)
