@<TRIPOS>MOLECULE
NONAME
51 53 1 0 0 
SMALL
USER_CHARGES


@<TRIPOS>ATOM
  1 O       -0.2890     0.4530    -0.8380 O.2   1 <1>  -0.5700 
  2 C        0.5160    -0.3450    -0.4230 C.2   1 <1>   0.5690 
  3 N        1.6160     0.0460     0.2950 N.am  1 <1>  -0.6600 
  4 C        0.2550    -1.8040    -0.7200 C.3   1 <1>  -0.0990 
  5 C        1.9120     1.5050     0.4830 C.3   1 <1>   0.3200 
  6 C        2.6270    -0.8770     0.9000 C.3   1 <1>   0.0600 
  7 C       -0.4520    -2.4660     0.4710 C.3   1 <1>   0.1760 
  8 C        3.2670     1.8920    -0.0930 C.2   1 <1>   0.2980 
  9 N       -0.1200    -3.9190     0.5180 N.pl3 1 <1>   0.3140 
 10 C       -1.9630    -2.1800     0.5180 C.3   1 <1>  -0.2400 
 11 O        3.4340     1.8410    -1.3910 O.3   1 <1>  -0.0190 
 12 N        4.2840     2.2670     0.5780 N.2   1 <1>  -0.5650 
 13 N        0.8240    -4.3130     1.3880 N.2   1 <1>  -0.7070 
 14 C       -0.5570    -4.9640    -0.2210 C.2   1 <1>  -0.3320 
 15 N        4.6660     2.2140    -1.5620 N.2   1 <1>  -0.4100 
 16 C        5.1470     2.4610    -0.4100 C.2   1 <1>   0.4300 
 17 C        0.9520    -5.5830     1.2080 C.2   1 <1>   0.1080 
 18 C        0.1000    -6.0860     0.2160 C.2   1 <1>  -0.0860 
 19 C       -1.5720    -4.8520    -1.3540 C.3   1 <1>  -0.0600 
 20 C        6.5660     2.9320    -0.1250 C.3   1 <1>  -0.0140 
 21 C        1.9350    -6.3960     2.0260 C.3   1 <1>  -0.0590 
 22 C        0.0120    -7.4750    -0.1640 C.2   1 <1>   0.5950 
 23 C        6.8390     4.3770     0.1630 C.3   1 <1>  -0.2000 
 24 C        7.3340     3.7620    -1.1100 C.3   1 <1>  -0.2000 
 25 O        0.9350    -8.2470    -0.1070 O.2   1 <1>  -0.5700 
 26 C       -1.3080    -8.0450    -0.6350 C.3   1 <1>  -0.1790 
 27 H        1.1900    -2.2910    -0.9250 H     1 <1>   0.0800 
 28 H       -0.3510    -1.8760    -1.6030 H     1 <1>   0.0800 
 29 H        1.9040     1.7270     1.5350 H     1 <1>   0.0800 
 30 H        1.1590     2.1140     0.0160 H     1 <1>   0.0800 
 31 H        2.2260    -1.8630     1.0560 H     1 <1>   0.0800 
 32 H        2.9490    -0.4960     1.8540 H     1 <1>   0.0800 
 33 H        3.4840    -0.9510     0.2510 H     1 <1>   0.0800 
 34 H       -0.0350    -2.0490     1.3720 H     1 <1>   0.0800 
 35 H       -2.4450    -2.4380    -0.4050 H     1 <1>   0.0800 
 36 H       -2.1240    -1.1300     0.6870 H     1 <1>   0.0800 
 37 H       -2.4160    -2.7230     1.3280 H     1 <1>   0.0800 
 38 H       -1.3810    -3.9780    -1.9490 H     1 <1>   0.0800 
 39 H       -2.5690    -4.7950    -0.9560 H     1 <1>   0.0800 
 40 H       -1.5120    -5.6990    -2.0110 H     1 <1>   0.0800 
 41 H        7.1160     2.2030     0.4430 H     1 <1>   0.1000 
 42 H        2.3760    -5.7820     2.7900 H     1 <1>   0.0800 
 43 H        2.7140    -6.7710     1.3880 H     1 <1>   0.0800 
 44 H        1.4320    -7.2230     2.4910 H     1 <1>   0.0800 
 45 H        7.5460     4.6200     0.9370 H     1 <1>   0.1000 
 46 H        6.0190     5.0720     0.1190 H     1 <1>   0.1000 
 47 H        6.8580     4.0340    -2.0370 H     1 <1>   0.1000 
 48 H        8.3880     3.5770    -1.2270 H     1 <1>   0.1000 
 49 H       -2.1250    -7.4540    -0.2670 H     1 <1>   0.0800 
 50 H       -1.4150    -9.0470    -0.2630 H     1 <1>   0.0800 
 51 H       -1.3270    -8.0710    -1.7070 H     1 <1>   0.0800 
@<TRIPOS>BOND
  1   1   2  2   
  2   2   3  am  
  3   2   4  1   
  4   3   5  1   
  5   3   6  1   
  6   4   7  1   
  7   4  27  1   
  8   4  28  1   
  9   5   8  1   
 10   5  29  1   
 11   5  30  1   
 12   6  31  1   
 13   6  32  1   
 14   6  33  1   
 15   7   9  1   
 16   7  10  1   
 17   7  34  1   
 18   8  11  1   
 19   8  12  2   
 20   9  13  1   
 21   9  14  1   
 22  10  35  1   
 23  10  36  1   
 24  10  37  1   
 25  11  15  1   
 26  12  16  1   
 27  13  17  2   
 28  14  18  2   
 29  14  19  1   
 30  15  16  2   
 31  16  20  1   
 32  17  18  1   
 33  17  21  1   
 34  18  22  1   
 35  19  38  1   
 36  19  39  1   
 37  19  40  1   
 38  20  23  1   
 39  20  24  1   
 40  20  41  1   
 41  21  42  1   
 42  21  43  1   
 43  21  44  1   
 44  22  25  2   
 45  22  26  1   
 46  23  24  1   
 47  23  45  1   
 48  23  46  1   
 49  24  47  1   
 50  24  48  1   
 51  26  49  1   
 52  26  50  1   
 53  26  51  1   
@<TRIPOS>SUBSTRUCTURE
  1 ****   6 GROUP 4 **** **** 0

# MOE 2024.06 (io_trps.svl 2023.06)
