@<TRIPOS>MOLECULE
NONAME
48 50 1 0 0 
SMALL
USER_CHARGES


@<TRIPOS>ATOM
  1 O        0.1680     1.9730    -1.7460 O.2   1 <1>  -0.5700 
  2 C        0.1160     3.1370    -1.4390 C.2   1 <1>   0.5690 
  3 N       -0.7230     3.5570    -0.4670 N.am  1 <1>  -0.7300 
  4 C        0.9820     4.1630    -2.1760 C.3   1 <1>   0.1810 
  5 C       -0.8210     4.9670    -0.0200 C.3   1 <1>   0.3640 
  6 O        1.1150     5.3830    -1.4760 O.3   1 <1>  -0.5600 
  7 C       -2.2960     5.3370     0.1130 C.ar  1 <1>  -0.1440 
  8 C       -0.1030     5.9310    -1.0000 C.3   1 <1>   0.2610 
  9 C       -3.2070     5.0300    -0.8900 C.ar  1 <1>  -0.1500 
 10 C       -2.7410     6.0070     1.2440 C.ar  1 <1>  -0.1500 
 11 C        0.1610     7.3030    -0.3680 C.2   1 <1>   0.5690 
 12 C       -4.5400     5.3870    -0.7750 C.ar  1 <1>   0.0830 
 13 C       -4.0750     6.3520     1.3780 C.ar  1 <1>  -0.1500 
 14 O        0.0810     7.4640     0.8310 O.2   1 <1>  -0.5700 
 15 N        0.5320     8.3320    -1.1760 N.am  1 <1>  -0.7300 
 16 O       -5.3520     5.0840    -1.8190 O.3   1 <1>  -0.3630 
 17 C       -4.9840     6.0330     0.3840 C.ar  1 <1>   0.0830 
 18 C        0.8320     9.7050    -0.7040 C.3   1 <1>   0.3200 
 19 C       -6.0000     6.1610    -2.4630 C.3   1 <1>   0.0400 
 20 O       -6.2810     6.3620     0.5950 O.3   1 <1>  -0.3620 
 21 C        2.2070     9.7520    -0.0710 C.2   1 <1>   0.0060 
 22 C       -7.1660     5.2810     0.7890 C.3   1 <1>   0.0400 
 23 N        3.1890    10.4950    -0.4480 N.2   1 <1>  -0.3380 
 24 N        2.5400     9.0010     0.9750 N.pl3 1 <1>   0.0330 
 25 N        4.2110    10.2320     0.3720 N.2   1 <1>  -0.3380 
 26 C        3.8050     9.3410     1.2100 C.2   1 <1>   0.0060 
 27 C        4.6460     8.7450     2.3190 C.3   1 <1>  -0.0600 
 28 H       -1.3170     2.8720     0.0030 H     1 <1>   0.3700 
 29 H        0.5500     4.3680    -3.1380 H     1 <1>   0.0800 
 30 H        1.9680     3.7580    -2.3180 H     1 <1>   0.0800 
 31 H       -0.3500     5.0340     0.9460 H     1 <1>   0.0800 
 32 H       -0.7370     6.0860    -1.8540 H     1 <1>   0.0800 
 33 H       -2.8960     4.5110    -1.7800 H     1 <1>   0.1500 
 34 H       -2.0530     6.2680     2.0320 H     1 <1>   0.1500 
 35 H       -4.4190     6.8670     2.2570 H     1 <1>   0.1500 
 36 H        0.8780     8.1210    -2.1150 H     1 <1>   0.3700 
 37 H        0.7920    10.3880    -1.5340 H     1 <1>   0.0800 
 38 H        0.0950    10.0070     0.0210 H     1 <1>   0.0800 
 39 H       -6.4370     5.7920    -3.3730 H     1 <1>   0.0800 
 40 H       -5.2740     6.9230    -2.6840 H     1 <1>   0.0800 
 41 H       -6.7690     6.5510    -1.8230 H     1 <1>   0.0800 
 42 H       -8.1410     5.6800     1.0050 H     1 <1>   0.0800 
 43 H       -6.8160     4.6920     1.6180 H     1 <1>   0.0800 
 44 H       -7.2020     4.6850    -0.1040 H     1 <1>   0.0800 
 45 H        1.9330     8.3190     1.4450 H     1 <1>   0.2700 
 46 H        4.7200     7.6800     2.1940 H     1 <1>   0.0800 
 47 H        4.2050     8.9640     3.2740 H     1 <1>   0.0800 
 48 H        5.6350     9.1660     2.2900 H     1 <1>   0.0800 
@<TRIPOS>BOND
  1   1   2  2   
  2   2   3  am  
  3   2   4  1   
  4   3   5  1   
  5   3  28  1   
  6   4   6  1   
  7   4  29  1   
  8   4  30  1   
  9   5   7  1   
 10   5   8  1   
 11   5  31  1   
 12   6   8  1   
 13   7   9  ar  
 14   7  10  ar  
 15   8  11  1   
 16   8  32  1   
 17   9  12  ar  
 18   9  33  1   
 19  10  13  ar  
 20  10  34  1   
 21  11  14  2   
 22  11  15  am  
 23  12  16  1   
 24  12  17  ar  
 25  13  17  ar  
 26  13  35  1   
 27  15  18  1   
 28  15  36  1   
 29  16  19  1   
 30  17  20  1   
 31  18  21  1   
 32  18  37  1   
 33  18  38  1   
 34  19  39  1   
 35  19  40  1   
 36  19  41  1   
 37  20  22  1   
 38  21  23  2   
 39  21  24  1   
 40  22  42  1   
 41  22  43  1   
 42  22  44  1   
 43  23  25  1   
 44  24  26  1   
 45  24  45  1   
 46  25  26  2   
 47  26  27  1   
 48  27  46  1   
 49  27  47  1   
 50  27  48  1   
@<TRIPOS>SUBSTRUCTURE
  1 ****   8 GROUP 4 **** **** 0

# MOE 2024.06 (io_trps.svl 2023.06)
