@<TRIPOS>MOLECULE
NONAME
52 54 1 0 0 
SMALL
USER_CHARGES


@<TRIPOS>ATOM
  1 S       -2.4990     0.3900    -2.1580 S.3   1 <1>  -0.4600 
  2 C       -1.9120     0.9480    -0.5170 C.3   1 <1>   0.1310 
  3 C       -2.8080    -1.3800    -1.9040 C.3   1 <1>  -0.0100 
  4 C       -2.9170     0.6120     0.5820 C.2   1 <1>   0.5690 
  5 O       -2.6770    -0.3570     1.2660 O.2   1 <1>  -0.5700 
  6 N       -4.0400     1.3780     0.7900 N.am  1 <1>  -0.6600 
  7 C       -4.4350     2.5280    -0.0780 C.3   1 <1>   0.1400 
  8 C       -4.9780     1.0260     1.8990 C.3   1 <1>   0.1400 
  9 C       -5.9570     2.5750    -0.2000 C.3   1 <1>  -0.1600 
 10 C       -5.8010     2.2440     2.3260 C.3   1 <1>  -0.1600 
 11 C       -6.6300     2.8480     1.1660 C.3   1 <1>   0.2800 
 12 O       -6.5460     4.2450     1.3420 O.3   1 <1>  -0.5600 
 13 C       -8.1110     2.3470     1.2260 C.3   1 <1>   0.2000 
 14 C       -7.7110     5.0130     1.4220 C.3   1 <1>   0.1200 
 15 O       -8.1970     0.9710     0.9780 O.3   1 <1>  -0.6800 
 16 C       -9.1160     3.1800     0.3620 C.3   1 <1>   0.3000 
 17 C       -8.6350     4.6420     0.2610 C.3   1 <1>  -0.1600 
 18 N      -10.4190     3.2330     1.0810 N.am  1 <1>  -0.7300 
 19 C       -9.3110     2.6450    -1.0730 C.3   1 <1>  -0.2400 
 20 C      -11.6440     2.8130     0.6720 C.2   1 <1>   0.7160 
 21 O      -12.5130     3.6580     0.6900 O.2   1 <1>  -0.5700 
 22 C      -11.9360     1.4670     0.2440 C.2   1 <1>  -0.0860 
 23 C      -11.3200     0.2920     0.6820 C.2   1 <1>   0.1390 
 24 C      -12.8600     1.0150    -0.6490 C.2   1 <1>  -0.3020 
 25 N      -11.7890    -0.7730     0.1100 N.2   1 <1>  -0.7070 
 26 N      -12.7520    -0.3190    -0.7120 N.pl3 1 <1>   0.3000 
 27 H       -0.9810     0.4460    -0.3300 H     1 <1>   0.0800 
 28 H       -1.7430     2.0060    -0.5750 H     1 <1>   0.0800 
 29 H       -3.0690    -1.8090    -2.8540 H     1 <1>   0.0800 
 30 H       -3.6170    -1.4820    -1.2020 H     1 <1>   0.0800 
 31 H       -1.9080    -1.8240    -1.5160 H     1 <1>   0.0800 
 32 H       -4.0760     3.4450     0.3590 H     1 <1>   0.0800 
 33 H       -4.0100     2.4290    -1.0600 H     1 <1>   0.0800 
 34 H       -5.6320     0.2370     1.5680 H     1 <1>   0.0800 
 35 H       -4.4180     0.6590     2.7430 H     1 <1>   0.0800 
 36 H       -6.2710     1.6320    -0.6060 H     1 <1>   0.0800 
 37 H       -6.2270     3.3380    -0.9050 H     1 <1>   0.0800 
 38 H       -5.1140     2.9790     2.7100 H     1 <1>   0.0800 
 39 H       -6.4430     1.9550     3.1370 H     1 <1>   0.0800 
 40 H       -8.4170     2.4620     2.2510 H     1 <1>   0.0800 
 41 H       -8.1760     4.8390     2.3780 H     1 <1>   0.0800 
 42 H       -7.4200     6.0480     1.3600 H     1 <1>   0.0800 
 43 H       -8.0420     0.7770     0.0330 H     1 <1>   0.4000 
 44 H       -9.4730     5.3170     0.2240 H     1 <1>   0.0800 
 45 H       -8.0790     4.8010    -0.6450 H     1 <1>   0.0800 
 46 H      -10.5090     4.0980     1.6110 H     1 <1>   0.3700 
 47 H       -8.3910     2.6870    -1.6240 H     1 <1>   0.0800 
 48 H      -10.0330     3.2440    -1.6000 H     1 <1>   0.0800 
 49 H       -9.6400     1.6230    -1.0800 H     1 <1>   0.0800 
 50 H      -10.5390     0.2660     1.4240 H     1 <1>   0.1500 
 51 H      -13.5710     1.5860    -1.2200 H     1 <1>   0.1500 
 52 H      -13.3160    -0.9520    -1.2930 H     1 <1>   0.2700 
@<TRIPOS>BOND
  1   1   2  1   
  2   1   3  1   
  3   2   4  1   
  4   2  27  1   
  5   2  28  1   
  6   3  29  1   
  7   3  30  1   
  8   3  31  1   
  9   4   5  2   
 10   4   6  am  
 11   6   7  1   
 12   6   8  1   
 13   7   9  1   
 14   7  32  1   
 15   7  33  1   
 16   8  10  1   
 17   8  34  1   
 18   8  35  1   
 19   9  11  1   
 20   9  36  1   
 21   9  37  1   
 22  10  11  1   
 23  10  38  1   
 24  10  39  1   
 25  11  12  1   
 26  11  13  1   
 27  12  14  1   
 28  13  15  1   
 29  13  16  1   
 30  13  40  1   
 31  14  17  1   
 32  14  41  1   
 33  14  42  1   
 34  15  43  1   
 35  16  17  1   
 36  16  18  1   
 37  16  19  1   
 38  17  44  1   
 39  17  45  1   
 40  18  20  am  
 41  18  46  1   
 42  19  47  1   
 43  19  48  1   
 44  19  49  1   
 45  20  21  2   
 46  20  22  1   
 47  22  23  1   
 48  22  24  2   
 49  23  25  2   
 50  23  50  1   
 51  24  26  1   
 52  24  51  1   
 53  25  26  1   
 54  26  52  1   
@<TRIPOS>SUBSTRUCTURE
  1 ****  13 GROUP 4 **** **** 0

# MOE 2024.06 (io_trps.svl 2023.06)
