@<TRIPOS>MOLECULE
NONAME
48 50 1 0 0 
SMALL
USER_CHARGES


@<TRIPOS>ATOM
  1 N        2.8500    -3.7230    -1.0120 N.2   1 <1>  -0.3380 
  2 N        2.6380    -3.0950    -2.1680 N.2   1 <1>  -0.3380 
  3 C        2.2960    -3.0140    -0.0870 C.2   1 <1>   0.0070 
  4 C        1.9690    -2.0300    -1.8940 C.2   1 <1>   0.0360 
  5 N        1.7140    -1.9170    -0.5880 N.pl3 1 <1>   0.0480 
  6 C        2.3020    -3.3860     1.3860 C.3   1 <1>   0.2900 
  7 C        0.9660    -0.8420     0.1150 C.3   1 <1>   0.1760 
  8 N        0.9370    -3.6420     1.9080 N.3   1 <1>  -0.8100 
  9 C       -0.4000    -0.6120    -0.5420 C.3   1 <1>  -0.2400 
 10 C        1.7920     0.4480     0.1280 C.3   1 <1>  -0.2400 
 11 C        0.3500    -4.8680     1.3140 C.3   1 <1>   0.1100 
 12 C        0.9800    -3.7590     3.3710 C.3   1 <1>   0.0300 
 13 C       -0.5350    -4.5350     0.1110 C.3   1 <1>   0.0960 
 14 N       -1.1460    -5.7730    -0.4090 N.pl3 1 <1>   0.0480 
 15 C       -2.2990    -6.3540     0.0680 C.ar  1 <1>  -0.1520 
 16 C       -0.6530    -6.5740    -1.4070 C.2   1 <1>  -0.3320 
 17 C       -2.5280    -7.5250    -0.6470 C.ar  1 <1>   0.0000 
 18 C       -3.1800    -5.9580     1.0810 C.ar  1 <1>  -0.1500 
 19 C       -1.4720    -7.6390    -1.5740 C.2   1 <1>  -0.1500 
 20 C        0.6240    -6.2620    -2.1720 C.3   1 <1>  -0.0600 
 21 C       -3.6450    -8.3130    -0.3560 C.ar  1 <1>  -0.1500 
 22 C       -4.2760    -6.7420     1.3590 C.ar  1 <1>  -0.1500 
 23 C       -4.5100    -7.9200     0.6400 C.ar  1 <1>  -0.1500 
 24 H        1.6450    -1.3080    -2.6210 H     1 <1>   0.1500 
 25 H        2.7500    -2.5750     1.9330 H     1 <1>   0.0800 
 26 H        2.9190    -4.2580     1.5290 H     1 <1>   0.0800 
 27 H        0.8000    -1.1540     1.1310 H     1 <1>   0.0800 
 28 H       -0.2900    -0.2520    -1.5500 H     1 <1>   0.0800 
 29 H       -0.9560     0.1180     0.0180 H     1 <1>   0.0800 
 30 H       -0.9660    -1.5260    -0.5510 H     1 <1>   0.0800 
 31 H        1.9640     0.8030    -0.8730 H     1 <1>   0.0800 
 32 H        2.7400     0.2770     0.6090 H     1 <1>   0.0800 
 33 H        1.2710     1.2130     0.6760 H     1 <1>   0.0800 
 34 H       -0.2700    -5.3650     2.0410 H     1 <1>   0.0800 
 35 H        1.1260    -5.5530     1.0150 H     1 <1>   0.0800 
 36 H        1.3850    -2.8600     3.8040 H     1 <1>   0.0800 
 37 H        1.5880    -4.5980     3.6670 H     1 <1>   0.0800 
 38 H       -0.0160    -3.8960     3.7570 H     1 <1>   0.0800 
 39 H        0.0360    -4.0850    -0.6760 H     1 <1>   0.0800 
 40 H       -1.3160    -3.8610     0.4060 H     1 <1>   0.0800 
 41 H       -2.9970    -5.0530     1.6300 H     1 <1>   0.1500 
 42 H       -1.3730    -8.4510    -2.2710 H     1 <1>   0.1500 
 43 H        0.5390    -5.3170    -2.6790 H     1 <1>   0.0800 
 44 H        0.8160    -7.0250    -2.9040 H     1 <1>   0.0800 
 45 H        1.4620    -6.2160    -1.5000 H     1 <1>   0.0800 
 46 H       -3.8090    -9.2140    -0.9170 H     1 <1>   0.1500 
 47 H       -4.9660    -6.4560     2.1330 H     1 <1>   0.1500 
 48 H       -5.3740    -8.5160     0.8760 H     1 <1>   0.1500 
@<TRIPOS>BOND
  1   1   2  1   
  2   1   3  2   
  3   2   4  2   
  4   3   5  1   
  5   3   6  1   
  6   4   5  1   
  7   4  24  1   
  8   5   7  1   
  9   6   8  1   
 10   6  25  1   
 11   6  26  1   
 12   7   9  1   
 13   7  10  1   
 14   7  27  1   
 15   8  11  1   
 16   8  12  1   
 17   9  28  1   
 18   9  29  1   
 19   9  30  1   
 20  10  31  1   
 21  10  32  1   
 22  10  33  1   
 23  11  13  1   
 24  11  34  1   
 25  11  35  1   
 26  12  36  1   
 27  12  37  1   
 28  12  38  1   
 29  13  14  1   
 30  13  39  1   
 31  13  40  1   
 32  14  15  1   
 33  14  16  1   
 34  15  17  ar  
 35  15  18  ar  
 36  16  19  2   
 37  16  20  1   
 38  17  19  1   
 39  17  21  ar  
 40  18  22  ar  
 41  18  41  1   
 42  19  42  1   
 43  20  43  1   
 44  20  44  1   
 45  20  45  1   
 46  21  23  ar  
 47  21  46  1   
 48  22  23  ar  
 49  22  47  1   
 50  23  48  1   
@<TRIPOS>SUBSTRUCTURE
  1 ****  13 GROUP 4 **** **** 0

# MOE 2024.06 (io_trps.svl 2023.06)
