@<TRIPOS>MOLECULE
NONAME
49 53 1 0 0 
SMALL
USER_CHARGES


@<TRIPOS>ATOM
  1 S        0.5290     0.6180     2.1640 S.3   1 <1>  -0.0800 
  2 C       -0.7780     1.3070     1.2130 C.2   1 <1>  -0.1400 
  3 C       -0.5670    -0.5610     2.8730 C.2   1 <1>  -0.1100 
  4 C       -1.9300     0.6690     1.4580 C.2   1 <1>  -0.1810 
  5 C       -0.5740     2.4740     0.2520 C.3   1 <1>   0.4600 
  6 C       -1.8180    -0.4020     2.4000 C.2   1 <1>  -0.1500 
  7 C       -3.1920     1.1130     0.7550 C.3   1 <1>   0.0210 
  8 O       -1.7750     2.6740    -0.4710 O.3   1 <1>  -0.5600 
  9 C        0.5060     2.1520    -0.7830 C.3   1 <1>  -0.1600 
 10 C       -0.2170     3.7680     0.9940 C.3   1 <1>  -0.1600 
 11 C       -2.9940     2.5460     0.2230 C.3   1 <1>   0.1200 
 12 C        0.7310     3.3230    -1.7400 C.3   1 <1>   0.1400 
 13 C        0.0190     4.9280     0.0240 C.3   1 <1>   0.1400 
 14 N        1.0720     4.5520    -0.9640 N.am  1 <1>  -0.6600 
 15 C        2.2780     5.1980    -1.1580 C.2   1 <1>   0.5690 
 16 O        3.1160     4.7270    -1.8950 O.2   1 <1>  -0.5700 
 17 C        2.6290     6.5710    -0.5570 C.3   1 <1>   0.1610 
 18 C        2.8070     6.5670     0.9590 C.2   1 <1>   0.0060 
 19 C        1.6530     7.6690    -1.0430 C.3   1 <1>  -0.1600 
 20 N        2.6320     5.5770     1.7500 N.2   1 <1>  -0.3380 
 21 N        3.1910     7.6210     1.6590 N.pl3 1 <1>   0.3140 
 22 C        2.2140     9.1000    -0.9870 C.3   1 <1>  -0.1600 
 23 N        2.8990     6.0310     2.9670 N.2   1 <1>   0.0000 
 24 N        3.2390     7.2670     2.9230 N.2   1 <1>  -0.4180 
 25 C        3.5530     8.9790     1.2100 C.3   1 <1>   0.0960 
 26 C        2.4170     9.6560     0.4310 C.3   1 <1>  -0.1600 
 27 H       -0.1510    -1.2570     3.5790 H     1 <1>   0.1500 
 28 H       -2.6720    -0.9960     2.6740 H     1 <1>   0.1500 
 29 H       -4.0220     1.0980     1.4370 H     1 <1>   0.0800 
 30 H       -3.4080     0.4460    -0.0610 H     1 <1>   0.0800 
 31 H        0.2190     1.2760    -1.3340 H     1 <1>   0.0800 
 32 H        1.4340     1.9360    -0.2870 H     1 <1>   0.0800 
 33 H        0.6810     3.6080     1.5620 H     1 <1>   0.0800 
 34 H       -0.9890     4.0200     1.6950 H     1 <1>   0.0800 
 35 H       -2.9990     3.2500     1.0360 H     1 <1>   0.0800 
 36 H       -3.7870     2.8010    -0.4580 H     1 <1>   0.0800 
 37 H       -0.1630     3.5050    -2.3120 H     1 <1>   0.0800 
 38 H        1.5170     3.0710    -2.4320 H     1 <1>   0.0800 
 39 H        0.2990     5.7950     0.5890 H     1 <1>   0.0800 
 40 H       -0.8920     5.1520    -0.5040 H     1 <1>   0.0800 
 41 H        3.5940     6.8150    -0.9640 H     1 <1>   0.0800 
 42 H        0.7340     7.6270    -0.4880 H     1 <1>   0.0800 
 43 H        1.4090     7.4590    -2.0710 H     1 <1>   0.0800 
 44 H        1.5160     9.7450    -1.4950 H     1 <1>   0.0800 
 45 H        3.1390     9.1520    -1.5370 H     1 <1>   0.0800 
 46 H        4.4420     8.9180     0.6090 H     1 <1>   0.0800 
 47 H        3.7820     9.5640     2.0840 H     1 <1>   0.0800 
 48 H        1.5010     9.5970     0.9950 H     1 <1>   0.0800 
 49 H        2.6630    10.7000     0.3400 H     1 <1>   0.0800 
@<TRIPOS>BOND
  1   1   2  1   
  2   1   3  1   
  3   2   4  2   
  4   2   5  1   
  5   3   6  2   
  6   3  27  1   
  7   4   6  1   
  8   4   7  1   
  9   5   8  1   
 10   5   9  1   
 11   5  10  1   
 12   6  28  1   
 13   7  11  1   
 14   7  29  1   
 15   7  30  1   
 16   8  11  1   
 17   9  12  1   
 18   9  31  1   
 19   9  32  1   
 20  10  13  1   
 21  10  33  1   
 22  10  34  1   
 23  11  35  1   
 24  11  36  1   
 25  12  14  1   
 26  12  37  1   
 27  12  38  1   
 28  13  14  1   
 29  13  39  1   
 30  13  40  1   
 31  14  15  am  
 32  15  16  2   
 33  15  17  1   
 34  17  18  1   
 35  17  19  1   
 36  17  41  1   
 37  18  20  2   
 38  18  21  1   
 39  19  22  1   
 40  19  42  1   
 41  19  43  1   
 42  20  23  1   
 43  21  24  1   
 44  21  25  1   
 45  22  26  1   
 46  22  44  1   
 47  22  45  1   
 48  23  24  2   
 49  25  26  1   
 50  25  46  1   
 51  25  47  1   
 52  26  48  1   
 53  26  49  1   
@<TRIPOS>SUBSTRUCTURE
  1 ****  13 GROUP 4 **** **** 0

# MOE 2024.06 (io_trps.svl 2023.06)
