@<TRIPOS>MOLECULE
NONAME
46 48 1 0 0 
SMALL
USER_CHARGES


@<TRIPOS>ATOM
  1 S        0.1010     0.6640    -0.5610 S.o2  1 <1>   1.0900 
  2 O       -0.1210    -0.6920    -1.0070 O.2   1 <1>  -0.6500 
  3 O       -0.9940     1.6070    -0.5610 O.2   1 <1>  -0.6500 
  4 C        0.7650     0.5860     1.0880 C.3   1 <1>  -0.0550 
  5 C        1.4130     1.3610    -1.5410 C.3   1 <1>  -0.0550 
  6 C        1.7880     1.6860     1.2930 C.3   1 <1>   0.2090 
  7 C        2.7590     0.9320    -0.9870 C.3   1 <1>   0.2090 
  8 N        2.9590     1.4720     0.3940 N.pl3 1 <1>  -0.8380 
  9 C        4.0210     2.3480     0.5770 C.ar  1 <1>   0.1000 
 10 C        4.0730     3.5640    -0.0880 C.ar  1 <1>  -0.1500 
 11 C        5.0540     2.0110     1.4380 C.ar  1 <1>  -0.1500 
 12 C        5.1310     4.4540     0.0760 C.ar  1 <1>   0.0860 
 13 C        6.1200     2.8710     1.6220 C.ar  1 <1>  -0.1500 
 14 C        5.1460     5.7180    -0.6410 C.2   1 <1>   0.5440 
 15 C        6.1580     4.0770     0.9450 C.ar  1 <1>  -0.1500 
 16 O        4.5370     5.8520    -1.6840 O.2   1 <1>  -0.5700 
 17 N        5.8290     6.7920    -0.1550 N.am  1 <1>  -0.7300 
 18 C        5.9680     8.0940    -0.8520 C.3   1 <1>   0.3200 
 19 C        7.3580     8.6630    -0.6250 C.2   1 <1>   0.1980 
 20 S        8.6580     8.0160    -1.6030 S.3   1 <1>  -0.0800 
 21 N        7.7230     9.5600     0.2030 N.2   1 <1>  -0.5650 
 22 C        9.7620     9.0850    -0.7880 C.2   1 <1>  -0.1100 
 23 C        9.0840     9.8090     0.1170 C.2   1 <1>   0.0460 
 24 C        9.6310    10.8710     1.0590 C.3   1 <1>   0.0210 
 25 C       11.1410    11.0980     0.9150 C.3   1 <1>  -0.2400 
 26 H        1.2460    -0.3590     1.2520 H     1 <1>   0.0800 
 27 H       -0.0270     0.6850     1.8040 H     1 <1>   0.0800 
 28 H        1.3610     2.4320    -1.5290 H     1 <1>   0.0800 
 29 H        1.3180     1.0360    -2.5590 H     1 <1>   0.0800 
 30 H        2.1260     1.6770     2.3160 H     1 <1>   0.0800 
 31 H        1.3450     2.6490     1.0940 H     1 <1>   0.0800 
 32 H        3.5450     1.2880    -1.6330 H     1 <1>   0.0800 
 33 H        2.8190    -0.1430    -0.9580 H     1 <1>   0.0800 
 34 H        3.2710     3.8300    -0.7510 H     1 <1>   0.1500 
 35 H        5.0140     1.0690     1.9550 H     1 <1>   0.1500 
 36 H        6.9200     2.5970     2.2880 H     1 <1>   0.1500 
 37 H        7.0030     4.7260     1.0880 H     1 <1>   0.1500 
 38 H        6.2820     6.7540     0.7590 H     1 <1>   0.3700 
 39 H        5.2390     8.7800    -0.4610 H     1 <1>   0.0800 
 40 H        5.7940     7.9760    -1.9080 H     1 <1>   0.0800 
 41 H       10.7960     9.0550    -1.0770 H     1 <1>   0.1500 
 42 H        9.4110    10.5750     2.0700 H     1 <1>   0.0800 
 43 H        9.1140    11.7940     0.8680 H     1 <1>   0.0800 
 44 H       11.6780    10.1910     1.1280 H     1 <1>   0.0800 
 45 H       11.4640    11.8570     1.6060 H     1 <1>   0.0800 
 46 H       11.3770    11.4220    -0.0830 H     1 <1>   0.0800 
@<TRIPOS>BOND
  1   1   2  2   
  2   1   3  2   
  3   1   4  1   
  4   1   5  1   
  5   4   6  1   
  6   4  26  1   
  7   4  27  1   
  8   5   7  1   
  9   5  28  1   
 10   5  29  1   
 11   6   8  1   
 12   6  30  1   
 13   6  31  1   
 14   7   8  1   
 15   7  32  1   
 16   7  33  1   
 17   8   9  1   
 18   9  10  ar  
 19   9  11  ar  
 20  10  12  ar  
 21  10  34  1   
 22  11  13  ar  
 23  11  35  1   
 24  12  14  1   
 25  12  15  ar  
 26  13  15  ar  
 27  13  36  1   
 28  14  16  2   
 29  14  17  am  
 30  15  37  1   
 31  17  18  1   
 32  17  38  1   
 33  18  19  1   
 34  18  39  1   
 35  18  40  1   
 36  19  20  1   
 37  19  21  2   
 38  20  22  1   
 39  21  23  1   
 40  22  23  2   
 41  22  41  1   
 42  23  24  1   
 43  24  25  1   
 44  24  42  1   
 45  24  43  1   
 46  25  44  1   
 47  25  45  1   
 48  25  46  1   
@<TRIPOS>SUBSTRUCTURE
  1 ****  12 GROUP 4 **** **** 0

# MOE 2024.06 (io_trps.svl 2023.06)
