@<TRIPOS>MOLECULE
NONAME
60 63 1 0 0 
SMALL
USER_CHARGES


@<TRIPOS>ATOM
  1 O       -0.6350    -1.1860    -1.9940 O.3   1 <1>  -0.5600 
  2 C        0.0360    -1.8240    -0.9540 C.3   1 <1>   0.2800 
  3 C       -1.1510     0.0950    -1.7540 C.3   1 <1>   0.1200 
  4 C       -0.9100    -1.9290     0.2690 C.3   1 <1>  -0.1600 
  5 C        1.3760    -1.1030    -0.7060 C.3   1 <1>  -0.1600 
  6 C        0.3560    -3.2260    -1.4890 C.3   1 <1>  -0.1600 
  7 C       -2.1810     0.0400    -0.6240 C.3   1 <1>  -0.1600 
  8 C       -1.6130    -0.6200     0.6340 C.3   1 <1>   0.2800 
  9 C        2.2470    -1.8800     0.2710 C.3   1 <1>   0.3430 
 10 C        1.2420    -4.0070    -0.5230 C.3   1 <1>   0.3430 
 11 O       -0.6840     0.2190     1.2000 O.3   1 <1>  -0.6800 
 12 C       -2.6920    -0.8340     1.6940 C.3   1 <1>  -0.2400 
 13 N        2.5000    -3.2520    -0.2650 N.4   1 <1>  -0.9590 
 14 C        3.4290    -4.0160     0.6100 C.3   1 <1>   0.4860 
 15 C        4.7810    -3.3290     0.5960 C.ar  1 <1>  -0.1440 
 16 C        5.6240    -3.4550    -0.5010 C.ar  1 <1>  -0.1500 
 17 C        5.1840    -2.5610     1.6790 C.ar  1 <1>  -0.1500 
 18 C        6.8490    -2.8110    -0.5210 C.ar  1 <1>  -0.1500 
 19 C        6.4070    -1.9170     1.6580 C.ar  1 <1>  -0.1500 
 20 C        7.2460    -2.0330     0.5620 C.ar  1 <1>   0.0820 
 21 O        8.4220    -1.3660     0.6280 O.3   1 <1>  -0.3620 
 22 C        9.4070    -1.4960    -0.3750 C.3   1 <1>   0.2640 
 23 C       10.6090    -0.6410    -0.0050 C.ar  1 <1>  -0.1440 
 24 C       11.8490    -1.2220     0.2150 C.ar  1 <1>  -0.1500 
 25 C       10.4750     0.7350     0.1100 C.ar  1 <1>  -0.1500 
 26 C       12.9420    -0.4360     0.5400 C.ar  1 <1>  -0.1500 
 27 C       11.5670     1.5210     0.4340 C.ar  1 <1>  -0.1500 
 28 C       12.8020     0.9360     0.6490 C.ar  1 <1>  -0.1500 
 29 H       -1.6180     0.4310    -2.6640 H     1 <1>   0.0800 
 30 H       -0.3460     0.7690    -1.5190 H     1 <1>   0.0800 
 31 H       -0.3990    -2.3090     1.1330 H     1 <1>   0.0800 
 32 H       -1.6790    -2.6410     0.0270 H     1 <1>   0.0800 
 33 H        1.2280    -0.1220    -0.3020 H     1 <1>   0.0800 
 34 H        1.9040    -0.9890    -1.6350 H     1 <1>   0.0800 
 35 H        0.8550    -3.1470    -2.4390 H     1 <1>   0.0800 
 36 H       -0.5570    -3.7710    -1.6500 H     1 <1>   0.0800 
 37 H       -3.0220    -0.5300    -0.9750 H     1 <1>   0.0800 
 38 H       -2.5370     1.0300    -0.4020 H     1 <1>   0.0800 
 39 H        1.7520    -1.9370     1.2280 H     1 <1>   0.0800 
 40 H        3.1800    -1.3550     0.4040 H     1 <1>   0.0800 
 41 H        1.4690    -4.9710    -0.9500 H     1 <1>   0.0800 
 42 H        0.7120    -4.1630     0.4030 H     1 <1>   0.0800 
 43 H       -1.1330     1.0250     1.5210 H     1 <1>   0.4000 
 44 H       -3.4470    -1.5030     1.3220 H     1 <1>   0.0800 
 45 H       -3.1700     0.0960     1.9460 H     1 <1>   0.0800 
 46 H       -2.2680    -1.2670     2.5820 H     1 <1>   0.0800 
 47 H        2.9860    -3.1220    -1.1610 H     1 <1>   0.4500 
 48 H        3.5420    -5.0230     0.2420 H     1 <1>   0.0800 
 49 H        3.0470    -4.0600     1.6160 H     1 <1>   0.0800 
 50 H        5.3430    -4.0560    -1.3490 H     1 <1>   0.1500 
 51 H        4.5590    -2.4530     2.5500 H     1 <1>   0.1500 
 52 H        7.4800    -2.9260    -1.3840 H     1 <1>   0.1500 
 53 H        6.7270    -1.3190     2.4930 H     1 <1>   0.1500 
 54 H        8.9910    -1.1580    -1.3080 H     1 <1>   0.0800 
 55 H        9.6810    -2.5330    -0.4470 H     1 <1>   0.0800 
 56 H       11.9730    -2.2880     0.1370 H     1 <1>   0.1500 
 57 H        9.5150     1.1960    -0.0500 H     1 <1>   0.1500 
 58 H       13.9010    -0.8930     0.7100 H     1 <1>   0.1500 
 59 H       11.4530     2.5880     0.5220 H     1 <1>   0.1500 
 60 H       13.6510     1.5460     0.9020 H     1 <1>   0.1500 
@<TRIPOS>BOND
  1   1   2  1   
  2   1   3  1   
  3   2   4  1   
  4   2   5  1   
  5   2   6  1   
  6   3   7  1   
  7   3  29  1   
  8   3  30  1   
  9   4   8  1   
 10   4  31  1   
 11   4  32  1   
 12   5   9  1   
 13   5  33  1   
 14   5  34  1   
 15   6  10  1   
 16   6  35  1   
 17   6  36  1   
 18   7   8  1   
 19   7  37  1   
 20   7  38  1   
 21   8  11  1   
 22   8  12  1   
 23   9  13  1   
 24   9  39  1   
 25   9  40  1   
 26  10  13  1   
 27  10  41  1   
 28  10  42  1   
 29  11  43  1   
 30  12  44  1   
 31  12  45  1   
 32  12  46  1   
 33  13  14  1   
 34  13  47  1   
 35  14  15  1   
 36  14  48  1   
 37  14  49  1   
 38  15  16  ar  
 39  15  17  ar  
 40  16  18  ar  
 41  16  50  1   
 42  17  19  ar  
 43  17  51  1   
 44  18  20  ar  
 45  18  52  1   
 46  19  20  ar  
 47  19  53  1   
 48  20  21  1   
 49  21  22  1   
 50  22  23  1   
 51  22  54  1   
 52  22  55  1   
 53  23  24  ar  
 54  23  25  ar  
 55  24  26  ar  
 56  24  56  1   
 57  25  27  ar  
 58  25  57  1   
 59  26  28  ar  
 60  26  58  1   
 61  27  28  ar  
 62  27  59  1   
 63  28  60  1   
@<TRIPOS>SUBSTRUCTURE
  1 ****  15 GROUP 4 **** **** 0

# MOE 2024.06 (io_trps.svl 2023.06)
