@<TRIPOS>MOLECULE
NONAME
48 51 1 0 0 
SMALL
USER_CHARGES


@<TRIPOS>ATOM
  1 O       -0.5870     0.3170     1.3980 O.2   1 <1>  -0.5700 
  2 C       -1.5570     0.9900     1.1000 C.2   1 <1>   0.5440 
  3 N       -2.7580     0.3570     0.8670 N.am  1 <1>  -0.6600 
  4 C       -1.4300     2.4270     0.9750 C.ar  1 <1>   0.0860 
  5 C       -3.8320     0.9110     0.0010 C.3   1 <1>   0.1400 
  6 C       -2.9440    -1.1050     1.0090 C.3   1 <1>   0.1400 
  7 C       -0.4230     2.9920     0.2080 C.ar  1 <1>  -0.1500 
  8 C       -2.3320     3.2910     1.6340 C.ar  1 <1>  -0.1500 
  9 C       -4.7090    -0.2840    -0.4050 C.3   1 <1>   0.2000 
 10 C       -3.8010    -1.5000    -0.1930 C.3   1 <1>  -0.0800 
 11 C       -0.3280     4.3720     0.0770 C.ar  1 <1>   0.2270 
 12 C       -2.2480     4.6590     1.5190 C.ar  1 <1>  -0.1500 
 13 O       -5.8050    -0.3840     0.4590 O.3   1 <1>  -0.5600 
 14 C       -4.5410    -2.8360    -0.0090 C.3   1 <1>   0.0200 
 15 N        0.5640     5.1170    -0.6330 N.2   1 <1>  -0.5650 
 16 C       -1.2310     5.1930     0.7250 C.ar  1 <1>  -0.1520 
 17 C       -6.9170     0.3750     0.1000 C.3   1 <1>   0.0400 
 18 C       -3.6070    -4.0350     0.0210 C.2   1 <1>  -0.0400 
 19 C        0.2130     6.3340    -0.4160 C.2   1 <1>   0.0070 
 20 N       -0.8670     6.4560     0.3990 N.pl3 1 <1>   0.0330 
 21 O       -4.1100    -5.2180     0.2530 O.3   1 <1>  -0.0190 
 22 C       -2.2830    -4.1830    -0.1510 C.2   1 <1>  -0.1500 
 23 C        0.9240     7.5330    -1.0040 C.3   1 <1>  -0.0600 
 24 N       -3.1980    -6.1470     0.2480 N.2   1 <1>  -0.4100 
 25 C       -2.0860    -5.5510     0.0080 C.2   1 <1>   0.1080 
 26 C       -0.7480    -6.2490    -0.0850 C.3   1 <1>  -0.0590 
 27 H       -4.4040     1.6540     0.5270 H     1 <1>   0.0800 
 28 H       -3.3840     1.3500    -0.8740 H     1 <1>   0.0800 
 29 H       -2.0030    -1.6270     1.0210 H     1 <1>   0.0800 
 30 H       -3.4700    -1.2980     1.9290 H     1 <1>   0.0800 
 31 H        0.2980     2.3750    -0.2960 H     1 <1>   0.1500 
 32 H       -3.0980     2.8490     2.2470 H     1 <1>   0.1500 
 33 H       -5.0600    -0.2180    -1.4210 H     1 <1>   0.0800 
 34 H       -3.1520    -1.5760    -1.0480 H     1 <1>   0.0800 
 35 H       -2.9390     5.3090     2.0260 H     1 <1>   0.1500 
 36 H       -5.2380    -2.9710    -0.8170 H     1 <1>   0.0800 
 37 H       -5.1060    -2.8180     0.9070 H     1 <1>   0.0800 
 38 H       -7.6770     0.2270     0.8460 H     1 <1>   0.0800 
 39 H       -7.2810     0.0400    -0.8560 H     1 <1>   0.0800 
 40 H       -6.6480     1.4160     0.0610 H     1 <1>   0.0800 
 41 H       -1.3120     7.3220     0.7090 H     1 <1>   0.2700 
 42 H       -1.5210    -3.4560    -0.3630 H     1 <1>   0.1500 
 43 H        1.7460     7.2030    -1.6140 H     1 <1>   0.0800 
 44 H        1.3090     8.1570    -0.2180 H     1 <1>   0.0800 
 45 H        0.2480     8.1010    -1.6160 H     1 <1>   0.0800 
 46 H       -0.0590    -5.8120     0.6140 H     1 <1>   0.0800 
 47 H       -0.3550    -6.1520    -1.0800 H     1 <1>   0.0800 
 48 H       -0.8630    -7.2930     0.1440 H     1 <1>   0.0800 
@<TRIPOS>BOND
  1   1   2  2   
  2   2   3  am  
  3   2   4  1   
  4   3   5  1   
  5   3   6  1   
  6   4   7  ar  
  7   4   8  ar  
  8   5   9  1   
  9   5  27  1   
 10   5  28  1   
 11   6  10  1   
 12   6  29  1   
 13   6  30  1   
 14   7  11  ar  
 15   7  31  1   
 16   8  12  ar  
 17   8  32  1   
 18   9  10  1   
 19   9  13  1   
 20   9  33  1   
 21  10  14  1   
 22  10  34  1   
 23  11  15  1   
 24  11  16  ar  
 25  12  16  ar  
 26  12  35  1   
 27  13  17  1   
 28  14  18  1   
 29  14  36  1   
 30  14  37  1   
 31  15  19  2   
 32  16  20  1   
 33  17  38  1   
 34  17  39  1   
 35  17  40  1   
 36  18  21  1   
 37  18  22  2   
 38  19  20  1   
 39  19  23  1   
 40  20  41  1   
 41  21  24  1   
 42  22  25  1   
 43  22  42  1   
 44  23  43  1   
 45  23  44  1   
 46  23  45  1   
 47  24  25  2   
 48  25  26  1   
 49  26  46  1   
 50  26  47  1   
 51  26  48  1   
@<TRIPOS>SUBSTRUCTURE
  1 ****   3 GROUP 4 **** **** 0

# MOE 2024.06 (io_trps.svl 2023.06)
