@<TRIPOS>MOLECULE
NONAME
52 54 1 0 0 
SMALL
USER_CHARGES


@<TRIPOS>ATOM
  1 O        0.3990    -1.9210     2.5800 O.2   1 <1>  -0.5700 
  2 C        0.8580    -2.2870     1.5100 C.2   1 <1>   0.5440 
  3 N        1.0960    -1.3080     0.5600 N.am  1 <1>  -0.6600 
  4 C        1.1510    -3.7100     1.3180 C.ar  1 <1>   0.3960 
  5 C        1.7670    -1.5030    -0.7460 C.3   1 <1>   0.1400 
  6 C        0.8760     0.1320     0.8250 C.3   1 <1>   0.1400 
  7 N        1.0580    -4.2890     0.1070 N.ar  1 <1>  -0.6200 
  8 C        1.5210    -4.4500     2.4480 C.ar  1 <1>   0.1600 
  9 C        1.8580    -0.1110    -1.3630 C.3   1 <1>  -0.1600 
 10 C        1.7640     0.8510    -0.1820 C.3   1 <1>  -0.1600 
 11 C        1.3480    -5.5710     0.1110 C.ar  1 <1>   0.4100 
 12 N        1.8310    -5.7400     2.4640 N.ar  1 <1>  -0.6200 
 13 N        1.2260    -6.1570    -1.1220 N.pl3 1 <1>  -0.8690 
 14 C        1.7400    -6.2700     1.2620 C.ar  1 <1>   0.1600 
 15 C        0.1720    -7.1630    -1.4130 C.3   1 <1>   0.2890 
 16 C       -1.0740    -6.9880    -0.5250 C.3   1 <1>   0.1200 
 17 C        0.7910    -8.5560    -1.2960 C.3   1 <1>  -0.2400 
 18 O       -2.0820    -7.8800    -0.9510 O.3   1 <1>  -0.3630 
 19 C       -3.1700    -7.9550    -0.1520 C.ar  1 <1>   0.0830 
 20 C       -4.2310    -7.0710    -0.3380 C.ar  1 <1>  -0.1430 
 21 C       -3.2170    -8.9270     0.8450 C.ar  1 <1>  -0.1430 
 22 C       -5.3270    -7.1490     0.5050 C.ar  1 <1>  -0.1500 
 23 C       -4.2170    -6.0260    -1.4450 C.3   1 <1>  -0.0970 
 24 C       -4.3240    -8.9870     1.6750 C.ar  1 <1>  -0.1500 
 25 C       -2.0800    -9.9200     1.0350 C.3   1 <1>  -0.0970 
 26 C       -5.3730    -8.1000     1.5090 C.ar  1 <1>  -0.1500 
 27 H        1.1950    -2.1620    -1.3770 H     1 <1>   0.0800 
 28 H        2.7500    -1.9120    -0.5850 H     1 <1>   0.0800 
 29 H        1.1380     0.3890     1.8380 H     1 <1>   0.0800 
 30 H       -0.1610     0.3640     0.6510 H     1 <1>   0.0800 
 31 H        1.5640    -3.9360     3.3930 H     1 <1>   0.1500 
 32 H        1.0170     0.0350    -2.0180 H     1 <1>   0.0800 
 33 H        2.7660     0.0180    -1.9260 H     1 <1>   0.0800 
 34 H        2.7380     0.9940     0.2530 H     1 <1>   0.0800 
 35 H        1.3600     1.8070    -0.4610 H     1 <1>   0.0800 
 36 H        1.2080    -5.4230    -1.8350 H     1 <1>   0.4000 
 37 H        1.9850    -7.3090     1.1560 H     1 <1>   0.1500 
 38 H       -0.1390    -7.0160    -2.4340 H     1 <1>   0.0800 
 39 H       -1.4560    -5.9870    -0.6090 H     1 <1>   0.0800 
 40 H       -0.8470    -7.2060     0.5030 H     1 <1>   0.0800 
 41 H        1.0370    -8.7830    -0.2770 H     1 <1>   0.0800 
 42 H        1.6760    -8.6190    -1.9030 H     1 <1>   0.0800 
 43 H        0.0890    -9.2920    -1.6440 H     1 <1>   0.0800 
 44 H       -6.1530    -6.4710     0.3850 H     1 <1>   0.1500 
 45 H       -3.7650    -6.4290    -2.3330 H     1 <1>   0.0800 
 46 H       -3.6610    -5.1640    -1.1280 H     1 <1>   0.0800 
 47 H       -5.2180    -5.7200    -1.6900 H     1 <1>   0.0800 
 48 H       -4.3780    -9.7250     2.4560 H     1 <1>   0.1500 
 49 H       -1.7870   -10.3290     0.0840 H     1 <1>   0.0800 
 50 H       -2.3810   -10.7320     1.6720 H     1 <1>   0.0800 
 51 H       -1.2340    -9.4280     1.4790 H     1 <1>   0.0800 
 52 H       -6.2280    -8.1520     2.1600 H     1 <1>   0.1500 
@<TRIPOS>BOND
  1   1   2  2   
  2   2   3  am  
  3   2   4  1   
  4   3   5  1   
  5   3   6  1   
  6   4   7  ar  
  7   4   8  ar  
  8   5   9  1   
  9   5  27  1   
 10   5  28  1   
 11   6  10  1   
 12   6  29  1   
 13   6  30  1   
 14   7  11  ar  
 15   8  12  ar  
 16   8  31  1   
 17   9  10  1   
 18   9  32  1   
 19   9  33  1   
 20  10  34  1   
 21  10  35  1   
 22  11  13  1   
 23  11  14  ar  
 24  12  14  ar  
 25  13  15  1   
 26  13  36  1   
 27  14  37  1   
 28  15  16  1   
 29  15  17  1   
 30  15  38  1   
 31  16  18  1   
 32  16  39  1   
 33  16  40  1   
 34  17  41  1   
 35  17  42  1   
 36  17  43  1   
 37  18  19  1   
 38  19  20  ar  
 39  19  21  ar  
 40  20  22  ar  
 41  20  23  1   
 42  21  24  ar  
 43  21  25  1   
 44  22  26  ar  
 45  22  44  1   
 46  23  45  1   
 47  23  46  1   
 48  23  47  1   
 49  24  26  ar  
 50  24  48  1   
 51  25  49  1   
 52  25  50  1   
 53  25  51  1   
 54  26  52  1   
@<TRIPOS>SUBSTRUCTURE
  1 ****   7 GROUP 4 **** **** 0

# MOE 2024.06 (io_trps.svl 2023.06)
