@<TRIPOS>MOLECULE
NONAME
50 53 1 0 0 
SMALL
USER_CHARGES


@<TRIPOS>ATOM
  1 S        0.3100    -0.2370    -0.9960 S.3   1 <1>  -0.0800 
  2 C       -0.2700    -1.8430    -1.4160 C.ar  1 <1>   0.2970 
  3 C       -1.0180     0.0060     0.1350 C.2   1 <1>  -0.1400 
  4 N        0.3590    -2.6050    -2.2860 N.ar  1 <1>  -0.5670 
  5 C       -1.4220    -2.1460    -0.7280 C.ar  1 <1>   0.0000 
  6 C       -1.8290    -1.0720     0.1630 C.2   1 <1>  -0.1810 
  7 C       -1.0080     1.3360     0.8650 C.3   1 <1>  -0.0600 
  8 C       -0.2420    -3.7620    -2.4640 C.ar  1 <1>   0.4700 
  9 C       -1.9490    -3.4080    -1.0390 C.ar  1 <1>   0.4100 
 10 C       -3.0600    -1.1810     1.0550 C.3   1 <1>   0.0210 
 11 N       -1.3520    -4.2160    -1.9010 N.ar  1 <1>  -0.6200 
 12 N       -3.1170    -3.8860    -0.4970 N.pl3 1 <1>  -0.8380 
 13 C       -2.7270    -1.9450     2.3370 C.3   1 <1>  -0.2400 
 14 C       -4.3150    -3.9620    -1.3810 C.3   1 <1>   0.2090 
 15 C       -3.0610    -5.1290     0.3080 C.3   1 <1>   0.2090 
 16 C       -4.9890    -5.3150    -1.1020 C.3   1 <1>   0.2000 
 17 C       -3.8700    -6.1530    -0.4840 C.3   1 <1>  -0.0800 
 18 O       -6.0160    -5.1670    -0.1590 O.3   1 <1>  -0.5600 
 19 C       -4.3410    -7.3490     0.3620 C.3   1 <1>   0.0200 
 20 C       -7.2490    -4.7810    -0.6800 C.3   1 <1>   0.0400 
 21 C       -3.1930    -8.2340     0.8190 C.2   1 <1>  -0.0400 
 22 O       -3.4340    -9.1880     1.6780 O.3   1 <1>  -0.0190 
 23 C       -1.8830    -8.2730     0.5240 C.2   1 <1>  -0.1500 
 24 N       -2.3590    -9.8600     1.9750 N.2   1 <1>  -0.4100 
 25 C       -1.4080    -9.3300     1.2940 C.2   1 <1>   0.1080 
 26 C        0.0290    -9.7980     1.3310 C.3   1 <1>  -0.0590 
 27 H       -1.8100     1.3950     1.5760 H     1 <1>   0.0800 
 28 H       -1.1110     2.1390     0.1570 H     1 <1>   0.0800 
 29 H       -0.0770     1.4530     1.3890 H     1 <1>   0.0800 
 30 H        0.2310    -4.4290    -3.1640 H     1 <1>   0.1500 
 31 H       -3.4110    -0.2000     1.3170 H     1 <1>   0.0800 
 32 H       -3.8620    -1.6630     0.5290 H     1 <1>   0.0800 
 33 H       -1.9710    -1.4220     2.8940 H     1 <1>   0.0800 
 34 H       -2.3590    -2.9260     2.0990 H     1 <1>   0.0800 
 35 H       -3.6060    -2.0440     2.9480 H     1 <1>   0.0800 
 36 H       -4.9790    -3.1410    -1.1810 H     1 <1>   0.0800 
 37 H       -4.0010    -3.9220    -2.4100 H     1 <1>   0.0800 
 38 H       -2.0450    -5.4510     0.4610 H     1 <1>   0.0800 
 39 H       -3.5230    -4.9440     1.2630 H     1 <1>   0.0800 
 40 H       -5.3850    -5.7710    -1.9920 H     1 <1>   0.0800 
 41 H       -3.2500    -6.5110    -1.2860 H     1 <1>   0.0800 
 42 H       -5.0240    -7.9480    -0.2140 H     1 <1>   0.0800 
 43 H       -4.8690    -6.9960     1.2300 H     1 <1>   0.0800 
 44 H       -7.9440    -4.6970     0.1360 H     1 <1>   0.0800 
 45 H       -7.5930    -5.5300    -1.3720 H     1 <1>   0.0800 
 46 H       -7.1520    -3.8280    -1.1700 H     1 <1>   0.0800 
 47 H       -1.3010    -7.6600    -0.1400 H     1 <1>   0.1500 
 48 H        0.6760    -8.9750     1.5720 H     1 <1>   0.0800 
 49 H        0.3050   -10.2000     0.3740 H     1 <1>   0.0800 
 50 H        0.1460   -10.5640     2.0770 H     1 <1>   0.0800 
@<TRIPOS>BOND
  1   1   2  1   
  2   1   3  1   
  3   2   4  ar  
  4   2   5  ar  
  5   3   6  2   
  6   3   7  1   
  7   4   8  ar  
  8   5   6  1   
  9   5   9  ar  
 10   6  10  1   
 11   7  27  1   
 12   7  28  1   
 13   7  29  1   
 14   8  11  ar  
 15   8  30  1   
 16   9  11  ar  
 17   9  12  1   
 18  10  13  1   
 19  10  31  1   
 20  10  32  1   
 21  12  14  1   
 22  12  15  1   
 23  13  33  1   
 24  13  34  1   
 25  13  35  1   
 26  14  16  1   
 27  14  36  1   
 28  14  37  1   
 29  15  17  1   
 30  15  38  1   
 31  15  39  1   
 32  16  17  1   
 33  16  18  1   
 34  16  40  1   
 35  17  19  1   
 36  17  41  1   
 37  18  20  1   
 38  19  21  1   
 39  19  42  1   
 40  19  43  1   
 41  20  44  1   
 42  20  45  1   
 43  20  46  1   
 44  21  22  1   
 45  21  23  2   
 46  22  24  1   
 47  23  25  1   
 48  23  47  1   
 49  24  25  2   
 50  25  26  1   
 51  26  48  1   
 52  26  49  1   
 53  26  50  1   
@<TRIPOS>SUBSTRUCTURE
  1 ****  15 GROUP 4 **** **** 0

# MOE 2024.06 (io_trps.svl 2023.06)
