@<TRIPOS>MOLECULE
NONAME
39 40 1 0 0 
SMALL
USER_CHARGES


@<TRIPOS>ATOM
  1 O        0.4400    -0.3360    -1.3090 O.2   1 <1>  -0.5700 
  2 C        1.3200    -0.7590    -0.5830 C.2   1 <1>   0.5440 
  3 N        2.2010     0.1190     0.0060 N.am  1 <1>  -0.4940 
  4 C        1.4380    -2.1780    -0.3390 C.ar  1 <1>   0.0860 
  5 C        2.2410     1.5320    -0.0710 C.2   1 <1>  -0.0880 
  6 C        0.3340    -3.0150    -0.4960 C.ar  1 <1>   0.1600 
  7 C        2.6270    -2.7880     0.0610 C.ar  1 <1>  -0.1500 
  8 N        3.3660     2.2580    -0.3160 N.pl3 1 <1>   0.3140 
  9 C        1.2390     2.4320     0.0830 C.2   1 <1>  -0.1810 
 10 N        0.3080    -4.3190    -0.2850 N.ar  1 <1>  -0.6200 
 11 C        2.6160    -4.1430     0.2810 C.ar  1 <1>  -0.1500 
 12 N        3.1150     3.5850    -0.3130 N.2   1 <1>  -0.7070 
 13 C        4.7130     1.7400    -0.6300 C.3   1 <1>   0.0960 
 14 C        1.8430     3.6740    -0.0800 C.2   1 <1>   0.1390 
 15 C       -0.2310     2.1950     0.3710 C.3   1 <1>  -0.0590 
 16 C        1.4480    -4.8820     0.1000 C.ar  1 <1>   0.4100 
 17 C        5.5190     1.4710     0.6480 C.3   1 <1>  -0.2400 
 18 N        1.4440    -6.2440     0.3190 N.pl3 1 <1>  -0.8380 
 19 C        2.4570    -7.1160    -0.3310 C.3   1 <1>   0.1290 
 20 C        0.1790    -6.9330     0.6980 C.3   1 <1>   0.1290 
 21 H        2.8870    -0.3010     0.6290 H     1 <1>   0.3700 
 22 H       -0.5910    -2.5650    -0.8160 H     1 <1>   0.1500 
 23 H        3.5330    -2.2270     0.1900 H     1 <1>   0.1500 
 24 H        3.5010    -4.6570     0.6020 H     1 <1>   0.1500 
 25 H        5.2180     2.4750    -1.2320 H     1 <1>   0.0800 
 26 H        4.6090     0.8420    -1.2090 H     1 <1>   0.0800 
 27 H        1.3200     4.6140    -0.0200 H     1 <1>   0.1500 
 28 H       -0.3690     1.2390     0.8400 H     1 <1>   0.0800 
 29 H       -0.7850     2.2080    -0.5510 H     1 <1>   0.0800 
 30 H       -0.6120     2.9590     1.0230 H     1 <1>   0.0800 
 31 H        5.6300     2.3850     1.2070 H     1 <1>   0.0800 
 32 H        6.4980     1.1080     0.3920 H     1 <1>   0.0800 
 33 H        5.0280     0.7380     1.2610 H     1 <1>   0.0800 
 34 H        3.1740    -6.5270    -0.8750 H     1 <1>   0.0800 
 35 H        1.9730    -7.7840    -1.0230 H     1 <1>   0.0800 
 36 H        2.9700    -7.6940     0.4170 H     1 <1>   0.0800 
 37 H       -0.4260    -6.2830     1.3070 H     1 <1>   0.0800 
 38 H        0.3980    -7.8240     1.2590 H     1 <1>   0.0800 
 39 H       -0.3730    -7.1910    -0.1890 H     1 <1>   0.0800 
@<TRIPOS>BOND
  1   1   2  2   
  2   2   3  am  
  3   2   4  1   
  4   3   5  1   
  5   3  21  1   
  6   4   6  ar  
  7   4   7  ar  
  8   5   8  1   
  9   5   9  2   
 10   6  10  ar  
 11   6  22  1   
 12   7  11  ar  
 13   7  23  1   
 14   8  12  1   
 15   8  13  1   
 16   9  14  1   
 17   9  15  1   
 18  10  16  ar  
 19  11  16  ar  
 20  11  24  1   
 21  12  14  2   
 22  13  17  1   
 23  13  25  1   
 24  13  26  1   
 25  14  27  1   
 26  15  28  1   
 27  15  29  1   
 28  15  30  1   
 29  16  18  1   
 30  17  31  1   
 31  17  32  1   
 32  17  33  1   
 33  18  19  1   
 34  18  20  1   
 35  19  34  1   
 36  19  35  1   
 37  19  36  1   
 38  20  37  1   
 39  20  38  1   
 40  20  39  1   
@<TRIPOS>SUBSTRUCTURE
  1 ****   2 GROUP 4 **** **** 0

# MOE 2024.06 (io_trps.svl 2023.06)
