@<TRIPOS>MOLECULE
NONAME
46 48 1 0 0 
SMALL
USER_CHARGES


@<TRIPOS>ATOM
  1 S        0.1450    -0.2220     1.3770 S.o2  1 <1>   1.4470 
  2 O        0.8240    -1.0830     2.3230 O.2   1 <1>  -0.6500 
  3 O       -1.1310     0.3240     1.7790 O.2   1 <1>  -0.6500 
  4 N       -0.0430    -1.1250    -0.0530 N.am  1 <1>  -0.8490 
  5 C        1.3420     1.0690     0.8890 C.ar  1 <1>  -0.0090 
  6 C       -0.5670    -2.4920     0.1420 C.3   1 <1>   0.1960 
  7 C       -0.6450    -0.4500    -1.2080 C.3   1 <1>   0.1960 
  8 C        0.9840     2.3490     0.3670 C.ar  1 <1>   0.0000 
  9 C        2.6770     0.7590     1.0060 C.ar  1 <1>  -0.1500 
 10 C       -2.0970    -2.5250     0.2420 C.3   1 <1>  -0.1860 
 11 C       -2.1740    -0.4210    -1.1470 C.3   1 <1>  -0.1600 
 12 C        2.0140     3.2610     0.0060 C.ar  1 <1>   0.0000 
 13 C       -0.3510     2.7900     0.1660 C.ar  1 <1>  -0.1500 
 14 C        3.6890     1.6480     0.6550 C.ar  1 <1>  -0.1500 
 15 C       -2.5980    -3.9500     0.3050 C.2   1 <1>   0.9060 
 16 C       -2.7160    -1.8330    -0.9690 C.3   1 <1>   0.2000 
 17 C        3.3720     2.8860     0.1630 C.ar  1 <1>   0.0820 
 18 C        1.6620     4.5300    -0.5090 C.ar  1 <1>  -0.1500 
 19 C       -0.6570     4.0220    -0.3370 C.ar  1 <1>  -0.1500 
 20 O       -1.8000    -4.8880     0.2180 O.co2 1 <1>  -0.9000 
 21 O       -3.8200    -4.1290     0.3910 O.co2 1 <1>  -0.9000 
 22 O       -4.0790    -1.7580    -0.7910 O.3   1 <1>  -0.6800 
 23 O        4.3160     3.7930    -0.1940 O.3   1 <1>  -0.3630 
 24 C        0.3620     4.9080    -0.6790 C.ar  1 <1>  -0.1500 
 25 C        5.6960     3.5490    -0.0570 C.3   1 <1>   0.1200 
 26 C        6.4450     4.7890    -0.5350 C.3   1 <1>  -0.2400 
 27 H       -0.2650    -3.0960    -0.6980 H     1 <1>   0.0800 
 28 H       -0.1370    -2.9450     1.0200 H     1 <1>   0.0800 
 29 H       -0.2580     0.5480    -1.3050 H     1 <1>   0.0800 
 30 H       -0.3540    -0.9880    -2.0950 H     1 <1>   0.0800 
 31 H        2.9710    -0.2070     1.3830 H     1 <1>   0.1500 
 32 H       -2.3990    -2.0310     1.1460 H     1 <1>   0.0800 
 33 H       -2.5580    -0.0090    -2.0610 H     1 <1>   0.0800 
 34 H       -2.5030     0.1990    -0.3340 H     1 <1>   0.0800 
 35 H       -1.1780     2.1560     0.4070 H     1 <1>   0.1500 
 36 H        4.7050     1.3230     0.7850 H     1 <1>   0.1500 
 37 H       -2.5340    -2.4220    -1.8530 H     1 <1>   0.0800 
 38 H        2.4460     5.2160    -0.7750 H     1 <1>   0.1500 
 39 H       -1.6810     4.3250    -0.4720 H     1 <1>   0.1500 
 40 H       -4.3440    -2.6260    -0.3660 H     1 <1>   0.4000 
 41 H        0.1110     5.8780    -1.0730 H     1 <1>   0.1500 
 42 H        5.9070     3.3540     0.9810 H     1 <1>   0.0800 
 43 H        5.9530     2.6940    -0.6590 H     1 <1>   0.0800 
 44 H        6.1690     5.6400     0.0620 H     1 <1>   0.0800 
 45 H        6.2150     4.9850    -1.5670 H     1 <1>   0.0800 
 46 H        7.5040     4.6340    -0.4430 H     1 <1>   0.0800 
@<TRIPOS>BOND
  1   1   2  2   
  2   1   3  2   
  3   1   4  am  
  4   1   5  1   
  5   4   6  1   
  6   4   7  1   
  7   5   8  ar  
  8   5   9  ar  
  9   6  10  1   
 10   6  27  1   
 11   6  28  1   
 12   7  11  1   
 13   7  29  1   
 14   7  30  1   
 15   8  12  ar  
 16   8  13  ar  
 17   9  14  ar  
 18   9  31  1   
 19  10  15  1   
 20  10  16  1   
 21  10  32  1   
 22  11  16  1   
 23  11  33  1   
 24  11  34  1   
 25  12  17  ar  
 26  12  18  ar  
 27  13  19  ar  
 28  13  35  1   
 29  14  17  ar  
 30  14  36  1   
 31  15  20  ar  
 32  15  21  ar  
 33  16  22  1   
 34  16  37  1   
 35  17  23  1   
 36  18  24  ar  
 37  18  38  1   
 38  19  24  ar  
 39  19  39  1   
 40  22  40  1   
 41  23  25  1   
 42  24  41  1   
 43  25  26  1   
 44  25  42  1   
 45  25  43  1   
 46  26  44  1   
 47  26  45  1   
 48  26  46  1   
@<TRIPOS>SUBSTRUCTURE
  1 ****   5 GROUP 4 **** **** 0

# MOE 2024.06 (io_trps.svl 2023.06)
