@<TRIPOS>MOLECULE
NONAME
54 57 1 0 0 
SMALL
USER_CHARGES


@<TRIPOS>ATOM
  1 O       -0.9220    -0.5900    -0.6660 O.3   1 <1>  -0.2800 
  2 C        0.3200    -1.0050    -0.4880 C.2   1 <1>  -0.0400 
  3 C       -0.9270     0.2200    -1.7070 C.2   1 <1>  -0.0100 
  4 C        1.1340    -0.4700    -1.4240 C.2   1 <1>  -0.1500 
  5 C        0.6260    -1.9590     0.6510 C.3   1 <1>   0.5230 
  6 C        0.3140     0.3350    -2.2240 C.2   1 <1>  -0.1500 
  7 N       -0.2820    -3.1440     0.5270 N.4   1 <1>  -0.9590 
  8 C       -1.5890    -2.8700     1.1960 C.3   1 <1>   0.3430 
  9 C        0.3840    -4.3950     0.9860 C.3   1 <1>   0.3430 
 10 C       -2.5420    -4.0470     0.9750 C.3   1 <1>  -0.1600 
 11 C       -0.5530    -5.5840     0.7710 C.3   1 <1>  -0.1600 
 12 C       -1.9000    -5.3490     1.4620 C.3   1 <1>   0.4230 
 13 N       -2.8100    -6.5010     1.2830 N.4   1 <1>  -0.9060 
 14 C       -3.2290    -6.9030    -0.0700 C.3   1 <1>   0.7470 
 15 C       -4.7380    -7.0610    -0.0090 C.ar  1 <1>  -0.1430 
 16 C       -2.4990    -8.2070    -0.3880 C.2   1 <1>   0.0060 
 17 C       -5.3190    -8.1330     0.6590 C.ar  1 <1>  -0.1500 
 18 C       -5.5550    -6.1190    -0.6210 C.ar  1 <1>  -0.1500 
 19 N       -1.5640    -8.6890     0.3800 N.2   1 <1>  -0.5650 
 20 N       -2.7570    -8.9750    -1.4790 N.pl3 1 <1>   0.0480 
 21 C       -6.6950    -8.2570     0.7170 C.ar  1 <1>  -0.1500 
 22 C       -6.9310    -6.2460    -0.5620 C.ar  1 <1>  -0.1500 
 23 C       -1.1940    -9.8250    -0.2380 C.2   1 <1>   0.0770 
 24 C       -1.9080   -10.0100    -1.3670 C.2   1 <1>  -0.3020 
 25 C       -3.7530    -8.8100    -2.5610 C.3   1 <1>   0.0160 
 26 C       -7.5010    -7.3130     0.1070 C.ar  1 <1>  -0.1500 
 27 H       -1.8520     0.6780    -2.0160 H     1 <1>   0.1500 
 28 H        2.1940    -0.5930    -1.5730 H     1 <1>   0.1500 
 29 H        0.4800    -1.4630     1.5970 H     1 <1>   0.0800 
 30 H        1.6570    -2.2630     0.5770 H     1 <1>   0.0800 
 31 H        0.6380     0.9190    -3.0700 H     1 <1>   0.1500 
 32 H       -0.4520    -3.1910    -0.4900 H     1 <1>   0.4500 
 33 H       -2.0320    -1.9710     0.7940 H     1 <1>   0.0800 
 34 H       -1.4340    -2.7180     2.2530 H     1 <1>   0.0800 
 35 H        0.6340    -4.3130     2.0330 H     1 <1>   0.0800 
 36 H        1.2980    -4.5530     0.4340 H     1 <1>   0.0800 
 37 H       -2.7880    -4.0940    -0.0700 H     1 <1>   0.0800 
 38 H       -3.4460    -3.8580     1.5280 H     1 <1>   0.0800 
 39 H       -0.0810    -6.4580     1.1850 H     1 <1>   0.0800 
 40 H       -0.6730    -5.7410    -0.2860 H     1 <1>   0.0800 
 41 H       -1.7080    -5.2440     2.5190 H     1 <1>   0.0800 
 42 H       -3.6660    -6.4400     1.8440 H     1 <1>   0.4500 
 43 H       -2.3200    -7.3640     1.5870 H     1 <1>   0.4500 
 44 H       -2.9650    -6.1520    -0.7940 H     1 <1>   0.0800 
 45 H       -4.7180    -8.8920     1.1380 H     1 <1>   0.1500 
 46 H       -5.1460    -5.2770    -1.1540 H     1 <1>   0.1500 
 47 H       -7.1450    -9.0890     1.2330 H     1 <1>   0.1500 
 48 H       -7.5680    -5.5170    -1.0370 H     1 <1>   0.1500 
 49 H       -0.4230   -10.4680     0.1620 H     1 <1>   0.1500 
 50 H       -1.8550   -10.8170    -2.0790 H     1 <1>   0.1500 
 51 H       -3.7080    -7.8130    -2.9560 H     1 <1>   0.0800 
 52 H       -4.7390    -9.0050    -2.1760 H     1 <1>   0.0800 
 53 H       -3.5440    -9.5100    -3.3510 H     1 <1>   0.0800 
 54 H       -8.5740    -7.4110     0.1520 H     1 <1>   0.1500 
@<TRIPOS>BOND
  1   1   2  1   
  2   1   3  1   
  3   2   4  2   
  4   2   5  1   
  5   3   6  2   
  6   3  27  1   
  7   4   6  1   
  8   4  28  1   
  9   5   7  1   
 10   5  29  1   
 11   5  30  1   
 12   6  31  1   
 13   7   8  1   
 14   7   9  1   
 15   7  32  1   
 16   8  10  1   
 17   8  33  1   
 18   8  34  1   
 19   9  11  1   
 20   9  35  1   
 21   9  36  1   
 22  10  12  1   
 23  10  37  1   
 24  10  38  1   
 25  11  12  1   
 26  11  39  1   
 27  11  40  1   
 28  12  13  1   
 29  12  41  1   
 30  13  14  1   
 31  13  42  1   
 32  13  43  1   
 33  14  15  1   
 34  14  16  1   
 35  14  44  1   
 36  15  17  ar  
 37  15  18  ar  
 38  16  19  2   
 39  16  20  1   
 40  17  21  ar  
 41  17  45  1   
 42  18  22  ar  
 43  18  46  1   
 44  19  23  1   
 45  20  24  1   
 46  20  25  1   
 47  21  26  ar  
 48  21  47  1   
 49  22  26  ar  
 50  22  48  1   
 51  23  24  2   
 52  23  49  1   
 53  24  50  1   
 54  25  51  1   
 55  25  52  1   
 56  25  53  1   
 57  26  54  1   
@<TRIPOS>SUBSTRUCTURE
  1 ****  12 GROUP 4 **** **** 0

# MOE 2024.06 (io_trps.svl 2023.06)
