@<TRIPOS>MOLECULE
NONAME
44 45 1 0 0 
SMALL
USER_CHARGES


@<TRIPOS>ATOM
  1 O       -0.5050     1.2650     1.1610 O.3   1 <1>  -0.3630 
  2 C       -0.5510     0.7200    -0.0820 C.ar  1 <1>   0.0820 
  3 C       -1.4610     2.1880     1.6510 C.3   1 <1>   0.1200 
  4 C        0.5310    -0.0700    -0.4640 C.ar  1 <1>  -0.1440 
  5 C       -1.5880     0.9580    -0.9790 C.ar  1 <1>  -0.1500 
  6 C       -0.7820     3.0960     2.6860 C.3   1 <1>   0.2090 
  7 C        0.5830    -0.5740    -1.7530 C.ar  1 <1>  -0.1500 
  8 C        1.6500    -0.4170     0.5130 C.3   1 <1>  -0.0960 
  9 C       -1.5230     0.4470    -2.2620 C.ar  1 <1>  -0.1500 
 10 N        0.1230     4.1440     2.1050 N.pl3 1 <1>  -0.8690 
 11 C       -0.4360    -0.3130    -2.6510 C.ar  1 <1>  -0.1500 
 12 C        0.9710     4.2310     1.0690 C.ar  1 <1>   0.7710 
 13 N        1.5500     5.4020     0.9100 N.ar  1 <1>  -0.6200 
 14 N        1.2050     3.1940     0.2520 N.ar  1 <1>  -0.1790 
 15 C        2.3760     5.5610    -0.1120 C.ar  1 <1>   0.4100 
 16 C        2.0370     3.3030    -0.8070 C.ar  1 <1>   0.2110 
 17 N        2.9560     6.7830    -0.2730 N.pl3 1 <1>  -0.8380 
 18 C        2.6400     4.4980    -1.0020 C.ar  1 <1>  -0.1500 
 19 C        3.5270     7.2830    -1.5530 C.3   1 <1>   0.2090 
 20 C        2.9260     7.8210     0.8070 C.3   1 <1>   0.1290 
 21 C        5.0410     7.0890    -1.5430 C.3   1 <1>  -0.2400 
 22 H       -2.2580     1.6220     2.1030 H     1 <1>   0.0800 
 23 H       -1.8530     2.7930     0.8540 H     1 <1>   0.0800 
 24 H       -2.4580     1.5270    -0.7110 H     1 <1>   0.1500 
 25 H       -0.2390     2.4960     3.3980 H     1 <1>   0.0800 
 26 H       -1.5610     3.6040     3.2300 H     1 <1>   0.0800 
 27 H        1.4110    -1.1870    -2.0680 H     1 <1>   0.1500 
 28 H        1.2330    -0.7380     1.4520 H     1 <1>   0.0800 
 29 H        2.2870     0.4300     0.6870 H     1 <1>   0.0800 
 30 H        2.2530    -1.2230     0.1320 H     1 <1>   0.0800 
 31 H       -2.3230     0.6320    -2.9600 H     1 <1>   0.1500 
 32 H        0.1010     5.0200     2.6420 H     1 <1>   0.4000 
 33 H       -0.3890    -0.7130    -3.6510 H     1 <1>   0.1500 
 34 H        0.7060     2.3280     0.4720 H     1 <1>   0.4570 
 35 H        2.1870     2.4470    -1.4460 H     1 <1>   0.1500 
 36 H        3.3220     4.6460    -1.8170 H     1 <1>   0.1500 
 37 H        3.2940     8.3290    -1.6690 H     1 <1>   0.0800 
 38 H        3.0890     6.7640    -2.3880 H     1 <1>   0.0800 
 39 H        2.8830     7.3600     1.7780 H     1 <1>   0.0800 
 40 H        2.0620     8.4500     0.6800 H     1 <1>   0.0800 
 41 H        3.8130     8.4290     0.7680 H     1 <1>   0.0800 
 42 H        5.4860     7.6580    -0.7470 H     1 <1>   0.0800 
 43 H        5.4550     7.4300    -2.4740 H     1 <1>   0.0800 
 44 H        5.2890     6.0520    -1.4160 H     1 <1>   0.0800 
@<TRIPOS>BOND
  1   1   2  1   
  2   1   3  1   
  3   2   4  ar  
  4   2   5  ar  
  5   3   6  1   
  6   3  22  1   
  7   3  23  1   
  8   4   7  ar  
  9   4   8  1   
 10   5   9  ar  
 11   5  24  1   
 12   6  10  1   
 13   6  25  1   
 14   6  26  1   
 15   7  11  ar  
 16   7  27  1   
 17   8  28  1   
 18   8  29  1   
 19   8  30  1   
 20   9  11  ar  
 21   9  31  1   
 22  10  12  1   
 23  10  32  1   
 24  11  33  1   
 25  12  13  ar  
 26  12  14  ar  
 27  13  15  ar  
 28  14  16  ar  
 29  14  34  1   
 30  15  17  1   
 31  15  18  ar  
 32  16  18  ar  
 33  16  35  1   
 34  17  19  1   
 35  17  20  1   
 36  18  36  1   
 37  19  21  1   
 38  19  37  1   
 39  19  38  1   
 40  20  39  1   
 41  20  40  1   
 42  20  41  1   
 43  21  42  1   
 44  21  43  1   
 45  21  44  1   
@<TRIPOS>SUBSTRUCTURE
  1 ****  14 GROUP 4 **** **** 0

# MOE 2024.06 (io_trps.svl 2023.06)
