@<TRIPOS>MOLECULE
NONAME
53 56 1 0 0 
SMALL
USER_CHARGES


@<TRIPOS>ATOM
  1 O        1.3580     0.2260     0.6620 O.2   1 <1>  -0.5700 
  2 C        2.2260    -0.2080    -0.0520 C.2   1 <1>   0.5950 
  3 C        2.5060    -1.6140    -0.1760 C.2   1 <1>  -0.0860 
  4 C        3.0440     0.7780    -0.8550 C.3   1 <1>  -0.1790 
  5 C        3.3970    -2.2820    -0.9790 C.2   1 <1>  -0.3020 
  6 C        1.8660    -2.6240     0.5650 C.2   1 <1>  -0.1500 
  7 N        3.3290    -3.6150    -0.7740 N.pl3 1 <1>   0.0480 
  8 C        2.3710    -3.8230     0.1770 C.2   1 <1>  -0.3320 
  9 C        4.1960    -4.6120    -1.4360 C.3   1 <1>   0.0160 
 10 C        1.9730    -5.1820     0.6940 C.3   1 <1>   0.5230 
 11 N        0.9210    -5.6740    -0.2230 N.4   1 <1>  -0.9590 
 12 C       -0.3810    -4.9560    -0.0060 C.3   1 <1>   0.3430 
 13 C        0.6560    -7.1300    -0.0600 C.3   1 <1>   0.3430 
 14 C       -1.3770    -6.0000     0.5190 C.3   1 <1>   0.2000 
 15 C       -0.5410    -7.2230     0.8820 C.3   1 <1>  -0.0800 
 16 O       -2.0650    -5.5460     1.6330 O.3   1 <1>  -0.6800 
 17 C       -1.3100    -8.5520     0.7900 C.3   1 <1>  -0.0170 
 18 C       -0.3380    -9.7170     0.9430 C.ar  1 <1>  -0.1430 
 19 C        0.2890   -10.3570    -0.1560 C.ar  1 <1>   0.0000 
 20 C       -0.0180   -10.1540     2.1950 C.ar  1 <1>  -0.1500 
 21 C        1.2520   -11.3560     0.1330 C.ar  1 <1>   0.3100 
 22 C        0.0250   -10.0730    -1.5180 C.ar  1 <1>  -0.1500 
 23 C        0.9290   -11.1700     2.3680 C.ar  1 <1>   0.1600 
 24 N        1.5610   -11.7420     1.3940 N.ar  1 <1>  -0.6200 
 25 C        1.9280   -11.9800    -0.9280 C.ar  1 <1>  -0.1500 
 26 C        0.6990   -10.7040    -2.5290 C.ar  1 <1>  -0.1500 
 27 C        1.6670   -11.6650    -2.2330 C.ar  1 <1>  -0.1500 
 28 H        4.0880     0.6440    -0.6410 H     1 <1>   0.0800 
 29 H        2.7620     1.7830    -0.5970 H     1 <1>   0.0800 
 30 H        2.8690     0.6250    -1.9030 H     1 <1>   0.0800 
 31 H        4.0820    -1.8460    -1.6870 H     1 <1>   0.1500 
 32 H        1.1100    -2.4070     1.3040 H     1 <1>   0.1500 
 33 H        4.8760    -4.1100    -2.1010 H     1 <1>   0.0800 
 34 H        3.5960    -5.2990    -2.0020 H     1 <1>   0.0800 
 35 H        4.7640    -5.1430    -0.6940 H     1 <1>   0.0800 
 36 H        1.5900    -5.1040     1.6990 H     1 <1>   0.0800 
 37 H        2.8260    -5.8410     0.6940 H     1 <1>   0.0800 
 38 H        1.2580    -5.4570    -1.1690 H     1 <1>   0.4500 
 39 H       -0.2660    -4.1580     0.7080 H     1 <1>   0.0800 
 40 H       -0.7410    -4.5450    -0.9350 H     1 <1>   0.0800 
 41 H        0.3890    -7.5530    -1.0140 H     1 <1>   0.0800 
 42 H        1.5100    -7.6620     0.3300 H     1 <1>   0.0800 
 43 H       -2.1010    -6.2230    -0.2480 H     1 <1>   0.0800 
 44 H       -0.1600    -7.1180     1.8830 H     1 <1>   0.0800 
 45 H       -1.5060    -5.4760     2.4320 H     1 <1>   0.4000 
 46 H       -1.8630    -8.6250    -0.1280 H     1 <1>   0.0800 
 47 H       -2.0380    -8.5890     1.5830 H     1 <1>   0.0800 
 48 H       -0.4690    -9.7350     3.0760 H     1 <1>   0.1500 
 49 H       -0.7290    -9.3580    -1.7840 H     1 <1>   0.1500 
 50 H        1.1520   -11.4900     3.3730 H     1 <1>   0.1500 
 51 H        2.6610   -12.7250    -0.6760 H     1 <1>   0.1500 
 52 H        0.4890   -10.4820    -3.5620 H     1 <1>   0.1500 
 53 H        2.1920   -12.1560    -3.0350 H     1 <1>   0.1500 
@<TRIPOS>BOND
  1   1   2  2   
  2   2   3  1   
  3   2   4  1   
  4   3   5  2   
  5   3   6  1   
  6   4  28  1   
  7   4  29  1   
  8   4  30  1   
  9   5   7  1   
 10   5  31  1   
 11   6   8  2   
 12   6  32  1   
 13   7   8  1   
 14   7   9  1   
 15   8  10  1   
 16   9  33  1   
 17   9  34  1   
 18   9  35  1   
 19  10  11  1   
 20  10  36  1   
 21  10  37  1   
 22  11  12  1   
 23  11  13  1   
 24  11  38  1   
 25  12  14  1   
 26  12  39  1   
 27  12  40  1   
 28  13  15  1   
 29  13  41  1   
 30  13  42  1   
 31  14  15  1   
 32  14  16  1   
 33  14  43  1   
 34  15  17  1   
 35  15  44  1   
 36  16  45  1   
 37  17  18  1   
 38  17  46  1   
 39  17  47  1   
 40  18  19  ar  
 41  18  20  ar  
 42  19  21  ar  
 43  19  22  ar  
 44  20  23  ar  
 45  20  48  1   
 46  21  24  ar  
 47  21  25  ar  
 48  22  26  ar  
 49  22  49  1   
 50  23  24  ar  
 51  23  50  1   
 52  25  27  ar  
 53  25  51  1   
 54  26  27  ar  
 55  26  52  1   
 56  27  53  1   
@<TRIPOS>SUBSTRUCTURE
  1 ****  13 GROUP 4 **** **** 0

# MOE 2024.06 (io_trps.svl 2023.06)
