@<TRIPOS>MOLECULE
NONAME
54 57 1 0 0 
SMALL
USER_CHARGES


@<TRIPOS>ATOM
  1 O       -2.5580    -0.2940    -1.7820 O.2   1 <1>  -0.5700 
  2 C       -2.5080     0.3080    -0.7270 C.2   1 <1>   0.5440 
  3 N       -2.9080    -0.3540     0.4150 N.am  1 <1>  -0.6600 
  4 C       -2.0810     1.6920    -0.7030 C.ar  1 <1>   0.0860 
  5 C       -3.7620     0.2920     1.4420 C.3   1 <1>   0.1400 
  6 C       -2.9090    -1.8370     0.4640 C.3   1 <1>   0.1400 
  7 C       -1.3190     2.1930     0.3510 C.ar  1 <1>   0.1600 
  8 C       -2.4060     2.5790    -1.7210 C.ar  1 <1>  -0.1500 
  9 C       -5.2060    -0.1520     1.1980 C.3   1 <1>  -0.1600 
 10 C       -4.3290    -2.3280     0.1890 C.3   1 <1>  -0.1600 
 11 N       -0.9070     3.4430     0.4880 N.ar  1 <1>  -0.6200 
 12 C       -1.9790     3.8840    -1.6060 C.ar  1 <1>  -0.1500 
 13 C       -5.3230    -1.6830     1.1690 C.3   1 <1>   0.4230 
 14 C       -1.2450     4.2620    -0.4950 C.ar  1 <1>   0.1600 
 15 N       -6.7300    -2.0620     0.8560 N.4   1 <1>  -0.9590 
 16 C       -7.2560    -1.6970    -0.4930 C.3   1 <1>   0.3430 
 17 C       -7.0730    -3.5040     1.0520 C.3   1 <1>   0.3430 
 18 C       -8.5500    -2.5010    -0.5960 C.3   1 <1>   0.2000 
 19 C       -8.1690    -3.8450     0.0270 C.3   1 <1>  -0.0800 
 20 O       -9.4880    -1.8960     0.2340 O.3   1 <1>  -0.6800 
 21 C       -7.6570    -4.8360    -1.0370 C.3   1 <1>  -0.0170 
 22 C       -7.0510    -6.0720    -0.3900 C.ar  1 <1>  -0.1430 
 23 C       -7.8050    -6.9440     0.3710 C.ar  1 <1>  -0.1500 
 24 C       -5.7130    -6.3860    -0.5290 C.ar  1 <1>  -0.1500 
 25 C       -7.1990    -8.0420     0.9580 C.ar  1 <1>   0.1600 
 26 C       -5.2050    -7.5120     0.0980 C.ar  1 <1>   0.1600 
 27 N       -5.9160    -8.3380     0.8470 N.ar  1 <1>  -0.6200 
 28 H       -3.4290    -0.0050     2.4230 H     1 <1>   0.0800 
 29 H       -3.6970     1.3650     1.3760 H     1 <1>   0.0800 
 30 H       -2.2300    -2.2320    -0.2760 H     1 <1>   0.0800 
 31 H       -2.5700    -2.1640     1.4330 H     1 <1>   0.0800 
 32 H       -1.0330     1.5100     1.1320 H     1 <1>   0.1500 
 33 H       -2.9740     2.2470    -2.5740 H     1 <1>   0.1500 
 34 H       -5.5220     0.2730     0.2620 H     1 <1>   0.0800 
 35 H       -5.8250     0.2480     1.9810 H     1 <1>   0.0800 
 36 H       -4.3400    -3.3970     0.2880 H     1 <1>   0.0800 
 37 H       -4.5630    -2.0730    -0.8280 H     1 <1>   0.0800 
 38 H       -2.2090     4.6050    -2.3710 H     1 <1>   0.1500 
 39 H       -5.0840    -2.0420     2.1570 H     1 <1>   0.0800 
 40 H       -0.9170     5.2850    -0.4120 H     1 <1>   0.1500 
 41 H       -7.3530    -1.5490     1.4990 H     1 <1>   0.4500 
 42 H       -7.4460    -0.6400    -0.5850 H     1 <1>   0.0800 
 43 H       -6.5730    -2.0110    -1.2630 H     1 <1>   0.0800 
 44 H       -6.2110    -4.1290     0.8940 H     1 <1>   0.0800 
 45 H       -7.4360    -3.6660     2.0550 H     1 <1>   0.0800 
 46 H       -8.9420    -2.5570    -1.5980 H     1 <1>   0.0800 
 47 H       -9.0120    -4.2910     0.5260 H     1 <1>   0.0800 
 48 H      -10.3890    -2.2510     0.0730 H     1 <1>   0.4000 
 49 H       -6.9190    -4.3670    -1.6650 H     1 <1>   0.0800 
 50 H       -8.4730    -5.1410    -1.6710 H     1 <1>   0.0800 
 51 H       -8.8590    -6.7900     0.5150 H     1 <1>   0.1500 
 52 H       -5.0540    -5.7790    -1.1230 H     1 <1>   0.1500 
 53 H       -7.8010    -8.7130     1.5490 H     1 <1>   0.1500 
 54 H       -4.1610    -7.7480    -0.0220 H     1 <1>   0.1500 
@<TRIPOS>BOND
  1   1   2  2   
  2   2   3  am  
  3   2   4  1   
  4   3   5  1   
  5   3   6  1   
  6   4   7  ar  
  7   4   8  ar  
  8   5   9  1   
  9   5  28  1   
 10   5  29  1   
 11   6  10  1   
 12   6  30  1   
 13   6  31  1   
 14   7  11  ar  
 15   7  32  1   
 16   8  12  ar  
 17   8  33  1   
 18   9  13  1   
 19   9  34  1   
 20   9  35  1   
 21  10  13  1   
 22  10  36  1   
 23  10  37  1   
 24  11  14  ar  
 25  12  14  ar  
 26  12  38  1   
 27  13  15  1   
 28  13  39  1   
 29  14  40  1   
 30  15  16  1   
 31  15  17  1   
 32  15  41  1   
 33  16  18  1   
 34  16  42  1   
 35  16  43  1   
 36  17  19  1   
 37  17  44  1   
 38  17  45  1   
 39  18  19  1   
 40  18  20  1   
 41  18  46  1   
 42  19  21  1   
 43  19  47  1   
 44  20  48  1   
 45  21  22  1   
 46  21  49  1   
 47  21  50  1   
 48  22  23  ar  
 49  22  24  ar  
 50  23  25  ar  
 51  23  51  1   
 52  24  26  ar  
 53  24  52  1   
 54  25  27  ar  
 55  25  53  1   
 56  26  27  ar  
 57  26  54  1   
@<TRIPOS>SUBSTRUCTURE
  1 ****  10 GROUP 4 **** **** 0

# MOE 2024.06 (io_trps.svl 2023.06)
