@<TRIPOS>MOLECULE
NONAME
52 55 1 0 0 
SMALL
USER_CHARGES


@<TRIPOS>ATOM
  1 S       -0.6320     0.1000     1.9750 S.3   1 <1>  -0.0800 
  2 C       -1.2730     0.6020     0.4080 C.2   1 <1>   0.3250 
  3 C       -0.1340     1.7260     2.3100 C.2   1 <1>  -0.1100 
  4 N       -1.1000     1.8730     0.2140 N.2   1 <1>  -0.5650 
  5 C       -1.8870    -0.4090    -0.4470 C.ar  1 <1>   0.6730 
  6 C       -0.4700     2.5000     1.2660 C.2   1 <1>   0.0460 
  7 N       -2.2860    -0.0360    -1.6740 N.ar  1 <1>  -0.6200 
  8 N       -2.0210    -1.6570     0.0340 N.ar  1 <1>  -0.6200 
  9 C       -0.2410     3.9920     1.0980 C.3   1 <1>   0.0210 
 10 C       -2.8370    -0.9480    -2.4360 C.ar  1 <1>   0.1600 
 11 C       -2.5750    -2.5500    -0.7500 C.ar  1 <1>   0.1600 
 12 C        0.7370     4.5610     2.1280 C.3   1 <1>   0.2090 
 13 C       -3.0070    -2.2420    -2.0140 C.ar  1 <1>  -0.1500 
 14 N        1.0070     5.9950     1.8480 N.pl3 1 <1>  -0.8690 
 15 C        1.9240     6.5530     1.0430 C.ar  1 <1>   0.4100 
 16 N        1.9570     7.8640     1.0680 N.ar  1 <1>  -0.6200 
 17 C        2.7830     5.7980     0.2240 C.ar  1 <1>  -0.1500 
 18 C        2.8360     8.4860     0.2930 C.ar  1 <1>   0.7710 
 19 C        3.6760     6.4460    -0.5610 C.ar  1 <1>   0.2180 
 20 N        3.6780     7.7990    -0.5020 N.ar  1 <1>  -0.1790 
 21 N        2.8950     9.8460     0.3050 N.pl3 1 <1>  -0.8380 
 22 C        4.6570     5.7400    -1.4890 C.3   1 <1>  -0.0170 
 23 C        3.7140    10.7410    -0.5890 C.3   1 <1>   0.2090 
 24 C        2.0840    10.6690     1.2800 C.3   1 <1>   0.2090 
 25 C        6.1160     5.9920    -1.0880 C.3   1 <1>  -0.2400 
 26 C        2.8470    11.8540    -1.2090 C.3   1 <1>   0.1200 
 27 C        1.3140    11.7910     0.5630 C.3   1 <1>   0.1200 
 28 O        2.1830    12.5670    -0.2110 O.3   1 <1>  -0.5600 
 29 H        0.3490     1.9140     3.2510 H     1 <1>   0.1500 
 30 H       -1.1870     4.4970     1.1750 H     1 <1>   0.0800 
 31 H        0.1520     4.1600     0.1120 H     1 <1>   0.0800 
 32 H       -3.1600    -0.6550    -3.4210 H     1 <1>   0.1500 
 33 H       -2.6860    -3.5540    -0.3730 H     1 <1>   0.1500 
 34 H        1.6580     4.0050     2.1040 H     1 <1>   0.0800 
 35 H        0.3190     4.4680     3.1170 H     1 <1>   0.0800 
 36 H       -3.4600    -2.9810    -2.6470 H     1 <1>   0.1500 
 37 H        0.4050     6.6510     2.3580 H     1 <1>   0.4000 
 38 H        2.7110     4.7270     0.2360 H     1 <1>   0.1500 
 39 H        4.3360     8.3500    -1.0330 H     1 <1>   0.4570 
 40 H        4.4970     6.0640    -2.5030 H     1 <1>   0.0800 
 41 H        4.4710     4.6790    -1.4620 H     1 <1>   0.0800 
 42 H        4.1740    10.1910    -1.3880 H     1 <1>   0.0800 
 43 H        4.4950    11.2040    -0.0090 H     1 <1>   0.0800 
 44 H        2.7460    11.1150     2.0030 H     1 <1>   0.0800 
 45 H        1.3750    10.0700     1.8250 H     1 <1>   0.0800 
 46 H        6.3780     7.0310    -1.1720 H     1 <1>   0.0800 
 47 H        6.7720     5.4300    -1.7320 H     1 <1>   0.0800 
 48 H        6.2900     5.6700    -0.0750 H     1 <1>   0.0800 
 49 H        2.1150    11.4440    -1.8840 H     1 <1>   0.0800 
 50 H        3.4630    12.5510    -1.7490 H     1 <1>   0.0800 
 51 H        0.8490    12.4400     1.2840 H     1 <1>   0.0800 
 52 H        0.5500    11.3820    -0.0750 H     1 <1>   0.0800 
@<TRIPOS>BOND
  1   1   2  1   
  2   1   3  1   
  3   2   4  2   
  4   2   5  1   
  5   3   6  2   
  6   3  29  1   
  7   4   6  1   
  8   5   7  ar  
  9   5   8  ar  
 10   6   9  1   
 11   7  10  ar  
 12   8  11  ar  
 13   9  12  1   
 14   9  30  1   
 15   9  31  1   
 16  10  13  ar  
 17  10  32  1   
 18  11  13  ar  
 19  11  33  1   
 20  12  14  1   
 21  12  34  1   
 22  12  35  1   
 23  13  36  1   
 24  14  15  1   
 25  14  37  1   
 26  15  16  ar  
 27  15  17  ar  
 28  16  18  ar  
 29  17  19  ar  
 30  17  38  1   
 31  18  20  ar  
 32  18  21  1   
 33  19  20  ar  
 34  19  22  1   
 35  20  39  1   
 36  21  23  1   
 37  21  24  1   
 38  22  25  1   
 39  22  40  1   
 40  22  41  1   
 41  23  26  1   
 42  23  42  1   
 43  23  43  1   
 44  24  27  1   
 45  24  44  1   
 46  24  45  1   
 47  25  46  1   
 48  25  47  1   
 49  25  48  1   
 50  26  28  1   
 51  26  49  1   
 52  26  50  1   
 53  27  28  1   
 54  27  51  1   
 55  27  52  1   
@<TRIPOS>SUBSTRUCTURE
  1 ****   9 GROUP 4 **** **** 0

# MOE 2024.06 (io_trps.svl 2023.06)
