@<TRIPOS>MOLECULE
NONAME
51 53 1 0 0 
SMALL
USER_CHARGES


@<TRIPOS>ATOM
  1 S        0.5390    -1.1660     0.6430 S.o2  1 <1>   1.4470 
  2 O        1.4380    -2.2940     0.7620 O.2   1 <1>  -0.6500 
  3 O       -0.0550    -0.6170     1.8430 O.2   1 <1>  -0.6500 
  4 N       -0.7150    -1.6500    -0.3920 N.am  1 <1>  -0.8490 
  5 C        1.3680     0.1530    -0.2920 C.ar  1 <1>  -0.0090 
  6 C       -1.7250    -0.6260    -0.6590 C.3   1 <1>   0.1960 
  7 C       -1.4470    -2.8120     0.1130 C.3   1 <1>   0.1960 
  8 C        1.1120     1.4910    -0.0260 C.ar  1 <1>  -0.1500 
  9 C        2.2530    -0.1460    -1.3190 C.ar  1 <1>  -0.1500 
 10 C       -2.8140    -0.8080     0.4000 C.3   1 <1>  -0.0800 
 11 C       -2.8000    -2.3240     0.6540 C.3   1 <1>  -0.0800 
 12 C        1.7010     2.5300    -0.7440 C.ar  1 <1>   0.0860 
 13 C        2.8590     0.8590    -2.0520 C.ar  1 <1>  -0.1500 
 14 C       -4.2030    -0.1850     0.0810 C.3   1 <1>   0.2800 
 15 C       -3.9770    -3.0420    -0.0270 C.3   1 <1>  -0.1600 
 16 C        1.3890     3.9140    -0.4320 C.2   1 <1>   0.5440 
 17 C        2.5820     2.1820    -1.7680 C.ar  1 <1>  -0.1500 
 18 O       -4.4590    -0.2630    -1.2750 O.3   1 <1>  -0.6800 
 19 C       -5.3020    -0.9910     0.7990 C.3   1 <1>  -0.1600 
 20 C       -4.3100     1.3050     0.4800 C.3   1 <1>  -0.1600 
 21 C       -5.3380    -2.4880     0.4250 C.3   1 <1>  -0.1600 
 22 O        0.2840     4.2170    -0.0280 O.2   1 <1>  -0.5700 
 23 N        2.3350     4.8930    -0.5750 N.am  1 <1>  -0.7300 
 24 C       -3.3090     2.2660    -0.1860 C.3   1 <1>  -0.2400 
 25 C        2.1300     6.3380    -0.2950 C.3   1 <1>   0.0600 
 26 H       -1.3100     0.3640    -0.6550 H     1 <1>   0.0800 
 27 H       -2.1300    -0.8160    -1.6380 H     1 <1>   0.0800 
 28 H       -1.5990    -3.4960    -0.7040 H     1 <1>   0.0800 
 29 H       -0.8920    -3.3290     0.8790 H     1 <1>   0.0800 
 30 H        0.4270     1.7450     0.7670 H     1 <1>   0.1500 
 31 H        2.4650    -1.1790    -1.5470 H     1 <1>   0.1500 
 32 H       -2.4710    -0.3430     1.3050 H     1 <1>   0.0800 
 33 H       -2.8470    -2.5110     1.7130 H     1 <1>   0.0800 
 34 H        3.5410     0.6060    -2.8470 H     1 <1>   0.1500 
 35 H       -3.8910    -2.9070    -1.0930 H     1 <1>   0.0800 
 36 H       -3.9340    -4.0990     0.1690 H     1 <1>   0.0800 
 37 H        3.0470     2.9540    -2.3550 H     1 <1>   0.1500 
 38 H       -5.3410     0.1070    -1.4560 H     1 <1>   0.4000 
 39 H       -5.1170    -0.9190     1.8570 H     1 <1>   0.0800 
 40 H       -6.2680    -0.5510     0.6230 H     1 <1>   0.0800 
 41 H       -5.3050     1.6500     0.2610 H     1 <1>   0.0800 
 42 H       -4.1850     1.3860     1.5460 H     1 <1>   0.0800 
 43 H       -5.6890    -3.0460     1.2760 H     1 <1>   0.0800 
 44 H       -6.0450    -2.6390    -0.3720 H     1 <1>   0.0800 
 45 H        3.2910     4.6190    -0.8070 H     1 <1>   0.3700 
 46 H       -3.3020     2.1390    -1.2540 H     1 <1>   0.0800 
 47 H       -2.3160     2.1120     0.1950 H     1 <1>   0.0800 
 48 H       -3.5820     3.2840     0.0300 H     1 <1>   0.0800 
 49 H        1.0930     6.5370    -0.0820 H     1 <1>   0.0800 
 50 H        2.4240     6.9210    -1.1500 H     1 <1>   0.0800 
 51 H        2.7200     6.6300     0.5560 H     1 <1>   0.0800 
@<TRIPOS>BOND
  1   1   2  2   
  2   1   3  2   
  3   1   4  am  
  4   1   5  1   
  5   4   6  1   
  6   4   7  1   
  7   5   8  ar  
  8   5   9  ar  
  9   6  10  1   
 10   6  26  1   
 11   6  27  1   
 12   7  11  1   
 13   7  28  1   
 14   7  29  1   
 15   8  12  ar  
 16   8  30  1   
 17   9  13  ar  
 18   9  31  1   
 19  10  11  1   
 20  10  14  1   
 21  10  32  1   
 22  11  15  1   
 23  11  33  1   
 24  12  16  1   
 25  12  17  ar  
 26  13  17  ar  
 27  13  34  1   
 28  14  18  1   
 29  14  19  1   
 30  14  20  1   
 31  15  21  1   
 32  15  35  1   
 33  15  36  1   
 34  16  22  2   
 35  16  23  am  
 36  17  37  1   
 37  18  38  1   
 38  19  21  1   
 39  19  39  1   
 40  19  40  1   
 41  20  24  1   
 42  20  41  1   
 43  20  42  1   
 44  21  43  1   
 45  21  44  1   
 46  23  25  1   
 47  23  45  1   
 48  24  46  1   
 49  24  47  1   
 50  24  48  1   
 51  25  49  1   
 52  25  50  1   
 53  25  51  1   
@<TRIPOS>SUBSTRUCTURE
  1 ****   6 GROUP 4 **** **** 0

# MOE 2024.06 (io_trps.svl 2023.06)
