@<TRIPOS>MOLECULE
NONAME
59 62 1 0 0 
SMALL
USER_CHARGES


@<TRIPOS>ATOM
  1 O        1.7640     2.7900    -0.5530 O.2   1 <1>  -0.5700 
  2 C        1.0030     2.7450     0.3980 C.2   1 <1>   0.7150 
  3 N        1.0050     3.8110     1.2590 N.am  1 <1>  -0.7300 
  4 C        0.1100     1.6280     0.6250 C.2   1 <1>   0.0550 
  5 C        1.9360     4.9650     1.1510 C.3   1 <1>   0.1400 
  6 O        0.0600     0.6060    -0.2260 O.3   1 <1>  -0.2800 
  7 C       -0.7800     1.3850     1.6310 C.2   1 <1>  -0.1500 
  8 C        1.5460     5.8740    -0.0240 C.3   1 <1>   0.2000 
  9 C       -0.8220    -0.2670     0.2030 C.2   1 <1>  -0.0100 
 10 C       -1.3820     0.1580     1.3550 C.2   1 <1>  -0.1500 
 11 O        2.5990     6.7410    -0.3120 O.3   1 <1>  -0.5600 
 12 C        0.3370     6.7760     0.2230 C.3   1 <1>  -0.1600 
 13 C        2.1300     7.8760    -0.9590 C.3   1 <1>   0.2800 
 14 C        0.7800     8.1420    -0.2930 C.3   1 <1>  -0.1600 
 15 C        3.1580     8.9940    -0.7370 C.3   1 <1>  -0.1600 
 16 C        2.0170     7.5660    -2.4580 C.3   1 <1>  -0.1600 
 17 C        4.2340     9.0820    -1.8290 C.3   1 <1>   0.3430 
 18 C        3.3440     7.0470    -3.0240 C.3   1 <1>   0.3430 
 19 N        4.5440     7.7610    -2.4710 N.4   1 <1>  -0.9590 
 20 C        5.3010     6.8450    -1.5730 C.3   1 <1>   0.5230 
 21 C        6.5250     7.5680    -1.0730 C.2   1 <1>  -0.3320 
 22 N        6.7820     7.8280     0.2310 N.pl3 1 <1>   0.0480 
 23 C        7.5600     8.0730    -1.7820 C.2   1 <1>   0.0770 
 24 C        7.9640     8.4870     0.2080 C.2   1 <1>   0.0360 
 25 C        5.9960     7.4420     1.4380 C.3   1 <1>   0.1760 
 26 N        8.4530     8.6610    -0.9760 N.2   1 <1>  -0.5650 
 27 C        5.8790     8.6160     2.4180 C.3   1 <1>  -0.2400 
 28 C        6.6390     6.2270     2.1120 C.3   1 <1>  -0.2400 
 29 H        0.3780     3.7940     2.0630 H     1 <1>   0.3700 
 30 H        2.9290     4.5830     0.9800 H     1 <1>   0.0800 
 31 H        1.9340     5.5210     2.0720 H     1 <1>   0.0800 
 32 H       -1.0030     1.9940     2.4880 H     1 <1>   0.1500 
 33 H        1.3870     5.2740    -0.9040 H     1 <1>   0.0800 
 34 H       -0.9910    -1.1620    -0.3710 H     1 <1>   0.1500 
 35 H       -2.1340    -0.3280     1.9520 H     1 <1>   0.1500 
 36 H        0.0880     6.8250     1.2690 H     1 <1>   0.0800 
 37 H       -0.5150     6.4010    -0.3160 H     1 <1>   0.0800 
 38 H        0.9010     8.8150     0.5390 H     1 <1>   0.0800 
 39 H        0.0670     8.5690    -0.9760 H     1 <1>   0.0800 
 40 H        3.6140     8.8840     0.2290 H     1 <1>   0.0800 
 41 H        2.6500     9.9420    -0.7290 H     1 <1>   0.0800 
 42 H        1.7280     8.4560    -2.9870 H     1 <1>   0.0800 
 43 H        1.2460     6.8390    -2.6410 H     1 <1>   0.0800 
 44 H        5.1290     9.5230    -1.4210 H     1 <1>   0.0800 
 45 H        3.8730     9.7490    -2.5950 H     1 <1>   0.0800 
 46 H        3.3240     7.1450    -4.0980 H     1 <1>   0.0800 
 47 H        3.4200     5.9960    -2.7960 H     1 <1>   0.0800 
 48 H        5.1920     7.9550    -3.2430 H     1 <1>   0.4500 
 49 H        5.6030     5.9630    -2.1150 H     1 <1>   0.0800 
 50 H        4.6940     6.5320    -0.7440 H     1 <1>   0.0800 
 51 H        7.7270     8.0500    -2.8470 H     1 <1>   0.1500 
 52 H        8.4470     8.8280     1.1080 H     1 <1>   0.1500 
 53 H        5.0030     7.1710     1.1270 H     1 <1>   0.0800 
 54 H        6.8390     8.8740     2.8290 H     1 <1>   0.0800 
 55 H        5.2310     8.3470     3.2340 H     1 <1>   0.0800 
 56 H        5.4620     9.4780     1.9280 H     1 <1>   0.0800 
 57 H        7.6330     6.4620     2.4520 H     1 <1>   0.0800 
 58 H        6.6910     5.4000     1.4260 H     1 <1>   0.0800 
 59 H        6.0550     5.9230     2.9620 H     1 <1>   0.0800 
@<TRIPOS>BOND
  1   1   2  2   
  2   2   3  am  
  3   2   4  1   
  4   3   5  1   
  5   3  29  1   
  6   4   6  1   
  7   4   7  2   
  8   5   8  1   
  9   5  30  1   
 10   5  31  1   
 11   6   9  1   
 12   7  10  1   
 13   7  32  1   
 14   8  11  1   
 15   8  12  1   
 16   8  33  1   
 17   9  10  2   
 18   9  34  1   
 19  10  35  1   
 20  11  13  1   
 21  12  14  1   
 22  12  36  1   
 23  12  37  1   
 24  13  14  1   
 25  13  15  1   
 26  13  16  1   
 27  14  38  1   
 28  14  39  1   
 29  15  17  1   
 30  15  40  1   
 31  15  41  1   
 32  16  18  1   
 33  16  42  1   
 34  16  43  1   
 35  17  19  1   
 36  17  44  1   
 37  17  45  1   
 38  18  19  1   
 39  18  46  1   
 40  18  47  1   
 41  19  20  1   
 42  19  48  1   
 43  20  21  1   
 44  20  49  1   
 45  20  50  1   
 46  21  22  1   
 47  21  23  2   
 48  22  24  1   
 49  22  25  1   
 50  23  26  1   
 51  23  51  1   
 52  24  26  2   
 53  24  52  1   
 54  25  27  1   
 55  25  28  1   
 56  25  53  1   
 57  27  54  1   
 58  27  55  1   
 59  27  56  1   
 60  28  57  1   
 61  28  58  1   
 62  28  59  1   
@<TRIPOS>SUBSTRUCTURE
  1 ****  11 GROUP 4 **** **** 0

# MOE 2024.06 (io_trps.svl 2023.06)
