@<TRIPOS>MOLECULE
NONAME
28 29 1 0 0 
SMALL
USER_CHARGES


@<TRIPOS>ATOM
  1 N       -7.9680     0.6180     0.6520 N.4   1 <1>  -0.8970 
  2 C       -6.6560     0.1130     0.1060 C.3   1 <1>   0.4720 
  3 C       -8.6300     0.2840    -0.6620 C.3   1 <1>   0.4720 
  4 C       -8.1270     2.0530     1.0540 C.3   1 <1>   0.2630 
  5 C       -5.8910    -0.7090     1.1470 C.3   1 <1>  -0.1600 
  6 C       -5.7620     1.1820    -0.5470 C.3   1 <1>  -0.1600 
  7 C       -7.4880    -0.7330    -0.8970 C.3   1 <1>   0.0000 
  8 C       -4.6240    -1.3180     0.5390 C.3   1 <1>   0.3430 
  9 C       -4.4960     0.5480    -1.1320 C.3   1 <1>   0.3430 
 10 N       -3.7940    -0.2510    -0.0880 N.4   1 <1>  -0.9060 
 11 H       -8.3470    -0.0170     1.3690 H     1 <1>   0.4500 
 12 H       -8.5980     1.1190    -1.3390 H     1 <1>   0.0000 
 13 H       -9.6020    -0.1560    -0.5310 H     1 <1>   0.0000 
 14 H       -7.8200     2.7090     0.2560 H     1 <1>   0.0800 
 15 H       -7.5330     2.2650     1.9280 H     1 <1>   0.0800 
 16 H       -9.1590     2.2610     1.2860 H     1 <1>   0.0800 
 17 H       -6.5060    -1.5060     1.5280 H     1 <1>   0.0800 
 18 H       -5.6120    -0.0830     1.9760 H     1 <1>   0.0800 
 19 H       -5.4650     1.9140     0.1830 H     1 <1>   0.0800 
 20 H       -6.2840     1.6930    -1.3380 H     1 <1>   0.0800 
 21 H       -7.7350    -1.7180    -0.5390 H     1 <1>   0.0000 
 22 H       -7.1120    -0.7360    -1.9050 H     1 <1>   0.0000 
 23 H       -4.8950    -2.0520    -0.2050 H     1 <1>   0.0800 
 24 H       -4.0570    -1.8220     1.3090 H     1 <1>   0.0800 
 25 H       -3.8420     1.3210    -1.5070 H     1 <1>   0.0800 
 26 H       -4.7600    -0.0920    -1.9610 H     1 <1>   0.0800 
 27 H       -2.9580    -0.6880    -0.5110 H     1 <1>   0.4500 
 28 H       -3.4170     0.3740     0.6410 H     1 <1>   0.4500 
@<TRIPOS>BOND
  1   1   2  1   
  2   1   3  1   
  3   1   4  1   
  4   1  11  1   
  5   2   5  1   
  6   2   6  1   
  7   2   7  1   
  8   3   7  1   
  9   3  12  1   
 10   3  13  1   
 11   4  14  1   
 12   4  15  1   
 13   4  16  1   
 14   5   8  1   
 15   5  17  1   
 16   5  18  1   
 17   6   9  1   
 18   6  19  1   
 19   6  20  1   
 20   7  21  1   
 21   7  22  1   
 22   8  10  1   
 23   8  23  1   
 24   8  24  1   
 25   9  10  1   
 26   9  25  1   
 27   9  26  1   
 28  10  27  1   
 29  10  28  1   
@<TRIPOS>SUBSTRUCTURE
  1 ****   2 GROUP 4 **** **** 0

# MOE 2024.06 (io_trps.svl 2023.06)
