@<TRIPOS>MOLECULE
NONAME
36 37 1 0 0 
SMALL
USER_CHARGES


@<TRIPOS>ATOM
  1 O        0.4000     0.0820     0.3210 O.2   1 <1>  -0.5700 
  2 C        1.4470    -0.5190     0.1790 C.2   1 <1>   0.5440 
  3 N        2.5820     0.1990    -0.1270 N.am  1 <1>  -0.6600 
  4 C        1.4580    -1.9570     0.3200 C.ar  1 <1>   0.0860 
  5 C        2.6070     1.6840     0.1210 C.3   1 <1>   0.3210 
  6 C        3.7460    -0.3810    -0.8610 C.3   1 <1>   0.1400 
  7 C        2.3950    -2.5940     1.1290 C.ar  1 <1>   0.1600 
  8 C        0.5360    -2.7650    -0.3310 C.ar  1 <1>  -0.1500 
  9 C        3.9120     2.1790     0.7460 C.2   1 <1>   0.3350 
 10 C        3.7350     0.0900    -2.3130 C.3   1 <1>  -0.2400 
 11 N        2.5060    -3.8990     1.3090 N.ar  1 <1>  -0.6200 
 12 C        0.6250    -4.1270    -0.1530 C.ar  1 <1>  -0.1500 
 13 N        4.1540     2.2200     1.9970 N.2   1 <1>  -0.4100 
 14 N        4.9200     2.6250     0.0020 N.2   1 <1>  -0.5650 
 15 C        1.6230    -4.6510     0.6680 C.ar  1 <1>   0.3930 
 16 O        5.3520     2.6990     2.1410 O.3   1 <1>  -0.0190 
 17 C        5.7530     2.9210     0.9150 C.2   1 <1>   0.2980 
 18 O        1.7670    -5.9720     0.8770 O.3   1 <1>  -0.3630 
 19 C        7.1330     3.4950     0.6940 C.3   1 <1>  -0.0600 
 20 C        0.9040    -6.9440     0.3300 C.3   1 <1>   0.0400 
 21 H        1.8080     1.9560     0.7870 H     1 <1>   0.0800 
 22 H        2.4440     2.2000    -0.8070 H     1 <1>   0.0800 
 23 H        3.7020    -1.4560    -0.8530 H     1 <1>   0.0800 
 24 H        4.6660    -0.0920    -0.3820 H     1 <1>   0.0800 
 25 H        3.0990    -1.9740     1.6590 H     1 <1>   0.1500 
 26 H       -0.2240    -2.3230    -0.9530 H     1 <1>   0.1500 
 27 H        2.8000    -0.1600    -2.7800 H     1 <1>   0.0800 
 28 H        4.5270    -0.3960    -2.8530 H     1 <1>   0.0800 
 29 H        3.8960     1.1510    -2.3710 H     1 <1>   0.0800 
 30 H       -0.0780    -4.7660    -0.6490 H     1 <1>   0.1500 
 31 H        7.3140     3.6200    -0.3580 H     1 <1>   0.0800 
 32 H        7.8710     2.8290     1.1010 H     1 <1>   0.0800 
 33 H        7.2100     4.4500     1.1790 H     1 <1>   0.0800 
 34 H        1.2340    -7.9100     0.6690 H     1 <1>   0.0800 
 35 H        0.9590    -6.8970    -0.7430 H     1 <1>   0.0800 
 36 H       -0.0970    -6.7580     0.6760 H     1 <1>   0.0800 
@<TRIPOS>BOND
  1   1   2  2   
  2   2   3  am  
  3   2   4  1   
  4   3   5  1   
  5   3   6  1   
  6   4   7  ar  
  7   4   8  ar  
  8   5   9  1   
  9   5  21  1   
 10   5  22  1   
 11   6  10  1   
 12   6  23  1   
 13   6  24  1   
 14   7  11  ar  
 15   7  25  1   
 16   8  12  ar  
 17   8  26  1   
 18   9  13  2   
 19   9  14  1   
 20  10  27  1   
 21  10  28  1   
 22  10  29  1   
 23  11  15  ar  
 24  12  15  ar  
 25  12  30  1   
 26  13  16  1   
 27  14  17  2   
 28  15  18  1   
 29  16  17  1   
 30  17  19  1   
 31  18  20  1   
 32  19  31  1   
 33  19  32  1   
 34  19  33  1   
 35  20  34  1   
 36  20  35  1   
 37  20  36  1   
@<TRIPOS>SUBSTRUCTURE
  1 ****   3 GROUP 4 **** **** 0

# MOE 2024.06 (io_trps.svl 2023.06)
