@<TRIPOS>MOLECULE
NONAME
49 52 1 0 0 
SMALL
USER_CHARGES


@<TRIPOS>ATOM
  1 O       -4.1180     2.3310    -2.0350 O.2   1 <1>  -0.5700 
  2 C       -2.9580     1.9920    -2.0140 C.2   1 <1>   0.6300 
  3 N       -2.5660     0.7700    -2.4470 N.am  1 <1>  -0.7300 
  4 C       -1.8870     2.9120    -1.4280 C.3   1 <1>   0.0320 
  5 C       -3.4650    -0.3600    -2.7610 C.3   1 <1>   0.2200 
  6 C       -1.2780     2.3140    -0.1670 C.ar  1 <1>  -0.0320 
  7 C       -1.0200     3.7160    -2.3560 C.3   1 <1>  -0.2000 
  8 C       -2.0380     4.4050    -1.5050 C.3   1 <1>  -0.2000 
  9 C       -3.5260    -1.3410    -1.5950 C.3   1 <1>  -0.0800 
 10 C       -2.7960    -1.2310    -3.8150 C.3   1 <1>   0.1200 
 11 C       -1.9450     2.4340     1.0410 C.ar  1 <1>  -0.1500 
 12 C       -0.0830     1.6130    -0.2130 C.ar  1 <1>  -0.1500 
 13 C       -2.2640    -2.1860    -1.7960 C.3   1 <1>   0.1200 
 14 C       -3.6520    -0.7210    -0.1890 C.3   1 <1>  -0.0170 
 15 O       -1.8500    -1.9860    -3.1180 O.3   1 <1>  -0.5600 
 16 C       -1.4300     1.8550     2.1870 C.ar  1 <1>  -0.1500 
 17 C        0.4340     1.0350     0.9340 C.ar  1 <1>  -0.1500 
 18 C       -3.6370    -1.7850     0.8950 C.ar  1 <1>  -0.1440 
 19 C       -0.2390     1.1490     2.1390 C.ar  1 <1>  -0.1440 
 20 C       -4.7170    -2.6110     1.1310 C.ar  1 <1>  -0.1500 
 21 C       -2.5340    -1.9750     1.7020 C.ar  1 <1>  -0.1500 
 22 C        0.3210     0.5150     3.3990 C.3   1 <1>  -0.0970 
 23 C       -4.6410    -3.5660     2.1320 C.ar  1 <1>   0.1600 
 24 C       -2.5610    -2.9600     2.6760 C.ar  1 <1>   0.1600 
 25 N       -3.5870    -3.7620     2.9090 N.ar  1 <1>  -0.6200 
 26 H       -1.5840     0.5000    -2.3590 H     1 <1>   0.3700 
 27 H       -4.4350    -0.0050    -3.0680 H     1 <1>   0.0800 
 28 H        0.0190     3.8600    -2.1180 H     1 <1>   0.1000 
 29 H       -1.1980     3.6540    -3.4160 H     1 <1>   0.1000 
 30 H       -2.9250     4.8040    -1.9670 H     1 <1>   0.1000 
 31 H       -1.7030     4.9990    -0.6730 H     1 <1>   0.1000 
 32 H       -4.3710    -1.9880    -1.7510 H     1 <1>   0.0800 
 33 H       -2.3100    -0.6570    -4.5840 H     1 <1>   0.0800 
 34 H       -3.5040    -1.9120    -4.2550 H     1 <1>   0.0800 
 35 H       -2.8750     2.9750     1.0860 H     1 <1>   0.1500 
 36 H        0.4500     1.5140    -1.1420 H     1 <1>   0.1500 
 37 H       -2.4540    -3.2340    -1.6400 H     1 <1>   0.0800 
 38 H       -1.4640    -1.8620    -1.1530 H     1 <1>   0.0800 
 39 H       -4.5640    -0.1520    -0.1260 H     1 <1>   0.0800 
 40 H       -2.8390    -0.0440    -0.0050 H     1 <1>   0.0800 
 41 H       -1.9620     1.9570     3.1170 H     1 <1>   0.1500 
 42 H        1.3640     0.4960     0.8830 H     1 <1>   0.1500 
 43 H       -5.6150    -2.5200     0.5490 H     1 <1>   0.1500 
 44 H       -1.6570    -1.3660     1.5850 H     1 <1>   0.1500 
 45 H       -0.4770     0.1490     4.0200 H     1 <1>   0.0800 
 46 H        0.8840     1.2450     3.9530 H     1 <1>   0.0800 
 47 H        0.9670    -0.3080     3.1560 H     1 <1>   0.0800 
 48 H       -5.4920    -4.2020     2.3030 H     1 <1>   0.1500 
 49 H       -1.6910    -3.0940     3.2950 H     1 <1>   0.1500 
@<TRIPOS>BOND
  1   1   2  2   
  2   2   3  am  
  3   2   4  1   
  4   3   5  1   
  5   3  26  1   
  6   4   6  1   
  7   4   7  1   
  8   4   8  1   
  9   5   9  1   
 10   5  10  1   
 11   5  27  1   
 12   6  11  ar  
 13   6  12  ar  
 14   7   8  1   
 15   7  28  1   
 16   7  29  1   
 17   8  30  1   
 18   8  31  1   
 19   9  13  1   
 20   9  14  1   
 21   9  32  1   
 22  10  15  1   
 23  10  33  1   
 24  10  34  1   
 25  11  16  ar  
 26  11  35  1   
 27  12  17  ar  
 28  12  36  1   
 29  13  15  1   
 30  13  37  1   
 31  13  38  1   
 32  14  18  1   
 33  14  39  1   
 34  14  40  1   
 35  16  19  ar  
 36  16  41  1   
 37  17  19  ar  
 38  17  42  1   
 39  18  20  ar  
 40  18  21  ar  
 41  19  22  1   
 42  20  23  ar  
 43  20  43  1   
 44  21  24  ar  
 45  21  44  1   
 46  22  45  1   
 47  22  46  1   
 48  22  47  1   
 49  23  25  ar  
 50  23  48  1   
 51  24  25  ar  
 52  24  49  1   
@<TRIPOS>SUBSTRUCTURE
  1 ****  14 GROUP 4 **** **** 0

# MOE 2024.06 (io_trps.svl 2023.06)
