@<TRIPOS>MOLECULE
NONAME
45 47 1 0 0 
SMALL
USER_CHARGES


@<TRIPOS>ATOM
  1 O       -0.1050     0.3130     0.5470 O.2   1 <1>  -0.5700 
  2 C       -0.1380     1.5230     0.4280 C.2   1 <1>   0.5440 
  3 N       -1.3470     2.1770     0.5370 N.am  1 <1>  -0.6600 
  4 C        1.0920     2.2390     0.1710 C.ar  1 <1>   0.0860 
  5 C       -2.5630     1.4390     0.9940 C.3   1 <1>   0.1400 
  6 C       -1.5490     3.5870     0.0820 C.3   1 <1>   0.1400 
  7 C        1.4940     3.2850     1.0010 C.ar  1 <1>   0.1600 
  8 C        1.9150     1.9200    -0.8980 C.ar  1 <1>  -0.1500 
  9 C       -3.5730     2.4070     1.6170 C.3   1 <1>  -0.1600 
 10 C       -2.9660     3.7580    -0.4630 C.3   1 <1>  -0.1600 
 11 N        2.5830     4.0260     0.8480 N.ar  1 <1>  -0.6200 
 12 C        3.0560     2.6690    -1.0770 C.ar  1 <1>   0.0820 
 13 C       -4.0240     3.5190     0.6400 C.3   1 <1>   0.2800 
 14 C        3.3410     3.7000    -0.1880 C.ar  1 <1>   0.1600 
 15 O        3.8660     2.3810    -2.1130 O.3   1 <1>  -0.5320 
 16 O       -4.0240     4.7090     1.4010 O.3   1 <1>  -0.5600 
 17 C       -5.4410     3.2000     0.0570 C.3   1 <1>   0.2000 
 18 C       -5.1860     5.4810     1.4850 C.3   1 <1>   0.1200 
 19 O       -5.4070     2.0810    -0.7910 O.3   1 <1>  -0.6800 
 20 C       -6.1390     4.4330    -0.6020 C.3   1 <1>   0.2800 
 21 C       -5.7110     5.7470     0.0740 C.3   1 <1>  -0.1600 
 22 O       -7.4970     4.3040    -0.3830 O.3   1 <1>  -0.6800 
 23 C       -5.9830     4.5350    -2.1270 C.3   1 <1>  -0.2400 
 24 H       -3.0060     0.9330     0.1530 H     1 <1>   0.0800 
 25 H       -2.2820     0.6950     1.7210 H     1 <1>   0.0800 
 26 H       -1.3990     4.2550     0.9130 H     1 <1>   0.0800 
 27 H       -0.8400     3.8320    -0.6890 H     1 <1>   0.0800 
 28 H        0.8650     3.5190     1.8430 H     1 <1>   0.1500 
 29 H        1.6700     1.1110    -1.5630 H     1 <1>   0.1500 
 30 H       -3.1110     2.8420     2.4860 H     1 <1>   0.0800 
 31 H       -4.4190     1.8390     1.9560 H     1 <1>   0.0800 
 32 H       -3.0870     3.0610    -1.2710 H     1 <1>   0.0800 
 33 H       -3.0720     4.7460    -0.8680 H     1 <1>   0.0800 
 34 H        4.2330     4.2830    -0.3350 H     1 <1>   0.1500 
 35 H        4.6710     2.9290    -2.1640 H     1 <1>   0.4500 
 36 H       -6.0510     2.9050     0.8920 H     1 <1>   0.0800 
 37 H       -5.9120     4.9580     2.0860 H     1 <1>   0.0800 
 38 H       -4.9290     6.4040     1.9750 H     1 <1>   0.0800 
 39 H       -5.1480     2.3510    -1.6910 H     1 <1>   0.4000 
 40 H       -4.9190     6.2160    -0.4820 H     1 <1>   0.0800 
 41 H       -6.5290     6.4430     0.1120 H     1 <1>   0.0800 
 42 H       -7.9850     4.9580    -0.9150 H     1 <1>   0.4000 
 43 H       -4.9440     4.5750    -2.3970 H     1 <1>   0.0800 
 44 H       -6.4530     5.4300    -2.4940 H     1 <1>   0.0800 
 45 H       -6.4300     3.6860    -2.6130 H     1 <1>   0.0800 
@<TRIPOS>BOND
  1   1   2  2   
  2   2   3  am  
  3   2   4  1   
  4   3   5  1   
  5   3   6  1   
  6   4   7  ar  
  7   4   8  ar  
  8   5   9  1   
  9   5  24  1   
 10   5  25  1   
 11   6  10  1   
 12   6  26  1   
 13   6  27  1   
 14   7  11  ar  
 15   7  28  1   
 16   8  12  ar  
 17   8  29  1   
 18   9  13  1   
 19   9  30  1   
 20   9  31  1   
 21  10  13  1   
 22  10  32  1   
 23  10  33  1   
 24  11  14  ar  
 25  12  14  ar  
 26  12  15  1   
 27  13  16  1   
 28  13  17  1   
 29  14  34  1   
 30  15  35  1   
 31  16  18  1   
 32  17  19  1   
 33  17  20  1   
 34  17  36  1   
 35  18  21  1   
 36  18  37  1   
 37  18  38  1   
 38  19  39  1   
 39  20  21  1   
 40  20  22  1   
 41  20  23  1   
 42  21  40  1   
 43  21  41  1   
 44  22  42  1   
 45  23  43  1   
 46  23  44  1   
 47  23  45  1   
@<TRIPOS>SUBSTRUCTURE
  1 ****   6 GROUP 4 **** **** 0

# MOE 2024.06 (io_trps.svl 2023.06)
