@<TRIPOS>MOLECULE
NONAME
58 60 1 0 0 
SMALL
USER_CHARGES


@<TRIPOS>ATOM
  1 O        0.3010    -0.7810    -1.0460 O.2   1 <1>  -0.5700 
  2 C        1.2150    -1.0620    -0.3050 C.2   1 <1>   0.5690 
  3 N        2.0720    -0.1460     0.2200 N.am  1 <1>  -0.4930 
  4 C        1.4670    -2.5260     0.0550 C.3   1 <1>  -0.0190 
  5 C        2.2100     1.2440    -0.0180 C.2   1 <1>   0.0630 
  6 C        2.4950    -3.1570    -0.9010 C.3   1 <1>  -0.1600 
  7 C        0.1780    -3.3720     0.0650 C.3   1 <1>  -0.1600 
  8 C        3.4590     1.8730    -0.0350 C.2   1 <1>   0.3720 
  9 C        1.3190     2.2330    -0.2490 C.2   1 <1>  -0.3320 
 10 C        2.7700    -4.6210    -0.5470 C.3   1 <1>   0.1400 
 11 C        0.4640    -4.8350     0.4120 C.3   1 <1>   0.1400 
 12 N        3.3750     3.1420    -0.2800 N.2   1 <1>  -0.7070 
 13 N        4.6780     1.1980     0.1810 N.pl3 1 <1>  -0.8210 
 14 N        2.0490     3.3640    -0.4210 N.pl3 1 <1>   0.3140 
 15 C       -0.2010     2.1830    -0.3080 C.3   1 <1>  -0.0600 
 16 N        1.4920    -5.3840    -0.5170 N.am  1 <1>  -0.6600 
 17 C        5.5270     1.8720     1.2040 C.3   1 <1>   0.2090 
 18 C        5.4670     1.1020    -1.0770 C.3   1 <1>   0.2090 
 19 C        1.5420     4.7080    -0.7240 C.3   1 <1>   0.0160 
 20 C        1.3440    -6.5500    -1.2370 C.2   1 <1>   0.5690 
 21 C        6.7820     2.3450     0.4820 C.3   1 <1>  -0.1600 
 22 C        6.9100     1.3940    -0.6950 C.3   1 <1>  -0.1600 
 23 O        2.2260    -6.9600    -1.9590 O.2   1 <1>  -0.5700 
 24 C        0.0510    -7.3730    -1.2030 C.3   1 <1>   0.1810 
 25 O       -0.2850    -7.8090     0.0930 O.3   1 <1>  -0.5600 
 26 C       -1.3900    -8.6450     0.1380 C.3   1 <1>   0.1200 
 27 C       -1.6490    -8.9790     1.6010 C.3   1 <1>  -0.2400 
 28 H        2.9180    -0.5090     0.6600 H     1 <1>   0.3700 
 29 H        1.8750    -2.5490     1.0500 H     1 <1>   0.0800 
 30 H        3.4180    -2.6070    -0.8620 H     1 <1>   0.0800 
 31 H        2.1280    -3.1070    -1.9120 H     1 <1>   0.0800 
 32 H       -0.2930    -3.3330    -0.9020 H     1 <1>   0.0800 
 33 H       -0.5150    -2.9650     0.7800 H     1 <1>   0.0800 
 34 H        3.2360    -4.6860     0.4210 H     1 <1>   0.0800 
 35 H        3.4480    -5.0400    -1.2700 H     1 <1>   0.0800 
 36 H       -0.4540    -5.3900     0.3550 H     1 <1>   0.0800 
 37 H        0.8320    -4.9110     1.4210 H     1 <1>   0.0800 
 38 H       -0.5640     1.2790     0.1440 H     1 <1>   0.0800 
 39 H       -0.5310     2.2090    -1.3320 H     1 <1>   0.0800 
 40 H       -0.6290     3.0120     0.2240 H     1 <1>   0.0800 
 41 H        5.7870     1.1520     1.9600 H     1 <1>   0.0800 
 42 H        5.0170     2.6970     1.6730 H     1 <1>   0.0800 
 43 H        5.1230     1.8350    -1.7900 H     1 <1>   0.0800 
 44 H        5.3670     0.1210    -1.5090 H     1 <1>   0.0800 
 45 H        0.8760     4.6530    -1.5640 H     1 <1>   0.0800 
 46 H        2.3690     5.3500    -0.9620 H     1 <1>   0.0800 
 47 H        1.0240     5.0890     0.1350 H     1 <1>   0.0800 
 48 H        7.6440     2.3340     1.1240 H     1 <1>   0.0800 
 49 H        6.6150     3.3470     0.1270 H     1 <1>   0.0800 
 50 H        7.4600     1.8230    -1.5130 H     1 <1>   0.0800 
 51 H        7.3840     0.4800    -0.3850 H     1 <1>   0.0800 
 52 H        0.1780    -8.2390    -1.8280 H     1 <1>   0.0800 
 53 H       -0.7570    -6.7760    -1.5850 H     1 <1>   0.0800 
 54 H       -1.1740    -9.5390    -0.4230 H     1 <1>   0.0800 
 55 H       -2.2360    -8.1330    -0.2900 H     1 <1>   0.0800 
 56 H       -0.7940    -9.4780     2.0210 H     1 <1>   0.0800 
 57 H       -2.5000    -9.6310     1.6820 H     1 <1>   0.0800 
 58 H       -1.8490    -8.0810     2.1560 H     1 <1>   0.0800 
@<TRIPOS>BOND
  1   1   2  2   
  2   2   3  am  
  3   2   4  1   
  4   3   5  1   
  5   3  28  1   
  6   4   6  1   
  7   4   7  1   
  8   4  29  1   
  9   5   8  1   
 10   5   9  2   
 11   6  10  1   
 12   6  30  1   
 13   6  31  1   
 14   7  11  1   
 15   7  32  1   
 16   7  33  1   
 17   8  12  2   
 18   8  13  1   
 19   9  14  1   
 20   9  15  1   
 21  10  16  1   
 22  10  34  1   
 23  10  35  1   
 24  11  16  1   
 25  11  36  1   
 26  11  37  1   
 27  12  14  1   
 28  13  17  1   
 29  13  18  1   
 30  14  19  1   
 31  15  38  1   
 32  15  39  1   
 33  15  40  1   
 34  16  20  am  
 35  17  21  1   
 36  17  41  1   
 37  17  42  1   
 38  18  22  1   
 39  18  43  1   
 40  18  44  1   
 41  19  45  1   
 42  19  46  1   
 43  19  47  1   
 44  20  23  2   
 45  20  24  1   
 46  21  22  1   
 47  21  48  1   
 48  21  49  1   
 49  22  50  1   
 50  22  51  1   
 51  24  25  1   
 52  24  52  1   
 53  24  53  1   
 54  25  26  1   
 55  26  27  1   
 56  26  54  1   
 57  26  55  1   
 58  27  56  1   
 59  27  57  1   
 60  27  58  1   
@<TRIPOS>SUBSTRUCTURE
  1 ****   2 GROUP 4 **** **** 0

# MOE 2024.06 (io_trps.svl 2023.06)
