@<TRIPOS>MOLECULE
NONAME
45 46 1 0 0 
SMALL
USER_CHARGES


@<TRIPOS>ATOM
  1 O       -0.9040    -0.1190    -0.8790 O.2   1 <1>  -0.5700 
  2 C       -1.9150     0.5430    -0.9050 C.2   1 <1>   0.5690 
  3 N       -3.1310    -0.0250    -1.1840 N.am  1 <1>  -0.6600 
  4 C       -1.8020     2.0380    -0.6290 C.3   1 <1>  -0.0990 
  5 C       -3.2410    -1.4980    -1.4350 C.3   1 <1>   0.3210 
  6 C       -4.4160     0.7470    -1.3050 C.3   1 <1>   0.1400 
  7 C       -0.4950     2.4420     0.0680 C.3   1 <1>  -0.0170 
  8 C       -4.0690    -2.1760    -0.3500 C.2   1 <1>   0.0460 
  9 C       -5.2560     0.7700    -0.0120 C.3   1 <1>   0.1200 
 10 C       -0.4800     3.9400     0.3270 C.ar  1 <1>  -0.1440 
 11 N       -5.3380    -2.5650    -0.5940 N.2   1 <1>  -0.5650 
 12 C       -3.7130    -2.4630     0.9250 C.2   1 <1>  -0.3320 
 13 O       -4.4430     0.7260     1.1100 O.3   1 <1>  -0.6800 
 14 C       -1.1210     4.4630     1.4380 C.ar  1 <1>  -0.1500 
 15 C        0.1680     4.7990    -0.5460 C.ar  1 <1>  -0.1500 
 16 C       -5.7260    -3.0760     0.5290 C.2   1 <1>   0.0360 
 17 N       -4.7850    -3.0430     1.4940 N.pl3 1 <1>   0.0330 
 18 C       -2.4100    -2.2240     1.6710 C.3   1 <1>  -0.0600 
 19 C       -1.1150     5.8270     1.6740 C.ar  1 <1>  -0.1500 
 20 C        0.1750     6.1630    -0.3110 C.ar  1 <1>  -0.1500 
 21 C       -0.4680     6.6850     0.8000 C.ar  1 <1>  -0.1430 
 22 C       -0.4590     8.1810     1.0590 C.3   1 <1>  -0.0970 
 23 H       -2.6180     2.3440    -0.0020 H     1 <1>   0.0800 
 24 H       -1.8780     2.5620    -1.5630 H     1 <1>   0.0800 
 25 H       -2.2690    -1.9560    -1.4590 H     1 <1>   0.0800 
 26 H       -3.7010    -1.6660    -2.3910 H     1 <1>   0.0800 
 27 H       -5.0130     0.3260    -2.0950 H     1 <1>   0.0800 
 28 H       -4.2050     1.7620    -1.5920 H     1 <1>   0.0800 
 29 H        0.3460     2.1690    -0.5450 H     1 <1>   0.0800 
 30 H       -0.4040     1.9140     1.0010 H     1 <1>   0.0800 
 31 H       -5.9120    -0.0820     0.0220 H     1 <1>   0.0800 
 32 H       -5.8560     1.6620     0.0360 H     1 <1>   0.0800 
 33 H       -3.8820    -0.0760     1.0280 H     1 <1>   0.4000 
 34 H       -1.6300     3.8090     2.1250 H     1 <1>   0.1500 
 35 H        0.6710     4.4090    -1.4130 H     1 <1>   0.1500 
 36 H       -6.7030    -3.4940     0.6980 H     1 <1>   0.1500 
 37 H       -4.8740    -3.3880     2.4540 H     1 <1>   0.2700 
 38 H       -1.6720    -1.7930     1.0180 H     1 <1>   0.0800 
 39 H       -2.0230    -3.1530     2.0480 H     1 <1>   0.0800 
 40 H       -2.5690    -1.5510     2.4940 H     1 <1>   0.0800 
 41 H       -1.6160     6.2160     2.5420 H     1 <1>   0.1500 
 42 H        0.6840     6.8160    -0.9970 H     1 <1>   0.1500 
 43 H       -1.3490     8.4760     1.5830 H     1 <1>   0.0800 
 44 H       -0.4150     8.7230     0.1320 H     1 <1>   0.0800 
 45 H        0.3980     8.4400     1.6550 H     1 <1>   0.0800 
@<TRIPOS>BOND
  1   1   2  2   
  2   2   3  am  
  3   2   4  1   
  4   3   5  1   
  5   3   6  1   
  6   4   7  1   
  7   4  23  1   
  8   4  24  1   
  9   5   8  1   
 10   5  25  1   
 11   5  26  1   
 12   6   9  1   
 13   6  27  1   
 14   6  28  1   
 15   7  10  1   
 16   7  29  1   
 17   7  30  1   
 18   8  11  1   
 19   8  12  2   
 20   9  13  1   
 21   9  31  1   
 22   9  32  1   
 23  10  14  ar  
 24  10  15  ar  
 25  11  16  2   
 26  12  17  1   
 27  12  18  1   
 28  13  33  1   
 29  14  19  ar  
 30  14  34  1   
 31  15  20  ar  
 32  15  35  1   
 33  16  17  1   
 34  16  36  1   
 35  17  37  1   
 36  18  38  1   
 37  18  39  1   
 38  18  40  1   
 39  19  21  ar  
 40  19  41  1   
 41  20  21  ar  
 42  20  42  1   
 43  21  22  1   
 44  22  43  1   
 45  22  44  1   
 46  22  45  1   
@<TRIPOS>SUBSTRUCTURE
  1 ****   4 GROUP 4 **** **** 0

# MOE 2024.06 (io_trps.svl 2023.06)
