@<TRIPOS>MOLECULE
NONAME
46 48 1 0 0 
SMALL
USER_CHARGES


@<TRIPOS>ATOM
  1 O        2.4100     0.8020     1.7530 O.2   1 <1>  -0.5700 
  2 C        2.0840     1.7120     1.0370 C.2   1 <1>   0.5690 
  3 N        1.5820     2.8800     1.4490 N.am  1 <1>  -0.7300 
  4 C        2.2140     1.7040    -0.4600 C.3   1 <1>  -0.0990 
  5 C        1.3350     3.8550     0.3680 C.3   1 <1>   0.2810 
  6 C        2.0540     3.1920    -0.8300 C.3   1 <1>  -0.1600 
  7 C        1.7810     5.2940     0.7050 C.2   1 <1>   0.5690 
  8 O        1.6760     5.6820     1.8460 O.2   1 <1>  -0.5700 
  9 N        2.2540     6.1050    -0.2940 N.am  1 <1>  -0.4940 
 10 C        2.4810     7.4930    -0.2240 C.2   1 <1>  -0.0880 
 11 N        3.6530     8.1360     0.0630 N.pl3 1 <1>   0.3140 
 12 C        1.5410     8.4480    -0.4730 C.2   1 <1>  -0.0540 
 13 N        3.4770     9.4850    -0.0270 N.2   1 <1>  -0.7070 
 14 C        5.0070     7.5310     0.4010 C.3   1 <1>   0.2560 
 15 C        0.1510     8.2810    -0.8050 C.ar  1 <1>   0.0540 
 16 C        2.2320     9.6490    -0.3340 C.2   1 <1>   0.1390 
 17 C        5.4760     6.6010    -0.7330 C.3   1 <1>  -0.2400 
 18 C        4.9280     6.7430     1.7200 C.3   1 <1>  -0.2400 
 19 C        6.0780     8.6280     0.5770 C.3   1 <1>  -0.2400 
 20 C       -0.7220     7.6540     0.0790 C.ar  1 <1>  -0.1500 
 21 C       -0.3590     8.7350    -2.0180 C.ar  1 <1>  -0.1500 
 22 C       -2.0550     7.4740    -0.2380 C.ar  1 <1>  -0.1500 
 23 C       -1.6920     8.5570    -2.3420 C.ar  1 <1>  -0.1500 
 24 C       -2.5430     7.9250    -1.4530 C.ar  1 <1>  -0.1500 
 25 H        1.5200     3.1590     2.4330 H     1 <1>   0.3700 
 26 H        1.4210     1.1080    -0.8730 H     1 <1>   0.0800 
 27 H        3.1680     1.3100    -0.7590 H     1 <1>   0.0800 
 28 H        0.2750     3.8750     0.1840 H     1 <1>   0.0800 
 29 H        1.5050     3.3230    -1.7460 H     1 <1>   0.0800 
 30 H        3.0360     3.6170    -0.9460 H     1 <1>   0.0800 
 31 H        2.2020     5.7300    -1.2420 H     1 <1>   0.3700 
 32 H        1.7770    10.6160    -0.4660 H     1 <1>   0.1500 
 33 H        4.8300     5.7500    -0.8310 H     1 <1>   0.0800 
 34 H        6.4660     6.2360    -0.5280 H     1 <1>   0.0800 
 35 H        5.5000     7.1370    -1.6640 H     1 <1>   0.0800 
 36 H        4.3080     5.8750     1.6170 H     1 <1>   0.0800 
 37 H        4.5250     7.3660     2.4990 H     1 <1>   0.0800 
 38 H        5.9050     6.4120     2.0210 H     1 <1>   0.0800 
 39 H        6.1800     9.2020    -0.3270 H     1 <1>   0.0800 
 40 H        7.0340     8.1970     0.8110 H     1 <1>   0.0800 
 41 H        5.8040     9.2930     1.3770 H     1 <1>   0.0800 
 42 H       -0.3440     7.3120     1.0280 H     1 <1>   0.1500 
 43 H        0.2990     9.2270    -2.7120 H     1 <1>   0.1500 
 44 H       -2.7150     6.9880     0.4600 H     1 <1>   0.1500 
 45 H       -2.0700     8.9120    -3.2860 H     1 <1>   0.1500 
 46 H       -3.5810     7.7880    -1.7030 H     1 <1>   0.1500 
@<TRIPOS>BOND
  1   1   2  2   
  2   2   3  am  
  3   2   4  1   
  4   3   5  1   
  5   3  25  1   
  6   4   6  1   
  7   4  26  1   
  8   4  27  1   
  9   5   6  1   
 10   5   7  1   
 11   5  28  1   
 12   6  29  1   
 13   6  30  1   
 14   7   8  2   
 15   7   9  am  
 16   9  10  1   
 17   9  31  1   
 18  10  11  1   
 19  10  12  2   
 20  11  13  1   
 21  11  14  1   
 22  12  15  1   
 23  12  16  1   
 24  13  16  2   
 25  14  17  1   
 26  14  18  1   
 27  14  19  1   
 28  15  20  ar  
 29  15  21  ar  
 30  16  32  1   
 31  17  33  1   
 32  17  34  1   
 33  17  35  1   
 34  18  36  1   
 35  18  37  1   
 36  18  38  1   
 37  19  39  1   
 38  19  40  1   
 39  19  41  1   
 40  20  22  ar  
 41  20  42  1   
 42  21  23  ar  
 43  21  43  1   
 44  22  24  ar  
 45  22  44  1   
 46  23  24  ar  
 47  23  45  1   
 48  24  46  1   
@<TRIPOS>SUBSTRUCTURE
  1 ****   9 GROUP 4 **** **** 0

# MOE 2024.06 (io_trps.svl 2023.06)
