@<TRIPOS>MOLECULE
NONAME
55 57 1 0 0 
SMALL
USER_CHARGES


@<TRIPOS>ATOM
  1 CL       1.5050     1.3990     1.7290 Cl    1 <1>  -0.1770 
  2 C        2.0930    -0.1190     1.1030 C.ar  1 <1>   0.1770 
  3 C        2.8830    -0.1230    -0.0280 C.ar  1 <1>  -0.1500 
  4 C        1.7490    -1.2880     1.7520 C.ar  1 <1>  -0.1500 
  5 C        3.3510    -1.3320    -0.5340 C.ar  1 <1>   0.0830 
  6 C        2.2120    -2.5010     1.2650 C.ar  1 <1>  -0.1440 
  7 O        4.0960    -1.3860    -1.6730 O.3   1 <1>  -0.3620 
  8 C        3.0250    -2.5260     0.1320 C.ar  1 <1>   0.0830 
  9 C        1.8300    -3.7880     1.9760 C.3   1 <1>   0.4870 
 10 C        4.4570    -0.2260    -2.3930 C.3   1 <1>   0.0400 
 11 O        3.4460    -3.7550    -0.2880 O.3   1 <1>  -0.3630 
 12 N        1.1750    -4.6950     1.0030 N.4   1 <1>  -0.9590 
 13 C        4.8030    -3.9510    -0.6360 C.3   1 <1>   0.1200 
 14 C       -0.0760    -4.1610     0.3760 C.3   1 <1>   0.3430 
 15 C        0.8810    -6.0570     1.5040 C.3   1 <1>   0.3430 
 16 C        5.1320    -5.4340    -0.4690 C.3   1 <1>  -0.1600 
 17 C       -1.0560    -5.3440     0.3000 C.3   1 <1>   0.2000 
 18 C       -0.2050    -6.5880     0.5640 C.3   1 <1>  -0.0800 
 19 C        6.6090    -5.7130    -0.7670 C.3   1 <1>  -0.2400 
 20 O       -2.0040    -5.2260     1.3080 O.3   1 <1>  -0.6800 
 21 C        0.3580    -7.1560    -0.7580 C.3   1 <1>   0.0200 
 22 C        1.4610    -8.1670    -0.5190 C.2   1 <1>  -0.0400 
 23 O        2.6570    -7.7490    -0.2010 O.3   1 <1>  -0.0190 
 24 C        1.4940    -9.5070    -0.5670 C.2   1 <1>  -0.1500 
 25 N        3.4810    -8.7330    -0.0100 N.2   1 <1>  -0.4100 
 26 C        2.8120    -9.8070    -0.2320 C.2   1 <1>   0.1080 
 27 C        3.3870   -11.2040    -0.1390 C.3   1 <1>  -0.0590 
 28 H        3.1070     0.8210    -0.4880 H     1 <1>   0.1500 
 29 H        1.1270    -1.2270     2.6290 H     1 <1>   0.1500 
 30 H        1.1650    -3.5760     2.7970 H     1 <1>   0.0800 
 31 H        2.7230    -4.2520     2.3640 H     1 <1>   0.0800 
 32 H        5.0430    -0.5290    -3.2430 H     1 <1>   0.0800 
 33 H        5.0440     0.4150    -1.7590 H     1 <1>   0.0800 
 34 H        3.5650     0.2730    -2.7280 H     1 <1>   0.0800 
 35 H        1.8840    -4.7740     0.2460 H     1 <1>   0.4500 
 36 H        4.9430    -3.6530    -1.6610 H     1 <1>   0.0800 
 37 H        5.4190    -3.3450     0.0080 H     1 <1>   0.0800 
 38 H       -0.5060    -3.3630     0.9600 H     1 <1>   0.0800 
 39 H        0.1460    -3.7950    -0.6130 H     1 <1>   0.0800 
 40 H        1.7610    -6.6790     1.5250 H     1 <1>   0.0800 
 41 H        0.4820    -5.9960     2.5030 H     1 <1>   0.0800 
 42 H        4.9160    -5.7450     0.5380 H     1 <1>   0.0800 
 43 H        4.5290    -6.0110    -1.1470 H     1 <1>   0.0800 
 44 H       -1.5830    -5.3730    -0.6400 H     1 <1>   0.0800 
 45 H       -0.7730    -7.3640     1.0480 H     1 <1>   0.0800 
 46 H        7.2430    -5.1660    -0.0920 H     1 <1>   0.0800 
 47 H        6.8500    -5.4310    -1.7770 H     1 <1>   0.0800 
 48 H        6.8120    -6.7640    -0.6510 H     1 <1>   0.0800 
 49 H       -1.6460    -5.3800     2.2020 H     1 <1>   0.4000 
 50 H        0.7500    -6.3730    -1.3840 H     1 <1>   0.0800 
 51 H       -0.4390    -7.6350    -1.3010 H     1 <1>   0.0800 
 52 H        0.7190   -10.2150    -0.8000 H     1 <1>   0.1500 
 53 H        2.8590   -11.7690     0.6070 H     1 <1>   0.0800 
 54 H        4.4270   -11.1570     0.1320 H     1 <1>   0.0800 
 55 H        3.2990   -11.6990    -1.0880 H     1 <1>   0.0800 
@<TRIPOS>BOND
  1   1   2  1   
  2   2   3  ar  
  3   2   4  ar  
  4   3   5  ar  
  5   3  28  1   
  6   4   6  ar  
  7   4  29  1   
  8   5   7  1   
  9   5   8  ar  
 10   6   8  ar  
 11   6   9  1   
 12   7  10  1   
 13   8  11  1   
 14   9  12  1   
 15   9  30  1   
 16   9  31  1   
 17  10  32  1   
 18  10  33  1   
 19  10  34  1   
 20  11  13  1   
 21  12  14  1   
 22  12  15  1   
 23  12  35  1   
 24  13  16  1   
 25  13  36  1   
 26  13  37  1   
 27  14  17  1   
 28  14  38  1   
 29  14  39  1   
 30  15  18  1   
 31  15  40  1   
 32  15  41  1   
 33  16  19  1   
 34  16  42  1   
 35  16  43  1   
 36  17  18  1   
 37  17  20  1   
 38  17  44  1   
 39  18  21  1   
 40  18  45  1   
 41  19  46  1   
 42  19  47  1   
 43  19  48  1   
 44  20  49  1   
 45  21  22  1   
 46  21  50  1   
 47  21  51  1   
 48  22  23  1   
 49  22  24  2   
 50  23  25  1   
 51  24  26  1   
 52  24  52  1   
 53  25  26  2   
 54  26  27  1   
 55  27  53  1   
 56  27  54  1   
 57  27  55  1   
@<TRIPOS>SUBSTRUCTURE
  1 ****  12 GROUP 4 **** **** 0

# MOE 2024.06 (io_trps.svl 2023.06)
