@<TRIPOS>MOLECULE
NONAME
44 45 1 0 0 
SMALL
USER_CHARGES


@<TRIPOS>ATOM
  1 O       -0.3140     0.9640    -0.9630 O.co2 1 <1>  -0.9000 
  2 C       -0.7730     1.4050     0.0920 C.2   1 <1>   0.9060 
  3 O       -1.0500     0.7170     1.0730 O.co2 1 <1>  -0.9000 
  4 C       -1.0290     2.8730     0.1880 C.3   1 <1>  -0.1860 
  5 C       -2.5100     3.1060     0.4910 C.3   1 <1>   0.2000 
  6 C       -0.6410     3.5300    -1.1210 C.3   1 <1>   0.3430 
  7 O       -2.6180     3.1610     1.8590 O.3   1 <1>  -0.6800 
  8 C       -3.0370     4.4240    -0.0820 C.3   1 <1>  -0.1600 
  9 N       -0.8110     5.0260    -1.0370 N.4   1 <1>  -0.9590 
 10 C       -1.9160     5.4550    -0.1030 C.3   1 <1>   0.3430 
 11 C        0.5010     5.6290    -0.6390 C.3   1 <1>   0.3430 
 12 C        0.5240     7.1530    -0.7760 C.3   1 <1>   0.1200 
 13 O        1.8120     7.5850    -0.4180 O.3   1 <1>  -0.3630 
 14 C        2.1400     8.9040    -0.3550 C.ar  1 <1>   0.0830 
 15 C        3.3880     9.2470     0.1680 C.ar  1 <1>  -0.1430 
 16 C        1.2690     9.9010    -0.7890 C.ar  1 <1>  -0.1500 
 17 C        3.7430    10.5910     0.2680 C.ar  1 <1>  -0.1430 
 18 C        4.3640     8.1670     0.6390 C.3   1 <1>  -0.0970 
 19 C        1.6330    11.2290    -0.6940 C.ar  1 <1>  -0.1500 
 20 C        2.8630    11.5700    -0.1660 C.ar  1 <1>  -0.1500 
 21 C        5.0810    11.0320     0.8470 C.3   1 <1>  -0.0970 
 22 H       -0.3990     3.2530     0.9690 H     1 <1>   0.0800 
 23 H       -3.1170     2.2820     0.1480 H     1 <1>   0.0800 
 24 H       -1.2730     3.1260    -1.8970 H     1 <1>   0.0800 
 25 H        0.3760     3.2680    -1.3680 H     1 <1>   0.0800 
 26 H       -2.2890     2.2930     2.2040 H     1 <1>   0.4000 
 27 H       -3.3980     4.2690    -1.0830 H     1 <1>   0.0800 
 28 H       -3.8630     4.7750     0.5120 H     1 <1>   0.0800 
 29 H       -1.0430     5.3360    -1.9880 H     1 <1>   0.4500 
 30 H       -1.5290     5.5390     0.9020 H     1 <1>   0.0800 
 31 H       -2.3020     6.4160    -0.3990 H     1 <1>   0.0800 
 32 H        0.7200     5.3650     0.3840 H     1 <1>   0.0800 
 33 H        1.2810     5.2230    -1.2630 H     1 <1>   0.0800 
 34 H       -0.1780     7.6160    -0.1050 H     1 <1>   0.0800 
 35 H        0.3440     7.4490    -1.7940 H     1 <1>   0.0800 
 36 H        0.3080     9.6770    -1.2060 H     1 <1>   0.1500 
 37 H        5.3570     8.3800     0.2880 H     1 <1>   0.0800 
 38 H        4.1020     7.1930     0.2720 H     1 <1>   0.0800 
 39 H        4.3740     8.1340     1.7130 H     1 <1>   0.0800 
 40 H        0.9630    12.0020    -1.0290 H     1 <1>   0.1500 
 41 H        3.1310    12.6100    -0.0960 H     1 <1>   0.1500 
 42 H        5.1130    12.0980     0.9800 H     1 <1>   0.0800 
 43 H        5.8780    10.7510     0.1830 H     1 <1>   0.0800 
 44 H        5.2420    10.5730     1.8050 H     1 <1>   0.0800 
@<TRIPOS>BOND
  1   1   2  ar  
  2   2   3  ar  
  3   2   4  1   
  4   4   5  1   
  5   4   6  1   
  6   4  22  1   
  7   5   7  1   
  8   5   8  1   
  9   5  23  1   
 10   6   9  1   
 11   6  24  1   
 12   6  25  1   
 13   7  26  1   
 14   8  10  1   
 15   8  27  1   
 16   8  28  1   
 17   9  10  1   
 18   9  11  1   
 19   9  29  1   
 20  10  30  1   
 21  10  31  1   
 22  11  12  1   
 23  11  32  1   
 24  11  33  1   
 25  12  13  1   
 26  12  34  1   
 27  12  35  1   
 28  13  14  1   
 29  14  15  ar  
 30  14  16  ar  
 31  15  17  ar  
 32  15  18  1   
 33  16  19  ar  
 34  16  36  1   
 35  17  20  ar  
 36  17  21  1   
 37  18  37  1   
 38  18  38  1   
 39  18  39  1   
 40  19  20  ar  
 41  19  40  1   
 42  20  41  1   
 43  21  42  1   
 44  21  43  1   
 45  21  44  1   
@<TRIPOS>SUBSTRUCTURE
  1 ****  11 GROUP 4 **** **** 0

# MOE 2024.06 (io_trps.svl 2023.06)
