@<TRIPOS>MOLECULE
NONAME
45 48 1 0 0 
SMALL
USER_CHARGES


@<TRIPOS>ATOM
  1 F       -1.1380     0.5410     2.1650 F     1 <1>  -0.1370 
  2 C       -1.9870     0.7240     1.1850 C.2   1 <1>  -0.0150 
  3 N       -2.1570     1.9320     0.6460 N.pl3 1 <1>   0.3340 
  4 C       -2.7950    -0.1980     0.5890 C.2   1 <1>   0.1410 
  5 C       -3.1180     1.7050    -0.3130 C.2   1 <1>   0.1420 
  6 C       -1.6170     3.1960     0.8540 C.2   1 <1>  -0.1810 
  7 N       -3.5180     0.4530    -0.3710 N.2   1 <1>  -0.5650 
  8 C       -2.8750    -1.6220     0.8960 C.2   1 <1>   0.7160 
  9 C       -3.5510     2.8040    -1.0990 C.2   1 <1>  -0.1050 
 10 C       -2.0330     4.2490     0.1020 C.2   1 <1>  -0.1380 
 11 O       -1.9450    -2.1800     1.4540 O.2   1 <1>  -0.5700 
 12 N       -3.9720    -2.4040     0.5870 N.am  1 <1>  -0.6600 
 13 C       -3.0240     4.0440    -0.8980 C.2   1 <1>  -0.1500 
 14 C       -1.4760     5.6480     0.2900 C.3   1 <1>  -0.1020 
 15 C       -5.2550    -1.9360     0.0010 C.3   1 <1>   0.1400 
 16 C       -3.9990    -3.8740     0.7820 C.3   1 <1>   0.1400 
 17 C       -6.2190    -3.1010     0.2170 C.3   1 <1>   0.2000 
 18 C       -5.3150    -4.3370     0.1460 C.3   1 <1>  -0.0800 
 19 O       -6.7520    -2.9910     1.4930 O.3   1 <1>  -0.6800 
 20 C       -5.9030    -5.6100     0.7840 C.3   1 <1>   0.0200 
 21 C       -5.0390    -6.8410     0.5650 C.2   1 <1>  -0.0400 
 22 O       -5.3560    -7.9460     1.1870 O.3   1 <1>  -0.0190 
 23 C       -3.9440    -7.0880    -0.1730 C.2   1 <1>  -0.1500 
 24 N       -4.5330    -8.9150     0.9090 N.2   1 <1>  -0.4100 
 25 C       -3.6710    -8.4270     0.0920 C.2   1 <1>   0.1080 
 26 C       -2.5190    -9.2110    -0.4970 C.3   1 <1>  -0.0590 
 27 H       -0.8740     3.2700     1.6270 H     1 <1>   0.1500 
 28 H       -4.3000     2.6130    -1.8460 H     1 <1>   0.1500 
 29 H       -3.3430     4.8870    -1.4870 H     1 <1>   0.1500 
 30 H       -2.2680     6.3270     0.5510 H     1 <1>   0.0800 
 31 H       -1.0140     5.9850    -0.6200 H     1 <1>   0.0800 
 32 H       -0.7390     5.6640     1.0740 H     1 <1>   0.0800 
 33 H       -5.6070    -1.0330     0.4700 H     1 <1>   0.0800 
 34 H       -5.1140    -1.7630    -1.0520 H     1 <1>   0.0800 
 35 H       -3.1440    -4.3330     0.3160 H     1 <1>   0.0800 
 36 H       -3.9830    -4.0870     1.8380 H     1 <1>   0.0800 
 37 H       -7.0290    -3.1180    -0.4920 H     1 <1>   0.0800 
 38 H       -5.1240    -4.5350    -0.8940 H     1 <1>   0.0800 
 39 H       -6.0300    -2.7840     2.1210 H     1 <1>   0.4000 
 40 H       -6.8770    -5.8010     0.3690 H     1 <1>   0.0800 
 41 H       -6.0260    -5.4670     1.8440 H     1 <1>   0.0800 
 42 H       -3.3810    -6.4480    -0.8240 H     1 <1>   0.1500 
 43 H       -2.5970    -9.2250    -1.5680 H     1 <1>   0.0800 
 44 H       -2.5400   -10.2220    -0.1330 H     1 <1>   0.0800 
 45 H       -1.5870    -8.7580    -0.2130 H     1 <1>   0.0800 
@<TRIPOS>BOND
  1   1   2  1   
  2   2   3  1   
  3   2   4  2   
  4   3   5  1   
  5   3   6  1   
  6   4   7  1   
  7   4   8  1   
  8   5   7  2   
  9   5   9  1   
 10   6  10  2   
 11   6  27  1   
 12   8  11  2   
 13   8  12  am  
 14   9  13  2   
 15   9  28  1   
 16  10  13  1   
 17  10  14  1   
 18  12  15  1   
 19  12  16  1   
 20  13  29  1   
 21  14  30  1   
 22  14  31  1   
 23  14  32  1   
 24  15  17  1   
 25  15  33  1   
 26  15  34  1   
 27  16  18  1   
 28  16  35  1   
 29  16  36  1   
 30  17  18  1   
 31  17  19  1   
 32  17  37  1   
 33  18  20  1   
 34  18  38  1   
 35  19  39  1   
 36  20  21  1   
 37  20  40  1   
 38  20  41  1   
 39  21  22  1   
 40  21  23  2   
 41  22  24  1   
 42  23  25  1   
 43  23  42  1   
 44  24  25  2   
 45  25  26  1   
 46  26  43  1   
 47  26  44  1   
 48  26  45  1   
@<TRIPOS>SUBSTRUCTURE
  1 ****  12 GROUP 4 **** **** 0

# MOE 2024.06 (io_trps.svl 2023.06)
