@<TRIPOS>MOLECULE
NONAME
51 54 1 0 0 
SMALL
USER_CHARGES


@<TRIPOS>ATOM
  1 O        0.2240    -0.6150     0.4440 O.3   1 <1>  -0.5600 
  2 C       -0.8100    -1.3130     1.0780 C.3   1 <1>   0.1200 
  3 C        1.2370    -1.4430    -0.0580 C.3   1 <1>   0.1200 
  4 C       -1.4950    -2.2910     0.1050 C.3   1 <1>   0.2090 
  5 C        0.6740    -2.4190    -1.1050 C.3   1 <1>   0.2090 
  6 N       -0.4900    -3.1900    -0.5490 N.pl3 1 <1>  -0.8380 
  7 C       -0.5310    -4.5520    -0.5000 C.ar  1 <1>   0.4100 
  8 N        0.6360    -5.1940    -0.4550 N.ar  1 <1>  -0.6200 
  9 C       -1.7370    -5.2400    -0.4970 C.ar  1 <1>  -0.1500 
 10 C        0.5990    -6.4940    -0.3920 C.ar  1 <1>   0.7710 
 11 C       -1.7470    -6.6110    -0.4250 C.ar  1 <1>   0.4610 
 12 N       -0.5430    -7.2050    -0.3690 N.ar  1 <1>  -0.1790 
 13 N        1.7740    -7.1290    -0.3500 N.pl3 1 <1>  -0.9000 
 14 N       -2.8750    -7.3900    -0.4110 N.pl3 1 <1>  -0.8380 
 15 C       -4.2540    -6.8720    -0.6990 C.3   1 <1>   0.2090 
 16 C       -2.9370    -8.8790    -0.2860 C.3   1 <1>   0.2090 
 17 C       -5.1970    -8.0360    -0.3860 C.3   1 <1>   0.2000 
 18 C       -4.3540    -9.2690    -0.7120 C.3   1 <1>  -0.0800 
 19 O       -5.4830    -8.0110     0.9720 O.3   1 <1>  -0.6800 
 20 C       -4.8440   -10.6100    -0.1260 C.3   1 <1>   0.0200 
 21 C       -3.7710   -11.6780    -0.2450 C.2   1 <1>  -0.0400 
 22 O       -3.0980   -11.8150    -1.3570 O.3   1 <1>  -0.0190 
 23 C       -3.3040   -12.5780     0.6320 C.2   1 <1>  -0.1500 
 24 N       -2.1890   -12.7390    -1.2610 N.2   1 <1>  -0.4100 
 25 C       -2.3000   -13.2300    -0.0790 C.2   1 <1>   0.1080 
 26 C       -1.4510   -14.3620     0.4580 C.3   1 <1>  -0.0590 
 27 H       -0.3990    -1.8440     1.9190 H     1 <1>   0.0800 
 28 H       -1.5190    -0.5900     1.4390 H     1 <1>   0.0800 
 29 H        1.9850    -0.8120    -0.5030 H     1 <1>   0.0800 
 30 H        1.6800    -1.9830     0.7600 H     1 <1>   0.0800 
 31 H       -2.0150    -1.7270    -0.6510 H     1 <1>   0.0800 
 32 H       -2.2200    -2.8650     0.6540 H     1 <1>   0.0800 
 33 H        1.4570    -3.0780    -1.4340 H     1 <1>   0.0800 
 34 H        0.3450    -1.8550    -1.9610 H     1 <1>   0.0800 
 35 H       -2.6520    -4.6900    -0.5640 H     1 <1>   0.1500 
 36 H       -0.4890    -8.2090    -0.3340 H     1 <1>   0.4570 
 37 H        1.9590    -8.1330    -0.3260 H     1 <1>   0.4000 
 38 H        2.6190    -6.5490    -0.3640 H     1 <1>   0.4000 
 39 H       -4.4990    -6.0070    -0.1060 H     1 <1>   0.0800 
 40 H       -4.3270    -6.6220    -1.7450 H     1 <1>   0.0800 
 41 H       -2.2120    -9.3630    -0.9190 H     1 <1>   0.0800 
 42 H       -2.7710    -9.1600     0.7410 H     1 <1>   0.0800 
 43 H       -6.1240    -7.9920    -0.9330 H     1 <1>   0.0800 
 44 H       -4.3360    -9.3740    -1.7830 H     1 <1>   0.0800 
 45 H       -4.6660    -7.8540     1.4830 H     1 <1>   0.4000 
 46 H       -5.7240   -10.9300    -0.6570 H     1 <1>   0.0800 
 47 H       -5.1070   -10.5090     0.9120 H     1 <1>   0.0800 
 48 H       -3.6030   -12.7780     1.6450 H     1 <1>   0.1500 
 49 H       -2.0830   -15.1700     0.7770 H     1 <1>   0.0800 
 50 H       -0.8660   -14.0200     1.2910 H     1 <1>   0.0800 
 51 H       -0.7900   -14.7220    -0.3100 H     1 <1>   0.0800 
@<TRIPOS>BOND
  1   1   2  1   
  2   1   3  1   
  3   2   4  1   
  4   2  27  1   
  5   2  28  1   
  6   3   5  1   
  7   3  29  1   
  8   3  30  1   
  9   4   6  1   
 10   4  31  1   
 11   4  32  1   
 12   5   6  1   
 13   5  33  1   
 14   5  34  1   
 15   6   7  1   
 16   7   8  ar  
 17   7   9  ar  
 18   8  10  ar  
 19   9  11  ar  
 20   9  35  1   
 21  10  12  ar  
 22  10  13  1   
 23  11  12  ar  
 24  11  14  1   
 25  12  36  1   
 26  13  37  1   
 27  13  38  1   
 28  14  15  1   
 29  14  16  1   
 30  15  17  1   
 31  15  39  1   
 32  15  40  1   
 33  16  18  1   
 34  16  41  1   
 35  16  42  1   
 36  17  18  1   
 37  17  19  1   
 38  17  43  1   
 39  18  20  1   
 40  18  44  1   
 41  19  45  1   
 42  20  21  1   
 43  20  46  1   
 44  20  47  1   
 45  21  22  1   
 46  21  23  2   
 47  22  24  1   
 48  23  25  1   
 49  23  48  1   
 50  24  25  2   
 51  25  26  1   
 52  26  49  1   
 53  26  50  1   
 54  26  51  1   
@<TRIPOS>SUBSTRUCTURE
  1 ****  11 GROUP 4 **** **** 0

# MOE 2024.06 (io_trps.svl 2023.06)
