@<TRIPOS>MOLECULE
NONAME
39 41 1 0 0 
SMALL
USER_CHARGES


@<TRIPOS>ATOM
  1 O       -0.0470    -0.0030    -0.7720 O.3   1 <1>  -0.6800 
  2 C        1.2230    -0.2970    -1.2510 C.3   1 <1>   0.2000 
  3 C        1.7060    -1.5630    -0.5490 C.3   1 <1>  -0.0800 
  4 C        2.1950     0.7870    -0.7560 C.3   1 <1>   0.3430 
  5 C        2.1170    -1.0220     0.8240 C.3   1 <1>   0.3430 
  6 C        2.8740    -2.2160    -1.3220 C.3   1 <1>   0.0210 
  7 N        2.7160     0.3130     0.5660 N.4   1 <1>  -0.9590 
  8 C        3.7250    -3.1120    -0.4440 C.2   1 <1>   0.1080 
  9 C        4.2040     0.2980     0.6370 C.3   1 <1>   0.5230 
 10 N        4.6890    -2.6580     0.3010 N.2   1 <1>  -0.7070 
 11 C        3.5770    -4.4890    -0.3400 C.2   1 <1>  -0.1500 
 12 C        4.7150     1.7310     0.7280 C.2   1 <1>   0.0060 
 13 N        5.1990    -3.7630     0.8960 N.pl3 1 <1>   0.3000 
 14 C        4.5340    -4.8770     0.5270 C.2   1 <1>  -0.3320 
 15 N        3.9570     2.7590     0.9670 N.2   1 <1>  -0.5650 
 16 N        6.0210     2.0530     0.5710 N.pl3 1 <1>   0.0330 
 17 C        4.8660    -6.2720     1.0270 C.3   1 <1>  -0.0600 
 18 C        4.8110     3.8010     0.9650 C.2   1 <1>   0.0770 
 19 C        6.0730     3.3880     0.7240 C.2   1 <1>  -0.3020 
 20 H       -0.7320    -0.5620    -1.1950 H     1 <1>   0.4000 
 21 H        1.1810    -0.3630    -2.3250 H     1 <1>   0.0800 
 22 H        0.9200    -2.2900    -0.4370 H     1 <1>   0.0800 
 23 H        1.6930     1.7370    -0.6610 H     1 <1>   0.0800 
 24 H        3.0100     0.8910    -1.4520 H     1 <1>   0.0800 
 25 H        2.7920    -1.6800     1.3460 H     1 <1>   0.0800 
 26 H        1.2280    -0.8950     1.4210 H     1 <1>   0.0800 
 27 H        3.5220    -1.4720    -1.7480 H     1 <1>   0.0800 
 28 H        2.4820    -2.7970    -2.1390 H     1 <1>   0.0800 
 29 H        2.4260     1.0100     1.2710 H     1 <1>   0.4500 
 30 H        4.5210    -0.2440     1.5120 H     1 <1>   0.0800 
 31 H        4.6140    -0.1930    -0.2300 H     1 <1>   0.0800 
 32 H        2.8520    -5.0980    -0.8520 H     1 <1>   0.1500 
 33 H        6.0000    -3.7360     1.5400 H     1 <1>   0.2700 
 34 H        6.8160     1.4320     0.3820 H     1 <1>   0.2700 
 35 H        4.1980    -6.9920     0.5870 H     1 <1>   0.0800 
 36 H        4.7630    -6.3220     2.0970 H     1 <1>   0.0800 
 37 H        5.8740    -6.5360     0.7590 H     1 <1>   0.0800 
 38 H        4.4690     4.8090     1.1400 H     1 <1>   0.1500 
 39 H        6.9810     3.9610     0.6570 H     1 <1>   0.1500 
@<TRIPOS>BOND
  1   1   2  1   
  2   1  20  1   
  3   2   3  1   
  4   2   4  1   
  5   2  21  1   
  6   3   5  1   
  7   3   6  1   
  8   3  22  1   
  9   4   7  1   
 10   4  23  1   
 11   4  24  1   
 12   5   7  1   
 13   5  25  1   
 14   5  26  1   
 15   6   8  1   
 16   6  27  1   
 17   6  28  1   
 18   7   9  1   
 19   7  29  1   
 20   8  10  2   
 21   8  11  1   
 22   9  12  1   
 23   9  30  1   
 24   9  31  1   
 25  10  13  1   
 26  11  14  2   
 27  11  32  1   
 28  12  15  2   
 29  12  16  1   
 30  13  14  1   
 31  13  33  1   
 32  14  17  1   
 33  15  18  1   
 34  16  19  1   
 35  16  34  1   
 36  17  35  1   
 37  17  36  1   
 38  17  37  1   
 39  18  19  2   
 40  18  38  1   
 41  19  39  1   
@<TRIPOS>SUBSTRUCTURE
  1 ****   9 GROUP 4 **** **** 0

# MOE 2024.06 (io_trps.svl 2023.06)
