@<TRIPOS>MOLECULE
NONAME
51 53 1 0 0 
SMALL
USER_CHARGES


@<TRIPOS>ATOM
  1 CL       0.0190    -0.6940    -2.2140 Cl    1 <1>  -0.1770 
  2 C       -1.1500     0.2380    -1.3070 C.ar  1 <1>   0.1770 
  3 C       -0.7540     1.3300    -0.5520 C.ar  1 <1>   0.1770 
  4 C       -2.4820    -0.1300    -1.3580 C.ar  1 <1>  -0.1500 
  5 CL       0.9260     1.8100    -0.4820 Cl    1 <1>  -0.1770 
  6 C       -1.6880     2.0610     0.1590 C.ar  1 <1>  -0.1500 
  7 C       -3.4280     0.6010    -0.6510 C.ar  1 <1>  -0.1440 
  8 C       -3.0240     1.6930     0.1080 C.ar  1 <1>  -0.1500 
  9 C       -4.9020     0.2010    -0.7060 C.3   1 <1>   0.0440 
 10 C       -5.3190    -0.8390     0.3350 C.2   1 <1>   0.5690 
 11 O       -4.4500    -1.4910     0.8670 O.2   1 <1>  -0.5700 
 12 N       -6.6470    -1.0360     0.6500 N.am  1 <1>  -0.6600 
 13 C       -7.7790    -0.4280    -0.1160 C.3   1 <1>   0.2200 
 14 C       -6.9840    -1.9500     1.7880 C.3   1 <1>   0.0600 
 15 C       -8.4760     0.6860     0.6620 C.3   1 <1>  -0.1600 
 16 C       -8.9000    -1.4040    -0.4810 C.3   1 <1>  -0.1600 
 17 C       -9.8560     0.8120     0.0010 C.3   1 <1>  -0.0800 
 18 C      -10.1170    -0.5040    -0.7400 C.3   1 <1>  -0.0800 
 19 C      -11.0360     0.9860     0.9690 C.3   1 <1>  -0.1600 
 20 C      -11.4540    -1.0350    -0.1990 C.3   1 <1>  -0.1600 
 21 C      -12.1910     0.1900     0.3530 C.3   1 <1>   0.4230 
 22 N      -12.8450     0.9630    -0.7530 N.4   1 <1>  -0.9590 
 23 C      -13.4600     2.2450    -0.2800 C.3   1 <1>   0.2630 
 24 C      -13.9020     0.1710    -1.4640 C.3   1 <1>   0.2630 
 25 H       -2.7690    -0.9870    -1.9410 H     1 <1>   0.1500 
 26 H       -1.3710     2.9040     0.7460 H     1 <1>   0.1500 
 27 H       -3.7460     2.2600     0.6690 H     1 <1>   0.1500 
 28 H       -5.1210    -0.1960    -1.6790 H     1 <1>   0.0800 
 29 H       -5.4940     1.0850    -0.5680 H     1 <1>   0.0800 
 30 H       -7.4200    -0.0130    -1.0410 H     1 <1>   0.0800 
 31 H       -7.8700    -1.6200     2.2980 H     1 <1>   0.0800 
 32 H       -6.1780    -1.9730     2.5030 H     1 <1>   0.0800 
 33 H       -7.1360    -2.9480     1.4160 H     1 <1>   0.0800 
 34 H       -8.5720     0.4060     1.6950 H     1 <1>   0.0800 
 35 H       -7.9240     1.6070     0.5990 H     1 <1>   0.0800 
 36 H       -8.6420    -1.9810    -1.3520 H     1 <1>   0.0800 
 37 H       -9.1060    -2.0720     0.3330 H     1 <1>   0.0800 
 38 H       -9.8400     1.6180    -0.7150 H     1 <1>   0.0800 
 39 H      -10.1950    -0.3010    -1.7960 H     1 <1>   0.0800 
 40 H      -11.2510     2.0180     1.1720 H     1 <1>   0.0800 
 41 H      -10.7970     0.5210     1.9100 H     1 <1>   0.0800 
 42 H      -11.2700    -1.6920     0.6340 H     1 <1>   0.0800 
 43 H      -11.9970    -1.6000    -0.9320 H     1 <1>   0.0800 
 44 H      -12.9200    -0.0890     1.0980 H     1 <1>   0.0800 
 45 H      -12.0990     1.1870    -1.4260 H     1 <1>   0.4500 
 46 H      -14.1840     2.0510     0.4950 H     1 <1>   0.0800 
 47 H      -13.9560     2.7450    -1.0960 H     1 <1>   0.0800 
 48 H      -12.7080     2.9110     0.1100 H     1 <1>   0.0800 
 49 H      -14.6550    -0.1590    -0.7670 H     1 <1>   0.0800 
 50 H      -13.4750    -0.6930    -1.9460 H     1 <1>   0.0800 
 51 H      -14.3740     0.7760    -2.2210 H     1 <1>   0.0800 
@<TRIPOS>BOND
  1   1   2  1   
  2   2   3  ar  
  3   2   4  ar  
  4   3   5  1   
  5   3   6  ar  
  6   4   7  ar  
  7   4  25  1   
  8   6   8  ar  
  9   6  26  1   
 10   7   8  ar  
 11   7   9  1   
 12   8  27  1   
 13   9  10  1   
 14   9  28  1   
 15   9  29  1   
 16  10  11  2   
 17  10  12  am  
 18  12  13  1   
 19  12  14  1   
 20  13  15  1   
 21  13  16  1   
 22  13  30  1   
 23  14  31  1   
 24  14  32  1   
 25  14  33  1   
 26  15  17  1   
 27  15  34  1   
 28  15  35  1   
 29  16  18  1   
 30  16  36  1   
 31  16  37  1   
 32  17  18  1   
 33  17  19  1   
 34  17  38  1   
 35  18  20  1   
 36  18  39  1   
 37  19  21  1   
 38  19  40  1   
 39  19  41  1   
 40  20  21  1   
 41  20  42  1   
 42  20  43  1   
 43  21  22  1   
 44  21  44  1   
 45  22  23  1   
 46  22  24  1   
 47  22  45  1   
 48  23  46  1   
 49  23  47  1   
 50  23  48  1   
 51  24  49  1   
 52  24  50  1   
 53  24  51  1   
@<TRIPOS>SUBSTRUCTURE
  1 ****  13 GROUP 4 **** **** 0

# MOE 2024.06 (io_trps.svl 2023.06)
