@<TRIPOS>MOLECULE
NONAME
45 46 1 0 0 
SMALL
USER_CHARGES


@<TRIPOS>ATOM
  1 O       -1.6030     0.5890     2.5250 O.2   1 <1>  -0.5700 
  2 C       -1.9630     0.9870     1.4390 C.2   1 <1>   0.5690 
  3 N       -2.1930     0.0980     0.4110 N.am  1 <1>  -0.6600 
  4 C       -2.1700     2.5060     1.2580 C.3   1 <1>   0.1250 
  5 C       -2.1770    -1.3680     0.6780 C.3   1 <1>   0.3200 
  6 C       -2.3190     0.4730    -1.0300 C.3   1 <1>   0.1400 
  7 C       -1.0810     3.1320     0.3830 C.ar  1 <1>  -0.1440 
  8 C       -2.2810     3.2630     2.6030 C.3   1 <1>  -0.1600 
  9 C       -3.5860    -1.9160     0.5600 C.2   1 <1>  -0.3320 
 10 C       -3.7650     0.8030    -1.4200 C.3   1 <1>   0.1200 
 11 C        0.2580     2.8460     0.6100 C.ar  1 <1>  -0.1500 
 12 C       -1.4210     3.9910    -0.6540 C.ar  1 <1>  -0.1500 
 13 C       -2.6570     4.7440     2.4480 C.3   1 <1>  -0.2400 
 14 N       -4.1220    -2.5340    -0.5140 N.pl3 1 <1>   0.0480 
 15 C       -4.5520    -1.8830     1.5040 C.2   1 <1>   0.0770 
 16 O       -3.8590     0.8300    -2.8060 O.3   1 <1>  -0.6800 
 17 C        1.2400     3.3990    -0.1930 C.ar  1 <1>  -0.1500 
 18 C       -0.4400     4.5450    -1.4570 C.ar  1 <1>  -0.1500 
 19 C       -5.3880    -2.8280    -0.1400 C.2   1 <1>   0.0360 
 20 C       -3.5150    -2.8260    -1.8260 C.3   1 <1>   0.0160 
 21 N       -5.6850    -2.4570     1.0620 N.2   1 <1>  -0.5650 
 22 C        0.8920     4.2480    -1.2280 C.ar  1 <1>  -0.1500 
 23 H       -3.1160     2.6230     0.7680 H     1 <1>   0.0800 
 24 H       -1.5110    -1.8610    -0.0060 H     1 <1>   0.0800 
 25 H       -1.8150    -1.5710     1.6720 H     1 <1>   0.0800 
 26 H       -1.6830     1.3090    -1.2510 H     1 <1>   0.0800 
 27 H       -1.9780    -0.3510    -1.6310 H     1 <1>   0.0800 
 28 H       -3.0280     2.7800     3.2100 H     1 <1>   0.0800 
 29 H       -1.3440     3.1900     3.1290 H     1 <1>   0.0800 
 30 H       -4.0720     1.7610    -1.0430 H     1 <1>   0.0800 
 31 H       -4.4440     0.0500    -1.0640 H     1 <1>   0.0800 
 32 H        0.5430     2.1890     1.4150 H     1 <1>   0.1500 
 33 H       -2.4520     4.2380    -0.8390 H     1 <1>   0.1500 
 34 H       -3.5850     4.8460     1.9130 H     1 <1>   0.0800 
 35 H       -1.8870     5.2780     1.9180 H     1 <1>   0.0800 
 36 H       -2.7710     5.1940     3.4180 H     1 <1>   0.0800 
 37 H       -4.4860    -1.4640     2.4950 H     1 <1>   0.1500 
 38 H       -3.4060     1.6150    -3.1730 H     1 <1>   0.4000 
 39 H        2.2750     3.1700    -0.0090 H     1 <1>   0.1500 
 40 H       -0.7100     5.2110    -2.2580 H     1 <1>   0.1500 
 41 H       -6.0750    -3.3280    -0.7990 H     1 <1>   0.1500 
 42 H       -2.4830    -3.0940    -1.6980 H     1 <1>   0.0800 
 43 H       -3.5910    -1.9580    -2.4550 H     1 <1>   0.0800 
 44 H       -4.0370    -3.6440    -2.2880 H     1 <1>   0.0800 
 45 H        1.6560     4.6790    -1.8510 H     1 <1>   0.1500 
@<TRIPOS>BOND
  1   1   2  2   
  2   2   3  am  
  3   2   4  1   
  4   3   5  1   
  5   3   6  1   
  6   4   7  1   
  7   4   8  1   
  8   4  23  1   
  9   5   9  1   
 10   5  24  1   
 11   5  25  1   
 12   6  10  1   
 13   6  26  1   
 14   6  27  1   
 15   7  11  ar  
 16   7  12  ar  
 17   8  13  1   
 18   8  28  1   
 19   8  29  1   
 20   9  14  1   
 21   9  15  2   
 22  10  16  1   
 23  10  30  1   
 24  10  31  1   
 25  11  17  ar  
 26  11  32  1   
 27  12  18  ar  
 28  12  33  1   
 29  13  34  1   
 30  13  35  1   
 31  13  36  1   
 32  14  19  1   
 33  14  20  1   
 34  15  21  1   
 35  15  37  1   
 36  16  38  1   
 37  17  22  ar  
 38  17  39  1   
 39  18  22  ar  
 40  18  40  1   
 41  19  21  2   
 42  19  41  1   
 43  20  42  1   
 44  20  43  1   
 45  20  44  1   
 46  22  45  1   
@<TRIPOS>SUBSTRUCTURE
  1 ****   3 GROUP 4 **** **** 0

# MOE 2024.06 (io_trps.svl 2023.06)
