@<TRIPOS>MOLECULE
NONAME
42 44 1 0 0 
SMALL
USER_CHARGES


@<TRIPOS>ATOM
  1 O        0.2990     0.4650     0.6840 O.3   1 <1>  -0.6800 
  2 C        1.2930     0.1370    -0.2300 C.3   1 <1>   0.2000 
  3 C        1.9450    -1.1730     0.2120 C.3   1 <1>  -0.0800 
  4 C        2.4200     1.1810    -0.1450 C.3   1 <1>   0.1100 
  5 C        3.0470    -0.6730     1.1460 C.3   1 <1>   0.1100 
  6 C        2.5110    -1.9400    -1.0000 C.3   1 <1>  -0.0170 
  7 N        3.5820     0.5100     0.4760 N.3   1 <1>  -0.8100 
  8 C        3.2780    -3.1840    -0.5790 C.ar  1 <1>  -0.1430 
  9 C        4.3100     1.3970     1.4000 C.3   1 <1>   0.2900 
 10 C        2.6410    -4.3520    -0.2120 C.ar  1 <1>  -0.1500 
 11 C        4.6580    -3.2050    -0.5420 C.ar  1 <1>  -0.1500 
 12 C        4.9860     2.5400     0.6590 C.2   1 <1>   0.0070 
 13 C        3.3940    -5.4510     0.1690 C.ar  1 <1>   0.1600 
 14 C        5.3160    -4.3570    -0.1460 C.ar  1 <1>   0.1600 
 15 N        4.8340     3.7830     0.9550 N.2   1 <1>  -0.5650 
 16 N        5.8250     2.3860    -0.3780 N.pl3 1 <1>   0.3140 
 17 N        4.7160    -5.4800     0.2130 N.ar  1 <1>  -0.6200 
 18 C        5.6200     4.3730     0.0470 C.2   1 <1>   0.3660 
 19 N        6.2350     3.5860    -0.7700 N.2   1 <1>  -0.7070 
 20 C        6.2850     1.1550    -1.0620 C.3   1 <1>   0.0960 
 21 C        7.3560     0.4190    -0.2470 C.3   1 <1>  -0.2400 
 22 H       -0.4260    -0.1860     0.6510 H     1 <1>   0.4000 
 23 H        0.8500     0.0940    -1.2100 H     1 <1>   0.0800 
 24 H        1.2570    -1.8080     0.7400 H     1 <1>   0.0800 
 25 H        2.0960     2.0310     0.4330 H     1 <1>   0.0800 
 26 H        2.6960     1.5150    -1.1300 H     1 <1>   0.0800 
 27 H        3.8150    -1.4060     1.3220 H     1 <1>   0.0800 
 28 H        2.6060    -0.3920     2.0890 H     1 <1>   0.0800 
 29 H        3.1610    -1.2990    -1.5700 H     1 <1>   0.0800 
 30 H        1.7020    -2.2330    -1.6470 H     1 <1>   0.0800 
 31 H        3.6300     1.8010     2.1320 H     1 <1>   0.0800 
 32 H        5.0610     0.8320     1.9220 H     1 <1>   0.0800 
 33 H        1.5690    -4.4180    -0.2170 H     1 <1>   0.1500 
 34 H        5.2250    -2.3330    -0.8130 H     1 <1>   0.1500 
 35 H        2.8810    -6.3540     0.4530 H     1 <1>   0.1500 
 36 H        6.3920    -4.3550    -0.1220 H     1 <1>   0.1500 
 37 H        5.7190     5.4470     0.0210 H     1 <1>   0.1500 
 38 H        5.4410     0.5170    -1.2400 H     1 <1>   0.0800 
 39 H        6.6920     1.4410    -2.0150 H     1 <1>   0.0800 
 40 H        6.9530     0.0790     0.6890 H     1 <1>   0.0800 
 41 H        8.1920     1.0710    -0.0620 H     1 <1>   0.0800 
 42 H        7.7060    -0.4360    -0.7970 H     1 <1>   0.0800 
@<TRIPOS>BOND
  1   1   2  1   
  2   1  22  1   
  3   2   3  1   
  4   2   4  1   
  5   2  23  1   
  6   3   5  1   
  7   3   6  1   
  8   3  24  1   
  9   4   7  1   
 10   4  25  1   
 11   4  26  1   
 12   5   7  1   
 13   5  27  1   
 14   5  28  1   
 15   6   8  1   
 16   6  29  1   
 17   6  30  1   
 18   7   9  1   
 19   8  10  ar  
 20   8  11  ar  
 21   9  12  1   
 22   9  31  1   
 23   9  32  1   
 24  10  13  ar  
 25  10  33  1   
 26  11  14  ar  
 27  11  34  1   
 28  12  15  2   
 29  12  16  1   
 30  13  17  ar  
 31  13  35  1   
 32  14  17  ar  
 33  14  36  1   
 34  15  18  1   
 35  16  19  1   
 36  16  20  1   
 37  18  19  2   
 38  18  37  1   
 39  20  21  1   
 40  20  38  1   
 41  20  39  1   
 42  21  40  1   
 43  21  41  1   
 44  21  42  1   
@<TRIPOS>SUBSTRUCTURE
  1 ****   7 GROUP 4 **** **** 0

# MOE 2024.06 (io_trps.svl 2023.06)
