@<TRIPOS>MOLECULE
Untitled Document
48 49 1 0 0 
SMALL
USER_CHARGES


@<TRIPOS>ATOM
  1 F       -2.5710     1.9190     1.6680 F     1 <1>  -0.3400 
  2 C       -3.8270     1.5850     1.4050 C.3   1 <1>   0.2600 
  3 C       -3.8920     0.0940     1.1030 C.3   1 <1>   0.1400 
  4 C       -4.2550     2.2880     0.1240 C.3   1 <1>  -0.1600 
  5 N       -4.9130    -0.0280     0.0310 N.am  1 <1>  -0.6600 
  6 C       -5.1870     1.3000    -0.5880 C.3   1 <1>   0.4200 
  7 C       -5.6240    -1.1890    -0.1490 C.2   1 <1>   0.5690 
  8 C       -4.9850     1.3120    -2.0760 C.1   1 <1>   0.3570 
  9 O       -5.3430    -2.1790     0.4860 O.2   1 <1>  -0.5700 
 10 C       -6.8100    -1.2920    -1.1270 C.3   1 <1>   0.1710 
 11 N       -4.8690     1.3220    -3.2080 N.1   1 <1>  -0.5570 
 12 N       -8.0790    -1.7790    -0.5210 N.3   1 <1>  -0.9000 
 13 C       -8.9500    -0.8810     0.2320 C.3   1 <1>   0.2700 
 14 C      -10.1680    -1.7430     0.6170 C.3   1 <1>  -0.0990 
 15 C       -9.3620     0.2920    -0.6650 C.3   1 <1>  -0.2400 
 16 C       -8.2210    -0.3740     1.4800 C.3   1 <1>  -0.2400 
 17 C      -11.2890    -0.9970     1.3220 C.2   1 <1>   0.5690 
 18 O      -11.1730    -0.7960     2.5090 O.2   1 <1>  -0.5700 
 19 N      -12.4050    -0.5800     0.6460 N.am  1 <1>  -0.6600 
 20 C      -12.7460    -0.8340    -0.7730 C.3   1 <1>   0.1400 
 21 C      -13.4830     0.1760     1.3190 C.3   1 <1>   0.1400 
 22 C      -14.1970    -0.3870    -0.9140 C.3   1 <1>  -0.1600 
 23 C      -14.3940     0.6460     0.1920 C.3   1 <1>  -0.1600 
 24 H       -4.4210     1.8530     2.2600 H     1 <1>   0.0800 
 25 H       -4.1840    -0.4660     1.9760 H     1 <1>   0.0800 
 26 H       -2.9470    -0.2650     0.7320 H     1 <1>   0.0800 
 27 H       -4.7610     3.2140     0.3300 H     1 <1>   0.0800 
 28 H       -3.3910     2.4830    -0.4900 H     1 <1>   0.0800 
 29 H       -6.2070     1.5680    -0.3790 H     1 <1>   0.0800 
 30 H       -6.5190    -2.0090    -1.8740 H     1 <1>   0.0800 
 31 H       -6.9810    -0.3720    -1.6460 H     1 <1>   0.0800 
 32 H       -7.8120    -2.5490     0.1100 H     1 <1>   0.3600 
 33 H       -9.8430    -2.5240     1.2800 H     1 <1>   0.0800 
 34 H      -10.5510    -2.2200    -0.2620 H     1 <1>   0.0800 
 35 H      -10.1030     0.8970    -0.1750 H     1 <1>   0.0800 
 36 H       -9.7740    -0.0750    -1.5880 H     1 <1>   0.0800 
 37 H       -8.5300     0.9320    -0.8820 H     1 <1>   0.0800 
 38 H       -8.8860     0.2080     2.0910 H     1 <1>   0.0800 
 39 H       -7.4000     0.2640     1.2250 H     1 <1>   0.0800 
 40 H       -7.8630    -1.1990     2.0700 H     1 <1>   0.0800 
 41 H      -12.1130    -0.2360    -1.4040 H     1 <1>   0.0800 
 42 H      -12.6380    -1.8750    -1.0220 H     1 <1>   0.0800 
 43 H      -14.0100    -0.4860     1.9850 H     1 <1>   0.0800 
 44 H      -13.0790     1.0030     1.8800 H     1 <1>   0.0800 
 45 H      -14.4010     0.0130    -1.8910 H     1 <1>   0.0800 
 46 H      -14.8410    -1.2320    -0.7410 H     1 <1>   0.0800 
 47 H      -15.4190     0.7180     0.5110 H     1 <1>   0.0800 
 48 H      -14.0630     1.6130    -0.1450 H     1 <1>   0.0800 
@<TRIPOS>BOND
  1   1   2  1   
  2   2   3  1   
  3   2   4  1   
  4   2  24  1   
  5   3   5  1   
  6   3  25  1   
  7   3  26  1   
  8   4   6  1   
  9   4  27  1   
 10   4  28  1   
 11   5   6  1   
 12   5   7  am  
 13   6   8  1   
 14   6  29  1   
 15   7   9  2   
 16   7  10  1   
 17   8  11  3   
 18  10  12  1   
 19  10  30  1   
 20  10  31  1   
 21  12  13  1   
 22  12  32  1   
 23  13  14  1   
 24  13  15  1   
 25  13  16  1   
 26  14  17  1   
 27  14  33  1   
 28  14  34  1   
 29  15  35  1   
 30  15  36  1   
 31  15  37  1   
 32  16  38  1   
 33  16  39  1   
 34  16  40  1   
 35  17  18  2   
 36  17  19  am  
 37  19  20  1   
 38  19  21  1   
 39  20  22  1   
 40  20  41  1   
 41  20  42  1   
 42  21  23  1   
 43  21  43  1   
 44  21  44  1   
 45  22  23  1   
 46  22  45  1   
 47  22  46  1   
 48  23  47  1   
 49  23  48  1   
@<TRIPOS>SUBSTRUCTURE
  1 ****  13 GROUP 4 **** **** 0

# MOE 2024.06 (io_trps.svl 2023.06)
