@<TRIPOS>MOLECULE
NONAME
58 62 1 0 0 
SMALL
USER_CHARGES


@<TRIPOS>ATOM
  1 O        1.5160    -0.9580    -1.3990 O.3   1 <1>  -0.0190 
  2 N        1.8060     0.3080    -1.4600 N.2   1 <1>  -0.4100 
  3 C        1.6460    -1.4300    -0.1880 C.2   1 <1>  -0.0400 
  4 C        2.1280     0.6620    -0.2640 C.2   1 <1>   0.1080 
  5 C        2.0460    -0.4250     0.6050 C.2   1 <1>  -0.1500 
  6 C        1.3590    -2.8950     0.0900 C.3   1 <1>   0.2900 
  7 C        2.5410     2.0690     0.1550 C.3   1 <1>   0.1010 
  8 N       -0.0660    -3.1250     0.3880 N.3   1 <1>  -0.8100 
  9 C        1.3940     3.0680    -0.0730 C.3   1 <1>  -0.1600 
 10 C        3.8090     2.5180    -0.5920 C.3   1 <1>  -0.1600 
 11 C       -0.9770    -2.6620    -0.6700 C.3   1 <1>   0.1100 
 12 C       -0.3830    -4.5420     0.6310 C.3   1 <1>   0.1100 
 13 C        1.8010     4.4960     0.3190 C.3   1 <1>  -0.1600 
 14 C        4.2210     3.9450    -0.1990 C.3   1 <1>  -0.1600 
 15 C       -2.2650    -3.4340    -0.4170 C.3   1 <1>   0.2000 
 16 C       -1.7590    -4.8150    -0.0050 C.3   1 <1>  -0.0800 
 17 C        3.0700     4.9340    -0.4250 C.3   1 <1>  -0.1600 
 18 O       -2.8840    -2.8670     0.6800 O.3   1 <1>  -0.6800 
 19 C       -1.6690    -5.7510    -1.2290 C.3   1 <1>  -0.0170 
 20 C       -1.1320    -7.1330    -0.8670 C.ar  1 <1>  -0.1430 
 21 C       -1.9040    -8.0920    -0.1680 C.ar  1 <1>   0.0000 
 22 C        0.1390    -7.4850    -1.2190 C.ar  1 <1>  -0.1500 
 23 C       -1.2900    -9.3300     0.1440 C.ar  1 <1>   0.3100 
 24 C       -3.2470    -7.9010     0.2340 C.ar  1 <1>  -0.1500 
 25 C        0.6470    -8.7420    -0.8720 C.ar  1 <1>   0.1600 
 26 N       -0.0170    -9.6380    -0.2140 N.ar  1 <1>  -0.6200 
 27 C       -2.0230   -10.2940     0.8530 C.ar  1 <1>  -0.1500 
 28 C       -3.9350    -8.8630     0.9210 C.ar  1 <1>  -0.1500 
 29 C       -3.3170   -10.0750     1.2390 C.ar  1 <1>  -0.1500 
 30 H        2.2550    -0.4240     1.6580 H     1 <1>   0.1500 
 31 H        1.9400    -3.2040     0.9410 H     1 <1>   0.0800 
 32 H        1.6630    -3.4820    -0.7590 H     1 <1>   0.0800 
 33 H        2.7620     2.0510     1.2070 H     1 <1>   0.0800 
 34 H        1.1140     3.0530    -1.1130 H     1 <1>   0.0800 
 35 H        0.5350     2.7650     0.5010 H     1 <1>   0.0800 
 36 H        4.6130     1.8370    -0.3750 H     1 <1>   0.0800 
 37 H        3.6250     2.4810    -1.6520 H     1 <1>   0.0800 
 38 H       -1.1330    -1.5970    -0.6230 H     1 <1>   0.0800 
 39 H       -0.5840    -2.9200    -1.6380 H     1 <1>   0.0800 
 40 H        0.3720    -5.1840     0.2110 H     1 <1>   0.0800 
 41 H       -0.4240    -4.7160     1.6930 H     1 <1>   0.0800 
 42 H        0.9970     5.1750     0.0900 H     1 <1>   0.0800 
 43 H        1.9770     4.5400     1.3810 H     1 <1>   0.0800 
 44 H        4.5080     3.9620     0.8380 H     1 <1>   0.0800 
 45 H        5.0730     4.2460    -0.7830 H     1 <1>   0.0800 
 46 H       -2.9520    -3.4330    -1.2450 H     1 <1>   0.0800 
 47 H       -2.4180    -5.2540     0.7220 H     1 <1>   0.0800 
 48 H        3.3650     5.9140    -0.0900 H     1 <1>   0.0800 
 49 H        2.8580     4.9970    -1.4790 H     1 <1>   0.0800 
 50 H       -2.1710    -2.6600     1.3220 H     1 <1>   0.4000 
 51 H       -1.0310    -5.3050    -1.9720 H     1 <1>   0.0800 
 52 H       -2.6410    -5.8570    -1.6790 H     1 <1>   0.0800 
 53 H        0.7810    -6.8160    -1.7630 H     1 <1>   0.1500 
 54 H       -3.7460    -6.9820    -0.0050 H     1 <1>   0.1500 
 55 H        1.6540    -8.9790    -1.1690 H     1 <1>   0.1500 
 56 H       -1.5290   -11.2200     1.0830 H     1 <1>   0.1500 
 57 H       -4.9560    -8.7020     1.2240 H     1 <1>   0.1500 
 58 H       -3.8680   -10.8230     1.7830 H     1 <1>   0.1500 
@<TRIPOS>BOND
  1   1   2  1   
  2   1   3  1   
  3   2   4  2   
  4   3   5  2   
  5   3   6  1   
  6   4   5  1   
  7   4   7  1   
  8   5  30  1   
  9   6   8  1   
 10   6  31  1   
 11   6  32  1   
 12   7   9  1   
 13   7  10  1   
 14   7  33  1   
 15   8  11  1   
 16   8  12  1   
 17   9  13  1   
 18   9  34  1   
 19   9  35  1   
 20  10  14  1   
 21  10  36  1   
 22  10  37  1   
 23  11  15  1   
 24  11  38  1   
 25  11  39  1   
 26  12  16  1   
 27  12  40  1   
 28  12  41  1   
 29  13  17  1   
 30  13  42  1   
 31  13  43  1   
 32  14  17  1   
 33  14  44  1   
 34  14  45  1   
 35  15  16  1   
 36  15  18  1   
 37  15  46  1   
 38  16  19  1   
 39  16  47  1   
 40  17  48  1   
 41  17  49  1   
 42  18  50  1   
 43  19  20  1   
 44  19  51  1   
 45  19  52  1   
 46  20  21  ar  
 47  20  22  ar  
 48  21  23  ar  
 49  21  24  ar  
 50  22  25  ar  
 51  22  53  1   
 52  23  26  ar  
 53  23  27  ar  
 54  24  28  ar  
 55  24  54  1   
 56  25  26  ar  
 57  25  55  1   
 58  27  29  ar  
 59  27  56  1   
 60  28  29  ar  
 61  28  57  1   
 62  29  58  1   
@<TRIPOS>SUBSTRUCTURE
  1 ****   8 GROUP 4 **** **** 0

# MOE 2024.06 (io_trps.svl 2023.06)
