@<TRIPOS>MOLECULE
NONAME
31 33 1 0 0 
SMALL
USER_CHARGES


@<TRIPOS>ATOM
  1 BR      -0.2970     1.0170    -2.4410 Br    1 <1>  -0.1110 
  2 C       -1.8410     1.4560    -1.3780 C.ar  1 <1>   0.1110 
  3 C       -1.9810     2.7740    -0.9420 C.ar  1 <1>  -0.1500 
  4 C       -2.7510     0.4660    -1.0840 C.ar  1 <1>  -0.1500 
  5 C       -3.0880     3.0790    -0.1850 C.ar  1 <1>   0.1900 
  6 C       -3.8680     0.8090    -0.3080 C.ar  1 <1>  -0.1520 
  7 F       -3.2440     4.3080     0.2360 F     1 <1>  -0.1900 
  8 C       -4.0470     2.1080     0.1440 C.ar  1 <1>   0.2270 
  9 N       -4.9370     0.0980     0.1580 N.pl3 1 <1>   0.0480 
 10 N       -5.1980     2.1960     0.8660 N.2   1 <1>  -0.5650 
 11 C       -5.6910     1.0090     0.8520 C.2   1 <1>   0.0060 
 12 C       -5.1520    -1.3530    -0.1220 C.3   1 <1>   0.1760 
 13 C       -6.9970     0.7040     1.5610 C.3   1 <1>  -0.0600 
 14 C       -6.3480    -1.5960    -1.0550 C.3   1 <1>  -0.1600 
 15 C       -5.3930    -2.1990     1.1380 C.3   1 <1>  -0.1600 
 16 C       -7.0590    -2.8310    -0.5020 C.3   1 <1>  -0.1600 
 17 C       -6.7960    -2.7950     1.0000 C.3   1 <1>  -0.1600 
 18 H       -1.2490     3.5190    -1.1920 H     1 <1>   0.1500 
 19 H       -2.6000    -0.5350    -1.4430 H     1 <1>   0.1500 
 20 H       -4.2710    -1.7370    -0.6010 H     1 <1>   0.0800 
 21 H       -7.6980     0.2420     0.8930 H     1 <1>   0.0800 
 22 H       -7.4330     1.6200     1.9200 H     1 <1>   0.0800 
 23 H       -6.8240     0.0660     2.4060 H     1 <1>   0.0800 
 24 H       -6.0240    -1.7600    -2.0670 H     1 <1>   0.0800 
 25 H       -7.0210    -0.7580    -1.0390 H     1 <1>   0.0800 
 26 H       -5.2760    -1.6400     2.0500 H     1 <1>   0.0800 
 27 H       -4.6800    -3.0050     1.1460 H     1 <1>   0.0800 
 28 H       -6.6150    -3.7190    -0.9200 H     1 <1>   0.0800 
 29 H       -8.1120    -2.8270    -0.7280 H     1 <1>   0.0800 
 30 H       -7.5160    -2.1530     1.4750 H     1 <1>   0.0800 
 31 H       -6.8620    -3.7750     1.4420 H     1 <1>   0.0800 
@<TRIPOS>BOND
  1   1   2  1   
  2   2   3  ar  
  3   2   4  ar  
  4   3   5  ar  
  5   3  18  1   
  6   4   6  ar  
  7   4  19  1   
  8   5   7  1   
  9   5   8  ar  
 10   6   8  ar  
 11   6   9  1   
 12   8  10  1   
 13   9  11  1   
 14   9  12  1   
 15  10  11  2   
 16  11  13  1   
 17  12  14  1   
 18  12  15  1   
 19  12  20  1   
 20  13  21  1   
 21  13  22  1   
 22  13  23  1   
 23  14  16  1   
 24  14  24  1   
 25  14  25  1   
 26  15  17  1   
 27  15  26  1   
 28  15  27  1   
 29  16  17  1   
 30  16  28  1   
 31  16  29  1   
 32  17  30  1   
 33  17  31  1   
@<TRIPOS>SUBSTRUCTURE
  1 ****   6 GROUP 4 **** **** 0

# MOE 2024.06 (io_trps.svl 2023.06)
