@<TRIPOS>MOLECULE
NONAME
54 56 1 0 0 
SMALL
USER_CHARGES


@<TRIPOS>ATOM
  1 O       -1.9700     4.2390    -0.7680 O.co2 1 <1>  -0.9000 
  2 C       -1.8460     3.1610    -0.1630 C.2   1 <1>   0.9060 
  3 O       -2.7660     2.3550    -0.0660 O.co2 1 <1>  -0.9000 
  4 C       -0.4940     2.8630     0.4690 C.3   1 <1>  -0.1060 
  5 C       -0.3640     3.8380     1.6740 C.3   1 <1>   0.2000 
  6 C        0.5410     3.1990    -0.6130 C.3   1 <1>   0.3430 
  7 C       -0.3560     1.3470     0.8010 C.3   1 <1>  -0.0650 
  8 O       -0.5350     3.1990     2.8860 O.3   1 <1>  -0.6800 
  9 C        0.9860     4.5550     1.7200 C.3   1 <1>  -0.1600 
 10 N        0.6420     4.6740    -0.7640 N.4   1 <1>  -0.9590 
 11 C        1.0400     0.9230     1.2870 C.3   1 <1>  -0.1950 
 12 C        1.2290     5.3500     0.4330 C.3   1 <1>   0.3430 
 13 C        1.1960     5.0930    -2.0830 C.3   1 <1>   0.3430 
 14 C        2.1100     0.4730     0.3410 C.3   1 <1>  -0.2000 
 15 C        1.4280    -0.5200     1.2350 C.3   1 <1>  -0.2000 
 16 C        0.9530     6.5790    -2.3870 C.3   1 <1>   0.1200 
 17 O        1.7280     7.3760    -1.5140 O.3   1 <1>  -0.3630 
 18 C        1.6640     8.7330    -1.5290 C.ar  1 <1>   0.0830 
 19 C        2.4970     9.4350    -0.6580 C.ar  1 <1>  -0.1430 
 20 C        0.8040     9.4320    -2.3750 C.ar  1 <1>  -0.1500 
 21 C        2.4540    10.8210    -0.6450 C.ar  1 <1>  -0.1500 
 22 C        3.4610     8.7300     0.2900 C.3   1 <1>  -0.0170 
 23 C        0.7730    10.8140    -2.3510 C.ar  1 <1>  -0.1500 
 24 C        1.5980    11.5090    -1.4860 C.ar  1 <1>  -0.1500 
 25 C        2.8270     8.5540     1.6730 C.3   1 <1>  -0.2400 
 26 H       -1.1360     4.5920     1.6200 H     1 <1>   0.0800 
 27 H        0.2280     2.7490    -1.5410 H     1 <1>   0.0800 
 28 H        1.5030     2.8020    -0.3410 H     1 <1>   0.0800 
 29 H       -1.0830     1.0730     1.5470 H     1 <1>   0.0800 
 30 H       -0.6070     0.7760    -0.0770 H     1 <1>   0.0800 
 31 H       -1.4050     2.7470     2.8910 H     1 <1>   0.4000 
 32 H        1.0150     5.2300     2.5560 H     1 <1>   0.0800 
 33 H        1.7760     3.8370     1.8450 H     1 <1>   0.0800 
 34 H       -0.3820     4.9280    -0.7910 H     1 <1>   0.4500 
 35 H        1.3390     1.4420     2.1830 H     1 <1>   0.1000 
 36 H        2.2880     5.4890     0.2960 H     1 <1>   0.0800 
 37 H        0.7800     6.3260     0.5280 H     1 <1>   0.0800 
 38 H        2.2520     4.8890    -2.1260 H     1 <1>   0.0800 
 39 H        0.7130     4.5150    -2.8540 H     1 <1>   0.0800 
 40 H        1.9100     0.4030    -0.7140 H     1 <1>   0.1000 
 41 H        3.1350     0.7250     0.5520 H     1 <1>   0.1000 
 42 H        1.9730    -0.9350     2.0660 H     1 <1>   0.1000 
 43 H        0.7430    -1.2280     0.8000 H     1 <1>   0.1000 
 44 H       -0.0880     6.8180    -2.2520 H     1 <1>   0.0800 
 45 H        1.2520     6.8050    -3.3940 H     1 <1>   0.0800 
 46 H        0.1490     8.9280    -3.0580 H     1 <1>   0.1500 
 47 H        3.0890    11.3740     0.0240 H     1 <1>   0.1500 
 48 H        3.7480     7.7720    -0.1050 H     1 <1>   0.0800 
 49 H        4.3610     9.3140     0.3840 H     1 <1>   0.0800 
 50 H        0.1080    11.3530    -3.0040 H     1 <1>   0.1500 
 51 H        1.5740    12.5850    -1.4650 H     1 <1>   0.1500 
 52 H        1.9070     8.0060     1.5950 H     1 <1>   0.0800 
 53 H        2.6140     9.5160     2.1040 H     1 <1>   0.0800 
 54 H        3.4980     8.0260     2.3260 H     1 <1>   0.0800 
@<TRIPOS>BOND
  1   1   2  ar  
  2   2   3  ar  
  3   2   4  1   
  4   4   5  1   
  5   4   6  1   
  6   4   7  1   
  7   5   8  1   
  8   5   9  1   
  9   5  26  1   
 10   6  10  1   
 11   6  27  1   
 12   6  28  1   
 13   7  11  1   
 14   7  29  1   
 15   7  30  1   
 16   8  31  1   
 17   9  12  1   
 18   9  32  1   
 19   9  33  1   
 20  10  12  1   
 21  10  13  1   
 22  10  34  1   
 23  11  14  1   
 24  11  15  1   
 25  11  35  1   
 26  12  36  1   
 27  12  37  1   
 28  13  16  1   
 29  13  38  1   
 30  13  39  1   
 31  14  15  1   
 32  14  40  1   
 33  14  41  1   
 34  15  42  1   
 35  15  43  1   
 36  16  17  1   
 37  16  44  1   
 38  16  45  1   
 39  17  18  1   
 40  18  19  ar  
 41  18  20  ar  
 42  19  21  ar  
 43  19  22  1   
 44  20  23  ar  
 45  20  46  1   
 46  21  24  ar  
 47  21  47  1   
 48  22  25  1   
 49  22  48  1   
 50  22  49  1   
 51  23  24  ar  
 52  23  50  1   
 53  24  51  1   
 54  25  52  1   
 55  25  53  1   
 56  25  54  1   
@<TRIPOS>SUBSTRUCTURE
  1 ****  12 GROUP 4 **** **** 0

# MOE 2024.06 (io_trps.svl 2023.06)
