@<TRIPOS>MOLECULE
NONAME
46 48 1 0 0 
SMALL
USER_CHARGES


@<TRIPOS>ATOM
  1 S        0.9780     1.0250    -0.9270 S.3   1 <1>  -0.4600 
  2 C        1.3200     0.8660     0.8650 C.3   1 <1>   0.1310 
  3 C        0.5390    -0.6580    -1.4470 C.3   1 <1>   0.1650 
  4 C        1.7870     2.1830     1.4790 C.2   1 <1>   0.5690 
  5 C       -0.7200    -1.1000    -0.6980 C.3   1 <1>  -0.1950 
  6 O        1.0400     2.7170     2.2670 O.2   1 <1>  -0.5700 
  7 N        3.0130     2.7250     1.1780 N.am  1 <1>  -0.6600 
  8 C       -0.6470    -1.8690     0.5850 C.3   1 <1>  -0.2000 
  9 C       -1.1130    -2.5430    -0.6730 C.3   1 <1>  -0.2000 
 10 C        3.9700     2.2150     0.1480 C.3   1 <1>   0.1400 
 11 C        3.4350     4.0560     1.7120 C.3   1 <1>   0.1400 
 12 C        4.1200     3.2220    -1.0090 C.3   1 <1>   0.2090 
 13 C        3.5570     5.0840     0.5740 C.3   1 <1>   0.2090 
 14 N        4.4550     4.6000    -0.5210 N.pl3 1 <1>  -0.8380 
 15 C        5.7890     4.9820    -0.4570 C.ar  1 <1>   0.4100 
 16 N        6.6130     4.0870     0.0760 N.ar  1 <1>  -0.6200 
 17 C        6.2320     6.2480    -0.9060 C.ar  1 <1>   0.1670 
 18 C        7.8600     4.5100     0.1490 C.ar  1 <1>   0.1670 
 19 N        7.4790     6.6700    -0.8230 N.ar  1 <1>  -0.6200 
 20 C        5.2630     7.2360    -1.5350 C.3   1 <1>  -0.0970 
 21 C        8.2780     5.7630    -0.2850 C.ar  1 <1>   0.1600 
 22 C        8.8500     3.5340     0.7500 C.3   1 <1>  -0.0970 
 23 H        2.0640     0.1050     0.9920 H     1 <1>   0.0800 
 24 H        0.4030     0.5610     1.3330 H     1 <1>   0.0800 
 25 H        1.3790    -1.2970    -1.2390 H     1 <1>   0.0800 
 26 H        0.3620    -0.6180    -2.5070 H     1 <1>   0.0800 
 27 H       -1.5230    -0.3890    -0.8090 H     1 <1>   0.1000 
 28 H       -1.3680    -1.6550     1.3550 H     1 <1>   0.1000 
 29 H        0.3120    -2.1500     0.9850 H     1 <1>   0.1000 
 30 H       -0.4710    -3.2760    -1.1300 H     1 <1>   0.1000 
 31 H       -2.1560    -2.7970    -0.7650 H     1 <1>   0.1000 
 32 H        3.6540     1.2680    -0.2460 H     1 <1>   0.0800 
 33 H        4.9320     2.0690     0.6070 H     1 <1>   0.0800 
 34 H        4.3900     3.9550     2.1970 H     1 <1>   0.0800 
 35 H        2.7300     4.4150     2.4410 H     1 <1>   0.0800 
 36 H        3.1990     3.2600    -1.5630 H     1 <1>   0.0800 
 37 H        4.8920     2.8820    -1.6770 H     1 <1>   0.0800 
 38 H        3.9390     6.0070     0.9740 H     1 <1>   0.0800 
 39 H        2.5790     5.2770     0.1690 H     1 <1>   0.0800 
 40 H        4.4470     6.7260    -2.0120 H     1 <1>   0.0800 
 41 H        5.7700     7.8260    -2.2770 H     1 <1>   0.0800 
 42 H        4.8760     7.8900    -0.7770 H     1 <1>   0.0800 
 43 H        9.3140     6.0320    -0.1860 H     1 <1>   0.1500 
 44 H        8.5440     3.2830     1.7490 H     1 <1>   0.0800 
 45 H        9.8390     3.9530     0.7830 H     1 <1>   0.0800 
 46 H        8.8720     2.6360     0.1600 H     1 <1>   0.0800 
@<TRIPOS>BOND
  1   1   2  1   
  2   1   3  1   
  3   2   4  1   
  4   2  23  1   
  5   2  24  1   
  6   3   5  1   
  7   3  25  1   
  8   3  26  1   
  9   4   6  2   
 10   4   7  am  
 11   5   8  1   
 12   5   9  1   
 13   5  27  1   
 14   7  10  1   
 15   7  11  1   
 16   8   9  1   
 17   8  28  1   
 18   8  29  1   
 19   9  30  1   
 20   9  31  1   
 21  10  12  1   
 22  10  32  1   
 23  10  33  1   
 24  11  13  1   
 25  11  34  1   
 26  11  35  1   
 27  12  14  1   
 28  12  36  1   
 29  12  37  1   
 30  13  14  1   
 31  13  38  1   
 32  13  39  1   
 33  14  15  1   
 34  15  16  ar  
 35  15  17  ar  
 36  16  18  ar  
 37  17  19  ar  
 38  17  20  1   
 39  18  21  ar  
 40  18  22  1   
 41  19  21  ar  
 42  20  40  1   
 43  20  41  1   
 44  20  42  1   
 45  21  43  1   
 46  22  44  1   
 47  22  45  1   
 48  22  46  1   
@<TRIPOS>SUBSTRUCTURE
  1 ****  10 GROUP 4 **** **** 0

# MOE 2024.06 (io_trps.svl 2023.06)
