@<TRIPOS>MOLECULE
NONAME
48 50 1 0 0 
SMALL
USER_CHARGES


@<TRIPOS>ATOM
  1 O       -0.1460    -1.7590    -2.0330 O.3   1 <1>  -0.6800 
  2 C       -0.3410    -2.2350    -0.7450 C.3   1 <1>   0.1200 
  3 C        0.8590    -1.8850     0.1800 C.3   1 <1>   0.0000 
  4 C        2.2590    -2.2030    -0.4050 C.3   1 <1>   0.4230 
  5 C        0.7690    -0.3610     0.5040 C.3   1 <1>  -0.1600 
  6 C        0.7450    -2.7350     1.4720 C.3   1 <1>  -0.1600 
  7 N        2.4420    -3.6210    -0.8980 N.4   1 <1>  -0.9590 
  8 C        2.8020    -1.0510    -1.2620 C.3   1 <1>   0.2090 
  9 C        2.1200     0.3290     0.7690 C.3   1 <1>   0.2090 
 10 C        1.4750    -4.1010     1.3780 C.3   1 <1>  -0.1600 
 11 C        1.6960    -4.6140    -0.0570 C.3   1 <1>   0.3430 
 12 C        2.1380    -3.7950    -2.3530 C.3   1 <1>   0.2630 
 13 N        3.1140     0.0730    -0.3240 N.pl3 1 <1>  -0.8380 
 14 C        4.4340     0.2110     0.0470 C.ar  1 <1>   0.4100 
 15 N        5.0250    -0.8880     0.4770 N.ar  1 <1>  -0.6200 
 16 C        5.0970     1.4340    -0.0040 C.ar  1 <1>  -0.1430 
 17 C        6.2750    -0.7340     0.8660 C.ar  1 <1>   0.4700 
 18 C        6.3990     1.4540     0.4440 C.ar  1 <1>   0.1670 
 19 C        4.3980     2.6850    -0.5400 C.3   1 <1>  -0.0970 
 20 N        7.0000     0.3660     0.8790 N.ar  1 <1>  -0.6200 
 21 C        7.2470     2.7130     0.4750 C.3   1 <1>  -0.0970 
 22 H       -1.0040    -1.6550    -2.4990 H     1 <1>   0.4000 
 23 H       -1.2410    -1.7850    -0.3590 H     1 <1>   0.0800 
 24 H       -0.5050    -3.2940    -0.8120 H     1 <1>   0.0800 
 25 H        2.9040    -2.1520     0.4570 H     1 <1>   0.0800 
 26 H        0.1170    -0.1960     1.3440 H     1 <1>   0.0800 
 27 H        0.3280     0.1650    -0.3250 H     1 <1>   0.0800 
 28 H        1.1740    -2.1950     2.3000 H     1 <1>   0.0800 
 29 H       -0.2930    -2.8920     1.7150 H     1 <1>   0.0800 
 30 H        3.4470    -3.8010    -0.7660 H     1 <1>   0.4500 
 31 H        2.0880    -0.7200    -1.9930 H     1 <1>   0.0800 
 32 H        3.7030    -1.3530    -1.7680 H     1 <1>   0.0800 
 33 H        2.5260    -0.0220     1.7040 H     1 <1>   0.0800 
 34 H        1.9680     1.3920     0.8580 H     1 <1>   0.0800 
 35 H        0.9170    -4.8370     1.9310 H     1 <1>   0.0800 
 36 H        2.4370    -4.0230     1.8560 H     1 <1>   0.0800 
 37 H        0.7340    -4.8080    -0.5020 H     1 <1>   0.0800 
 38 H        2.2350    -5.5470    -0.0310 H     1 <1>   0.0800 
 39 H        1.0890    -3.6440    -2.5410 H     1 <1>   0.0800 
 40 H        2.4030    -4.7890    -2.6740 H     1 <1>   0.0800 
 41 H        2.6960    -3.0850    -2.9430 H     1 <1>   0.0800 
 42 H        6.7720    -1.6190     1.2230 H     1 <1>   0.1500 
 43 H        5.0890     3.3200    -1.0630 H     1 <1>   0.0800 
 44 H        3.9610     3.2360     0.2730 H     1 <1>   0.0800 
 45 H        3.6200     2.4250    -1.2350 H     1 <1>   0.0800 
 46 H        6.6530     3.5740     0.7170 H     1 <1>   0.0800 
 47 H        7.7150     2.8550    -0.4810 H     1 <1>   0.0800 
 48 H        8.0160     2.6210     1.2220 H     1 <1>   0.0800 
@<TRIPOS>BOND
  1   1   2  1   
  2   1  22  1   
  3   2   3  1   
  4   2  23  1   
  5   2  24  1   
  6   3   4  1   
  7   3   5  1   
  8   3   6  1   
  9   4   7  1   
 10   4   8  1   
 11   4  25  1   
 12   5   9  1   
 13   5  26  1   
 14   5  27  1   
 15   6  10  1   
 16   6  28  1   
 17   6  29  1   
 18   7  11  1   
 19   7  12  1   
 20   7  30  1   
 21   8  13  1   
 22   8  31  1   
 23   8  32  1   
 24   9  13  1   
 25   9  33  1   
 26   9  34  1   
 27  10  11  1   
 28  10  35  1   
 29  10  36  1   
 30  11  37  1   
 31  11  38  1   
 32  12  39  1   
 33  12  40  1   
 34  12  41  1   
 35  13  14  1   
 36  14  15  ar  
 37  14  16  ar  
 38  15  17  ar  
 39  16  18  ar  
 40  16  19  1   
 41  17  20  ar  
 42  17  42  1   
 43  18  20  ar  
 44  18  21  1   
 45  19  43  1   
 46  19  44  1   
 47  19  45  1   
 48  21  46  1   
 49  21  47  1   
 50  21  48  1   
@<TRIPOS>SUBSTRUCTURE
  1 ****  13 GROUP 4 **** **** 0

# MOE 2024.06 (io_trps.svl 2023.06)
