@<TRIPOS>MOLECULE
NONAME
44 46 1 0 0 
SMALL
USER_CHARGES


@<TRIPOS>ATOM
  1 CL      -4.0250    -0.8480     3.6490 Cl    1 <1>  -0.1770 
  2 C       -3.7660    -1.3960     2.0080 C.ar  1 <1>   0.1770 
  3 C       -3.4930    -0.4980     0.9890 C.ar  1 <1>   0.1900 
  4 C       -3.8350    -2.7480     1.7290 C.ar  1 <1>  -0.1500 
  5 F       -3.4270     0.7840     1.2470 F     1 <1>  -0.1900 
  6 C       -3.2860    -0.9220    -0.3110 C.ar  1 <1>  -0.1500 
  7 C       -3.6330    -3.1940     0.4290 C.ar  1 <1>   0.0830 
  8 C       -3.3560    -2.2790    -0.5900 C.ar  1 <1>  -0.1500 
  9 O       -3.7210    -4.5310     0.2350 O.3   1 <1>  -0.3630 
 10 C       -3.5870    -5.1050    -1.0590 C.3   1 <1>   0.1810 
 11 C       -3.7590    -6.6220    -1.0260 C.2   1 <1>   0.5690 
 12 O       -2.8760    -7.2960    -1.5040 O.2   1 <1>  -0.5700 
 13 N       -4.8920    -7.1980    -0.5130 N.am  1 <1>  -0.6600 
 14 C       -6.0360    -6.4880     0.1120 C.3   1 <1>   0.1400 
 15 C       -5.0730    -8.6670    -0.4230 C.3   1 <1>   0.1400 
 16 C       -7.0600    -7.5830     0.4050 C.3   1 <1>   0.2000 
 17 C       -6.2460    -8.8670     0.5380 C.3   1 <1>  -0.0800 
 18 O       -7.7580    -7.3310     1.5740 O.3   1 <1>  -0.6800 
 19 C       -7.0630   -10.1380     0.2570 C.3   1 <1>   0.0210 
 20 C       -6.1790   -11.3690     0.2920 C.2   1 <1>   0.1080 
 21 N       -5.5090   -11.7230     1.3440 N.2   1 <1>  -0.7070 
 22 C       -5.9770   -12.2350    -0.7770 C.2   1 <1>  -0.1500 
 23 N       -4.8530   -12.8380     0.9700 N.pl3 1 <1>   0.3000 
 24 C       -5.1190   -13.1680    -0.3110 C.2   1 <1>  -0.3320 
 25 C       -4.5280   -14.3700    -1.0230 C.3   1 <1>  -0.0600 
 26 H       -4.0430    -3.4510     2.5130 H     1 <1>   0.1500 
 27 H       -3.0750    -0.2030    -1.0820 H     1 <1>   0.1500 
 28 H       -3.1910    -2.5990    -1.6020 H     1 <1>   0.1500 
 29 H       -4.3330    -4.6780    -1.7020 H     1 <1>   0.0800 
 30 H       -2.6050    -4.8710    -1.4290 H     1 <1>   0.0800 
 31 H       -5.7070    -6.0240     1.0260 H     1 <1>   0.0800 
 32 H       -6.4410    -5.7510    -0.5580 H     1 <1>   0.0800 
 33 H       -5.3020    -9.0520    -1.4020 H     1 <1>   0.0800 
 34 H       -4.1800    -9.1460    -0.0550 H     1 <1>   0.0800 
 35 H       -7.7660    -7.6460    -0.4060 H     1 <1>   0.0800 
 36 H       -5.8300    -8.9300     1.5290 H     1 <1>   0.0800 
 37 H       -7.1680    -7.4320     2.3470 H     1 <1>   0.4000 
 38 H       -7.5390   -10.0680    -0.7040 H     1 <1>   0.0800 
 39 H       -7.8290   -10.2430     1.0040 H     1 <1>   0.0800 
 40 H       -6.4190   -12.1550    -1.7540 H     1 <1>   0.1500 
 41 H       -4.2320   -13.3460     1.6100 H     1 <1>   0.2700 
 42 H       -4.8920   -14.4180    -2.0340 H     1 <1>   0.0800 
 43 H       -4.8060   -15.2770    -0.5150 H     1 <1>   0.0800 
 44 H       -3.4550   -14.2970    -1.0490 H     1 <1>   0.0800 
@<TRIPOS>BOND
  1   1   2  1   
  2   2   3  ar  
  3   2   4  ar  
  4   3   5  1   
  5   3   6  ar  
  6   4   7  ar  
  7   4  26  1   
  8   6   8  ar  
  9   6  27  1   
 10   7   8  ar  
 11   7   9  1   
 12   8  28  1   
 13   9  10  1   
 14  10  11  1   
 15  10  29  1   
 16  10  30  1   
 17  11  12  2   
 18  11  13  am  
 19  13  14  1   
 20  13  15  1   
 21  14  16  1   
 22  14  31  1   
 23  14  32  1   
 24  15  17  1   
 25  15  33  1   
 26  15  34  1   
 27  16  17  1   
 28  16  18  1   
 29  16  35  1   
 30  17  19  1   
 31  17  36  1   
 32  18  37  1   
 33  19  20  1   
 34  19  38  1   
 35  19  39  1   
 36  20  21  2   
 37  20  22  1   
 38  21  23  1   
 39  22  24  2   
 40  22  40  1   
 41  23  24  1   
 42  23  41  1   
 43  24  25  1   
 44  25  42  1   
 45  25  43  1   
 46  25  44  1   
@<TRIPOS>SUBSTRUCTURE
  1 ****  13 GROUP 4 **** **** 0

# MOE 2024.06 (io_trps.svl 2023.06)
