@<TRIPOS>MOLECULE
NONAME
39 40 1 0 0 
SMALL
USER_CHARGES


@<TRIPOS>ATOM
  1 S        0.3470     0.0080    -0.9250 S.o2  1 <1>   1.3330 
  2 O        1.7870     0.0810    -0.8300 O.2   1 <1>  -0.6500 
  3 O       -0.2890     0.0740    -2.2220 O.2   1 <1>  -0.6500 
  4 N       -0.1520    -1.4230    -0.1610 N.am  1 <1>  -0.8490 
  5 C       -0.3770     1.2870     0.0980 C.3   1 <1>  -0.0550 
  6 C        0.6780    -1.7870     0.9920 C.3   1 <1>   0.1160 
  7 C       -0.2280    -2.5500    -1.0950 C.3   1 <1>   0.1160 
  8 C       -0.1540     2.7090    -0.4570 C.3   1 <1>  -0.0800 
  9 C       -0.8960     3.8040     0.3110 C.3   1 <1>   0.2000 
 10 C        1.3110     3.1680    -0.4520 C.3   1 <1>   0.1400 
 11 O       -0.7240     3.5990     1.6720 O.3   1 <1>  -0.6800 
 12 C       -0.1510     5.0790    -0.0750 C.3   1 <1>   0.1400 
 13 N        1.2570     4.6410    -0.2500 N.am  1 <1>  -0.6600 
 14 C        2.3880     5.4370    -0.1970 C.2   1 <1>   0.5440 
 15 O        3.4590     4.8550    -0.1590 O.2   1 <1>  -0.5700 
 16 C        2.3730     6.9050    -0.1650 C.ar  1 <1>   0.3960 
 17 N        1.3030     7.6080    -0.5860 N.ar  1 <1>  -0.6200 
 18 C        3.5140     7.5670     0.3110 C.ar  1 <1>   0.1600 
 19 C        1.4590     8.9160    -0.4960 C.ar  1 <1>   0.1600 
 20 N        3.6700     8.8790     0.4080 N.ar  1 <1>  -0.6200 
 21 C        2.6050     9.5330    -0.0140 C.ar  1 <1>   0.1600 
 22 H       -1.4330     1.1110     0.1670 H     1 <1>   0.0800 
 23 H        0.0270     1.2200     1.0880 H     1 <1>   0.0800 
 24 H        0.2670    -2.6510     1.4860 H     1 <1>   0.0800 
 25 H        0.7090    -0.9770     1.6990 H     1 <1>   0.0800 
 26 H        1.6850    -2.0100     0.6770 H     1 <1>   0.0800 
 27 H       -0.5630    -3.4370    -0.5840 H     1 <1>   0.0800 
 28 H        0.7370    -2.7370    -1.5360 H     1 <1>   0.0800 
 29 H       -0.9310    -2.3310    -1.8820 H     1 <1>   0.0800 
 30 H       -0.4970     2.7350    -1.4770 H     1 <1>   0.0800 
 31 H       -1.9510     3.8440     0.0970 H     1 <1>   0.0800 
 32 H        1.8060     2.9290    -1.3790 H     1 <1>   0.0800 
 33 H        1.8580     2.7220     0.3620 H     1 <1>   0.0800 
 34 H        0.2140     3.7710     1.8940 H     1 <1>   0.4000 
 35 H       -0.2490     5.8400     0.6810 H     1 <1>   0.0800 
 36 H       -0.5200     5.4540    -1.0140 H     1 <1>   0.0800 
 37 H        4.3470     6.9650     0.6310 H     1 <1>   0.1500 
 38 H        0.6410     9.5350    -0.8200 H     1 <1>   0.1500 
 39 H        2.6390    10.6080     0.0230 H     1 <1>   0.1500 
@<TRIPOS>BOND
  1   1   2  2   
  2   1   3  2   
  3   1   4  am  
  4   1   5  1   
  5   4   6  1   
  6   4   7  1   
  7   5   8  1   
  8   5  22  1   
  9   5  23  1   
 10   6  24  1   
 11   6  25  1   
 12   6  26  1   
 13   7  27  1   
 14   7  28  1   
 15   7  29  1   
 16   8   9  1   
 17   8  10  1   
 18   8  30  1   
 19   9  11  1   
 20   9  12  1   
 21   9  31  1   
 22  10  13  1   
 23  10  32  1   
 24  10  33  1   
 25  11  34  1   
 26  12  13  1   
 27  12  35  1   
 28  12  36  1   
 29  13  14  am  
 30  14  15  2   
 31  14  16  1   
 32  16  17  ar  
 33  16  18  ar  
 34  17  19  ar  
 35  18  20  ar  
 36  18  37  1   
 37  19  21  ar  
 38  19  38  1   
 39  20  21  ar  
 40  21  39  1   
@<TRIPOS>SUBSTRUCTURE
  1 ****  10 GROUP 4 **** **** 0

# MOE 2024.06 (io_trps.svl 2023.06)
