@<TRIPOS>MOLECULE
NONAME
50 53 1 0 0 
SMALL
USER_CHARGES


@<TRIPOS>ATOM
  1 O       -1.5280     0.2090     0.2790 O.2   1 <1>  -0.5700 
  2 C       -2.3510     1.0700     0.5400 C.2   1 <1>   0.5440 
  3 N       -3.5960     0.6570     0.9580 N.am  1 <1>  -0.6600 
  4 C       -2.0140     2.4750     0.3850 C.ar  1 <1>   0.0860 
  5 C       -3.7940    -0.7350     1.4540 C.3   1 <1>   0.1400 
  6 C       -4.8490     1.2750     0.4360 C.3   1 <1>   0.1400 
  7 C       -1.1360     2.9010    -0.6100 C.ar  1 <1>  -0.1500 
  8 C       -2.5390     3.4590     1.2230 C.ar  1 <1>  -0.1500 
  9 C       -4.2560    -1.6040     0.2640 C.3   1 <1>   0.4230 
 10 C       -5.4090     0.3980    -0.6990 C.3   1 <1>  -0.1600 
 11 C       -0.8120     4.2350    -0.7700 C.ar  1 <1>  -0.1500 
 12 C       -2.2180     4.7930     1.0630 C.ar  1 <1>  -0.1500 
 13 N       -4.3500    -3.0760     0.5450 N.4   1 <1>  -0.9590 
 14 C       -5.6100    -1.0870    -0.2760 C.3   1 <1>  -0.1060 
 15 C       -1.3480     5.2180     0.0610 C.ar  1 <1>   0.0530 
 16 C       -4.7030    -3.8980    -0.6510 C.3   1 <1>   0.3430 
 17 C       -3.2250    -3.6530     1.3260 C.3   1 <1>   0.2630 
 18 C       -6.6440    -1.2100     0.8600 C.2   1 <1>   0.9060 
 19 C       -6.0830    -1.9250    -1.5010 C.3   1 <1>  -0.1600 
 20 C       -1.0110     6.6130    -0.1110 C.2   1 <1>   0.0870 
 21 C       -5.0990    -3.0480    -1.8670 C.3   1 <1>  -0.1600 
 22 O       -6.6360    -2.2410     1.5510 O.co2 1 <1>  -0.9000 
 23 O       -7.4340    -0.2940     1.0780 O.co2 1 <1>  -0.9000 
 24 O       -1.5530     7.5440     0.6400 O.3   1 <1>  -0.2800 
 25 C       -0.1790     7.2630    -0.9550 C.2   1 <1>   0.0770 
 26 C       -1.0480     8.6840     0.2390 C.2   1 <1>   0.3280 
 27 N       -0.2080     8.5890    -0.7260 N.2   1 <1>  -0.5650 
 28 H       -2.8640    -1.0980     1.8510 H     1 <1>   0.0800 
 29 H       -4.5240    -0.7330     2.2450 H     1 <1>   0.0800 
 30 H       -5.5670     1.3570     1.2360 H     1 <1>   0.0800 
 31 H       -4.6610     2.2650     0.0590 H     1 <1>   0.0800 
 32 H       -0.7010     2.1650    -1.2650 H     1 <1>   0.1500 
 33 H       -3.2090     3.1670     2.0150 H     1 <1>   0.1500 
 34 H       -3.5150    -1.4680    -0.5050 H     1 <1>   0.0800 
 35 H       -6.3540     0.8120    -1.0110 H     1 <1>   0.0800 
 36 H       -4.7390     0.4570    -1.5390 H     1 <1>   0.0800 
 37 H       -0.1310     4.5150    -1.5540 H     1 <1>   0.1500 
 38 H       -2.6480     5.5200     1.7300 H     1 <1>   0.1500 
 39 H       -5.2210    -3.0890     1.1440 H     1 <1>   0.4500 
 40 H       -3.8710    -4.5260    -0.9220 H     1 <1>   0.0800 
 41 H       -5.5320    -4.5380    -0.3900 H     1 <1>   0.0800 
 42 H       -2.3000    -3.5410     0.7840 H     1 <1>   0.0800 
 43 H       -3.4010    -4.6990     1.5120 H     1 <1>   0.0800 
 44 H       -3.1360    -3.1510     2.2760 H     1 <1>   0.0800 
 45 H       -7.0390    -2.3700    -1.2740 H     1 <1>   0.0800 
 46 H       -6.2380    -1.2950    -2.3600 H     1 <1>   0.0800 
 47 H       -4.2110    -2.6250    -2.3050 H     1 <1>   0.0800 
 48 H       -5.5440    -3.6860    -2.6100 H     1 <1>   0.0800 
 49 H        0.4460     6.8450    -1.7230 H     1 <1>   0.1500 
 50 H       -1.3610     9.5910     0.7270 H     1 <1>   0.1500 
@<TRIPOS>BOND
  1   1   2  2   
  2   2   3  am  
  3   2   4  1   
  4   3   5  1   
  5   3   6  1   
  6   4   7  ar  
  7   4   8  ar  
  8   5   9  1   
  9   5  28  1   
 10   5  29  1   
 11   6  10  1   
 12   6  30  1   
 13   6  31  1   
 14   7  11  ar  
 15   7  32  1   
 16   8  12  ar  
 17   8  33  1   
 18   9  13  1   
 19   9  14  1   
 20   9  34  1   
 21  10  14  1   
 22  10  35  1   
 23  10  36  1   
 24  11  15  ar  
 25  11  37  1   
 26  12  15  ar  
 27  12  38  1   
 28  13  16  1   
 29  13  17  1   
 30  13  39  1   
 31  14  18  1   
 32  14  19  1   
 33  15  20  1   
 34  16  21  1   
 35  16  40  1   
 36  16  41  1   
 37  17  42  1   
 38  17  43  1   
 39  17  44  1   
 40  18  22  ar  
 41  18  23  ar  
 42  19  21  1   
 43  19  45  1   
 44  19  46  1   
 45  20  24  1   
 46  20  25  2   
 47  21  47  1   
 48  21  48  1   
 49  24  26  1   
 50  25  27  1   
 51  25  49  1   
 52  26  27  2   
 53  26  50  1   
@<TRIPOS>SUBSTRUCTURE
  1 ****   2 GROUP 4 **** **** 0

# MOE 2024.06 (io_trps.svl 2023.06)
