@<TRIPOS>MOLECULE
NONAME
30 32 1 0 0 
SMALL
USER_CHARGES


@<TRIPOS>ATOM
  1 S       -0.3100    -0.9460    -1.7490 S.3   1 <1>  -0.0800 
  2 C        0.9160    -1.3070    -0.5540 C.2   1 <1>  -0.0450 
  3 C        0.3730     0.6390    -1.9630 C.2   1 <1>   0.2280 
  4 C        1.7170    -0.2190    -0.4690 C.2   1 <1>   0.0460 
  5 C        0.9220    -2.5980     0.0870 C.2   1 <1>   0.7150 
  6 N        1.4060     0.8730    -1.2560 N.2   1 <1>  -0.5650 
  7 C        2.9340    -0.0730     0.4210 C.3   1 <1>  -0.0590 
  8 O        1.9760    -3.2010     0.2000 O.2   1 <1>  -0.5700 
  9 N       -0.2060    -3.1570     0.6280 N.am  1 <1>  -0.6600 
 10 C       -1.4570    -2.4840     0.9580 C.3   1 <1>   0.2350 
 11 C       -0.5270    -4.5760     0.5320 C.3   1 <1>   0.2350 
 12 C       -2.5550    -3.2020     0.1780 C.3   1 <1>  -0.2420 
 13 C       -1.9120    -4.6550    -0.1170 C.3   1 <1>  -0.2420 
 14 C       -3.5920    -2.0790     0.1340 C.2   1 <1>   0.9470 
 15 C       -3.2780    -4.2830    -0.4890 C.3   1 <1>  -0.2000 
 16 C       -1.8410    -6.0780    -0.6740 C.2   1 <1>   0.9470 
 17 O       -3.6660    -1.3420    -0.8570 O.co2 1 <1>  -0.9000 
 18 O       -4.2710    -1.8670     1.1470 O.co2 1 <1>  -0.9000 
 19 O       -1.5130    -6.2650    -1.8520 O.co2 1 <1>  -0.9000 
 20 O       -2.0380    -7.0240     0.1010 O.co2 1 <1>  -0.9000 
 21 H       -0.1220     1.2880    -2.6630 H     1 <1>   0.1500 
 22 H        3.0830    -0.9540     1.0180 H     1 <1>   0.0800 
 23 H        2.8040     0.7710     1.0730 H     1 <1>   0.0800 
 24 H        3.8050     0.0860    -0.1860 H     1 <1>   0.0800 
 25 H       -1.6430    -2.6240     2.0090 H     1 <1>   0.0800 
 26 H       -1.4190    -1.4250     0.7630 H     1 <1>   0.0800 
 27 H        0.2240    -5.1130    -0.0260 H     1 <1>   0.0800 
 28 H       -0.5800    -4.9830     1.5270 H     1 <1>   0.0800 
 29 H       -3.5070    -4.1720    -1.5360 H     1 <1>   0.1000 
 30 H       -4.0910    -4.7500     0.0410 H     1 <1>   0.1000 
@<TRIPOS>BOND
  1   1   2  1   
  2   1   3  1   
  3   2   4  2   
  4   2   5  1   
  5   3   6  2   
  6   3  21  1   
  7   4   6  1   
  8   4   7  1   
  9   5   8  2   
 10   5   9  am  
 11   7  22  1   
 12   7  23  1   
 13   7  24  1   
 14   9  10  1   
 15   9  11  1   
 16  10  12  1   
 17  10  25  1   
 18  10  26  1   
 19  11  13  1   
 20  11  27  1   
 21  11  28  1   
 22  12  13  1   
 23  12  14  1   
 24  12  15  1   
 25  13  15  1   
 26  13  16  1   
 27  14  17  ar  
 28  14  18  ar  
 29  15  29  1   
 30  15  30  1   
 31  16  19  ar  
 32  16  20  ar  
@<TRIPOS>SUBSTRUCTURE
  1 ****   9 GROUP 4 **** **** 0

# MOE 2024.06 (io_trps.svl 2023.06)
