@<TRIPOS>MOLECULE
Untitled Document
45 46 1 0 0 
SMALL
USER_CHARGES


@<TRIPOS>ATOM
  1 O       -1.0280     2.4040    -1.3680 O.2   1 <1>  -0.5700 
  2 C       -0.6360     2.1410    -0.2540 C.2   1 <1>   0.5690 
  3 N       -1.3390     1.3500     0.6160 N.am  1 <1>  -0.5470 
  4 C        0.7170     2.7560     0.1790 C.3   1 <1>   0.4840 
  5 C       -2.5540     0.6960     0.3620 C.ar  1 <1>   0.1170 
  6 N        1.0240     4.0670    -0.5240 N.4   1 <1>  -0.9590 
  7 C        1.8400     1.7430    -0.1040 C.3   1 <1>  -0.1600 
  8 C       -3.7490     1.4110     0.2290 C.ar  1 <1>  -0.1430 
  9 C       -2.5710    -0.6970     0.2670 C.ar  1 <1>  -0.1430 
 10 C        2.3690     4.6260    -0.1940 C.3   1 <1>   0.3430 
 11 C       -0.0620     5.0770    -0.2780 C.3   1 <1>   0.3430 
 12 C        3.2340     2.2880     0.2240 C.3   1 <1>  -0.1600 
 13 C       -4.9320     0.7300    -0.0030 C.ar  1 <1>  -0.1500 
 14 C       -3.8020     2.9300     0.3350 C.3   1 <1>  -0.0970 
 15 C       -3.7660    -1.3580     0.0380 C.ar  1 <1>  -0.1500 
 16 C       -1.2960    -1.5220     0.3970 C.3   1 <1>  -0.0970 
 17 C        3.4640     3.6100    -0.5130 C.3   1 <1>  -0.1600 
 18 C       -0.0830     6.1940    -1.3300 C.3   1 <1>   0.1200 
 19 C       -4.9440    -0.6480    -0.0970 C.ar  1 <1>  -0.1500 
 20 O       -0.9470     7.1760    -0.8790 O.3   1 <1>  -0.6800 
 21 H       -0.9110     1.0690     1.4970 H     1 <1>   0.3700 
 22 H        0.6770     2.9360     1.2390 H     1 <1>   0.0800 
 23 H        0.9840     3.8230    -1.5260 H     1 <1>   0.4500 
 24 H        1.8020     1.4570    -1.1430 H     1 <1>   0.0800 
 25 H        1.6680     0.8520     0.4740 H     1 <1>   0.0800 
 26 H        2.4100     4.8760     0.8540 H     1 <1>   0.0800 
 27 H        2.5470     5.5260    -0.7600 H     1 <1>   0.0800 
 28 H        0.0700     5.5190     0.6960 H     1 <1>   0.0800 
 29 H       -1.0260     4.5960    -0.3030 H     1 <1>   0.0800 
 30 H        3.9850     1.5730    -0.0710 H     1 <1>   0.0800 
 31 H        3.3280     2.4420     1.2870 H     1 <1>   0.0800 
 32 H       -5.8580     1.2670    -0.1130 H     1 <1>   0.1500 
 33 H       -3.2270     3.2700     1.1770 H     1 <1>   0.0800 
 34 H       -4.8140     3.2690     0.4670 H     1 <1>   0.0800 
 35 H       -3.4140     3.3710    -0.5650 H     1 <1>   0.0800 
 36 H       -3.7930    -2.4310    -0.0390 H     1 <1>   0.1500 
 37 H       -0.5730    -1.1980    -0.3300 H     1 <1>   0.0800 
 38 H       -1.4930    -2.5650     0.2260 H     1 <1>   0.0800 
 39 H       -0.8830    -1.4150     1.3830 H     1 <1>   0.0800 
 40 H        4.4160     4.0190    -0.2200 H     1 <1>   0.0800 
 41 H        3.5010     3.4410    -1.5760 H     1 <1>   0.0800 
 42 H       -0.4530     5.8250    -2.2720 H     1 <1>   0.0800 
 43 H        0.8850     6.6460    -1.4560 H     1 <1>   0.0800 
 44 H       -5.8690    -1.1680    -0.2770 H     1 <1>   0.1500 
 45 H       -1.0640     7.8900    -1.5430 H     1 <1>   0.4000 
@<TRIPOS>BOND
  1   1   2  2   
  2   2   3  am  
  3   2   4  1   
  4   3   5  1   
  5   3  21  1   
  6   4   6  1   
  7   4   7  1   
  8   4  22  1   
  9   5   8  ar  
 10   5   9  ar  
 11   6  10  1   
 12   6  11  1   
 13   6  23  1   
 14   7  12  1   
 15   7  24  1   
 16   7  25  1   
 17   8  13  ar  
 18   8  14  1   
 19   9  15  ar  
 20   9  16  1   
 21  10  17  1   
 22  10  26  1   
 23  10  27  1   
 24  11  18  1   
 25  11  28  1   
 26  11  29  1   
 27  12  17  1   
 28  12  30  1   
 29  12  31  1   
 30  13  19  ar  
 31  13  32  1   
 32  14  33  1   
 33  14  34  1   
 34  14  35  1   
 35  15  19  ar  
 36  15  36  1   
 37  16  37  1   
 38  16  38  1   
 39  16  39  1   
 40  17  40  1   
 41  17  41  1   
 42  18  20  1   
 43  18  42  1   
 44  18  43  1   
 45  19  44  1   
 46  20  45  1   
@<TRIPOS>SUBSTRUCTURE
  1 ****   2 GROUP 4 **** **** 0

# MOE 2024.06 (io_trps.svl 2023.06)
