@<TRIPOS>MOLECULE
NONAME
55 58 1 0 0 
SMALL
USER_CHARGES


@<TRIPOS>ATOM
  1 O        0.1750     0.4220    -0.7030 O.2   1 <1>  -0.5700 
  2 C       -0.4460     1.4530    -0.8050 C.2   1 <1>   0.5690 
  3 N       -1.8120     1.4880    -0.6890 N.am  1 <1>  -0.6600 
  4 C        0.3330     2.7370    -1.0620 C.3   1 <1>  -0.0990 
  5 C       -2.6660     2.7170    -0.7920 C.3   1 <1>   0.1400 
  6 C       -2.5980     0.2450    -0.4340 C.3   1 <1>   0.1400 
  7 C        1.8590     2.5400    -1.1070 C.3   1 <1>  -0.0220 
  8 C       -3.4870     2.9280     0.4940 C.3   1 <1>   0.1440 
  9 C       -3.4340     0.4050     0.8430 C.3   1 <1>  -0.1600 
 10 C        2.5720     3.8780    -1.3290 C.2   1 <1>  -0.1240 
 11 C       -4.3500     4.1630     0.3100 C.ar  1 <1>   0.1660 
 12 C       -4.3200     1.6630     0.7930 C.3   1 <1>  -0.1600 
 13 C       -2.5870     3.3290     1.6960 C.3   1 <1>  -0.1600 
 14 C        2.8160     4.3630    -2.5800 C.2   1 <1>  -0.0290 
 15 C        3.0010     4.6640    -0.2110 C.2   1 <1>   0.3750 
 16 N       -5.4150     4.2410    -0.4580 N.ar  1 <1>  -0.6200 
 17 C       -3.8780     5.2190     1.0300 C.ar  1 <1>  -0.1440 
 18 C       -2.6330     4.8630     1.8030 C.3   1 <1>  -0.0170 
 19 N        3.4630     5.5590    -2.6660 N.am  1 <1>  -0.5390 
 20 C        2.4480     3.7320    -3.9150 C.3   1 <1>  -0.1020 
 21 N        3.6010     5.7950    -0.3220 N.2   1 <1>  -0.6610 
 22 C        2.7660     4.1890     1.2120 C.3   1 <1>  -0.1790 
 23 C       -6.0010     5.4300    -0.4620 C.ar  1 <1>   0.4770 
 24 C       -4.5630     6.4060     0.9500 C.ar  1 <1>   0.1600 
 25 C        3.8540     6.2680    -1.5760 C.2   1 <1>   0.8410 
 26 N       -5.6380     6.5220     0.1990 N.ar  1 <1>  -0.6200 
 27 C       -7.2370     5.5610    -1.3190 C.3   1 <1>  -0.0970 
 28 O        4.4240     7.3280    -1.7420 O.2   1 <1>  -0.5700 
 29 H        0.0950     3.4380    -0.2870 H     1 <1>   0.0800 
 30 H        0.0060     3.1460    -2.0000 H     1 <1>   0.0800 
 31 H       -3.3430     2.5940    -1.6200 H     1 <1>   0.0800 
 32 H       -2.0770     3.5930    -0.9870 H     1 <1>   0.0800 
 33 H       -1.9470    -0.6060    -0.3320 H     1 <1>   0.0800 
 34 H       -3.2470     0.0660    -1.2750 H     1 <1>   0.0800 
 35 H        2.1080     1.8510    -1.8940 H     1 <1>   0.0800 
 36 H        2.1920     2.0700    -0.2000 H     1 <1>   0.0800 
 37 H       -2.7690     0.4500     1.6870 H     1 <1>   0.0800 
 38 H       -4.0540    -0.4660     0.9660 H     1 <1>   0.0800 
 39 H       -5.0530     1.5370     0.0150 H     1 <1>   0.0800 
 40 H       -4.8540     1.7790     1.7200 H     1 <1>   0.0800 
 41 H       -1.5810     2.9640     1.6010 H     1 <1>   0.0800 
 42 H       -3.0030     2.9230     2.6010 H     1 <1>   0.0800 
 43 H       -1.7740     5.3060     1.3300 H     1 <1>   0.0800 
 44 H       -2.6950     5.1870     2.8280 H     1 <1>   0.0800 
 45 H        3.7050     6.0030    -3.5490 H     1 <1>   0.3700 
 46 H        1.9290     4.4480    -4.5250 H     1 <1>   0.0800 
 47 H        1.8110     2.8750    -3.8060 H     1 <1>   0.0800 
 48 H        3.3420     3.4260    -4.4290 H     1 <1>   0.0800 
 49 H        1.7280     3.9700     1.3740 H     1 <1>   0.0800 
 50 H        3.0590     4.9510     1.9130 H     1 <1>   0.0800 
 51 H        3.3560     3.3130     1.4070 H     1 <1>   0.0800 
 52 H       -4.2300     7.2680     1.5020 H     1 <1>   0.1500 
 53 H       -7.2670     4.7790    -2.0550 H     1 <1>   0.0800 
 54 H       -7.2330     6.5110    -1.8200 H     1 <1>   0.0800 
 55 H       -8.1080     5.4940    -0.6960 H     1 <1>   0.0800 
@<TRIPOS>BOND
  1   1   2  2   
  2   2   3  am  
  3   2   4  1   
  4   3   5  1   
  5   3   6  1   
  6   4   7  1   
  7   4  29  1   
  8   4  30  1   
  9   5   8  1   
 10   5  31  1   
 11   5  32  1   
 12   6   9  1   
 13   6  33  1   
 14   6  34  1   
 15   7  10  1   
 16   7  35  1   
 17   7  36  1   
 18   8  11  1   
 19   8  12  1   
 20   8  13  1   
 21   9  12  1   
 22   9  37  1   
 23   9  38  1   
 24  10  14  2   
 25  10  15  1   
 26  11  16  ar  
 27  11  17  ar  
 28  12  39  1   
 29  12  40  1   
 30  13  18  1   
 31  13  41  1   
 32  13  42  1   
 33  14  19  1   
 34  14  20  1   
 35  15  21  2   
 36  15  22  1   
 37  16  23  ar  
 38  17  18  1   
 39  17  24  ar  
 40  18  43  1   
 41  18  44  1   
 42  19  25  am  
 43  19  45  1   
 44  20  46  1   
 45  20  47  1   
 46  20  48  1   
 47  21  25  1   
 48  22  49  1   
 49  22  50  1   
 50  22  51  1   
 51  23  26  ar  
 52  23  27  1   
 53  24  26  ar  
 54  24  52  1   
 55  25  28  2   
 56  27  53  1   
 57  27  54  1   
 58  27  55  1   
@<TRIPOS>SUBSTRUCTURE
  1 ****   4 GROUP 4 **** **** 0

# MOE 2024.06 (io_trps.svl 2023.06)
