@<TRIPOS>MOLECULE
NONAME
47 50 1 0 0 
SMALL
USER_CHARGES


@<TRIPOS>ATOM
  1 O        0.3050     2.8440     1.2860 O.2   1 <1>  -0.5700 
  2 C       -0.7900     2.5160     0.8540 C.2   1 <1>   0.5440 
  3 N       -1.9210     3.0210     1.4470 N.am  1 <1>  -0.4200 
  4 C       -0.9440     1.6540    -0.2830 C.ar  1 <1>   0.0860 
  5 C       -3.1540     2.7300     0.9150 C.2   1 <1>   0.4500 
  6 C       -1.8180     3.9230     2.6350 C.3   1 <1>   0.2010 
  7 C       -2.2490     1.4100    -0.7280 C.ar  1 <1>   0.1790 
  8 C        0.1260     1.0620    -0.9610 C.ar  1 <1>  -0.1500 
  9 N       -3.3410     1.9760    -0.1000 N.2   1 <1>  -0.6290 
 10 C       -1.5010     5.3630     2.2490 C.2   1 <1>   0.5690 
 11 C       -2.4510     0.5850    -1.8290 C.ar  1 <1>  -0.1500 
 12 C       -0.0910     0.2470    -2.0530 C.ar  1 <1>  -0.1500 
 13 O       -2.2960     6.2160     2.5660 O.2   1 <1>  -0.5700 
 14 N       -0.3420     5.6170     1.5650 N.am  1 <1>  -0.4940 
 15 C       -1.3860     0.0060    -2.4890 C.ar  1 <1>  -0.1500 
 16 C        0.1710     6.8510     1.0900 C.2   1 <1>  -0.0880 
 17 N        1.1800     7.0090     0.1820 N.pl3 1 <1>   0.3140 
 18 C       -0.2200     8.1000     1.4350 C.2   1 <1>  -0.1500 
 19 N        1.4390     8.3240    -0.0360 N.2   1 <1>  -0.7070 
 20 C        1.9610     5.9700    -0.5520 C.3   1 <1>   0.2710 
 21 C        0.5960     8.9580     0.7120 C.2   1 <1>   0.1080 
 22 C        1.0450     5.0590    -1.3920 C.3   1 <1>  -0.1950 
 23 C        2.8490     5.1550     0.3980 C.3   1 <1>  -0.2400 
 24 C        0.5370    10.4660     0.7660 C.3   1 <1>  -0.0590 
 25 C        1.5260     4.4370    -2.6660 C.3   1 <1>  -0.2000 
 26 C        0.4860     5.5220    -2.6990 C.3   1 <1>  -0.2000 
 27 H       -4.0030     3.1780     1.4020 H     1 <1>   0.0600 
 28 H       -1.0490     3.5630     3.2950 H     1 <1>   0.0800 
 29 H       -2.7460     3.9080     3.1780 H     1 <1>   0.0800 
 30 H        1.1300     1.2500    -0.6210 H     1 <1>   0.1500 
 31 H       -3.4590     0.4060    -2.1590 H     1 <1>   0.1500 
 32 H        0.7390    -0.2050    -2.5690 H     1 <1>   0.1500 
 33 H        0.2110     4.7760     1.3460 H     1 <1>   0.3700 
 34 H       -1.5570    -0.6310    -3.3400 H     1 <1>   0.1500 
 35 H       -0.9950     8.3860     2.1220 H     1 <1>   0.1500 
 36 H        2.6080     6.5000    -1.2290 H     1 <1>   0.0800 
 37 H        0.4040     4.4500    -0.7870 H     1 <1>   0.1000 
 38 H        2.2610     4.6030     1.1060 H     1 <1>   0.0800 
 39 H        3.5130     5.8140     0.9290 H     1 <1>   0.0800 
 40 H        3.4410     4.4590    -0.1670 H     1 <1>   0.0800 
 41 H       -0.2350    10.7890     1.4390 H     1 <1>   0.0800 
 42 H        0.3340    10.8510    -0.2160 H     1 <1>   0.0800 
 43 H        1.4830    10.8490     1.1020 H     1 <1>   0.0800 
 44 H        1.2240     3.4300    -2.8990 H     1 <1>   0.1000 
 45 H        2.5120     4.6670    -3.0320 H     1 <1>   0.1000 
 46 H        0.7590     6.4990    -3.0620 H     1 <1>   0.1000 
 47 H       -0.5310     5.2650    -2.9420 H     1 <1>   0.1000 
@<TRIPOS>BOND
  1   1   2  2   
  2   2   3  am  
  3   2   4  1   
  4   3   5  1   
  5   3   6  1   
  6   4   7  ar  
  7   4   8  ar  
  8   5   9  2   
  9   5  27  1   
 10   6  10  1   
 11   6  28  1   
 12   6  29  1   
 13   7   9  1   
 14   7  11  ar  
 15   8  12  ar  
 16   8  30  1   
 17  10  13  2   
 18  10  14  am  
 19  11  15  ar  
 20  11  31  1   
 21  12  15  ar  
 22  12  32  1   
 23  14  16  1   
 24  14  33  1   
 25  15  34  1   
 26  16  17  1   
 27  16  18  2   
 28  17  19  1   
 29  17  20  1   
 30  18  21  1   
 31  18  35  1   
 32  19  21  2   
 33  20  22  1   
 34  20  23  1   
 35  20  36  1   
 36  21  24  1   
 37  22  25  1   
 38  22  26  1   
 39  22  37  1   
 40  23  38  1   
 41  23  39  1   
 42  23  40  1   
 43  24  41  1   
 44  24  42  1   
 45  24  43  1   
 46  25  26  1   
 47  25  44  1   
 48  25  45  1   
 49  26  46  1   
 50  26  47  1   
@<TRIPOS>SUBSTRUCTURE
  1 ****  14 GROUP 4 **** **** 0

# MOE 2024.06 (io_trps.svl 2023.06)
