@<TRIPOS>MOLECULE
NONAME
50 53 1 0 0 
SMALL
USER_CHARGES


@<TRIPOS>ATOM
  1 O       -1.3720     0.2590     1.8550 O.2   1 <1>  -0.5700 
  2 C       -1.7990     0.7540     0.8300 C.2   1 <1>   0.5440 
  3 N       -2.4840    -0.0280    -0.0720 N.am  1 <1>  -0.6600 
  4 C       -1.5820     2.1620     0.5710 C.ar  1 <1>   0.0860 
  5 C       -2.5150    -1.5190     0.1070 C.3   1 <1>   0.3640 
  6 C       -3.3040     0.5880    -1.1600 C.3   1 <1>   0.1400 
  7 C       -0.4870     2.6170    -0.1780 C.ar  1 <1>  -0.1440 
  8 C       -2.4870     3.1020     1.0610 C.ar  1 <1>  -0.1500 
  9 C       -1.2140    -2.1240    -0.4310 C.ar  1 <1>  -0.1440 
 10 C       -3.7410    -2.2410    -0.5320 C.3   1 <1>   0.2000 
 11 C       -4.1170    -0.4310    -1.9680 C.3   1 <1>   0.1200 
 12 C       -0.3290     3.9690    -0.4400 C.ar  1 <1>  -0.1500 
 13 C        0.5440     1.6270    -0.7060 C.3   1 <1>  -0.0960 
 14 C       -2.3270     4.4480     0.8030 C.ar  1 <1>   0.0830 
 15 C       -0.7410    -1.8410    -1.7070 C.ar  1 <1>  -0.1500 
 16 C       -0.4840    -2.9850     0.3750 C.ar  1 <1>  -0.1500 
 17 O       -4.6790    -1.3710    -1.1120 O.3   1 <1>  -0.5600 
 18 C       -4.5010    -3.0990     0.4890 C.3   1 <1>   0.1200 
 19 C       -1.2470     4.8870     0.0370 C.ar  1 <1>   0.0830 
 20 O       -3.2310     5.3260     1.3080 O.3   1 <1>  -0.3630 
 21 C        0.4320    -2.4130    -2.1680 C.ar  1 <1>  -0.1500 
 22 C        0.6890    -3.5580    -0.0830 C.ar  1 <1>  -0.1500 
 23 O       -3.6750    -4.0880     1.0180 O.3   1 <1>  -0.6800 
 24 O       -1.0790     6.1990    -0.2530 O.3   1 <1>  -0.3630 
 25 C       -2.8500     6.6890     1.3280 C.3   1 <1>   0.1200 
 26 C        1.1480    -3.2740    -1.3560 C.ar  1 <1>  -0.1500 
 27 C       -2.1650     7.0690     0.0080 C.3   1 <1>   0.1200 
 28 H       -2.5480    -1.7170     1.1650 H     1 <1>   0.0800 
 29 H       -3.9900     1.2880    -0.7160 H     1 <1>   0.0800 
 30 H       -2.6620     1.1380    -1.8260 H     1 <1>   0.0800 
 31 H       -3.3220     2.7740     1.6530 H     1 <1>   0.1500 
 32 H       -3.3980    -2.8890    -1.3190 H     1 <1>   0.0800 
 33 H       -3.5050    -0.9380    -2.6930 H     1 <1>   0.0800 
 34 H       -4.9180     0.0660    -2.4860 H     1 <1>   0.0800 
 35 H        0.5050     4.3280    -1.0160 H     1 <1>   0.1500 
 36 H        1.3850     2.1370    -1.1410 H     1 <1>   0.0800 
 37 H        0.1020     0.9960    -1.4550 H     1 <1>   0.0800 
 38 H        0.9060     1.0050     0.0950 H     1 <1>   0.0800 
 39 H       -1.2790    -1.1690    -2.3470 H     1 <1>   0.1500 
 40 H       -0.8290    -3.2120     1.3710 H     1 <1>   0.1500 
 41 H       -5.3430    -3.5800     0.0240 H     1 <1>   0.0800 
 42 H       -4.8430    -2.4850     1.3050 H     1 <1>   0.0800 
 43 H        0.7900    -2.1880    -3.1580 H     1 <1>   0.1500 
 44 H        1.2450    -4.2230     0.5550 H     1 <1>   0.1500 
 45 H       -3.4090    -4.7300     0.3300 H     1 <1>   0.4000 
 46 H       -3.7350     7.2780     1.4840 H     1 <1>   0.0800 
 47 H       -2.1770     6.8360     2.1540 H     1 <1>   0.0800 
 48 H        2.0610    -3.7190    -1.7120 H     1 <1>   0.1500 
 49 H       -1.7830     8.0730     0.0500 H     1 <1>   0.0800 
 50 H       -2.8600     6.9890    -0.8090 H     1 <1>   0.0800 
@<TRIPOS>BOND
  1   1   2  2   
  2   2   3  am  
  3   2   4  1   
  4   3   5  1   
  5   3   6  1   
  6   4   7  ar  
  7   4   8  ar  
  8   5   9  1   
  9   5  10  1   
 10   5  28  1   
 11   6  11  1   
 12   6  29  1   
 13   6  30  1   
 14   7  12  ar  
 15   7  13  1   
 16   8  14  ar  
 17   8  31  1   
 18   9  15  ar  
 19   9  16  ar  
 20  10  17  1   
 21  10  18  1   
 22  10  32  1   
 23  11  17  1   
 24  11  33  1   
 25  11  34  1   
 26  12  19  ar  
 27  12  35  1   
 28  13  36  1   
 29  13  37  1   
 30  13  38  1   
 31  14  19  ar  
 32  14  20  1   
 33  15  21  ar  
 34  15  39  1   
 35  16  22  ar  
 36  16  40  1   
 37  18  23  1   
 38  18  41  1   
 39  18  42  1   
 40  19  24  1   
 41  20  25  1   
 42  21  26  ar  
 43  21  43  1   
 44  22  26  ar  
 45  22  44  1   
 46  23  45  1   
 47  24  27  1   
 48  25  27  1   
 49  25  46  1   
 50  25  47  1   
 51  26  48  1   
 52  27  49  1   
 53  27  50  1   
@<TRIPOS>SUBSTRUCTURE
  1 ****   2 GROUP 4 **** **** 0

# MOE 2024.06 (io_trps.svl 2023.06)
