@<TRIPOS>MOLECULE
NONAME
37 38 1 0 0 
SMALL
USER_CHARGES


@<TRIPOS>ATOM
  1 O        0.8950     1.2900     1.5260 O.3   1 <1>  -0.0190 
  2 N        2.0740     1.8480     1.4620 N.2   1 <1>  -0.4100 
  3 C        0.9190     0.3980     0.5670 C.2   1 <1>   0.2980 
  4 C        2.7050     1.2770     0.5090 C.2   1 <1>   0.5990 
  5 N        2.0000     0.3310    -0.0950 N.2   1 <1>  -0.5650 
  6 C       -0.3120    -0.4590     0.3340 C.3   1 <1>   0.0200 
  7 N        3.9960     1.5930     0.0830 N.pl3 1 <1>  -0.8210 
  8 C       -1.4990     0.3700    -0.1730 C.3   1 <1>  -0.2400 
  9 C        4.8760     2.3540     1.0180 C.3   1 <1>   0.3890 
 10 C        4.7220     0.6000    -0.7590 C.3   1 <1>   0.1290 
 11 C        5.6810     3.4090     0.2730 C.2   1 <1>   0.0060 
 12 N        6.9530     3.5660     0.4250 N.2   1 <1>  -0.3380 
 13 N        5.1800     4.2910    -0.6050 N.pl3 1 <1>   0.0480 
 14 N        7.3230     4.5730    -0.3660 N.2   1 <1>  -0.3380 
 15 C        6.2620     4.9840    -0.9650 C.2   1 <1>   0.0370 
 16 C        3.8030     4.4960    -1.1080 C.3   1 <1>   0.0960 
 17 C        2.9020     5.0480    -0.0080 C.3   1 <1>   0.1200 
 18 O        1.6680     5.3440    -0.5760 O.3   1 <1>  -0.5600 
 19 C        0.6670     5.5980     0.3570 C.3   1 <1>   0.0400 
 20 H       -0.5750    -0.9480     1.2540 H     1 <1>   0.0800 
 21 H       -0.0740    -1.2180    -0.3910 H     1 <1>   0.0800 
 22 H       -1.7720     1.1180     0.5520 H     1 <1>   0.0800 
 23 H       -2.3480    -0.2660    -0.3480 H     1 <1>   0.0800 
 24 H       -1.2400     0.8620    -1.0940 H     1 <1>   0.0800 
 25 H        5.5520     1.6720     1.5040 H     1 <1>   0.0800 
 26 H        4.3040     2.8440     1.7840 H     1 <1>   0.0800 
 27 H        4.1370     0.3590    -1.6300 H     1 <1>   0.0800 
 28 H        4.8960    -0.3010    -0.1960 H     1 <1>   0.0800 
 29 H        5.6670     1.0020    -1.0840 H     1 <1>   0.0800 
 30 H        6.2350     5.7910    -1.6750 H     1 <1>   0.1500 
 31 H        3.4140     3.5600    -1.4650 H     1 <1>   0.0800 
 32 H        3.8330     5.1920    -1.9250 H     1 <1>   0.0800 
 33 H        3.3080     5.9550     0.4050 H     1 <1>   0.0800 
 34 H        2.7610     4.3150     0.7660 H     1 <1>   0.0800 
 35 H       -0.2360     5.8380    -0.1770 H     1 <1>   0.0800 
 36 H        0.9570     6.4320     0.9730 H     1 <1>   0.0800 
 37 H        0.5090     4.7180     0.9560 H     1 <1>   0.0800 
@<TRIPOS>BOND
  1   1   2  1   
  2   1   3  1   
  3   2   4  2   
  4   3   5  2   
  5   3   6  1   
  6   4   5  1   
  7   4   7  1   
  8   6   8  1   
  9   6  20  1   
 10   6  21  1   
 11   7   9  1   
 12   7  10  1   
 13   8  22  1   
 14   8  23  1   
 15   8  24  1   
 16   9  11  1   
 17   9  25  1   
 18   9  26  1   
 19  10  27  1   
 20  10  28  1   
 21  10  29  1   
 22  11  12  2   
 23  11  13  1   
 24  12  14  1   
 25  13  15  1   
 26  13  16  1   
 27  14  15  2   
 28  15  30  1   
 29  16  17  1   
 30  16  31  1   
 31  16  32  1   
 32  17  18  1   
 33  17  33  1   
 34  17  34  1   
 35  18  19  1   
 36  19  35  1   
 37  19  36  1   
 38  19  37  1   
@<TRIPOS>SUBSTRUCTURE
  1 ****   7 GROUP 4 **** **** 0

# MOE 2024.06 (io_trps.svl 2023.06)
