@<TRIPOS>MOLECULE
NONAME
54 56 1 0 0 
SMALL
USER_CHARGES


@<TRIPOS>ATOM
  1 O       -1.6810     0.4050    -1.7110 O.2   1 <1>  -0.5700 
  2 C       -2.0600     0.9930    -0.7140 C.2   1 <1>   0.5440 
  3 N       -2.9840     0.3740     0.0950 N.am  1 <1>  -0.6600 
  4 C       -1.5790     2.3360    -0.4420 C.ar  1 <1>   0.0860 
  5 C       -3.3250    -1.0790    -0.0340 C.3   1 <1>   0.1400 
  6 C       -4.0080     1.1370     0.8610 C.3   1 <1>   0.1400 
  7 C       -0.8890     2.6820     0.7260 C.ar  1 <1>  -0.1440 
  8 C       -1.8130     3.3420    -1.3770 C.ar  1 <1>  -0.1500 
  9 C       -4.6510    -1.2300    -0.8010 C.3   1 <1>   0.2000 
 10 C       -5.3710     1.0040     0.1640 C.3   1 <1>  -0.1600 
 11 C       -0.4820     3.9890     0.9310 C.ar  1 <1>  -0.1500 
 12 C       -0.5670     1.6340     1.7860 C.3   1 <1>  -0.0960 
 13 C       -1.4050     4.6490    -1.1770 C.ar  1 <1>  -0.1440 
 14 O       -4.4390    -0.7110    -2.0790 O.3   1 <1>  -0.6800 
 15 C       -5.7960    -0.4780    -0.0730 C.3   1 <1>  -0.1060 
 16 C       -0.7340     4.9780    -0.0060 C.ar  1 <1>  -0.1440 
 17 C       -1.7010     5.6900    -2.2460 C.3   1 <1>  -0.0970 
 18 C       -6.0150    -1.2370     1.2470 C.2   1 <1>   0.9060 
 19 C       -7.1030    -0.5530    -0.9110 C.3   1 <1>  -0.0160 
 20 C       -0.2630     6.3990     0.2690 C.3   1 <1>  -0.0960 
 21 O       -6.0180    -0.6420     2.3320 O.co2 1 <1>  -0.9000 
 22 O       -6.1480    -2.4670     1.2050 O.co2 1 <1>  -0.9000 
 23 C       -8.2390     0.3390    -0.4120 C.ar  1 <1>  -0.1440 
 24 C       -8.5840     1.4860    -1.1100 C.ar  1 <1>  -0.1500 
 25 C       -8.9410     0.0120     0.7380 C.ar  1 <1>  -0.1500 
 26 C       -9.6170     2.2950    -0.6680 C.ar  1 <1>  -0.1500 
 27 C       -9.9730     0.8200     1.1840 C.ar  1 <1>  -0.1500 
 28 C      -10.3130     1.9620     0.4810 C.ar  1 <1>  -0.1500 
 29 H       -2.5450    -1.6100    -0.5500 H     1 <1>   0.0800 
 30 H       -3.4190    -1.5100     0.9480 H     1 <1>   0.0800 
 31 H       -4.0630     0.7450     1.8630 H     1 <1>   0.0800 
 32 H       -3.7430     2.1760     0.9310 H     1 <1>   0.0800 
 33 H       -2.3320     3.0720    -2.2800 H     1 <1>   0.1500 
 34 H       -4.8980    -2.2720    -0.9130 H     1 <1>   0.0800 
 35 H       -6.1080     1.4930     0.7760 H     1 <1>   0.0800 
 36 H       -5.3330     1.5260    -0.7750 H     1 <1>   0.0800 
 37 H        0.0430     4.2420     1.8350 H     1 <1>   0.1500 
 38 H        0.1780     1.9950     2.4710 H     1 <1>   0.0800 
 39 H       -0.1910     0.7390     1.3240 H     1 <1>   0.0800 
 40 H       -1.4540     1.3880     2.3420 H     1 <1>   0.0800 
 41 H       -3.6250    -0.1560    -2.0290 H     1 <1>   0.4000 
 42 H       -2.2130     5.2500    -3.0830 H     1 <1>   0.0800 
 43 H       -0.7840     6.1220    -2.6030 H     1 <1>   0.0800 
 44 H       -2.3230     6.4680    -1.8410 H     1 <1>   0.0800 
 45 H       -6.8930    -0.2820    -1.9290 H     1 <1>   0.0800 
 46 H       -7.4470    -1.5720    -0.9310 H     1 <1>   0.0800 
 47 H        0.2250     6.4670     1.2240 H     1 <1>   0.0800 
 48 H       -1.1020     7.0710     0.2700 H     1 <1>   0.0800 
 49 H        0.4340     6.7080    -0.4880 H     1 <1>   0.0800 
 50 H       -8.0440     1.7520    -2.0010 H     1 <1>   0.1500 
 51 H       -8.6770    -0.8710     1.2970 H     1 <1>   0.1500 
 52 H       -9.8760     3.1820    -1.2170 H     1 <1>   0.1500 
 53 H      -10.5010     0.5540     2.0820 H     1 <1>   0.1500 
 54 H      -11.1140     2.5890     0.8290 H     1 <1>   0.1500 
@<TRIPOS>BOND
  1   1   2  2   
  2   2   3  am  
  3   2   4  1   
  4   3   5  1   
  5   3   6  1   
  6   4   7  ar  
  7   4   8  ar  
  8   5   9  1   
  9   5  29  1   
 10   5  30  1   
 11   6  10  1   
 12   6  31  1   
 13   6  32  1   
 14   7  11  ar  
 15   7  12  1   
 16   8  13  ar  
 17   8  33  1   
 18   9  14  1   
 19   9  15  1   
 20   9  34  1   
 21  10  15  1   
 22  10  35  1   
 23  10  36  1   
 24  11  16  ar  
 25  11  37  1   
 26  12  38  1   
 27  12  39  1   
 28  12  40  1   
 29  13  16  ar  
 30  13  17  1   
 31  14  41  1   
 32  15  18  1   
 33  15  19  1   
 34  16  20  1   
 35  17  42  1   
 36  17  43  1   
 37  17  44  1   
 38  18  21  ar  
 39  18  22  ar  
 40  19  23  1   
 41  19  45  1   
 42  19  46  1   
 43  20  47  1   
 44  20  48  1   
 45  20  49  1   
 46  23  24  ar  
 47  23  25  ar  
 48  24  26  ar  
 49  24  50  1   
 50  25  27  ar  
 51  25  51  1   
 52  26  28  ar  
 53  26  52  1   
 54  27  28  ar  
 55  27  53  1   
 56  28  54  1   
@<TRIPOS>SUBSTRUCTURE
  1 ****  10 GROUP 4 **** **** 0

# MOE 2024.06 (io_trps.svl 2023.06)
