@<TRIPOS>MOLECULE
NONAME
59 62 1 0 0 
SMALL
USER_CHARGES


@<TRIPOS>ATOM
  1 O       -1.5310     0.3500     0.3560 O.2   1 <1>  -0.5700 
  2 C       -2.3830     1.2160     0.4750 C.2   1 <1>   0.5440 
  3 N       -3.6420     0.8180     0.8700 N.am  1 <1>  -0.6600 
  4 C       -2.0730     2.5990     0.1740 C.ar  1 <1>   0.0860 
  5 C       -3.8400    -0.5280     1.4770 C.3   1 <1>   0.1400 
  6 C       -4.8690     1.3390     0.2010 C.3   1 <1>   0.1400 
  7 C       -1.1710     2.9340    -0.8380 C.ar  1 <1>  -0.1500 
  8 C       -2.6570     3.6560     0.8780 C.ar  1 <1>  -0.1500 
  9 C       -4.1730    -1.5260     0.3440 C.3   1 <1>   0.4230 
 10 C       -5.2820     0.3540    -0.9030 C.3   1 <1>  -0.1600 
 11 C       -0.8860     4.2500    -1.1440 C.ar  1 <1>  -0.1500 
 12 C       -2.3720     4.9710     0.5730 C.ar  1 <1>  -0.1500 
 13 N       -4.2650    -2.9590     0.7850 N.4   1 <1>  -0.9590 
 14 C       -5.4770    -1.0940    -0.3640 C.3   1 <1>  -0.1060 
 15 C       -1.4850     5.2940    -0.4480 C.ar  1 <1>   0.1000 
 16 C       -4.4640    -3.8780    -0.3640 C.3   1 <1>   0.3430 
 17 C       -3.1730    -3.4090     1.6880 C.3   1 <1>   0.2630 
 18 C       -6.6290    -1.1460     0.6590 C.2   1 <1>   0.9060 
 19 C       -5.7570    -2.0360    -1.5580 C.3   1 <1>  -0.1600 
 20 N       -1.1950     6.6120    -0.7680 N.pl3 1 <1>  -0.8380 
 21 C       -5.7380    -3.5120    -1.1290 C.3   1 <1>  -0.1600 
 22 O       -6.6040    -2.0130     1.5490 O.co2 1 <1>  -0.9000 
 23 O       -7.5390    -0.3210     0.5920 O.co2 1 <1>  -0.9000 
 24 C        0.2090     7.1000    -0.7770 C.3   1 <1>   0.2090 
 25 C       -2.2490     7.6560    -0.8570 C.3   1 <1>   0.2090 
 26 C        0.4020     8.1360     0.3360 C.3   1 <1>  -0.1600 
 27 C       -2.0540     8.6920     0.2540 C.3   1 <1>  -0.1600 
 28 C       -0.6310     9.2700     0.2500 C.3   1 <1>  -0.1600 
 29 H       -2.9360    -0.8140     1.9830 H     1 <1>   0.0800 
 30 H       -4.6340    -0.4790     2.2010 H     1 <1>   0.0800 
 31 H       -5.6600     1.4410     0.9270 H     1 <1>   0.0800 
 32 H       -4.6910     2.3070    -0.2330 H     1 <1>   0.0800 
 33 H       -0.6930     2.1430    -1.3890 H     1 <1>   0.1500 
 34 H       -3.3410     3.4340     1.6780 H     1 <1>   0.1500 
 35 H       -3.3680    -1.4530    -0.3680 H     1 <1>   0.0800 
 36 H       -6.2020     0.7000    -1.3440 H     1 <1>   0.0800 
 37 H       -4.5310     0.3700    -1.6730 H     1 <1>   0.0800 
 38 H       -0.1980     4.4840    -1.9340 H     1 <1>   0.1500 
 39 H       -2.8300     5.7630     1.1340 H     1 <1>   0.1500 
 40 H       -5.1800    -2.9430     1.3130 H     1 <1>   0.4500 
 41 H       -3.6160    -3.8140    -1.0260 H     1 <1>   0.0800 
 42 H       -4.5460    -4.8920    -0.0090 H     1 <1>   0.0800 
 43 H       -2.2190    -3.3060     1.1980 H     1 <1>   0.0800 
 44 H       -3.3210    -4.4410     1.9610 H     1 <1>   0.0800 
 45 H       -3.1700    -2.8180     2.5890 H     1 <1>   0.0800 
 46 H       -6.7200    -1.7990    -1.9810 H     1 <1>   0.0800 
 47 H       -5.0150    -1.8850    -2.3230 H     1 <1>   0.0800 
 48 H       -5.8200    -4.1380    -2.0000 H     1 <1>   0.0800 
 49 H       -6.5920    -3.7210    -0.5070 H     1 <1>   0.0800 
 50 H        0.8860     6.2770    -0.6240 H     1 <1>   0.0800 
 51 H        0.4200     7.5430    -1.7350 H     1 <1>   0.0800 
 52 H       -2.1810     8.1350    -1.8190 H     1 <1>   0.0800 
 53 H       -3.2230     7.2040    -0.7790 H     1 <1>   0.0800 
 54 H        0.3110     7.6360     1.2840 H     1 <1>   0.0800 
 55 H        1.3950     8.5430     0.2720 H     1 <1>   0.0800 
 56 H       -2.7670     9.4860     0.1270 H     1 <1>   0.0800 
 57 H       -2.2490     8.2230     1.2020 H     1 <1>   0.0800 
 58 H       -0.4730     9.8290    -0.6560 H     1 <1>   0.0800 
 59 H       -0.5060     9.9400     1.0830 H     1 <1>   0.0800 
@<TRIPOS>BOND
  1   1   2  2   
  2   2   3  am  
  3   2   4  1   
  4   3   5  1   
  5   3   6  1   
  6   4   7  ar  
  7   4   8  ar  
  8   5   9  1   
  9   5  29  1   
 10   5  30  1   
 11   6  10  1   
 12   6  31  1   
 13   6  32  1   
 14   7  11  ar  
 15   7  33  1   
 16   8  12  ar  
 17   8  34  1   
 18   9  13  1   
 19   9  14  1   
 20   9  35  1   
 21  10  14  1   
 22  10  36  1   
 23  10  37  1   
 24  11  15  ar  
 25  11  38  1   
 26  12  15  ar  
 27  12  39  1   
 28  13  16  1   
 29  13  17  1   
 30  13  40  1   
 31  14  18  1   
 32  14  19  1   
 33  15  20  1   
 34  16  21  1   
 35  16  41  1   
 36  16  42  1   
 37  17  43  1   
 38  17  44  1   
 39  17  45  1   
 40  18  22  ar  
 41  18  23  ar  
 42  19  21  1   
 43  19  46  1   
 44  19  47  1   
 45  20  24  1   
 46  20  25  1   
 47  21  48  1   
 48  21  49  1   
 49  24  26  1   
 50  24  50  1   
 51  24  51  1   
 52  25  27  1   
 53  25  52  1   
 54  25  53  1   
 55  26  28  1   
 56  26  54  1   
 57  26  55  1   
 58  27  28  1   
 59  27  56  1   
 60  27  57  1   
 61  28  58  1   
 62  28  59  1   
@<TRIPOS>SUBSTRUCTURE
  1 ****   2 GROUP 4 **** **** 0

# MOE 2024.06 (io_trps.svl 2023.06)
