@<TRIPOS>MOLECULE
NONAME
43 45 1 0 0 
SMALL
USER_CHARGES


@<TRIPOS>ATOM
  1 O       -0.8530     0.6990     0.9060 O.2   1 <1>  -0.5700 
  2 C       -1.8950     1.1380     0.4770 C.2   1 <1>   0.5690 
  3 N       -2.9660     0.3130     0.2600 N.am  1 <1>  -0.6600 
  4 C       -2.0010     2.6290     0.1580 C.3   1 <1>  -0.0190 
  5 C       -4.2670     0.6620    -0.3670 C.3   1 <1>   0.1400 
  6 C       -2.9360    -1.1300     0.5850 C.3   1 <1>   0.1400 
  7 C       -1.7240     2.9530    -1.3250 C.3   1 <1>  -0.0220 
  8 C       -1.0790     3.5600     0.9800 C.3   1 <1>  -0.0220 
  9 C       -5.0960    -0.6310    -0.3590 C.3   1 <1>   0.2000 
 10 C       -4.0460    -1.7440    -0.2690 C.3   1 <1>  -0.0800 
 11 C       -1.0800     4.3150    -1.2530 C.2   1 <1>  -0.2880 
 12 C       -0.7360     4.6420    -0.0140 C.2   1 <1>  -0.2880 
 13 O       -5.8950    -0.6710     0.7890 O.3   1 <1>  -0.5600 
 14 C       -4.5760    -3.0820     0.2780 C.3   1 <1>   0.0200 
 15 C       -7.1350    -0.0470     0.6750 C.3   1 <1>   0.0400 
 16 C       -3.5620    -4.2110     0.1880 C.2   1 <1>  -0.0400 
 17 O       -3.8770    -5.3770     0.6870 O.3   1 <1>  -0.0190 
 18 C       -2.3240    -4.3090    -0.3240 C.2   1 <1>  -0.1500 
 19 N       -2.9200    -6.2460     0.5390 N.2   1 <1>  -0.4100 
 20 C       -1.9700    -5.6300    -0.0670 C.2   1 <1>   0.1080 
 21 C       -0.6490    -6.2620    -0.4430 C.3   1 <1>  -0.0590 
 22 H       -3.0020     2.9500     0.3720 H     1 <1>   0.0800 
 23 H       -4.7600     1.4470     0.1770 H     1 <1>   0.0800 
 24 H       -4.0900     0.9720    -1.3820 H     1 <1>   0.0800 
 25 H       -1.9720    -1.5550     0.3680 H     1 <1>   0.0800 
 26 H       -3.1530    -1.2520     1.6330 H     1 <1>   0.0800 
 27 H       -1.0330     2.2480    -1.7570 H     1 <1>   0.0800 
 28 H       -2.6340     2.9750    -1.8960 H     1 <1>   0.0800 
 29 H       -1.5950     3.9540     1.8380 H     1 <1>   0.0800 
 30 H       -0.1750     3.0690     1.2950 H     1 <1>   0.0800 
 31 H       -5.7190    -0.7350    -1.2310 H     1 <1>   0.0800 
 32 H       -3.6520    -1.9040    -1.2570 H     1 <1>   0.0800 
 33 H       -0.9440     4.8770    -2.1620 H     1 <1>   0.1500 
 34 H       -0.2500     5.5360     0.3390 H     1 <1>   0.1500 
 35 H       -5.4510    -3.3710    -0.2760 H     1 <1>   0.0800 
 36 H       -4.8670    -2.9650     1.3080 H     1 <1>   0.0800 
 37 H       -7.6400    -0.1330     1.6210 H     1 <1>   0.0800 
 38 H       -7.7130    -0.5410    -0.0870 H     1 <1>   0.0800 
 39 H       -6.9980     0.9920     0.4340 H     1 <1>   0.0800 
 40 H       -1.7140    -3.5790    -0.8210 H     1 <1>   0.1500 
 41 H        0.1560    -5.7350     0.0340 H     1 <1>   0.0800 
 42 H       -0.5170    -6.2240    -1.5090 H     1 <1>   0.0800 
 43 H       -0.6300    -7.2890    -0.1260 H     1 <1>   0.0800 
@<TRIPOS>BOND
  1   1   2  2   
  2   2   3  am  
  3   2   4  1   
  4   3   5  1   
  5   3   6  1   
  6   4   7  1   
  7   4   8  1   
  8   4  22  1   
  9   5   9  1   
 10   5  23  1   
 11   5  24  1   
 12   6  10  1   
 13   6  25  1   
 14   6  26  1   
 15   7  11  1   
 16   7  27  1   
 17   7  28  1   
 18   8  12  1   
 19   8  29  1   
 20   8  30  1   
 21   9  10  1   
 22   9  13  1   
 23   9  31  1   
 24  10  14  1   
 25  10  32  1   
 26  11  12  2   
 27  11  33  1   
 28  12  34  1   
 29  13  15  1   
 30  14  16  1   
 31  14  35  1   
 32  14  36  1   
 33  15  37  1   
 34  15  38  1   
 35  15  39  1   
 36  16  17  1   
 37  16  18  2   
 38  17  19  1   
 39  18  20  1   
 40  18  40  1   
 41  19  20  2   
 42  20  21  1   
 43  21  41  1   
 44  21  42  1   
 45  21  43  1   
@<TRIPOS>SUBSTRUCTURE
  1 ****   6 GROUP 4 **** **** 0

# MOE 2024.06 (io_trps.svl 2023.06)
