@<TRIPOS>MOLECULE
NONAME
44 46 1 0 0 
SMALL
USER_CHARGES


@<TRIPOS>ATOM
  1 O       -1.8210     0.2090    -2.1880 O.2   1 <1>  -0.5700 
  2 C       -1.7550     0.4720    -1.0030 C.2   1 <1>   0.5440 
  3 N       -1.8310    -0.5640    -0.1170 N.am  1 <1>  -0.7300 
  4 C       -1.6080     1.8440    -0.5450 C.ar  1 <1>   0.0860 
  5 C       -1.9550    -1.9960    -0.4800 C.3   1 <1>   0.2200 
  6 C       -1.1210     2.8330    -1.4000 C.ar  1 <1>  -0.1500 
  7 C       -1.9470     2.2370     0.7550 C.ar  1 <1>  -0.1500 
  8 C       -3.3810    -2.4940    -0.2910 C.3   1 <1>  -0.0800 
  9 C       -1.2310    -2.8300     0.5680 C.3   1 <1>   0.1200 
 10 C       -0.9730     4.1370    -0.9730 C.ar  1 <1>   0.0820 
 11 C       -1.8000     3.5440     1.1880 C.ar  1 <1>  -0.1500 
 12 C       -3.4320    -2.8380     1.2020 C.3   1 <1>   0.1200 
 13 C       -4.4950    -1.5410    -0.7630 C.3   1 <1>  -0.0160 
 14 O       -2.1080    -2.8880     1.6520 O.3   1 <1>  -0.5600 
 15 O       -0.4980     5.0650    -1.8220 O.3   1 <1>  -0.5320 
 16 C       -1.3070     4.5150     0.3230 C.ar  1 <1>   0.0820 
 17 C       -5.8640    -2.1840    -0.6010 C.ar  1 <1>  -0.1440 
 18 O       -1.1310     5.8190     0.6670 O.3   1 <1>  -0.3630 
 19 C       -6.6850    -1.9020     0.4720 C.ar  1 <1>  -0.1500 
 20 C       -6.3550    -3.0860    -1.5230 C.ar  1 <1>  -0.1500 
 21 C       -1.4420     6.2880     1.9620 C.3   1 <1>   0.0400 
 22 C       -7.9190    -2.5240     0.5720 C.ar  1 <1>   0.1600 
 23 C       -7.6040    -3.6510    -1.3300 C.ar  1 <1>   0.1600 
 24 N       -8.3970    -3.3940    -0.3030 N.ar  1 <1>  -0.6200 
 25 H       -1.7480    -0.4030     0.8880 H     1 <1>   0.3700 
 26 H       -1.5790    -2.1730    -1.4740 H     1 <1>   0.0800 
 27 H       -0.8540     2.5810    -2.4110 H     1 <1>   0.1500 
 28 H       -2.3400     1.5110     1.4430 H     1 <1>   0.1500 
 29 H       -3.4800    -3.4170    -0.8350 H     1 <1>   0.0800 
 30 H       -0.2960    -2.3970     0.8760 H     1 <1>   0.0800 
 31 H       -1.0730    -3.8350     0.2160 H     1 <1>   0.0800 
 32 H       -2.0750     3.7880     2.1970 H     1 <1>   0.1500 
 33 H       -3.8990    -3.7930     1.3750 H     1 <1>   0.0800 
 34 H       -3.9390    -2.0770     1.7690 H     1 <1>   0.0800 
 35 H       -4.3370    -1.2940    -1.7990 H     1 <1>   0.0800 
 36 H       -4.4660    -0.6210    -0.2070 H     1 <1>   0.0800 
 37 H       -0.4590     5.9310    -1.3680 H     1 <1>   0.4500 
 38 H       -6.3800    -1.2060     1.2310 H     1 <1>   0.1500 
 39 H       -5.7780    -3.3530    -2.3900 H     1 <1>   0.1500 
 40 H       -1.2200     7.3390     2.0000 H     1 <1>   0.0800 
 41 H       -0.8370     5.7610     2.6790 H     1 <1>   0.0800 
 42 H       -2.4890     6.1290     2.1490 H     1 <1>   0.0800 
 43 H       -8.5460    -2.2920     1.4150 H     1 <1>   0.1500 
 44 H       -7.9700    -4.3530    -2.0600 H     1 <1>   0.1500 
@<TRIPOS>BOND
  1   1   2  2   
  2   2   3  am  
  3   2   4  1   
  4   3   5  1   
  5   3  25  1   
  6   4   6  ar  
  7   4   7  ar  
  8   5   8  1   
  9   5   9  1   
 10   5  26  1   
 11   6  10  ar  
 12   6  27  1   
 13   7  11  ar  
 14   7  28  1   
 15   8  12  1   
 16   8  13  1   
 17   8  29  1   
 18   9  14  1   
 19   9  30  1   
 20   9  31  1   
 21  10  15  1   
 22  10  16  ar  
 23  11  16  ar  
 24  11  32  1   
 25  12  14  1   
 26  12  33  1   
 27  12  34  1   
 28  13  17  1   
 29  13  35  1   
 30  13  36  1   
 31  15  37  1   
 32  16  18  1   
 33  17  19  ar  
 34  17  20  ar  
 35  18  21  1   
 36  19  22  ar  
 37  19  38  1   
 38  20  23  ar  
 39  20  39  1   
 40  21  40  1   
 41  21  41  1   
 42  21  42  1   
 43  22  24  ar  
 44  22  43  1   
 45  23  24  ar  
 46  23  44  1   
@<TRIPOS>SUBSTRUCTURE
  1 ****   3 GROUP 4 **** **** 0

# MOE 2024.06 (io_trps.svl 2023.06)
