@<TRIPOS>MOLECULE
NONAME
52 54 1 0 0 
SMALL
USER_CHARGES


@<TRIPOS>ATOM
  1 O       -1.8160     0.6540     1.4690 O.2   1 <1>  -0.5700 
  2 C       -1.9910     1.4310     0.5500 C.2   1 <1>   0.5440 
  3 N       -2.4780     0.9540    -0.6480 N.am  1 <1>  -0.6600 
  4 C       -1.6910     2.8360     0.7470 C.ar  1 <1>   0.0860 
  5 C       -2.6170    -0.5090    -0.9240 C.3   1 <1>   0.1400 
  6 C       -3.1520     1.8070    -1.6740 C.3   1 <1>   0.1400 
  7 C       -0.8600     3.5390    -0.1250 C.ar  1 <1>  -0.1500 
  8 C       -2.2260     3.5410     1.8230 C.ar  1 <1>  -0.1500 
  9 C       -4.0820    -0.8660    -1.2220 C.3   1 <1>   0.1200 
 10 C       -4.5860     1.3130    -1.9300 C.3   1 <1>   0.1200 
 11 C       -0.5900     4.8810     0.0620 C.ar  1 <1>  -0.1500 
 12 C       -1.9570     4.8840     2.0100 C.ar  1 <1>  -0.1500 
 13 O       -4.5920    -0.0500    -2.2410 O.3   1 <1>  -0.5600 
 14 C       -1.1300     5.5870     1.1370 C.ar  1 <1>   0.0860 
 15 C       -0.8600     6.9970     1.3440 C.2   1 <1>   0.5440 
 16 O       -1.7960     7.7700     1.4190 O.2   1 <1>  -0.5700 
 17 N        0.4200     7.4950     1.4480 N.am  1 <1>  -0.6600 
 18 C        0.6850     8.9620     1.5540 C.3   1 <1>   0.3200 
 19 C        1.6520     6.6540     1.5020 C.3   1 <1>   0.0600 
 20 C        1.3500     9.4680     0.2840 C.2   1 <1>   0.0070 
 21 N        2.6210     9.6610     0.1700 N.2   1 <1>  -0.3380 
 22 N        0.7020     9.7590    -0.8520 N.pl3 1 <1>   0.0480 
 23 N        2.8430    10.0860    -1.0730 N.2   1 <1>  -0.3380 
 24 C        1.6980    10.1350    -1.6580 C.2   1 <1>   0.0360 
 25 C       -0.7490     9.6840    -1.1660 C.3   1 <1>   0.1760 
 26 C       -1.0230     8.5040    -2.1040 C.3   1 <1>  -0.2400 
 27 C       -1.2410    11.0000    -1.7800 C.3   1 <1>  -0.2400 
 28 H       -2.2730    -1.0920    -0.0880 H     1 <1>   0.0800 
 29 H       -2.0120    -0.7670    -1.7740 H     1 <1>   0.0800 
 30 H       -2.5940     1.7630    -2.5930 H     1 <1>   0.0800 
 31 H       -3.1930     2.8330    -1.3550 H     1 <1>   0.0800 
 32 H       -0.4230     3.0140    -0.9580 H     1 <1>   0.1500 
 33 H       -2.8610     3.0170     2.5180 H     1 <1>   0.1500 
 34 H       -4.6870    -0.7410    -0.3410 H     1 <1>   0.0800 
 35 H       -4.1560    -1.8870    -1.5500 H     1 <1>   0.0800 
 36 H       -5.0180     1.8410    -2.7610 H     1 <1>   0.0800 
 37 H       -5.2010     1.4710    -1.0610 H     1 <1>   0.0800 
 38 H        0.0510     5.3970    -0.6310 H     1 <1>   0.1500 
 39 H       -2.3920     5.4070     2.8450 H     1 <1>   0.1500 
 40 H        1.3410     9.1410     2.3880 H     1 <1>   0.0800 
 41 H       -0.2200     9.5120     1.7380 H     1 <1>   0.0800 
 42 H        1.4160     5.6330     1.7440 H     1 <1>   0.0800 
 43 H        2.3220     7.0310     2.2550 H     1 <1>   0.0800 
 44 H        2.1550     6.6870     0.5500 H     1 <1>   0.0800 
 45 H        1.5460    10.4400    -2.6770 H     1 <1>   0.1500 
 46 H       -1.2870     9.5250    -0.2490 H     1 <1>   0.0800 
 47 H       -0.5250     8.6410    -3.0480 H     1 <1>   0.0800 
 48 H       -2.0800     8.4170    -2.2820 H     1 <1>   0.0800 
 49 H       -0.6840     7.5900    -1.6530 H     1 <1>   0.0800 
 50 H       -0.7740    11.1830    -2.7310 H     1 <1>   0.0800 
 51 H       -1.0310    11.8200    -1.1160 H     1 <1>   0.0800 
 52 H       -2.3050    10.9550    -1.9300 H     1 <1>   0.0800 
@<TRIPOS>BOND
  1   1   2  2   
  2   2   3  am  
  3   2   4  1   
  4   3   5  1   
  5   3   6  1   
  6   4   7  ar  
  7   4   8  ar  
  8   5   9  1   
  9   5  28  1   
 10   5  29  1   
 11   6  10  1   
 12   6  30  1   
 13   6  31  1   
 14   7  11  ar  
 15   7  32  1   
 16   8  12  ar  
 17   8  33  1   
 18   9  13  1   
 19   9  34  1   
 20   9  35  1   
 21  10  13  1   
 22  10  36  1   
 23  10  37  1   
 24  11  14  ar  
 25  11  38  1   
 26  12  14  ar  
 27  12  39  1   
 28  14  15  1   
 29  15  16  2   
 30  15  17  am  
 31  17  18  1   
 32  17  19  1   
 33  18  20  1   
 34  18  40  1   
 35  18  41  1   
 36  19  42  1   
 37  19  43  1   
 38  19  44  1   
 39  20  21  2   
 40  20  22  1   
 41  21  23  1   
 42  22  24  1   
 43  22  25  1   
 44  23  24  2   
 45  24  45  1   
 46  25  26  1   
 47  25  27  1   
 48  25  46  1   
 49  26  47  1   
 50  26  48  1   
 51  26  49  1   
 52  27  50  1   
 53  27  51  1   
 54  27  52  1   
@<TRIPOS>SUBSTRUCTURE
  1 ****  11 GROUP 4 **** **** 0

# MOE 2024.06 (io_trps.svl 2023.06)
