@<TRIPOS>MOLECULE
NONAME
55 57 1 0 0 
SMALL
USER_CHARGES


@<TRIPOS>ATOM
  1 O        0.3650     0.4900     0.6880 O.2   1 <1>  -0.5700 
  2 C       -0.7300     0.9460     0.4720 C.2   1 <1>   0.5690 
  3 N       -1.8170     0.2130     0.0890 N.am  1 <1>  -0.5470 
  4 C       -0.9080     2.4390     0.6260 C.3   1 <1>  -0.0990 
  5 C       -1.9830    -1.1650    -0.1460 C.ar  1 <1>   0.1170 
  6 C       -0.4300     3.1810    -0.6310 C.3   1 <1>  -0.0990 
  7 C       -3.2580    -1.7370    -0.0570 C.ar  1 <1>  -0.1430 
  8 C       -0.9020    -1.9720    -0.4900 C.ar  1 <1>  -0.1500 
  9 C       -0.5420     4.6780    -0.4450 C.2   1 <1>   0.5690 
 10 C       -3.4090    -3.0950    -0.3150 C.ar  1 <1>  -0.1500 
 11 C       -4.4560    -0.8560     0.3270 C.3   1 <1>  -0.0160 
 12 C       -1.0660    -3.3200    -0.7400 C.ar  1 <1>  -0.1500 
 13 O       -1.6180     5.1910    -0.6340 O.2   1 <1>  -0.5700 
 14 N        0.5770     5.3530    -0.0480 N.am  1 <1>  -0.4940 
 15 C       -2.3240    -3.8830    -0.6530 C.ar  1 <1>  -0.1500 
 16 C       -5.7900    -1.5830     0.5360 C.3   1 <1>  -0.2400 
 17 C        0.7530     6.7370     0.1990 C.2   1 <1>  -0.0880 
 18 N        1.8680     7.3180     0.7320 N.pl3 1 <1>   0.3140 
 19 C       -0.1190     7.7460    -0.0340 C.2   1 <1>  -0.1500 
 20 N        1.7140     8.6620     0.8400 N.2   1 <1>  -0.7070 
 21 C        3.1210     6.6740     1.2250 C.3   1 <1>   0.2710 
 22 C        0.5290     8.9000     0.3790 C.2   1 <1>   0.1080 
 23 C        3.7960     5.8150     0.1380 C.3   1 <1>  -0.1950 
 24 C        2.8610     5.8540     2.4960 C.3   1 <1>  -0.2400 
 25 C       -0.0500    10.2930     0.3150 C.3   1 <1>  -0.0590 
 26 C        5.2890     5.7830     0.0190 C.3   1 <1>  -0.2000 
 27 C        4.4620     6.4490    -1.0430 C.3   1 <1>  -0.2000 
 28 H       -2.6780     0.7440    -0.0070 H     1 <1>   0.3700 
 29 H       -0.3350     2.7610     1.4780 H     1 <1>   0.0800 
 30 H       -1.9400     2.6710     0.8190 H     1 <1>   0.0800 
 31 H       -1.0330     2.8940    -1.4740 H     1 <1>   0.0800 
 32 H        0.5890     2.9160    -0.8490 H     1 <1>   0.0800 
 33 H        0.0830    -1.5510    -0.5700 H     1 <1>   0.1500 
 34 H       -4.3690    -3.5730    -0.2590 H     1 <1>   0.1500 
 35 H       -4.5960    -0.1160    -0.4420 H     1 <1>   0.0800 
 36 H       -4.2200    -0.3420     1.2430 H     1 <1>   0.0800 
 37 H       -0.2180    -3.9280    -1.0020 H     1 <1>   0.1500 
 38 H        1.4080     4.7770     0.0760 H     1 <1>   0.3700 
 39 H       -2.4580    -4.9330    -0.8480 H     1 <1>   0.1500 
 40 H       -6.1110    -2.0530    -0.3770 H     1 <1>   0.0800 
 41 H       -6.5460    -0.8800     0.8370 H     1 <1>   0.0800 
 42 H       -5.6940    -2.3280     1.3060 H     1 <1>   0.0800 
 43 H       -1.1090     7.6850    -0.4500 H     1 <1>   0.1500 
 44 H        3.7910     7.4770     1.4780 H     1 <1>   0.0800 
 45 H        3.3050     4.8720    -0.0170 H     1 <1>   0.1000 
 46 H        2.1920     5.0370     2.3010 H     1 <1>   0.0800 
 47 H        2.4350     6.4870     3.2550 H     1 <1>   0.0800 
 48 H        3.7890     5.4580     2.8680 H     1 <1>   0.0800 
 49 H       -1.0410    10.2690    -0.0980 H     1 <1>   0.0800 
 50 H        0.5760    10.9130    -0.3010 H     1 <1>   0.0800 
 51 H       -0.0890    10.7100     1.3040 H     1 <1>   0.0800 
 52 H        5.7740     4.8510    -0.2190 H     1 <1>   0.1000 
 53 H        5.8910     6.4070     0.6570 H     1 <1>   0.1000 
 54 H        4.4750     7.5240    -1.1150 H     1 <1>   0.1000 
 55 H        4.3680     5.9760    -2.0050 H     1 <1>   0.1000 
@<TRIPOS>BOND
  1   1   2  2   
  2   2   3  am  
  3   2   4  1   
  4   3   5  1   
  5   3  28  1   
  6   4   6  1   
  7   4  29  1   
  8   4  30  1   
  9   5   7  ar  
 10   5   8  ar  
 11   6   9  1   
 12   6  31  1   
 13   6  32  1   
 14   7  10  ar  
 15   7  11  1   
 16   8  12  ar  
 17   8  33  1   
 18   9  13  2   
 19   9  14  am  
 20  10  15  ar  
 21  10  34  1   
 22  11  16  1   
 23  11  35  1   
 24  11  36  1   
 25  12  15  ar  
 26  12  37  1   
 27  14  17  1   
 28  14  38  1   
 29  15  39  1   
 30  16  40  1   
 31  16  41  1   
 32  16  42  1   
 33  17  18  1   
 34  17  19  2   
 35  18  20  1   
 36  18  21  1   
 37  19  22  1   
 38  19  43  1   
 39  20  22  2   
 40  21  23  1   
 41  21  24  1   
 42  21  44  1   
 43  22  25  1   
 44  23  26  1   
 45  23  27  1   
 46  23  45  1   
 47  24  46  1   
 48  24  47  1   
 49  24  48  1   
 50  25  49  1   
 51  25  50  1   
 52  25  51  1   
 53  26  27  1   
 54  26  52  1   
 55  26  53  1   
 56  27  54  1   
 57  27  55  1   
@<TRIPOS>SUBSTRUCTURE
  1 ****   6 GROUP 4 **** **** 0

# MOE 2024.06 (io_trps.svl 2023.06)
