@<TRIPOS>MOLECULE
NONAME
47 49 1 0 0 
SMALL
USER_CHARGES


@<TRIPOS>ATOM
  1 O        1.6980    -0.2500     1.0850 O.2   1 <1>  -0.5700 
  2 C        1.4820    -1.4320     0.8930 C.2   1 <1>   0.5440 
  3 N        2.2940    -2.1270     0.0190 N.am  1 <1>  -0.6600 
  4 C        0.3860    -2.0700     1.5960 C.ar  1 <1>   0.0860 
  5 C        3.1520    -1.4220    -0.9720 C.3   1 <1>   0.1400 
  6 C        2.5140    -3.5990     0.0740 C.3   1 <1>   0.1400 
  7 C       -0.4970    -2.9360     0.9820 C.ar  1 <1>  -0.1500 
  8 C        0.1390    -1.8450     2.9430 C.ar  1 <1>  -0.1500 
  9 C        2.9160    -2.0150    -2.3670 C.3   1 <1>  -0.1600 
 10 C        2.2620    -4.2120    -1.3080 C.3   1 <1>  -0.1600 
 11 C       -1.5140    -3.5570     1.6930 C.ar  1 <1>   0.4100 
 12 C       -0.9070    -2.4890     3.5720 C.ar  1 <1>   0.1600 
 13 C        3.1230    -3.5370    -2.3850 C.3   1 <1>  -0.1600 
 14 N       -1.7290    -3.3410     2.9850 N.ar  1 <1>  -0.6200 
 15 N       -2.3370    -4.4640     1.0480 N.pl3 1 <1>  -0.8380 
 16 C       -1.6960    -5.6970     0.5130 C.3   1 <1>   0.2090 
 17 C       -3.7230    -4.6590     1.5590 C.3   1 <1>   0.1290 
 18 C       -1.8400    -5.7460    -1.0040 C.3   1 <1>   0.0210 
 19 C       -1.0310    -6.8990    -1.5530 C.2   1 <1>   0.3350 
 20 N        0.0450    -6.7810    -2.2230 N.2   1 <1>  -0.4100 
 21 N       -1.3980    -8.1560    -1.3540 N.2   1 <1>  -0.5650 
 22 O        0.4470    -7.9820    -2.5100 O.3   1 <1>  -0.0190 
 23 C       -0.4580    -8.7560    -1.9640 C.2   1 <1>   0.2980 
 24 C       -0.3130   -10.2540    -2.1000 C.3   1 <1>  -0.0600 
 25 H        4.1840    -1.5400    -0.6890 H     1 <1>   0.0800 
 26 H        2.9260    -0.3690    -0.9880 H     1 <1>   0.0800 
 27 H        1.8770    -4.0630     0.8060 H     1 <1>   0.0800 
 28 H        3.5340    -3.7830     0.3660 H     1 <1>   0.0800 
 29 H       -0.4030    -3.1340    -0.0670 H     1 <1>   0.1500 
 30 H        0.7680    -1.1640     3.4870 H     1 <1>   0.1500 
 31 H        3.5860    -1.5500    -3.0670 H     1 <1>   0.0800 
 32 H        1.9100    -1.7820    -2.6720 H     1 <1>   0.0800 
 33 H        1.2220    -4.1060    -1.5590 H     1 <1>   0.0800 
 34 H        2.4830    -5.2650    -1.2780 H     1 <1>   0.0800 
 35 H       -1.0780    -2.2960     4.6170 H     1 <1>   0.1500 
 36 H        4.1610    -3.7570    -2.2030 H     1 <1>   0.0800 
 37 H        2.8650    -3.9290    -3.3540 H     1 <1>   0.0800 
 38 H       -2.1480    -6.5710     0.9530 H     1 <1>   0.0800 
 39 H       -0.6510    -5.7050     0.7730 H     1 <1>   0.0800 
 40 H       -4.1410    -3.7100     1.8500 H     1 <1>   0.0800 
 41 H       -3.7090    -5.3080     2.4180 H     1 <1>   0.0800 
 42 H       -4.3440    -5.0900     0.7930 H     1 <1>   0.0800 
 43 H       -1.4820    -4.8300    -1.4340 H     1 <1>   0.0800 
 44 H       -2.8710    -5.8780    -1.2710 H     1 <1>   0.0800 
 45 H       -1.1280   -10.7470    -1.6010 H     1 <1>   0.0800 
 46 H        0.6130   -10.5700    -1.6570 H     1 <1>   0.0800 
 47 H       -0.3220   -10.5260    -3.1390 H     1 <1>   0.0800 
@<TRIPOS>BOND
  1   1   2  2   
  2   2   3  am  
  3   2   4  1   
  4   3   5  1   
  5   3   6  1   
  6   4   7  ar  
  7   4   8  ar  
  8   5   9  1   
  9   5  25  1   
 10   5  26  1   
 11   6  10  1   
 12   6  27  1   
 13   6  28  1   
 14   7  11  ar  
 15   7  29  1   
 16   8  12  ar  
 17   8  30  1   
 18   9  13  1   
 19   9  31  1   
 20   9  32  1   
 21  10  13  1   
 22  10  33  1   
 23  10  34  1   
 24  11  14  ar  
 25  11  15  1   
 26  12  14  ar  
 27  12  35  1   
 28  13  36  1   
 29  13  37  1   
 30  15  16  1   
 31  15  17  1   
 32  16  18  1   
 33  16  38  1   
 34  16  39  1   
 35  17  40  1   
 36  17  41  1   
 37  17  42  1   
 38  18  19  1   
 39  18  43  1   
 40  18  44  1   
 41  19  20  2   
 42  19  21  1   
 43  20  22  1   
 44  21  23  2   
 45  22  23  1   
 46  23  24  1   
 47  24  45  1   
 48  24  46  1   
 49  24  47  1   
@<TRIPOS>SUBSTRUCTURE
  1 ****   7 GROUP 4 **** **** 0

# MOE 2024.06 (io_trps.svl 2023.06)
