@<TRIPOS>MOLECULE
NONAME
51 54 1 0 0 
SMALL
USER_CHARGES


@<TRIPOS>ATOM
  1 O        0.3330     1.2470    -0.1010 O.2   1 <1>  -0.5700 
  2 C        0.1720     2.4380    -0.0270 C.2   1 <1>   0.5690 
  3 N       -0.9700     2.9510     0.4800 N.am  1 <1>  -0.7300 
  4 C        1.2480     3.3950    -0.5370 C.3   1 <1>   0.1810 
  5 C       -1.2570     4.4050     0.5720 C.3   1 <1>   0.3640 
  6 O        1.1520     4.6650     0.0620 O.3   1 <1>  -0.5600 
  7 C       -2.5930     4.6560    -0.1190 C.ar  1 <1>  -0.1440 
  8 C       -0.1270     5.2860    -0.0360 C.3   1 <1>   0.2610 
  9 C       -2.8510     4.1450    -1.3850 C.ar  1 <1>   0.1600 
 10 C       -3.5770     5.4060     0.4990 C.ar  1 <1>  -0.1500 
 11 C       -0.0970     6.6630     0.6430 C.2   1 <1>   0.5690 
 12 N       -3.9720     4.3200    -2.0640 N.ar  1 <1>  -0.6200 
 13 C       -4.7540     5.5950    -0.1920 C.ar  1 <1>  -0.1500 
 14 O       -1.1260     7.2600     0.8510 O.2   1 <1>  -0.5700 
 15 N        1.0970     7.1920     1.0020 N.am  1 <1>  -0.7300 
 16 C       -4.8980     5.0400    -1.4520 C.ar  1 <1>   0.1600 
 17 C        1.3400     8.5760     1.4980 C.3   1 <1>   0.2840 
 18 C        2.6720     9.1390     0.9970 C.ar  1 <1>   0.4770 
 19 N        2.6680    10.4070     0.6230 N.ar  1 <1>  -0.6200 
 20 N        3.7030     8.3050     0.9870 N.ar  1 <1>  -0.6200 
 21 C        3.8120    10.8840     0.1880 C.ar  1 <1>   0.1670 
 22 C        4.8410     8.7970     0.5550 C.ar  1 <1>   0.1670 
 23 C        4.9530    10.1060     0.1240 C.ar  1 <1>  -0.1430 
 24 C        3.7920    12.3400    -0.2550 C.3   1 <1>  -0.0170 
 25 C        6.0130     7.8310     0.5610 C.3   1 <1>  -0.0970 
 26 C        6.2770    10.6750    -0.3910 C.3   1 <1>  -0.0170 
 27 C        5.1930    12.9450    -0.4170 C.3   1 <1>  -0.1600 
 28 C        6.1020    11.9780    -1.1790 C.3   1 <1>  -0.1600 
 29 H       -1.6910     2.3050     0.8050 H     1 <1>   0.3700 
 30 H        1.1600     3.5080    -1.6020 H     1 <1>   0.0800 
 31 H        2.2190     2.9950    -0.3070 H     1 <1>   0.0800 
 32 H       -1.3520     4.6530     1.6160 H     1 <1>   0.0800 
 33 H       -0.3240     5.4460    -1.0800 H     1 <1>   0.0800 
 34 H       -2.0940     3.5540    -1.8720 H     1 <1>   0.1500 
 35 H       -3.4350     5.8390     1.4750 H     1 <1>   0.1500 
 36 H       -5.5530     6.1720     0.2370 H     1 <1>   0.1500 
 37 H        1.9580     6.6660     0.8100 H     1 <1>   0.3700 
 38 H       -5.8210     5.1970    -1.9830 H     1 <1>   0.1500 
 39 H        0.5380     9.2190     1.1790 H     1 <1>   0.0800 
 40 H        1.3580     8.5650     2.5720 H     1 <1>   0.0800 
 41 H        3.2710    12.3900    -1.1940 H     1 <1>   0.0800 
 42 H        3.2360    12.9200     0.4590 H     1 <1>   0.0800 
 43 H        6.9210     8.3270     0.8460 H     1 <1>   0.0800 
 44 H        6.1300     7.4010    -0.4160 H     1 <1>   0.0800 
 45 H        5.8330     7.0380     1.2650 H     1 <1>   0.0800 
 46 H        6.9170    10.8600     0.4540 H     1 <1>   0.0800 
 47 H        6.7650     9.9570    -1.0270 H     1 <1>   0.0800 
 48 H        5.1220    13.8810    -0.9430 H     1 <1>   0.0800 
 49 H        5.6120    13.1390     0.5560 H     1 <1>   0.0800 
 50 H        7.0640    12.4310    -1.3450 H     1 <1>   0.0800 
 51 H        5.6670    11.7600    -2.1400 H     1 <1>   0.0800 
@<TRIPOS>BOND
  1   1   2  2   
  2   2   3  am  
  3   2   4  1   
  4   3   5  1   
  5   3  29  1   
  6   4   6  1   
  7   4  30  1   
  8   4  31  1   
  9   5   7  1   
 10   5   8  1   
 11   5  32  1   
 12   6   8  1   
 13   7   9  ar  
 14   7  10  ar  
 15   8  11  1   
 16   8  33  1   
 17   9  12  ar  
 18   9  34  1   
 19  10  13  ar  
 20  10  35  1   
 21  11  14  2   
 22  11  15  am  
 23  12  16  ar  
 24  13  16  ar  
 25  13  36  1   
 26  15  17  1   
 27  15  37  1   
 28  16  38  1   
 29  17  18  1   
 30  17  39  1   
 31  17  40  1   
 32  18  19  ar  
 33  18  20  ar  
 34  19  21  ar  
 35  20  22  ar  
 36  21  23  ar  
 37  21  24  1   
 38  22  23  ar  
 39  22  25  1   
 40  23  26  1   
 41  24  27  1   
 42  24  41  1   
 43  24  42  1   
 44  25  43  1   
 45  25  44  1   
 46  25  45  1   
 47  26  28  1   
 48  26  46  1   
 49  26  47  1   
 50  27  28  1   
 51  27  48  1   
 52  27  49  1   
 53  28  50  1   
 54  28  51  1   
@<TRIPOS>SUBSTRUCTURE
  1 ****  15 GROUP 4 **** **** 0

# MOE 2024.06 (io_trps.svl 2023.06)
