@<TRIPOS>MOLECULE
NONAME
47 51 1 0 0 
SMALL
USER_CHARGES


@<TRIPOS>ATOM
  1 S       -1.8950     1.5270    -1.7230 S.3   1 <1>  -0.0800 
  2 C       -1.1460     1.8500    -0.1660 C.2   1 <1>  -0.1400 
  3 C       -2.9780     0.3480    -0.9920 C.2   1 <1>  -0.1100 
  4 C       -1.7150     1.1110     0.7950 C.2   1 <1>  -0.1810 
  5 C       -0.0080     2.8490     0.0120 C.3   1 <1>   0.4600 
  6 C       -2.7560     0.2460     0.3320 C.2   1 <1>  -0.1500 
  7 C       -1.2320     1.2440     2.2220 C.3   1 <1>   0.0210 
  8 O        0.4720     2.7500     1.3400 O.3   1 <1>  -0.5600 
  9 C        1.1730     2.5050    -0.9000 C.3   1 <1>  -0.1600 
 10 C       -0.4750     4.2870    -0.2470 C.3   1 <1>  -0.1600 
 11 C       -0.4680     2.5740     2.3740 C.3   1 <1>   0.1200 
 12 C        2.3090     3.5190    -0.7550 C.3   1 <1>   0.1400 
 13 C        0.6730     5.2870    -0.1060 C.3   1 <1>   0.1400 
 14 N        1.7900     4.8920    -1.0130 N.am  1 <1>  -0.6600 
 15 C        2.3920     5.7210    -1.9320 C.2   1 <1>   0.5690 
 16 O        3.3000     5.3330    -2.6320 O.2   1 <1>  -0.5700 
 17 C        1.9500     7.1620    -2.1260 C.3   1 <1>   0.0820 
 18 C        2.2170     8.0140    -0.9000 C.2   1 <1>   0.1080 
 19 N        1.3040     8.7370    -0.3370 N.2   1 <1>  -0.7070 
 20 C        3.4650     8.1100    -0.2530 C.ar  1 <1>   0.0000 
 21 N        1.9280     9.3370     0.7020 N.pl3 1 <1>   0.3000 
 22 C        3.2390     8.9800     0.7920 C.ar  1 <1>  -0.1520 
 23 C        4.7450     7.5640    -0.4290 C.ar  1 <1>  -0.1500 
 24 C        4.2570     9.3300     1.6860 C.ar  1 <1>  -0.1500 
 25 C        5.7510     7.9020     0.4450 C.ar  1 <1>  -0.1500 
 26 C        5.5070     8.7860     1.5050 C.ar  1 <1>  -0.1500 
 27 H       -3.6740    -0.1510    -1.6420 H     1 <1>   0.1500 
 28 H       -3.2840    -0.4050     1.0080 H     1 <1>   0.1500 
 29 H       -0.5850     0.4210     2.4660 H     1 <1>   0.0800 
 30 H       -2.0670     1.2340     2.8980 H     1 <1>   0.0800 
 31 H        0.8530     2.4980    -1.9250 H     1 <1>   0.0800 
 32 H        1.5290     1.5190    -0.6620 H     1 <1>   0.0800 
 33 H       -1.2740     4.5440     0.4220 H     1 <1>   0.0800 
 34 H       -0.8660     4.3550    -1.2460 H     1 <1>   0.0800 
 35 H        0.0660     2.5910     3.3070 H     1 <1>   0.0800 
 36 H       -1.1530     3.4030     2.3560 H     1 <1>   0.0800 
 37 H        3.0990     3.2710    -1.4430 H     1 <1>   0.0800 
 38 H        2.7130     3.4780     0.2420 H     1 <1>   0.0800 
 39 H        1.0330     5.2960     0.9090 H     1 <1>   0.0800 
 40 H        0.3050     6.2700    -0.3350 H     1 <1>   0.0800 
 41 H        0.9050     7.1800    -2.3660 H     1 <1>   0.0800 
 42 H        2.4830     7.5840    -2.9560 H     1 <1>   0.0800 
 43 H        1.4500     9.9890     1.3340 H     1 <1>   0.2700 
 44 H        4.9240     6.8850    -1.2450 H     1 <1>   0.1500 
 45 H        4.0600    10.0100     2.4950 H     1 <1>   0.1500 
 46 H        6.7370     7.4890     0.3230 H     1 <1>   0.1500 
 47 H        6.3120     9.0330     2.1750 H     1 <1>   0.1500 
@<TRIPOS>BOND
  1   1   2  1   
  2   1   3  1   
  3   2   4  2   
  4   2   5  1   
  5   3   6  2   
  6   3  27  1   
  7   4   6  1   
  8   4   7  1   
  9   5   8  1   
 10   5   9  1   
 11   5  10  1   
 12   6  28  1   
 13   7  11  1   
 14   7  29  1   
 15   7  30  1   
 16   8  11  1   
 17   9  12  1   
 18   9  31  1   
 19   9  32  1   
 20  10  13  1   
 21  10  33  1   
 22  10  34  1   
 23  11  35  1   
 24  11  36  1   
 25  12  14  1   
 26  12  37  1   
 27  12  38  1   
 28  13  14  1   
 29  13  39  1   
 30  13  40  1   
 31  14  15  am  
 32  15  16  2   
 33  15  17  1   
 34  17  18  1   
 35  17  41  1   
 36  17  42  1   
 37  18  19  2   
 38  18  20  1   
 39  19  21  1   
 40  20  22  ar  
 41  20  23  ar  
 42  21  22  1   
 43  21  43  1   
 44  22  24  ar  
 45  23  25  ar  
 46  23  44  1   
 47  24  26  ar  
 48  24  45  1   
 49  25  26  ar  
 50  25  46  1   
 51  26  47  1   
@<TRIPOS>SUBSTRUCTURE
  1 ****  13 GROUP 4 **** **** 0

# MOE 2024.06 (io_trps.svl 2023.06)
