@<TRIPOS>MOLECULE
NONAME
53 55 1 0 0 
SMALL
USER_CHARGES


@<TRIPOS>ATOM
  1 O       -0.2940     2.6120     2.7140 O.co2 1 <1>  -0.9000 
  2 C       -0.7980     2.2610     1.6360 C.2   1 <1>   0.9060 
  3 O       -0.2790     1.3660     0.9470 O.co2 1 <1>  -0.9000 
  4 C       -2.1720     2.8770     1.2390 C.3   1 <1>   0.2280 
  5 N       -3.2550     1.9190     0.8010 N.3   1 <1>  -0.8100 
  6 C       -2.0190     3.9580     0.1640 C.ar  1 <1>  -0.1440 
  7 C       -3.2980     0.7180     1.6660 C.3   1 <1>   0.1100 
  8 C       -4.5810     2.5630     0.7280 C.3   1 <1>   0.1100 
  9 C       -2.3180     5.2940     0.4170 C.ar  1 <1>   0.0830 
 10 C       -1.5850     3.6000    -1.1030 C.ar  1 <1>  -0.1500 
 11 C       -4.3920    -0.2700     1.2090 C.3   1 <1>   0.3430 
 12 C       -5.6440     1.5770     0.1900 C.3   1 <1>   0.3430 
 13 O       -2.7140     5.7050     1.6390 O.3   1 <1>  -0.3630 
 14 C       -2.2200     6.2380    -0.5930 C.ar  1 <1>  -0.1500 
 15 C       -1.4700     4.5420    -2.1140 C.ar  1 <1>  -0.1440 
 16 N       -5.0400     0.2190    -0.0570 N.4   1 <1>  -0.9590 
 17 C       -1.6680     5.9550     2.5550 C.3   1 <1>   0.0400 
 18 C       -1.7980     5.8630    -1.8560 C.ar  1 <1>  -0.1500 
 19 C       -0.9860     4.1210    -3.4890 C.3   1 <1>  -0.0970 
 20 C       -5.8840    -0.7640    -0.7900 C.3   1 <1>   0.4230 
 21 C       -5.0770    -2.0360    -1.0810 C.3   1 <1>  -0.1600 
 22 C       -6.3980    -0.1470    -2.0970 C.3   1 <1>  -0.1600 
 23 C       -5.8410    -2.9640    -2.0270 C.3   1 <1>   0.1200 
 24 C       -7.0730    -1.2050    -2.9710 C.3   1 <1>   0.1200 
 25 O       -6.1790    -2.2490    -3.1680 O.3   1 <1>  -0.5600 
 26 H       -2.5180     3.3410     2.1430 H     1 <1>   0.0800 
 27 H       -3.4600     1.0030     2.6920 H     1 <1>   0.0800 
 28 H       -2.3520     0.2040     1.6210 H     1 <1>   0.0800 
 29 H       -4.5380     3.4150     0.0710 H     1 <1>   0.0800 
 30 H       -4.8700     2.9210     1.7020 H     1 <1>   0.0800 
 31 H       -1.3310     2.5690    -1.2870 H     1 <1>   0.1500 
 32 H       -5.1270    -0.3780     1.9880 H     1 <1>   0.0800 
 33 H       -3.9260    -1.2270     1.0520 H     1 <1>   0.0800 
 34 H       -6.0340     1.9820    -0.7280 H     1 <1>   0.0800 
 35 H       -6.4560     1.5040     0.8940 H     1 <1>   0.0800 
 36 H       -2.4700     7.2610    -0.3820 H     1 <1>   0.1500 
 37 H       -4.2110     0.4560    -0.6330 H     1 <1>   0.4500 
 38 H       -2.1010     6.2290     3.5000 H     1 <1>   0.0800 
 39 H       -1.0610     6.7580     2.1770 H     1 <1>   0.0800 
 40 H       -1.0700     5.0670     2.6710 H     1 <1>   0.0800 
 41 H       -1.7190     6.6020    -2.6330 H     1 <1>   0.1500 
 42 H       -0.3010     3.2950    -3.4030 H     1 <1>   0.0800 
 43 H       -0.4760     4.9340    -3.9730 H     1 <1>   0.0800 
 44 H       -1.8210     3.8190    -4.0940 H     1 <1>   0.0800 
 45 H       -6.7330    -1.0300    -0.1820 H     1 <1>   0.0800 
 46 H       -4.8820    -2.5800    -0.1760 H     1 <1>   0.0800 
 47 H       -4.1390    -1.7850    -1.5440 H     1 <1>   0.0800 
 48 H       -5.5820     0.2770    -2.6560 H     1 <1>   0.0800 
 49 H       -7.1200     0.6220    -1.8970 H     1 <1>   0.0800 
 50 H       -6.7420    -3.3490    -1.5780 H     1 <1>   0.0800 
 51 H       -5.2220    -3.7910    -2.3310 H     1 <1>   0.0800 
 52 H       -7.3190    -0.7990    -3.9380 H     1 <1>   0.0800 
 53 H       -7.9700    -1.5950    -2.5180 H     1 <1>   0.0800 
@<TRIPOS>BOND
  1   1   2  ar  
  2   2   3  ar  
  3   2   4  1   
  4   4   5  1   
  5   4   6  1   
  6   4  26  1   
  7   5   7  1   
  8   5   8  1   
  9   6   9  ar  
 10   6  10  ar  
 11   7  11  1   
 12   7  27  1   
 13   7  28  1   
 14   8  12  1   
 15   8  29  1   
 16   8  30  1   
 17   9  13  1   
 18   9  14  ar  
 19  10  15  ar  
 20  10  31  1   
 21  11  16  1   
 22  11  32  1   
 23  11  33  1   
 24  12  16  1   
 25  12  34  1   
 26  12  35  1   
 27  13  17  1   
 28  14  18  ar  
 29  14  36  1   
 30  15  18  ar  
 31  15  19  1   
 32  16  20  1   
 33  16  37  1   
 34  17  38  1   
 35  17  39  1   
 36  17  40  1   
 37  18  41  1   
 38  19  42  1   
 39  19  43  1   
 40  19  44  1   
 41  20  21  1   
 42  20  22  1   
 43  20  45  1   
 44  21  23  1   
 45  21  46  1   
 46  21  47  1   
 47  22  24  1   
 48  22  48  1   
 49  22  49  1   
 50  23  25  1   
 51  23  50  1   
 52  23  51  1   
 53  24  25  1   
 54  24  52  1   
 55  24  53  1   
@<TRIPOS>SUBSTRUCTURE
  1 ****   5 GROUP 4 **** **** 0

# MOE 2024.06 (io_trps.svl 2023.06)
