@<TRIPOS>MOLECULE
NONAME
47 49 1 0 0 
SMALL
USER_CHARGES


@<TRIPOS>ATOM
  1 O        1.4130    -1.4270     2.2920 O.3   1 <1>  -0.0190 
  2 N        0.8180    -2.5660     2.1000 N.2   1 <1>  -0.4100 
  3 C        1.7930    -1.0600     1.0920 C.2   1 <1>   0.2980 
  4 C        0.8810    -2.8140     0.8550 C.2   1 <1>   0.3350 
  5 N        1.4900    -1.8670     0.1540 N.2   1 <1>  -0.5650 
  6 C        2.5390     0.2540     0.9300 C.3   1 <1>   0.0200 
  7 C        0.2870    -4.0550     0.1900 C.3   1 <1>   0.5240 
  8 C        1.6420     1.4630     1.2250 C.3   1 <1>  -0.2400 
  9 N       -1.1770    -3.8870    -0.1550 N.4   1 <1>  -0.9590 
 10 C       -1.8170    -5.1200    -0.7150 C.3   1 <1>   0.4230 
 11 C       -1.3400    -2.7010    -1.0540 C.3   1 <1>   0.3430 
 12 C       -3.3110    -4.8450    -0.9670 C.3   1 <1>  -0.1600 
 13 C       -1.6310    -6.3140     0.2380 C.3   1 <1>  -0.1600 
 14 C       -2.8200    -2.4030    -1.2760 C.3   1 <1>  -0.1600 
 15 C       -3.5470    -3.6180    -1.8540 C.3   1 <1>  -0.1600 
 16 C       -2.2080    -7.6360    -0.3080 C.3   1 <1>  -0.0170 
 17 C       -1.6730    -8.8220     0.4770 C.ar  1 <1>   0.1670 
 18 N       -0.3780    -9.0620     0.3390 N.ar  1 <1>  -0.6200 
 19 C       -2.5250    -9.5740     1.2730 C.ar  1 <1>  -0.1500 
 20 C        0.0860   -10.0990     1.0200 C.ar  1 <1>   0.1600 
 21 C       -2.0250   -10.6480     1.9780 C.ar  1 <1>  -0.1500 
 22 C       -0.6800   -10.9100     1.8390 C.ar  1 <1>  -0.1500 
 23 H        2.9110     0.3230    -0.0770 H     1 <1>   0.0800 
 24 H        3.3840     0.2580     1.5950 H     1 <1>   0.0800 
 25 H        0.4120    -4.8700     0.8800 H     1 <1>   0.0800 
 26 H        0.8540    -4.2750    -0.6980 H     1 <1>   0.0800 
 27 H        0.7990     1.4740     0.5570 H     1 <1>   0.0800 
 28 H        2.1970     2.3750     1.0920 H     1 <1>   0.0800 
 29 H        1.2820     1.4260     2.2380 H     1 <1>   0.0800 
 30 H       -1.6580    -3.6610     0.7250 H     1 <1>   0.4500 
 31 H       -1.3490    -5.3570    -1.6580 H     1 <1>   0.0800 
 32 H       -0.8650    -2.8940    -2.0030 H     1 <1>   0.0800 
 33 H       -0.8740    -1.8310    -0.6180 H     1 <1>   0.0800 
 34 H       -3.8180    -4.7120    -0.0270 H     1 <1>   0.0800 
 35 H       -3.7590    -5.6920    -1.4560 H     1 <1>   0.0800 
 36 H       -2.0800    -6.1090     1.1940 H     1 <1>   0.0800 
 37 H       -0.5830    -6.4860     0.3890 H     1 <1>   0.0800 
 38 H       -2.9130    -1.5740    -1.9570 H     1 <1>   0.0800 
 39 H       -3.2710    -2.1060    -0.3450 H     1 <1>   0.0800 
 40 H       -4.6030    -3.4130    -1.9240 H     1 <1>   0.0800 
 41 H       -3.1850    -3.8160    -2.8500 H     1 <1>   0.0800 
 42 H       -1.9200    -7.7690    -1.3370 H     1 <1>   0.0800 
 43 H       -3.2820    -7.6280    -0.2620 H     1 <1>   0.0800 
 44 H       -3.5690    -9.3310     1.3450 H     1 <1>   0.1500 
 45 H        1.1360   -10.3170     0.9190 H     1 <1>   0.1500 
 46 H       -2.6560   -11.2550     2.6050 H     1 <1>   0.1500 
 47 H       -0.2270   -11.7340     2.3600 H     1 <1>   0.1500 
@<TRIPOS>BOND
  1   1   2  1   
  2   1   3  1   
  3   2   4  2   
  4   3   5  2   
  5   3   6  1   
  6   4   5  1   
  7   4   7  1   
  8   6   8  1   
  9   6  23  1   
 10   6  24  1   
 11   7   9  1   
 12   7  25  1   
 13   7  26  1   
 14   8  27  1   
 15   8  28  1   
 16   8  29  1   
 17   9  10  1   
 18   9  11  1   
 19   9  30  1   
 20  10  12  1   
 21  10  13  1   
 22  10  31  1   
 23  11  14  1   
 24  11  32  1   
 25  11  33  1   
 26  12  15  1   
 27  12  34  1   
 28  12  35  1   
 29  13  16  1   
 30  13  36  1   
 31  13  37  1   
 32  14  15  1   
 33  14  38  1   
 34  14  39  1   
 35  15  40  1   
 36  15  41  1   
 37  16  17  1   
 38  16  42  1   
 39  16  43  1   
 40  17  18  ar  
 41  17  19  ar  
 42  18  20  ar  
 43  19  21  ar  
 44  19  44  1   
 45  20  22  ar  
 46  20  45  1   
 47  21  22  ar  
 48  21  46  1   
 49  22  47  1   
@<TRIPOS>SUBSTRUCTURE
  1 ****   7 GROUP 4 **** **** 0

# MOE 2024.06 (io_trps.svl 2023.06)
