@<TRIPOS>MOLECULE
NONAME
46 48 1 0 0 
SMALL
USER_CHARGES


@<TRIPOS>ATOM
  1 S        1.0260     1.4950    -1.3870 S.o2  1 <1>   1.3330 
  2 O        0.7500     2.4210    -2.4620 O.2   1 <1>  -0.6500 
  3 O        1.5930     0.2050    -1.7070 O.2   1 <1>  -0.6500 
  4 N        2.0710     2.2390    -0.2790 N.am  1 <1>  -0.8490 
  5 C       -0.5100     1.2110    -0.4870 C.3   1 <1>  -0.0550 
  6 C        3.0790     3.0840    -0.9290 C.3   1 <1>   0.1160 
  7 C        2.7210     1.3120     0.6500 C.3   1 <1>   0.1160 
  8 C       -1.2690     2.3990     0.1590 C.3   1 <1>  -0.0800 
  9 C       -1.4900     3.6120    -0.7540 C.3   1 <1>   0.2000 
 10 C       -0.5800     2.9680     1.4050 C.3   1 <1>   0.1400 
 11 O       -2.7000     4.1840    -0.3920 O.3   1 <1>  -0.6800 
 12 C       -0.3770     4.5980    -0.3950 C.3   1 <1>   0.1400 
 13 N       -0.0260     4.2850     1.0150 N.am  1 <1>  -0.6600 
 14 C        0.9500     4.9110     1.7710 C.2   1 <1>   0.5440 
 15 O        1.1070     4.4990     2.9110 O.2   1 <1>  -0.5700 
 16 C        1.7680     6.0370     1.2990 C.ar  1 <1>   0.3960 
 17 N        2.1490     6.1400     0.0410 N.ar  1 <1>  -0.6200 
 18 C        2.1570     7.0130     2.2440 C.ar  1 <1>  -0.1500 
 19 C        2.9200     7.1890    -0.3450 C.ar  1 <1>   0.3100 
 20 C        2.9250     8.0790     1.8930 C.ar  1 <1>  -0.1500 
 21 C        3.3550     7.3270    -1.6830 C.ar  1 <1>   0.1900 
 22 C        3.3350     8.1940     0.5570 C.ar  1 <1>   0.0000 
 23 F        3.0030     6.4170    -2.5540 F     1 <1>  -0.1900 
 24 C        4.1320     8.3630    -2.1240 C.ar  1 <1>  -0.1500 
 25 C        4.1360     9.2590     0.0960 C.ar  1 <1>  -0.1500 
 26 C        4.5280     9.3470    -1.2140 C.ar  1 <1>  -0.1500 
 27 H       -1.1900     0.7450    -1.1750 H     1 <1>   0.0800 
 28 H       -0.3190     0.4870     0.2800 H     1 <1>   0.0800 
 29 H        3.6770     3.5860    -0.1880 H     1 <1>   0.0800 
 30 H        2.6020     3.8360    -1.5340 H     1 <1>   0.0800 
 31 H        3.7170     2.4880    -1.5600 H     1 <1>   0.0800 
 32 H        3.2740     1.8630     1.3920 H     1 <1>   0.0800 
 33 H        3.3940     0.6580     0.1200 H     1 <1>   0.0800 
 34 H        1.9830     0.7140     1.1550 H     1 <1>   0.0800 
 35 H       -2.2240     2.0010     0.4590 H     1 <1>   0.0800 
 36 H       -1.5310     3.3770    -1.8050 H     1 <1>   0.0800 
 37 H        0.2030     2.3250     1.7670 H     1 <1>   0.0800 
 38 H       -1.2970     3.1190     2.1940 H     1 <1>   0.0800 
 39 H       -2.6020     4.5810     0.4970 H     1 <1>   0.4000 
 40 H       -0.6940     5.6200    -0.5080 H     1 <1>   0.0800 
 41 H        0.4790     4.4290    -1.0200 H     1 <1>   0.0800 
 42 H        1.8270     6.8880     3.2610 H     1 <1>   0.1500 
 43 H        3.2220     8.8250     2.6110 H     1 <1>   0.1500 
 44 H        4.4350     8.4230    -3.1540 H     1 <1>   0.1500 
 45 H        4.4400    10.0140     0.8010 H     1 <1>   0.1500 
 46 H        5.1400    10.1640    -1.5560 H     1 <1>   0.1500 
@<TRIPOS>BOND
  1   1   2  2   
  2   1   3  2   
  3   1   4  am  
  4   1   5  1   
  5   4   6  1   
  6   4   7  1   
  7   5   8  1   
  8   5  27  1   
  9   5  28  1   
 10   6  29  1   
 11   6  30  1   
 12   6  31  1   
 13   7  32  1   
 14   7  33  1   
 15   7  34  1   
 16   8   9  1   
 17   8  10  1   
 18   8  35  1   
 19   9  11  1   
 20   9  12  1   
 21   9  36  1   
 22  10  13  1   
 23  10  37  1   
 24  10  38  1   
 25  11  39  1   
 26  12  13  1   
 27  12  40  1   
 28  12  41  1   
 29  13  14  am  
 30  14  15  2   
 31  14  16  1   
 32  16  17  ar  
 33  16  18  ar  
 34  17  19  ar  
 35  18  20  ar  
 36  18  42  1   
 37  19  21  ar  
 38  19  22  ar  
 39  20  22  ar  
 40  20  43  1   
 41  21  23  1   
 42  21  24  ar  
 43  22  25  ar  
 44  24  26  ar  
 45  24  44  1   
 46  25  26  ar  
 47  25  45  1   
 48  26  46  1   
@<TRIPOS>SUBSTRUCTURE
  1 ****  17 GROUP 4 **** **** 0

# MOE 2024.06 (io_trps.svl 2023.06)
