@<TRIPOS>MOLECULE
NONAME
56 58 1 0 0 
SMALL
USER_CHARGES


@<TRIPOS>ATOM
  1 CL       0.6510     0.5270     3.4010 Cl    1 <1>  -0.1770 
  2 C        1.6310    -0.3630     2.2650 C.ar  1 <1>   0.1770 
  3 C        2.4620     0.3230     1.4050 C.ar  1 <1>  -0.1500 
  4 C        1.5450    -1.7410     2.2470 C.ar  1 <1>  -0.1500 
  5 C        3.2400    -0.3830     0.4910 C.ar  1 <1>   0.0830 
  6 C        2.3120    -2.4580     1.3420 C.ar  1 <1>  -0.1440 
  7 O        4.0430     0.2580    -0.4030 O.3   1 <1>  -0.3620 
  8 C        3.1730    -1.7870     0.4760 C.ar  1 <1>   0.0830 
  9 C        2.2090    -3.9700     1.2960 C.3   1 <1>   0.4870 
 10 C        4.1520     1.6660    -0.4460 C.3   1 <1>   0.0400 
 11 O        3.8980    -2.5740    -0.3730 O.3   1 <1>  -0.3630 
 12 N        1.7900    -4.4150    -0.0680 N.4   1 <1>  -0.9590 
 13 C        5.2560    -2.2770    -0.6340 C.3   1 <1>   0.1200 
 14 C        0.3640    -4.2410    -0.4770 C.3   1 <1>   0.4230 
 15 C        2.2370    -5.8170    -0.3070 C.3   1 <1>   0.2630 
 16 C        5.9670    -3.5790    -1.0060 C.3   1 <1>  -0.1600 
 17 C       -0.6730    -4.5100     0.6110 C.3   1 <1>  -0.1600 
 18 C        0.0250    -2.8430    -0.9820 C.3   1 <1>  -0.1600 
 19 C        7.4490    -3.3320    -1.3050 C.3   1 <1>  -0.2400 
 20 C       -1.9640    -3.9040     0.0420 C.3   1 <1>  -0.0800 
 21 C       -1.5090    -2.7780    -0.9210 C.3   1 <1>  -0.0800 
 22 C       -2.9750    -3.4900     1.1340 C.3   1 <1>   0.1400 
 23 C       -2.0420    -1.3780    -0.5530 C.3   1 <1>  -0.0990 
 24 N       -3.9020    -2.4770     0.5960 N.am  1 <1>  -0.7300 
 25 C       -3.5100    -1.4550    -0.1920 C.2   1 <1>   0.5690 
 26 O       -4.2900    -0.6320    -0.5930 O.2   1 <1>  -0.5700 
 27 H        2.4770     1.3940     1.4680 H     1 <1>   0.1500 
 28 H        0.8780    -2.2240     2.9400 H     1 <1>   0.1500 
 29 H        1.5240    -4.3310     2.0440 H     1 <1>   0.0800 
 30 H        3.1850    -4.3710     1.5180 H     1 <1>   0.0800 
 31 H        4.8420     1.9250    -1.2300 H     1 <1>   0.0800 
 32 H        4.5270     2.0190     0.4980 H     1 <1>   0.0800 
 33 H        3.1850     2.0870    -0.6610 H     1 <1>   0.0800 
 34 H        2.3530    -3.7990    -0.6850 H     1 <1>   0.4500 
 35 H        5.3020    -1.5760    -1.4500 H     1 <1>   0.0800 
 36 H        5.6950    -1.8400     0.2470 H     1 <1>   0.0800 
 37 H        0.1570    -4.9150    -1.2920 H     1 <1>   0.0800 
 38 H        1.7060    -6.4970     0.3390 H     1 <1>   0.0800 
 39 H        3.2940    -5.9110    -0.1170 H     1 <1>   0.0800 
 40 H        2.0510    -6.0980    -1.3320 H     1 <1>   0.0800 
 41 H        5.8870    -4.2760    -0.1910 H     1 <1>   0.0800 
 42 H        5.5010    -4.0020    -1.8790 H     1 <1>   0.0800 
 43 H       -0.7880    -5.5620     0.8060 H     1 <1>   0.0800 
 44 H       -0.4250    -3.9900     1.5170 H     1 <1>   0.0800 
 45 H        0.4350    -2.0850    -0.3450 H     1 <1>   0.0800 
 46 H        0.3780    -2.6900    -1.9870 H     1 <1>   0.0800 
 47 H        7.9460    -2.9200    -0.4440 H     1 <1>   0.0800 
 48 H        7.5600    -2.6470    -2.1280 H     1 <1>   0.0800 
 49 H        7.9330    -4.2570    -1.5660 H     1 <1>   0.0800 
 50 H       -2.4450    -4.6590    -0.5590 H     1 <1>   0.0800 
 51 H       -1.9010    -3.0180    -1.8970 H     1 <1>   0.0800 
 52 H       -2.4660    -3.0600     1.9810 H     1 <1>   0.0800 
 53 H       -3.5300    -4.3500     1.4710 H     1 <1>   0.0800 
 54 H       -1.9130    -0.7000    -1.3770 H     1 <1>   0.0800 
 55 H       -1.5200    -0.9800     0.2980 H     1 <1>   0.0800 
 56 H       -4.8870    -2.5040     0.8740 H     1 <1>   0.3700 
@<TRIPOS>BOND
  1   1   2  1   
  2   2   3  ar  
  3   2   4  ar  
  4   3   5  ar  
  5   3  27  1   
  6   4   6  ar  
  7   4  28  1   
  8   5   7  1   
  9   5   8  ar  
 10   6   8  ar  
 11   6   9  1   
 12   7  10  1   
 13   8  11  1   
 14   9  12  1   
 15   9  29  1   
 16   9  30  1   
 17  10  31  1   
 18  10  32  1   
 19  10  33  1   
 20  11  13  1   
 21  12  14  1   
 22  12  15  1   
 23  12  34  1   
 24  13  16  1   
 25  13  35  1   
 26  13  36  1   
 27  14  17  1   
 28  14  18  1   
 29  14  37  1   
 30  15  38  1   
 31  15  39  1   
 32  15  40  1   
 33  16  19  1   
 34  16  41  1   
 35  16  42  1   
 36  17  20  1   
 37  17  43  1   
 38  17  44  1   
 39  18  21  1   
 40  18  45  1   
 41  18  46  1   
 42  19  47  1   
 43  19  48  1   
 44  19  49  1   
 45  20  21  1   
 46  20  22  1   
 47  20  50  1   
 48  21  23  1   
 49  21  51  1   
 50  22  24  1   
 51  22  52  1   
 52  22  53  1   
 53  23  25  1   
 54  23  54  1   
 55  23  55  1   
 56  24  25  am  
 57  24  56  1   
 58  25  26  2   
@<TRIPOS>SUBSTRUCTURE
  1 ****   6 GROUP 4 **** **** 0

# MOE 2024.06 (io_trps.svl 2023.06)
