@<TRIPOS>MOLECULE
NONAME
50 52 1 0 0 
SMALL
USER_CHARGES


@<TRIPOS>ATOM
  1 O        1.4520     0.8140     1.9870 O.2   1 <1>  -0.5700 
  2 C        1.3390    -0.0550     1.1550 C.2   1 <1>   0.5690 
  3 N        1.7410     0.1190    -0.1300 N.am  1 <1>  -0.7300 
  4 C        0.7360    -1.4090     1.5450 C.3   1 <1>   0.1710 
  5 C        2.2890     1.3690    -0.7210 C.3   1 <1>   0.1400 
  6 N        0.1730    -2.1830     0.3970 N.3   1 <1>  -0.8100 
  7 C        3.6420     1.7660    -0.1080 C.3   1 <1>   0.2000 
  8 C       -1.1090    -1.5900    -0.0590 C.3   1 <1>   0.1100 
  9 C       -0.0590    -3.5930     0.7800 C.3   1 <1>   0.1100 
 10 O        4.0800     2.9260    -0.7890 O.3   1 <1>  -0.3630 
 11 C        4.7140     0.6800    -0.2730 C.3   1 <1>  -0.2400 
 12 C       -1.7230    -2.3570    -1.2460 C.3   1 <1>   0.2090 
 13 C       -0.6320    -4.4300    -0.3790 C.3   1 <1>   0.2090 
 14 C        4.9810     3.7990    -0.2660 C.ar  1 <1>   0.0820 
 15 N       -1.8780    -3.8120    -0.9320 N.pl3 1 <1>  -0.8380 
 16 C        5.4040     4.8460    -1.0790 C.ar  1 <1>   0.1600 
 17 C        5.4990     3.7110     1.0170 C.ar  1 <1>  -0.1500 
 18 C       -2.9760    -4.5530    -1.3230 C.ar  1 <1>   0.7200 
 19 N        6.2740     5.7850    -0.7330 N.ar  1 <1>  -0.6200 
 20 C        6.4050     4.6810     1.3930 C.ar  1 <1>  -0.1500 
 21 N       -2.9750    -5.8520    -1.0220 N.ar  1 <1>  -0.6200 
 22 N       -3.9460    -3.9080    -1.9730 N.ar  1 <1>  -0.6200 
 23 C        6.7530     5.6780     0.4960 C.ar  1 <1>   0.1600 
 24 C       -4.0220    -6.5420    -1.4020 C.ar  1 <1>   0.1600 
 25 C       -4.9810    -4.6230    -2.3400 C.ar  1 <1>   0.1600 
 26 C       -5.0700    -5.9670    -2.0750 C.ar  1 <1>  -0.1500 
 27 H        1.5580    -0.6700    -0.7600 H     1 <1>   0.3700 
 28 H       -0.0250    -1.2490     2.2880 H     1 <1>   0.0800 
 29 H        1.5250    -1.9800     2.0010 H     1 <1>   0.0800 
 30 H        1.5840     2.1650    -0.5510 H     1 <1>   0.0800 
 31 H        2.4050     1.2300    -1.7810 H     1 <1>   0.0800 
 32 H        3.4830     2.0130     0.9270 H     1 <1>   0.0800 
 33 H       -0.9530    -0.5690    -0.3580 H     1 <1>   0.0800 
 34 H       -1.8210    -1.5920     0.7490 H     1 <1>   0.0800 
 35 H       -0.7470    -3.6410     1.6080 H     1 <1>   0.0800 
 36 H        0.8710    -4.0360     1.0920 H     1 <1>   0.0800 
 37 H        4.8350     0.4310    -1.3120 H     1 <1>   0.0800 
 38 H        4.4230    -0.2070     0.2600 H     1 <1>   0.0800 
 39 H        5.6550     1.0120     0.1240 H     1 <1>   0.0800 
 40 H       -1.0860    -2.2500    -2.1060 H     1 <1>   0.0800 
 41 H       -2.6720    -1.9080    -1.4810 H     1 <1>   0.0800 
 42 H       -0.8180    -5.4260    -0.0180 H     1 <1>   0.0800 
 43 H        0.1020    -4.4970    -1.1630 H     1 <1>   0.0800 
 44 H        4.9940     4.9020    -2.0710 H     1 <1>   0.1500 
 45 H        5.2250     2.9360     1.7080 H     1 <1>   0.1500 
 46 H        6.8410     4.6680     2.3750 H     1 <1>   0.1500 
 47 H        7.4620     6.4270     0.8060 H     1 <1>   0.1500 
 48 H       -4.0440    -7.5930    -1.1690 H     1 <1>   0.1500 
 49 H       -5.7770    -4.1250    -2.8660 H     1 <1>   0.1500 
 50 H       -5.9230    -6.5430    -2.3810 H     1 <1>   0.1500 
@<TRIPOS>BOND
  1   1   2  2   
  2   2   3  am  
  3   2   4  1   
  4   3   5  1   
  5   3  27  1   
  6   4   6  1   
  7   4  28  1   
  8   4  29  1   
  9   5   7  1   
 10   5  30  1   
 11   5  31  1   
 12   6   8  1   
 13   6   9  1   
 14   7  10  1   
 15   7  11  1   
 16   7  32  1   
 17   8  12  1   
 18   8  33  1   
 19   8  34  1   
 20   9  13  1   
 21   9  35  1   
 22   9  36  1   
 23  10  14  1   
 24  11  37  1   
 25  11  38  1   
 26  11  39  1   
 27  12  15  1   
 28  12  40  1   
 29  12  41  1   
 30  13  15  1   
 31  13  42  1   
 32  13  43  1   
 33  14  16  ar  
 34  14  17  ar  
 35  15  18  1   
 36  16  19  ar  
 37  16  44  1   
 38  17  20  ar  
 39  17  45  1   
 40  18  21  ar  
 41  18  22  ar  
 42  19  23  ar  
 43  20  23  ar  
 44  20  46  1   
 45  21  24  ar  
 46  22  25  ar  
 47  23  47  1   
 48  24  26  ar  
 49  24  48  1   
 50  25  26  ar  
 51  25  49  1   
 52  26  50  1   
@<TRIPOS>SUBSTRUCTURE
  1 ****   3 GROUP 4 **** **** 0

# MOE 2024.06 (io_trps.svl 2023.06)
