@<TRIPOS>MOLECULE
NONAME
44 46 1 0 0 
SMALL
USER_CHARGES


@<TRIPOS>ATOM
  1 N        0.0020     0.0000    -0.0770 N.ar  1 <1>  -0.6200 
  2 C       -1.2180     0.5480    -0.0630 C.ar  1 <1>   0.4100 
  3 C        1.0290     0.7910    -0.0160 C.ar  1 <1>   0.5280 
  4 N       -2.2530    -0.2930    -0.1300 N.pl3 1 <1>  -0.8690 
  5 C       -1.4020     1.9410     0.0180 C.ar  1 <1>  -0.1430 
  6 N        0.9270     2.1330     0.0630 N.ar  1 <1>  -0.1790 
  7 C        2.4130     0.1750    -0.0320 C.3   1 <1>  -0.0970 
  8 C       -2.2270    -1.7670    -0.2110 C.3   1 <1>   0.3890 
  9 C       -0.2840     2.7260     0.0810 C.ar  1 <1>   0.2110 
 10 C       -2.8300     2.5040     0.0310 C.3   1 <1>  -0.0170 
 11 C       -3.6570    -2.2920    -0.1670 C.2   1 <1>   0.0070 
 12 C       -2.9330     4.0350     0.1250 C.3   1 <1>  -0.1600 
 13 N       -3.9690    -3.5830    -0.1010 N.pl3 1 <1>   0.0330 
 14 N       -4.7230    -1.5630    -0.1910 N.2   1 <1>  -0.3380 
 15 C       -4.3960     4.4870     0.1320 C.3   1 <1>  -0.2400 
 16 C       -5.3070    -3.6060    -0.0840 C.2   1 <1>   0.1330 
 17 N       -5.7640    -2.3890    -0.1420 N.2   1 <1>  -0.3380 
 18 C       -6.0970    -4.8160    -0.0270 C.ar  1 <1>   0.0530 
 19 C       -7.3810    -4.8500    -0.5690 C.ar  1 <1>  -0.1500 
 20 C       -5.6180    -5.9890     0.5610 C.ar  1 <1>  -0.1500 
 21 C       -8.1490    -5.9990    -0.5410 C.ar  1 <1>  -0.1500 
 22 C       -6.3800    -7.1420     0.5920 C.ar  1 <1>  -0.1500 
 23 C       -7.6480    -7.1510     0.0390 C.ar  1 <1>  -0.1500 
 24 H       -3.2290     0.0350    -0.1260 H     1 <1>   0.4000 
 25 H        1.7820     2.6910     0.1080 H     1 <1>   0.4570 
 26 H        2.3380    -0.8970    -0.1000 H     1 <1>   0.0800 
 27 H        2.9430     0.4170     0.8710 H     1 <1>   0.0800 
 28 H        2.9700     0.5250    -0.8820 H     1 <1>   0.0800 
 29 H       -1.6630    -2.1590     0.6170 H     1 <1>   0.0800 
 30 H       -1.7550    -2.0640    -1.1320 H     1 <1>   0.0800 
 31 H       -0.3280     3.8010     0.1440 H     1 <1>   0.1500 
 32 H       -3.3600     2.0750     0.8650 H     1 <1>   0.0800 
 33 H       -3.3330     2.1830    -0.8670 H     1 <1>   0.0800 
 34 H       -2.4400     4.4890    -0.7180 H     1 <1>   0.0800 
 35 H       -2.4650     4.3800     1.0310 H     1 <1>   0.0800 
 36 H       -3.3530    -4.3960    -0.0820 H     1 <1>   0.2700 
 37 H       -4.8950     4.1780    -0.7710 H     1 <1>   0.0800 
 38 H       -4.4520     5.5600     0.1980 H     1 <1>   0.0800 
 39 H       -4.9200     4.0690     0.9740 H     1 <1>   0.0800 
 40 H       -7.7790    -3.9570    -1.0210 H     1 <1>   0.1500 
 41 H       -4.6430    -6.0060     1.0110 H     1 <1>   0.1500 
 42 H       -9.1370    -5.9970    -0.9680 H     1 <1>   0.1500 
 43 H       -5.9930    -8.0360     1.0500 H     1 <1>   0.1500 
 44 H       -8.2440    -8.0470     0.0630 H     1 <1>   0.1500 
@<TRIPOS>BOND
  1   1   2  ar  
  2   1   3  ar  
  3   2   4  1   
  4   2   5  ar  
  5   3   6  ar  
  6   3   7  1   
  7   4   8  1   
  8   4  24  1   
  9   5   9  ar  
 10   5  10  1   
 11   6   9  ar  
 12   6  25  1   
 13   7  26  1   
 14   7  27  1   
 15   7  28  1   
 16   8  11  1   
 17   8  29  1   
 18   8  30  1   
 19   9  31  1   
 20  10  12  1   
 21  10  32  1   
 22  10  33  1   
 23  11  13  1   
 24  11  14  2   
 25  12  15  1   
 26  12  34  1   
 27  12  35  1   
 28  13  16  1   
 29  13  36  1   
 30  14  17  1   
 31  15  37  1   
 32  15  38  1   
 33  15  39  1   
 34  16  17  2   
 35  16  18  1   
 36  18  19  ar  
 37  18  20  ar  
 38  19  21  ar  
 39  19  40  1   
 40  20  22  ar  
 41  20  41  1   
 42  21  23  ar  
 43  21  42  1   
 44  22  23  ar  
 45  22  43  1   
 46  23  44  1   
@<TRIPOS>SUBSTRUCTURE
  1 ****  11 GROUP 4 **** **** 0

# MOE 2024.06 (io_trps.svl 2023.06)
