@<TRIPOS>MOLECULE
NONAME
45 48 1 0 0 
SMALL
USER_CHARGES


@<TRIPOS>ATOM
  1 O        0.3200     1.1530     0.8780 O.2   1 <1>  -0.5700 
  2 C        0.1640     2.3340     0.7030 C.2   1 <1>   0.5690 
  3 N       -0.9610     2.9510     1.1200 N.am  1 <1>  -0.7300 
  4 C        1.2270     3.1530    -0.0280 C.3   1 <1>   0.1810 
  5 C       -1.2420     4.3950     0.9160 C.3   1 <1>   0.3640 
  6 O        1.1510     4.5230     0.2890 O.3   1 <1>  -0.5600 
  7 C       -2.5970     4.5100     0.2250 C.ar  1 <1>  -0.1440 
  8 C       -0.1290     5.1200     0.1020 C.3   1 <1>   0.2610 
  9 C       -2.9000     3.7390    -0.8910 C.ar  1 <1>   0.1600 
 10 C       -3.5540     5.3910     0.6930 C.ar  1 <1>  -0.1500 
 11 C       -0.0620     6.6100     0.4710 C.2   1 <1>   0.5690 
 12 N       -4.0410     3.7820    -1.5590 N.ar  1 <1>  -0.6200 
 13 C       -4.7500     5.4450     0.0110 C.ar  1 <1>  -0.1500 
 14 O       -1.0690     7.2250     0.7270 O.2   1 <1>  -0.5700 
 15 N        1.1440     7.2250     0.5040 N.am  1 <1>  -0.7300 
 16 C       -4.9390     4.6320    -1.0920 C.ar  1 <1>   0.1600 
 17 C        1.3730     8.6630     0.7950 C.3   1 <1>   0.3210 
 18 C        2.8060     9.0910     0.4800 C.2   1 <1>   0.3350 
 19 N        3.7470     8.3170     0.0970 N.2   1 <1>  -0.4100 
 20 N        3.1840    10.3570     0.5940 N.2   1 <1>  -0.5650 
 21 O        4.8060     9.0500    -0.0630 O.3   1 <1>  -0.0190 
 22 C        4.4070    10.2590     0.2460 C.2   1 <1>   0.3170 
 23 C        5.4260    11.3860     0.1650 C.3   1 <1>   0.1610 
 24 C        4.8540    12.8300     0.1290 C.3   1 <1>   0.0000 
 25 C        5.9690    11.6530    -1.2640 C.3   1 <1>   0.0000 
 26 C        5.9690    13.1590    -0.8970 C.3   1 <1>   0.0000 
 27 H       -1.6740     2.3940     1.5960 H     1 <1>   0.3700 
 28 H        1.1090     3.0380    -1.0900 H     1 <1>   0.0800 
 29 H        2.2030     2.8030     0.2550 H     1 <1>   0.0800 
 30 H       -1.3050     4.8560     1.8870 H     1 <1>   0.0800 
 31 H       -0.3580     5.0570    -0.9460 H     1 <1>   0.0800 
 32 H       -2.1660     3.0440    -1.2590 H     1 <1>   0.1500 
 33 H       -3.3780     6.0220     1.5490 H     1 <1>   0.1500 
 34 H       -5.5300     6.1140     0.3290 H     1 <1>   0.1500 
 35 H        1.9950     6.6740     0.3340 H     1 <1>   0.3700 
 36 H       -5.8780     4.6850    -1.6180 H     1 <1>   0.1500 
 37 H        0.6920     9.2560     0.2100 H     1 <1>   0.0800 
 38 H        1.1740     8.8490     1.8350 H     1 <1>   0.0800 
 39 H        6.2220    11.2840     0.8830 H     1 <1>   0.0000 
 40 H        3.8710    12.8950    -0.3060 H     1 <1>   0.0000 
 41 H        4.9490    13.3600     1.0600 H     1 <1>   0.0000 
 42 H        6.9490    11.2470    -1.4410 H     1 <1>   0.0000 
 43 H        5.2570    11.4160    -2.0370 H     1 <1>   0.0000 
 44 H        6.8860    13.4730    -0.4280 H     1 <1>   0.0000 
 45 H        5.6500    13.8030    -1.6970 H     1 <1>   0.0000 
@<TRIPOS>BOND
  1   1   2  2   
  2   2   3  am  
  3   2   4  1   
  4   3   5  1   
  5   3  27  1   
  6   4   6  1   
  7   4  28  1   
  8   4  29  1   
  9   5   7  1   
 10   5   8  1   
 11   5  30  1   
 12   6   8  1   
 13   7   9  ar  
 14   7  10  ar  
 15   8  11  1   
 16   8  31  1   
 17   9  12  ar  
 18   9  32  1   
 19  10  13  ar  
 20  10  33  1   
 21  11  14  2   
 22  11  15  am  
 23  12  16  ar  
 24  13  16  ar  
 25  13  34  1   
 26  15  17  1   
 27  15  35  1   
 28  16  36  1   
 29  17  18  1   
 30  17  37  1   
 31  17  38  1   
 32  18  19  2   
 33  18  20  1   
 34  19  21  1   
 35  20  22  2   
 36  21  22  1   
 37  22  23  1   
 38  23  24  1   
 39  23  25  1   
 40  23  39  1   
 41  24  26  1   
 42  24  40  1   
 43  24  41  1   
 44  25  26  1   
 45  25  42  1   
 46  25  43  1   
 47  26  44  1   
 48  26  45  1   
@<TRIPOS>SUBSTRUCTURE
  1 ****  15 GROUP 4 **** **** 0

# MOE 2024.06 (io_trps.svl 2023.06)
