@<TRIPOS>MOLECULE
NONAME
44 45 1 0 0 
SMALL
USER_CHARGES


@<TRIPOS>ATOM
  1 F        3.9180     0.1180    -0.6650 F     1 <1>  -0.3400 
  2 C        2.8490     0.2090    -1.4480 C.3   1 <1>   1.3000 
  3 F        3.1810    -0.2640    -2.6400 F     1 <1>  -0.3400 
  4 F        1.9000    -0.5770    -0.9520 F     1 <1>  -0.3400 
  5 O        2.4050     1.5440    -1.5670 O.3   1 <1>  -0.3630 
  6 C        2.0310     2.1760    -0.4350 C.ar  1 <1>   0.0830 
  7 C        2.9670     2.8920     0.2940 C.ar  1 <1>  -0.1500 
  8 C        0.7110     2.1230    -0.0180 C.ar  1 <1>  -0.1500 
  9 C        2.5900     3.5490     1.4550 C.ar  1 <1>  -0.1440 
 10 C        0.3320     2.7770     1.1400 C.ar  1 <1>  -0.1500 
 11 C        1.2680     3.4870     1.8740 C.ar  1 <1>  -0.1500 
 12 C        3.6210     4.3370     2.2420 C.3   1 <1>   0.2840 
 13 N        3.9540     5.5400     1.4630 N.am  1 <1>  -0.7300 
 14 C        5.2120     5.9800     1.2170 C.2   1 <1>   0.5690 
 15 O        6.1750     5.4740     1.7380 O.2   1 <1>  -0.5700 
 16 C        5.4170     7.1440     0.2510 C.3   1 <1>  -0.0190 
 17 C        4.6810     8.4170     0.7120 C.3   1 <1>  -0.1600 
 18 C        5.0310     6.7620    -1.2000 C.3   1 <1>  -0.1600 
 19 C        5.0220     9.6330    -0.1740 C.3   1 <1>   0.2000 
 20 C        4.6930     7.9740    -2.0900 C.3   1 <1>  -0.1600 
 21 O        3.8910    10.4680    -0.2180 O.3   1 <1>  -0.5600 
 22 C        5.4220     9.2360    -1.6210 C.3   1 <1>   0.2000 
 23 C        3.7420    11.3200     0.8760 C.3   1 <1>   0.0400 
 24 O        5.0940    10.2640    -2.4810 O.3   1 <1>  -0.6800 
 25 H        3.9870     2.9380    -0.0450 H     1 <1>   0.1500 
 26 H       -0.0140     1.5750    -0.5930 H     1 <1>   0.1500 
 27 H       -0.6920     2.7360     1.4710 H     1 <1>   0.1500 
 28 H        0.9590     3.9920     2.7730 H     1 <1>   0.1500 
 29 H        4.5020     3.7370     2.4010 H     1 <1>   0.0800 
 30 H        3.2290     4.6280     3.2010 H     1 <1>   0.0800 
 31 H        3.1650     5.9510     0.9640 H     1 <1>   0.3700 
 32 H        6.4710     7.3660     0.2610 H     1 <1>   0.0800 
 33 H        4.9500     8.6350     1.7300 H     1 <1>   0.0800 
 34 H        3.6210     8.2360     0.6720 H     1 <1>   0.0800 
 35 H        5.8540     6.2200    -1.6330 H     1 <1>   0.0800 
 36 H        4.1830     6.0990    -1.2020 H     1 <1>   0.0800 
 37 H        5.8450    10.1830     0.2510 H     1 <1>   0.0800 
 38 H        3.6330     8.1570    -2.0460 H     1 <1>   0.0800 
 39 H        4.9560     7.7580    -3.1110 H     1 <1>   0.0800 
 40 H        6.4840     9.0780    -1.6850 H     1 <1>   0.0800 
 41 H        2.8520    11.9050     0.7250 H     1 <1>   0.0800 
 42 H        4.5960    11.9730     0.9370 H     1 <1>   0.0800 
 43 H        3.6420    10.7390     1.7760 H     1 <1>   0.0800 
 44 H        4.3120    10.7080    -2.0800 H     1 <1>   0.4000 
@<TRIPOS>BOND
  1   1   2  1   
  2   2   3  1   
  3   2   4  1   
  4   2   5  1   
  5   5   6  1   
  6   6   7  ar  
  7   6   8  ar  
  8   7   9  ar  
  9   7  25  1   
 10   8  10  ar  
 11   8  26  1   
 12   9  11  ar  
 13   9  12  1   
 14  10  11  ar  
 15  10  27  1   
 16  11  28  1   
 17  12  13  1   
 18  12  29  1   
 19  12  30  1   
 20  13  14  am  
 21  13  31  1   
 22  14  15  2   
 23  14  16  1   
 24  16  17  1   
 25  16  18  1   
 26  16  32  1   
 27  17  19  1   
 28  17  33  1   
 29  17  34  1   
 30  18  20  1   
 31  18  35  1   
 32  18  36  1   
 33  19  21  1   
 34  19  22  1   
 35  19  37  1   
 36  20  22  1   
 37  20  38  1   
 38  20  39  1   
 39  21  23  1   
 40  22  24  1   
 41  22  40  1   
 42  23  41  1   
 43  23  42  1   
 44  23  43  1   
 45  24  44  1   
@<TRIPOS>SUBSTRUCTURE
  1 ****  13 GROUP 4 **** **** 0

# MOE 2024.06 (io_trps.svl 2023.06)
