@<TRIPOS>MOLECULE
NONAME
53 55 1 0 0 
SMALL
USER_CHARGES


@<TRIPOS>ATOM
  1 O       -0.8030    -0.2280     0.6730 O.2   1 <1>  -0.5700 
  2 C       -1.9120     0.2120     0.8280 C.2   1 <1>   0.4230 
  3 C       -3.0540    -0.3170     0.1360 C.ar  1 <1>   0.0860 
  4 C       -2.0630     1.3170     1.8550 C.3   1 <1>  -0.1790 
  5 C       -4.0960     0.4170    -0.4260 C.ar  1 <1>   0.1660 
  6 C       -3.1730    -1.6890    -0.0060 C.ar  1 <1>   0.1600 
  7 N       -5.1350    -0.1540    -0.9780 N.ar  1 <1>  -0.6200 
  8 C       -4.1040     1.9360    -0.4730 C.3   1 <1>  -0.0960 
  9 N       -4.1970    -2.2790    -0.5640 N.ar  1 <1>  -0.6200 
 10 C       -5.1630    -1.4850    -1.0230 C.ar  1 <1>   0.7200 
 11 N       -6.2680    -2.0810    -1.5790 N.pl3 1 <1>  -0.8380 
 12 C       -6.3410    -3.5340    -1.8780 C.3   1 <1>   0.2090 
 13 C       -7.5710    -1.3830    -1.7370 C.3   1 <1>   0.2090 
 14 C       -7.3090    -4.1910    -0.8920 C.3   1 <1>  -0.1600 
 15 C       -8.5780    -1.9980    -0.7610 C.3   1 <1>  -0.1600 
 16 C       -8.7060    -3.5280    -0.9330 C.3   1 <1>  -0.0800 
 17 C       -9.7110    -4.1190     0.0840 C.3   1 <1>   0.2000 
 18 O       -9.2510    -3.9030     1.3690 O.3   1 <1>  -0.6800 
 19 C       -9.9630    -5.6230    -0.0930 C.3   1 <1>  -0.1600 
 20 C      -11.0640    -6.1510     0.8370 C.3   1 <1>  -0.0160 
 21 C      -11.3090    -7.6270     0.5690 C.ar  1 <1>  -0.1430 
 22 C      -10.5970    -8.5910     1.2680 C.ar  1 <1>  -0.1500 
 23 C      -12.2390    -8.0230    -0.3790 C.ar  1 <1>  -0.1500 
 24 C      -10.8130    -9.9360     1.0210 C.ar  1 <1>  -0.1500 
 25 C      -12.4560    -9.3680    -0.6270 C.ar  1 <1>  -0.1500 
 26 C      -11.7430   -10.3250     0.0730 C.ar  1 <1>  -0.1500 
 27 H       -3.0760     1.3780     2.2070 H     1 <1>   0.0800 
 28 H       -1.7670     2.2570     1.4280 H     1 <1>   0.0800 
 29 H       -1.4240     1.1100     2.6950 H     1 <1>   0.0800 
 30 H       -2.3800    -2.3140     0.3700 H     1 <1>   0.1500 
 31 H       -3.1110     2.3220    -0.6100 H     1 <1>   0.0800 
 32 H       -4.5290     2.3300     0.4310 H     1 <1>   0.0800 
 33 H       -4.7020     2.2730    -1.3010 H     1 <1>   0.0800 
 34 H       -5.3730    -4.0010    -1.8110 H     1 <1>   0.0800 
 35 H       -6.6950    -3.6670    -2.8860 H     1 <1>   0.0800 
 36 H       -7.9140    -1.5030    -2.7490 H     1 <1>   0.0800 
 37 H       -7.4830    -0.3280    -1.5420 H     1 <1>   0.0800 
 38 H       -6.8800    -4.1120     0.0910 H     1 <1>   0.0800 
 39 H       -7.3800    -5.2330    -1.1410 H     1 <1>   0.0800 
 40 H       -9.5360    -1.5330    -0.9080 H     1 <1>   0.0800 
 41 H       -8.2550    -1.7630     0.2380 H     1 <1>   0.0800 
 42 H       -9.1140    -3.7020    -1.9140 H     1 <1>   0.0800 
 43 H      -10.6490    -3.5970    -0.0050 H     1 <1>   0.0800 
 44 H       -8.3030    -4.1280     1.4160 H     1 <1>   0.4000 
 45 H       -9.0600    -6.1780     0.0870 H     1 <1>   0.0800 
 46 H      -10.2600    -5.8060    -1.1100 H     1 <1>   0.0800 
 47 H      -11.9740    -5.5990     0.6790 H     1 <1>   0.0800 
 48 H      -10.7760    -6.0140     1.8650 H     1 <1>   0.0800 
 49 H       -9.8720    -8.2970     2.0060 H     1 <1>   0.1500 
 50 H      -12.7980    -7.2870    -0.9280 H     1 <1>   0.1500 
 51 H      -10.2590   -10.6790     1.5670 H     1 <1>   0.1500 
 52 H      -13.1800    -9.6690    -1.3640 H     1 <1>   0.1500 
 53 H      -11.9120   -11.3700    -0.1190 H     1 <1>   0.1500 
@<TRIPOS>BOND
  1   1   2  2   
  2   2   3  1   
  3   2   4  1   
  4   3   5  ar  
  5   3   6  ar  
  6   4  27  1   
  7   4  28  1   
  8   4  29  1   
  9   5   7  ar  
 10   5   8  1   
 11   6   9  ar  
 12   6  30  1   
 13   7  10  ar  
 14   8  31  1   
 15   8  32  1   
 16   8  33  1   
 17   9  10  ar  
 18  10  11  1   
 19  11  12  1   
 20  11  13  1   
 21  12  14  1   
 22  12  34  1   
 23  12  35  1   
 24  13  15  1   
 25  13  36  1   
 26  13  37  1   
 27  14  16  1   
 28  14  38  1   
 29  14  39  1   
 30  15  16  1   
 31  15  40  1   
 32  15  41  1   
 33  16  17  1   
 34  16  42  1   
 35  17  18  1   
 36  17  19  1   
 37  17  43  1   
 38  18  44  1   
 39  19  20  1   
 40  19  45  1   
 41  19  46  1   
 42  20  21  1   
 43  20  47  1   
 44  20  48  1   
 45  21  22  ar  
 46  21  23  ar  
 47  22  24  ar  
 48  22  49  1   
 49  23  25  ar  
 50  23  50  1   
 51  24  26  ar  
 52  24  51  1   
 53  25  26  ar  
 54  25  52  1   
 55  26  53  1   
@<TRIPOS>SUBSTRUCTURE
  1 ****  14 GROUP 4 **** **** 0

# MOE 2024.06 (io_trps.svl 2023.06)
