@<TRIPOS>MOLECULE
NONAME
55 58 1 0 0 
SMALL
USER_CHARGES


@<TRIPOS>ATOM
  1 O       -0.0530     1.0370    -0.9340 O.2   1 <1>  -0.5700 
  2 C       -0.7280     1.8100    -0.2800 C.2   1 <1>   0.6900 
  3 N       -2.0860     1.6420    -0.1930 N.am  1 <1>  -0.6600 
  4 N       -0.1570     2.8460     0.3850 N.am  1 <1>  -0.7300 
  5 C       -3.0320     2.7460     0.1540 C.3   1 <1>   0.1400 
  6 C       -2.7290     0.4030    -0.7340 C.3   1 <1>   0.1400 
  7 C        1.2450     3.2670     0.4230 C.3   1 <1>   0.3000 
  8 C       -3.8320     3.1910    -1.0910 C.3   1 <1>   0.1430 
  9 C       -4.1780     0.6520    -1.1900 C.3   1 <1>  -0.1600 
 10 C        1.2930     4.5270     1.2860 C.3   1 <1>  -0.2400 
 11 C        2.0980     2.1730     1.0670 C.3   1 <1>  -0.2400 
 12 C        1.7300     3.6000    -0.9890 C.3   1 <1>  -0.2400 
 13 C       -4.9950     4.0350    -0.5980 C.ar  1 <1>   0.1670 
 14 C       -4.2910     1.9820    -1.9530 C.3   1 <1>  -0.1600 
 15 C       -3.0280     4.2120    -1.9390 C.3   1 <1>  -0.1600 
 16 N       -6.0770     3.5750    -0.0170 N.ar  1 <1>  -0.6200 
 17 C       -4.7790     5.3620    -0.8100 C.ar  1 <1>  -0.1440 
 18 C       -3.4490     5.6160    -1.4730 C.3   1 <1>  -0.0170 
 19 C       -6.9830     4.4910     0.3490 C.ar  1 <1>   0.6200 
 20 C       -5.7500     6.2390    -0.4040 C.ar  1 <1>   0.1600 
 21 N       -6.8510     5.8150     0.1740 N.ar  1 <1>  -0.6200 
 22 C       -8.2020     4.0120     0.9880 C.ar  1 <1>   0.0000 
 23 C       -8.9390     4.8150     1.8640 C.ar  1 <1>  -0.1500 
 24 C       -8.6930     2.7230     0.7570 C.ar  1 <1>  -0.1500 
 25 C      -10.0950     4.3620     2.4720 C.ar  1 <1>  -0.1500 
 26 C       -9.8480     2.2620     1.3620 C.ar  1 <1>  -0.1500 
 27 C      -10.5530     3.0820     2.2230 C.ar  1 <1>  -0.1500 
 28 H       -0.7150     3.2340     1.1350 H     1 <1>   0.3700 
 29 H       -2.5200     3.5920     0.5730 H     1 <1>   0.0800 
 30 H       -3.7130     2.3820     0.9040 H     1 <1>   0.0800 
 31 H       -2.7080    -0.3640     0.0200 H     1 <1>   0.0800 
 32 H       -2.1610     0.0510    -1.5790 H     1 <1>   0.0800 
 33 H       -4.8310     0.6650    -0.3340 H     1 <1>   0.0800 
 34 H       -4.4930    -0.1610    -1.8210 H     1 <1>   0.0800 
 35 H        0.9530     4.3170     2.2840 H     1 <1>   0.0800 
 36 H        0.6820     5.3010     0.8570 H     1 <1>   0.0800 
 37 H        2.3020     4.8920     1.3480 H     1 <1>   0.0800 
 38 H        1.7210     1.9240     2.0410 H     1 <1>   0.0800 
 39 H        3.1150     2.5060     1.1670 H     1 <1>   0.0800 
 40 H        2.0990     1.2880     0.4570 H     1 <1>   0.0800 
 41 H        1.0870     4.3300    -1.4450 H     1 <1>   0.0800 
 42 H        1.7460     2.7170    -1.6020 H     1 <1>   0.0800 
 43 H        2.7290     3.9950    -0.9550 H     1 <1>   0.0800 
 44 H       -3.6670     1.9010    -2.8260 H     1 <1>   0.0800 
 45 H       -5.3020     2.1290    -2.2900 H     1 <1>   0.0800 
 46 H       -3.3030     4.1180    -2.9740 H     1 <1>   0.0800 
 47 H       -1.9650     4.0610    -1.8590 H     1 <1>   0.0800 
 48 H       -3.5390     6.2970    -2.3020 H     1 <1>   0.0800 
 49 H       -2.7500     6.0050    -0.7530 H     1 <1>   0.0800 
 50 H       -5.6260     7.2980    -0.5530 H     1 <1>   0.1500 
 51 H       -8.6000     5.8150     2.0720 H     1 <1>   0.1500 
 52 H       -8.1600     2.0690     0.0890 H     1 <1>   0.1500 
 53 H      -10.6400     5.0070     3.1400 H     1 <1>   0.1500 
 54 H      -10.1980     1.2640     1.1620 H     1 <1>   0.1500 
 55 H      -11.4530     2.7260     2.6950 H     1 <1>   0.1500 
@<TRIPOS>BOND
  1   1   2  2   
  2   2   3  am  
  3   2   4  am  
  4   3   5  1   
  5   3   6  1   
  6   4   7  1   
  7   4  28  1   
  8   5   8  1   
  9   5  29  1   
 10   5  30  1   
 11   6   9  1   
 12   6  31  1   
 13   6  32  1   
 14   7  10  1   
 15   7  11  1   
 16   7  12  1   
 17   8  13  1   
 18   8  14  1   
 19   8  15  1   
 20   9  14  1   
 21   9  33  1   
 22   9  34  1   
 23  10  35  1   
 24  10  36  1   
 25  10  37  1   
 26  11  38  1   
 27  11  39  1   
 28  11  40  1   
 29  12  41  1   
 30  12  42  1   
 31  12  43  1   
 32  13  16  ar  
 33  13  17  ar  
 34  14  44  1   
 35  14  45  1   
 36  15  18  1   
 37  15  46  1   
 38  15  47  1   
 39  16  19  ar  
 40  17  18  1   
 41  17  20  ar  
 42  18  48  1   
 43  18  49  1   
 44  19  21  ar  
 45  19  22  1   
 46  20  21  ar  
 47  20  50  1   
 48  22  23  ar  
 49  22  24  ar  
 50  23  25  ar  
 51  23  51  1   
 52  24  26  ar  
 53  24  52  1   
 54  25  27  ar  
 55  25  53  1   
 56  26  27  ar  
 57  26  54  1   
 58  27  55  1   
@<TRIPOS>SUBSTRUCTURE
  1 ****   8 GROUP 4 **** **** 0

# MOE 2024.06 (io_trps.svl 2023.06)
