@<TRIPOS>MOLECULE
NONAME
47 49 1 0 0 
SMALL
USER_CHARGES


@<TRIPOS>ATOM
  1 CL       1.4360    -0.7550    -3.5940 Cl    1 <1>  -0.1770 
  2 C        2.1360    -1.3600    -2.1160 C.ar  1 <1>   0.1770 
  3 C        2.8430    -0.4950    -1.3060 C.ar  1 <1>  -0.1500 
  4 C        1.9680    -2.6900    -1.7880 C.ar  1 <1>  -0.1500 
  5 C        3.4010    -0.9860    -0.1300 C.ar  1 <1>   0.0830 
  6 C        2.5110    -3.1990    -0.6080 C.ar  1 <1>   0.0860 
  7 O        4.1160    -0.2260     0.7350 O.3   1 <1>  -0.3630 
  8 C        3.2320    -2.3210     0.2000 C.ar  1 <1>  -0.1500 
  9 C        2.3450    -4.5900    -0.2310 C.2   1 <1>   0.5440 
 10 C        4.3860     1.1330     0.4720 C.3   1 <1>   0.0400 
 11 O        3.3150    -5.2370     0.1170 O.2   1 <1>  -0.5700 
 12 N        1.1140    -5.2040    -0.2460 N.am  1 <1>  -0.6600 
 13 C       -0.1920    -4.5080    -0.2970 C.3   1 <1>   0.1400 
 14 C        0.9340    -6.6250     0.1210 C.3   1 <1>   0.1400 
 15 C       -1.1600    -5.4200     0.4680 C.3   1 <1>  -0.0800 
 16 C       -0.5750    -6.8330     0.2860 C.3   1 <1>  -0.0800 
 17 C       -2.6710    -5.2790     0.1050 C.3   1 <1>   0.2800 
 18 C       -1.2070    -7.5400    -0.9240 C.3   1 <1>  -0.1600 
 19 O       -2.8140    -4.8360    -1.1970 O.3   1 <1>  -0.6800 
 20 C       -3.3630    -6.6540     0.1750 C.3   1 <1>  -0.1600 
 21 C       -3.4130    -4.2690     1.0080 C.3   1 <1>  -0.1600 
 22 C       -2.7260    -7.7150    -0.7490 C.3   1 <1>  -0.1600 
 23 C       -2.8800    -2.8260     0.9710 C.3   1 <1>  -0.2400 
 24 H        2.9440     0.5300    -1.6050 H     1 <1>   0.1500 
 25 H        1.4190    -3.3360    -2.4480 H     1 <1>   0.1500 
 26 H        3.6750    -2.6930     1.1070 H     1 <1>   0.1500 
 27 H        4.9770     1.5190     1.2830 H     1 <1>   0.0800 
 28 H        3.4550     1.6690     0.4120 H     1 <1>   0.0800 
 29 H        4.9360     1.2090    -0.4490 H     1 <1>   0.0800 
 30 H       -0.1320    -3.5330     0.1510 H     1 <1>   0.0800 
 31 H       -0.4750    -4.4120    -1.3300 H     1 <1>   0.0800 
 32 H        1.3500    -7.2610    -0.6400 H     1 <1>   0.0800 
 33 H        1.4410    -6.8130     1.0520 H     1 <1>   0.0800 
 34 H       -1.0490    -5.1880     1.5120 H     1 <1>   0.0800 
 35 H       -0.7540    -7.4330     1.1610 H     1 <1>   0.0800 
 36 H       -1.0230    -6.9460    -1.8040 H     1 <1>   0.0800 
 37 H       -0.7480    -8.5010    -1.0800 H     1 <1>   0.0800 
 38 H       -3.7580    -4.8370    -1.4350 H     1 <1>   0.4000 
 39 H       -3.2930    -7.0060     1.1890 H     1 <1>   0.0800 
 40 H       -4.4120    -6.5620    -0.0480 H     1 <1>   0.0800 
 41 H       -4.4530    -4.2560     0.7330 H     1 <1>   0.0800 
 42 H       -3.3670    -4.6180     2.0240 H     1 <1>   0.0800 
 43 H       -2.9320    -8.6910    -0.3440 H     1 <1>   0.0800 
 44 H       -3.1860    -7.6670    -1.7210 H     1 <1>   0.0800 
 45 H       -2.8540    -2.4530    -0.0380 H     1 <1>   0.0800 
 46 H       -1.8910    -2.7710     1.3880 H     1 <1>   0.0800 
 47 H       -3.5210    -2.1860     1.5510 H     1 <1>   0.0800 
@<TRIPOS>BOND
  1   1   2  1   
  2   2   3  ar  
  3   2   4  ar  
  4   3   5  ar  
  5   3  24  1   
  6   4   6  ar  
  7   4  25  1   
  8   5   7  1   
  9   5   8  ar  
 10   6   8  ar  
 11   6   9  1   
 12   7  10  1   
 13   8  26  1   
 14   9  11  2   
 15   9  12  am  
 16  10  27  1   
 17  10  28  1   
 18  10  29  1   
 19  12  13  1   
 20  12  14  1   
 21  13  15  1   
 22  13  30  1   
 23  13  31  1   
 24  14  16  1   
 25  14  32  1   
 26  14  33  1   
 27  15  16  1   
 28  15  17  1   
 29  15  34  1   
 30  16  18  1   
 31  16  35  1   
 32  17  19  1   
 33  17  20  1   
 34  17  21  1   
 35  18  22  1   
 36  18  36  1   
 37  18  37  1   
 38  19  38  1   
 39  20  22  1   
 40  20  39  1   
 41  20  40  1   
 42  21  23  1   
 43  21  41  1   
 44  21  42  1   
 45  22  43  1   
 46  22  44  1   
 47  23  45  1   
 48  23  46  1   
 49  23  47  1   
@<TRIPOS>SUBSTRUCTURE
  1 ****  13 GROUP 4 **** **** 0

# MOE 2024.06 (io_trps.svl 2023.06)
