@<TRIPOS>MOLECULE
NONAME
45 46 1 0 0 
SMALL
USER_CHARGES


@<TRIPOS>ATOM
  1 CL      -4.5610     0.3030    -2.4670 Cl    1 <1>  -0.1770 
  2 C       -3.7200     0.8510    -1.0360 C.ar  1 <1>   0.1770 
  3 C       -3.8450     0.1620     0.1640 C.ar  1 <1>  -0.1440 
  4 C       -2.9340     1.9840    -1.1390 C.ar  1 <1>  -0.1500 
  5 C       -3.1530     0.6310     1.2710 C.ar  1 <1>  -0.1500 
  6 C       -4.7040    -1.0930     0.2840 C.3   1 <1>   0.0890 
  7 C       -2.2530     2.4440    -0.0250 C.ar  1 <1>  -0.1500 
  8 C       -2.3640     1.7660     1.1770 C.ar  1 <1>  -0.1500 
  9 S       -3.7570    -2.6180     0.1870 S.o2  1 <1>   1.3330 
 10 O       -2.9730    -2.7880     1.3860 O.2   1 <1>  -0.6500 
 11 O       -3.1420    -2.7580    -1.1130 O.2   1 <1>  -0.6500 
 12 N       -4.9270    -3.8140     0.3160 N.am  1 <1>  -0.9140 
 13 C       -4.6560    -5.0010    -0.4940 C.3   1 <1>   0.2760 
 14 C       -5.8310    -5.9670    -0.4060 C.3   1 <1>  -0.0800 
 15 C       -3.5680    -5.8460     0.1640 C.3   1 <1>   0.1200 
 16 C       -5.5360    -6.7680     0.8710 C.3   1 <1>   0.1200 
 17 C       -7.2280    -5.3140    -0.4380 C.3   1 <1>  -0.0550 
 18 O       -4.2170    -6.4740     1.2260 O.3   1 <1>  -0.5600 
 19 S       -8.5570    -6.5130    -0.5100 S.o2  1 <1>   1.3330 
 20 O       -8.4000    -7.2620    -1.7360 O.2   1 <1>  -0.6500 
 21 O       -8.6280    -7.2140     0.7530 O.2   1 <1>  -0.6500 
 22 N       -9.9420    -5.5410    -0.6480 N.am  1 <1>  -0.8490 
 23 C      -11.0270    -6.2210    -1.3630 C.3   1 <1>   0.1160 
 24 C      -10.4330    -5.0410     0.6410 C.3   1 <1>   0.1160 
 25 H       -2.8560     2.4960    -2.0810 H     1 <1>   0.1500 
 26 H       -3.2150     0.1140     2.2150 H     1 <1>   0.1500 
 27 H       -5.4540    -1.0980    -0.4810 H     1 <1>   0.0800 
 28 H       -5.2180    -1.0640     1.2240 H     1 <1>   0.0800 
 29 H       -1.6370     3.3250    -0.0940 H     1 <1>   0.1500 
 30 H       -1.8300     2.1200     2.0430 H     1 <1>   0.1500 
 31 H       -4.8000    -4.1540     1.2760 H     1 <1>   0.4200 
 32 H       -4.4320    -4.7450    -1.5170 H     1 <1>   0.0800 
 33 H       -5.7580    -6.6480    -1.2370 H     1 <1>   0.0800 
 34 H       -2.7330    -5.2750     0.5310 H     1 <1>   0.0800 
 35 H       -3.2150    -6.6080    -0.5100 H     1 <1>   0.0800 
 36 H       -5.6240    -7.8290     0.7060 H     1 <1>   0.0800 
 37 H       -6.1680    -6.4760     1.6920 H     1 <1>   0.0800 
 38 H       -7.2890    -4.6830    -1.3030 H     1 <1>   0.0800 
 39 H       -7.3570    -4.6960     0.4280 H     1 <1>   0.0800 
 40 H      -11.8830    -5.5730    -1.4470 H     1 <1>   0.0800 
 41 H      -11.3120    -7.1210    -0.8440 H     1 <1>   0.0800 
 42 H      -10.7060    -6.4830    -2.3580 H     1 <1>   0.0800 
 43 H      -11.2540    -4.3620     0.4850 H     1 <1>   0.0800 
 44 H       -9.6500    -4.5140     1.1590 H     1 <1>   0.0800 
 45 H      -10.7670    -5.8580     1.2600 H     1 <1>   0.0800 
@<TRIPOS>BOND
  1   1   2  1   
  2   2   3  ar  
  3   2   4  ar  
  4   3   5  ar  
  5   3   6  1   
  6   4   7  ar  
  7   4  25  1   
  8   5   8  ar  
  9   5  26  1   
 10   6   9  1   
 11   6  27  1   
 12   6  28  1   
 13   7   8  ar  
 14   7  29  1   
 15   8  30  1   
 16   9  10  2   
 17   9  11  2   
 18   9  12  am  
 19  12  13  1   
 20  12  31  1   
 21  13  14  1   
 22  13  15  1   
 23  13  32  1   
 24  14  16  1   
 25  14  17  1   
 26  14  33  1   
 27  15  18  1   
 28  15  34  1   
 29  15  35  1   
 30  16  18  1   
 31  16  36  1   
 32  16  37  1   
 33  17  19  1   
 34  17  38  1   
 35  17  39  1   
 36  19  20  2   
 37  19  21  2   
 38  19  22  am  
 39  22  23  1   
 40  22  24  1   
 41  23  40  1   
 42  23  41  1   
 43  23  42  1   
 44  24  43  1   
 45  24  44  1   
 46  24  45  1   
@<TRIPOS>SUBSTRUCTURE
  1 ****  12 GROUP 4 **** **** 0

# MOE 2024.06 (io_trps.svl 2023.06)
