@<TRIPOS>MOLECULE
NONAME
51 53 1 0 0 
SMALL
USER_CHARGES


@<TRIPOS>ATOM
  1 O        1.5280    -0.9250     2.1070 O.2   1 <1>  -0.5700 
  2 C        1.3010    -1.7340     1.2220 C.2   1 <1>   0.5440 
  3 N        0.6580    -1.2460     0.0930 N.am  1 <1>  -0.6600 
  4 C        1.7100    -3.1320     1.4200 C.ar  1 <1>   0.3960 
  5 C        0.3920    -1.9750    -1.1700 C.3   1 <1>   0.1400 
  6 C        0.1550     0.1440     0.0060 C.3   1 <1>   0.1400 
  7 N        1.2740    -4.1030     0.6010 N.ar  1 <1>  -0.6200 
  8 C        2.5500    -3.4340     2.5010 C.ar  1 <1>   0.1600 
  9 C       -0.1250    -0.9190    -2.1390 C.3   1 <1>  -0.1600 
 10 C       -0.7140     0.1680    -1.2460 C.3   1 <1>  -0.1600 
 11 C        1.6780    -5.3090     0.9260 C.ar  1 <1>   0.4100 
 12 N        2.9880    -4.6440     2.8320 N.ar  1 <1>  -0.6200 
 13 N        1.2040    -6.2860     0.0940 N.pl3 1 <1>  -0.8690 
 14 C        2.5280    -5.5650     2.0110 C.ar  1 <1>   0.1600 
 15 C        0.0030    -7.0880     0.4170 C.3   1 <1>   0.4330 
 16 C       -1.1140    -6.6110    -0.5090 C.ar  1 <1>  -0.1430 
 17 C       -0.3900    -7.0440     1.9080 C.3   1 <1>  -0.1600 
 18 C       -1.6660    -5.3440    -0.3780 C.ar  1 <1>  -0.1500 
 19 C       -1.5870    -7.4410    -1.5130 C.ar  1 <1>  -0.1500 
 20 C       -1.6180    -7.9110     2.2260 C.3   1 <1>  -0.2400 
 21 C       -2.6710    -4.9030    -1.2250 C.ar  1 <1>  -0.1430 
 22 C       -2.5910    -7.0100    -2.3620 C.ar  1 <1>  -0.1500 
 23 C       -3.1380    -5.7440    -2.2280 C.ar  1 <1>  -0.1430 
 24 C       -3.2340    -3.5020    -1.0310 C.3   1 <1>  -0.0970 
 25 C       -4.2400    -5.3080    -3.1830 C.3   1 <1>  -0.0970 
 26 H       -0.3630    -2.7230    -0.9970 H     1 <1>   0.0800 
 27 H        1.2870    -2.4450    -1.5420 H     1 <1>   0.0800 
 28 H        0.9930     0.8120    -0.0990 H     1 <1>   0.0800 
 29 H       -0.4070     0.4060     0.8870 H     1 <1>   0.0800 
 30 H        2.8770    -2.6250     3.1300 H     1 <1>   0.1500 
 31 H       -0.8480    -1.3270    -2.8240 H     1 <1>   0.0800 
 32 H        0.7040    -0.5240    -2.6990 H     1 <1>   0.0800 
 33 H       -0.7090     1.1350    -1.7160 H     1 <1>   0.0800 
 34 H       -1.7230    -0.0870    -0.9750 H     1 <1>   0.0800 
 35 H        0.9950    -5.8580    -0.8120 H     1 <1>   0.4000 
 36 H        2.8230    -6.5840     2.1790 H     1 <1>   0.1500 
 37 H        0.2300    -8.1120     0.1750 H     1 <1>   0.0800 
 38 H       -0.6020    -6.0320     2.2030 H     1 <1>   0.0800 
 39 H        0.4350    -7.4050     2.4950 H     1 <1>   0.0800 
 40 H       -1.3060    -4.6910     0.3960 H     1 <1>   0.1500 
 41 H       -1.1790    -8.4270    -1.6430 H     1 <1>   0.1500 
 42 H       -2.4850    -7.5510     1.6980 H     1 <1>   0.0800 
 43 H       -1.8290    -7.8770     3.2810 H     1 <1>   0.0800 
 44 H       -1.4430    -8.9350     1.9450 H     1 <1>   0.0800 
 45 H       -2.9430    -7.6720    -3.1330 H     1 <1>   0.1500 
 46 H       -2.7590    -3.0040    -0.2040 H     1 <1>   0.0800 
 47 H       -4.2890    -3.5550    -0.8290 H     1 <1>   0.0800 
 48 H       -3.0730    -2.9140    -1.9160 H     1 <1>   0.0800 
 49 H       -3.9340    -4.4320    -3.7240 H     1 <1>   0.0800 
 50 H       -5.1370    -5.0870    -2.6330 H     1 <1>   0.0800 
 51 H       -4.4630    -6.0830    -3.8940 H     1 <1>   0.0800 
@<TRIPOS>BOND
  1   1   2  2   
  2   2   3  am  
  3   2   4  1   
  4   3   5  1   
  5   3   6  1   
  6   4   7  ar  
  7   4   8  ar  
  8   5   9  1   
  9   5  26  1   
 10   5  27  1   
 11   6  10  1   
 12   6  28  1   
 13   6  29  1   
 14   7  11  ar  
 15   8  12  ar  
 16   8  30  1   
 17   9  10  1   
 18   9  31  1   
 19   9  32  1   
 20  10  33  1   
 21  10  34  1   
 22  11  13  1   
 23  11  14  ar  
 24  12  14  ar  
 25  13  15  1   
 26  13  35  1   
 27  14  36  1   
 28  15  16  1   
 29  15  17  1   
 30  15  37  1   
 31  16  18  ar  
 32  16  19  ar  
 33  17  20  1   
 34  17  38  1   
 35  17  39  1   
 36  18  21  ar  
 37  18  40  1   
 38  19  22  ar  
 39  19  41  1   
 40  20  42  1   
 41  20  43  1   
 42  20  44  1   
 43  21  23  ar  
 44  21  24  1   
 45  22  23  ar  
 46  22  45  1   
 47  23  25  1   
 48  24  46  1   
 49  24  47  1   
 50  24  48  1   
 51  25  49  1   
 52  25  50  1   
 53  25  51  1   
@<TRIPOS>SUBSTRUCTURE
  1 ****   7 GROUP 4 **** **** 0

# MOE 2024.06 (io_trps.svl 2023.06)
