@<TRIPOS>MOLECULE
NONAME
44 46 1 0 0 
SMALL
USER_CHARGES


@<TRIPOS>ATOM
  1 S        0.7160     0.8810    -1.5880 S.o2  1 <1>   1.3330 
  2 O        0.1380     2.0730    -2.1640 O.2   1 <1>  -0.6500 
  3 O        0.8210    -0.3220    -2.3840 O.2   1 <1>  -0.6500 
  4 N       -0.1870     0.5060    -0.1980 N.am  1 <1>  -0.8490 
  5 C        2.3480     1.2610    -0.9470 C.3   1 <1>  -0.0550 
  6 C       -0.6770     1.6920     0.5120 C.3   1 <1>   0.1160 
  7 C       -1.3090    -0.3900    -0.4960 C.3   1 <1>   0.1160 
  8 C        3.1030     0.0430    -0.3700 C.3   1 <1>  -0.0800 
  9 C        4.5450     0.3140     0.0270 C.3   1 <1>   0.2890 
 10 C        2.5050    -0.5480     0.9130 C.3   1 <1>   0.1200 
 11 N        4.6570     1.6080     0.7390 N.pl3 1 <1>  -0.8530 
 12 C        4.7800    -0.8200     1.0160 C.3   1 <1>   0.1200 
 13 O        3.5780    -0.9570     1.7120 O.3   1 <1>  -0.5600 
 14 C        5.1240     2.7600     0.1800 C.2   1 <1>   0.4620 
 15 S        5.2550     4.1660     1.1690 S.3   1 <1>  -0.0800 
 16 N        5.4850     2.9770    -1.0340 N.2   1 <1>  -0.3380 
 17 C        5.8360     5.0300    -0.2300 C.2   1 <1>   0.3250 
 18 N        5.8840     4.2560    -1.2590 N.2   1 <1>  -0.3380 
 19 C        6.1840     6.4290    -0.1290 C.ar  1 <1>   0.0530 
 20 C        6.6280     7.1190    -1.2600 C.ar  1 <1>  -0.1500 
 21 C        6.1020     7.1590     1.0630 C.ar  1 <1>  -0.1500 
 22 C        6.9700     8.4580    -1.2120 C.ar  1 <1>  -0.1500 
 23 C        6.4420     8.4980     1.1180 C.ar  1 <1>  -0.1500 
 24 C        6.8770     9.1520    -0.0200 C.ar  1 <1>  -0.1500 
 25 H        2.9360     1.6650    -1.7490 H     1 <1>   0.0800 
 26 H        2.2650     2.0260    -0.2010 H     1 <1>   0.0800 
 27 H       -1.1640     1.4000     1.4270 H     1 <1>   0.0800 
 28 H       -1.3790     2.2360    -0.1000 H     1 <1>   0.0800 
 29 H        0.1430     2.3450     0.7580 H     1 <1>   0.0800 
 30 H       -1.8550    -0.6170     0.4040 H     1 <1>   0.0800 
 31 H       -0.9440    -1.3150    -0.9100 H     1 <1>   0.0800 
 32 H       -1.9740     0.0690    -1.2090 H     1 <1>   0.0800 
 33 H        3.1080    -0.7360    -1.1130 H     1 <1>   0.0800 
 34 H        5.2240     0.2770    -0.8090 H     1 <1>   0.0800 
 35 H        1.8740    -1.3960     0.7080 H     1 <1>   0.0800 
 36 H        1.9520     0.1890     1.4700 H     1 <1>   0.0800 
 37 H        4.3950     1.5720     1.7290 H     1 <1>   0.4000 
 38 H        5.5800    -0.6140     1.7050 H     1 <1>   0.0800 
 39 H        4.9680    -1.7450     0.4990 H     1 <1>   0.0800 
 40 H        6.7070     6.5960    -2.1980 H     1 <1>   0.1500 
 41 H        5.7700     6.6870     1.9690 H     1 <1>   0.1500 
 42 H        7.3080     8.9600    -2.1010 H     1 <1>   0.1500 
 43 H        6.3700     9.0350     2.0480 H     1 <1>   0.1500 
 44 H        7.1420    10.1940     0.0220 H     1 <1>   0.1500 
@<TRIPOS>BOND
  1   1   2  2   
  2   1   3  2   
  3   1   4  am  
  4   1   5  1   
  5   4   6  1   
  6   4   7  1   
  7   5   8  1   
  8   5  25  1   
  9   5  26  1   
 10   6  27  1   
 11   6  28  1   
 12   6  29  1   
 13   7  30  1   
 14   7  31  1   
 15   7  32  1   
 16   8   9  1   
 17   8  10  1   
 18   8  33  1   
 19   9  11  1   
 20   9  12  1   
 21   9  34  1   
 22  10  13  1   
 23  10  35  1   
 24  10  36  1   
 25  11  14  1   
 26  11  37  1   
 27  12  13  1   
 28  12  38  1   
 29  12  39  1   
 30  14  15  1   
 31  14  16  2   
 32  15  17  1   
 33  16  18  1   
 34  17  18  2   
 35  17  19  1   
 36  19  20  ar  
 37  19  21  ar  
 38  20  22  ar  
 39  20  40  1   
 40  21  23  ar  
 41  21  41  1   
 42  22  24  ar  
 43  22  42  1   
 44  23  24  ar  
 45  23  43  1   
 46  24  44  1   
@<TRIPOS>SUBSTRUCTURE
  1 ****  14 GROUP 4 **** **** 0

# MOE 2024.06 (io_trps.svl 2023.06)
