@<TRIPOS>MOLECULE
NONAME
52 56 1 0 0 
SMALL
USER_CHARGES


@<TRIPOS>ATOM
  1 S        0.6500     0.0590    -0.4430 S.3   1 <1>  -0.0800 
  2 C        0.4000     1.7670    -0.1540 C.2   1 <1>  -0.1400 
  3 C        2.3850     0.3130    -0.5590 C.2   1 <1>  -0.1100 
  4 C        1.5520     2.4510    -0.1650 C.2   1 <1>  -0.1810 
  5 C       -0.9630     2.3580     0.0840 C.3   1 <1>   0.0200 
  6 C        2.6960     1.6130    -0.3900 C.2   1 <1>  -0.1500 
  7 C        1.5660     3.9660     0.0490 C.3   1 <1>   0.4610 
  8 C       -0.7540     3.7380     0.7270 C.3   1 <1>   0.1200 
  9 O        0.2420     4.4680     0.0500 O.3   1 <1>  -0.5600 
 10 C        2.2730     4.6650    -1.1170 C.3   1 <1>  -0.1600 
 11 C        2.2470     4.3370     1.3730 C.3   1 <1>  -0.1600 
 12 C        2.3370     6.1800    -0.9120 C.3   1 <1>   0.1400 
 13 C        2.3140     5.8520     1.5650 C.3   1 <1>   0.1400 
 14 N        2.9980     6.4770     0.3930 N.am  1 <1>  -0.6600 
 15 C        4.0750     7.3210     0.5510 C.2   1 <1>   0.5440 
 16 O        4.6460     7.3610     1.6240 O.2   1 <1>  -0.5700 
 17 C        4.5720     8.1530    -0.5240 C.ar  1 <1>   0.0860 
 18 C        5.8950     8.0310    -0.9820 C.ar  1 <1>   0.0170 
 19 C        3.7440     9.1060    -1.1140 C.ar  1 <1>  -0.1500 
 20 C        6.8020     7.0710    -0.4050 C.cat 1 <1>   0.7830 
 21 C        6.3300     8.8570    -2.0200 C.ar  1 <1>  -0.1500 
 22 C        4.1900     9.9140    -2.1400 C.ar  1 <1>  -0.1500 
 23 N        7.0530     5.8660    -0.9170 N.pl3 1 <1>  -0.7000 
 24 N        7.5500     7.2220     0.6970 N.pl3 1 <1>  -0.7640 
 25 C        5.4890     9.7880    -2.5960 C.ar  1 <1>  -0.1500 
 26 C        7.9570     5.2250    -0.1140 C.2   1 <1>   0.2000 
 27 C        8.2640     6.0670     0.8920 C.2   1 <1>   0.2000 
 28 C        7.5220     8.3700     1.6450 C.3   1 <1>   0.2740 
 29 H        2.9950    -0.5530    -0.7430 H     1 <1>   0.1500 
 30 H       -1.5360     1.7310     0.7430 H     1 <1>   0.0800 
 31 H       -1.4890     2.4550    -0.8490 H     1 <1>   0.0800 
 32 H        3.6910     2.0170    -0.4140 H     1 <1>   0.1500 
 33 H       -0.4590     3.6310     1.7560 H     1 <1>   0.0800 
 34 H       -1.6650     4.3080     0.6870 H     1 <1>   0.0800 
 35 H        1.7480     4.4410    -2.0270 H     1 <1>   0.0800 
 36 H        3.2720     4.2860    -1.2150 H     1 <1>   0.0800 
 37 H        3.2470     3.9470     1.3810 H     1 <1>   0.0800 
 38 H        1.7270     3.8840     2.1950 H     1 <1>   0.0800 
 39 H        1.3400     6.5890    -0.9020 H     1 <1>   0.0800 
 40 H        2.8740     6.6240    -1.7310 H     1 <1>   0.0800 
 41 H        2.8330     6.0770     2.4810 H     1 <1>   0.0800 
 42 H        1.3180     6.2550     1.6440 H     1 <1>   0.0800 
 43 H        2.7330     9.2150    -0.7560 H     1 <1>   0.1500 
 44 H        7.3410     8.7760    -2.3830 H     1 <1>   0.1500 
 45 H        3.5320    10.6440    -2.5830 H     1 <1>   0.1500 
 46 H        6.6190     5.4950    -1.7640 H     1 <1>   0.4500 
 47 H        5.8390    10.4200    -3.3960 H     1 <1>   0.1500 
 48 H        8.3200     4.2250    -0.2990 H     1 <1>   0.1500 
 49 H        8.9340     5.9140     1.7240 H     1 <1>   0.1500 
 50 H        6.9210     9.1740     1.2540 H     1 <1>   0.0800 
 51 H        8.5210     8.7340     1.8150 H     1 <1>   0.0800 
 52 H        7.0960     8.0550     2.5830 H     1 <1>   0.0800 
@<TRIPOS>BOND
  1   1   2  1   
  2   1   3  1   
  3   2   4  2   
  4   2   5  1   
  5   3   6  2   
  6   3  29  1   
  7   4   6  1   
  8   4   7  1   
  9   5   8  1   
 10   5  30  1   
 11   5  31  1   
 12   6  32  1   
 13   7   9  1   
 14   7  10  1   
 15   7  11  1   
 16   8   9  1   
 17   8  33  1   
 18   8  34  1   
 19  10  12  1   
 20  10  35  1   
 21  10  36  1   
 22  11  13  1   
 23  11  37  1   
 24  11  38  1   
 25  12  14  1   
 26  12  39  1   
 27  12  40  1   
 28  13  14  1   
 29  13  41  1   
 30  13  42  1   
 31  14  15  am  
 32  15  16  2   
 33  15  17  1   
 34  17  18  ar  
 35  17  19  ar  
 36  18  20  1   
 37  18  21  ar  
 38  19  22  ar  
 39  19  43  1   
 40  20  23  ar  
 41  20  24  ar  
 42  21  25  ar  
 43  21  44  1   
 44  22  25  ar  
 45  22  45  1   
 46  23  26  1   
 47  23  46  1   
 48  24  27  1   
 49  24  28  1   
 50  25  47  1   
 51  26  27  2   
 52  26  48  1   
 53  27  49  1   
 54  28  50  1   
 55  28  51  1   
 56  28  52  1   
@<TRIPOS>SUBSTRUCTURE
  1 ****  14 GROUP 4 **** **** 0

# MOE 2024.06 (io_trps.svl 2023.06)
