@<TRIPOS>MOLECULE
NONAME
58 61 1 0 0 
SMALL
USER_CHARGES


@<TRIPOS>ATOM
  1 F       -1.5780    -0.3620     1.1840 F     1 <1>  -0.1900 
  2 C       -2.2570     0.6020     0.6250 C.ar  1 <1>   0.1900 
  3 C       -1.8930     1.9010     0.8550 C.ar  1 <1>  -0.1500 
  4 C       -3.3340     0.2600    -0.1850 C.ar  1 <1>  -0.1500 
  5 C       -2.5910     2.9620     0.2400 C.ar  1 <1>   0.0000 
  6 C       -4.0730     1.2730    -0.7430 C.ar  1 <1>  -0.1500 
  7 C       -3.7390     2.6200    -0.5120 C.ar  1 <1>   0.3610 
  8 C       -2.2400     4.3460     0.3860 C.ar  1 <1>   0.1000 
  9 N       -4.5560     3.6230    -0.9800 N.ar  1 <1>  -0.1790 
 10 N       -1.0560     4.7750     0.9050 N.pl3 1 <1>  -0.8380 
 11 C       -3.1700     5.2850    -0.0720 C.ar  1 <1>  -0.1500 
 12 C       -4.3070     4.9220    -0.7460 C.ar  1 <1>   0.2180 
 13 C        0.2540     4.1270     0.6250 C.3   1 <1>   0.2090 
 14 C       -0.9430     5.9510     1.8090 C.3   1 <1>   0.2090 
 15 C       -5.3000     5.9530    -1.2590 C.3   1 <1>  -0.0970 
 16 C        1.1820     5.1460    -0.0340 C.3   1 <1>  -0.1600 
 17 C       -0.0480     7.0010     1.1560 C.3   1 <1>  -0.1600 
 18 C        1.3340     6.4180     0.8170 C.3   1 <1>   0.4230 
 19 N        2.1640     7.4350     0.0890 N.4   1 <1>  -0.9590 
 20 C        3.5300     6.9170    -0.2970 C.3   1 <1>   0.3430 
 21 C        2.3370     8.7220     0.8610 C.3   1 <1>   0.3430 
 22 C        4.3680     7.9710    -1.0480 C.3   1 <1>   0.1100 
 23 C        3.1920     9.7570     0.1020 C.3   1 <1>   0.1100 
 24 N        4.5150     9.2070    -0.2590 N.3   1 <1>  -0.8100 
 25 C        5.3500    10.1920    -0.9830 C.3   1 <1>   0.1100 
 26 C        5.8750    11.2930    -0.0540 C.3   1 <1>   0.1200 
 27 O        6.6780    12.1560    -0.7830 O.3   1 <1>  -0.6800 
 28 H       -1.0780     2.0970     1.5240 H     1 <1>   0.1500 
 29 H       -3.5660    -0.7810    -0.3420 H     1 <1>   0.1500 
 30 H       -4.9220     1.0220    -1.3550 H     1 <1>   0.1500 
 31 H       -5.3930     3.3500    -1.4980 H     1 <1>   0.4570 
 32 H       -2.9680     6.3280     0.0810 H     1 <1>   0.1500 
 33 H        0.1270     3.2950    -0.0470 H     1 <1>   0.0800 
 34 H        0.6820     3.7620     1.5450 H     1 <1>   0.0800 
 35 H       -0.5180     5.6320     2.7480 H     1 <1>   0.0800 
 36 H       -1.9140     6.3640     2.0230 H     1 <1>   0.0800 
 37 H       -6.2700     5.7910    -0.8220 H     1 <1>   0.0800 
 38 H       -5.3830     5.8970    -2.3300 H     1 <1>   0.0800 
 39 H       -4.9820     6.9490    -1.0010 H     1 <1>   0.0800 
 40 H        0.7800     5.3900    -1.0010 H     1 <1>   0.0800 
 41 H        2.1310     4.6610    -0.1670 H     1 <1>   0.0800 
 42 H        0.0420     7.8120     1.8540 H     1 <1>   0.0800 
 43 H       -0.5330     7.3590     0.2660 H     1 <1>   0.0800 
 44 H        1.8270     6.1530     1.7390 H     1 <1>   0.0800 
 45 H        1.6760     7.6700    -0.7830 H     1 <1>   0.4500 
 46 H        3.4330     6.0510    -0.9310 H     1 <1>   0.0800 
 47 H        4.0700     6.6240     0.5870 H     1 <1>   0.0800 
 48 H        2.8160     8.5170     1.8040 H     1 <1>   0.0800 
 49 H        1.3770     9.1650     1.0660 H     1 <1>   0.0800 
 50 H        3.9120     8.1890    -1.9990 H     1 <1>   0.0800 
 51 H        5.3450     7.5570    -1.2390 H     1 <1>   0.0800 
 52 H        3.3210    10.6160     0.7380 H     1 <1>   0.0800 
 53 H        2.6710    10.0800    -0.7840 H     1 <1>   0.0800 
 54 H        4.7860    10.6360    -1.7860 H     1 <1>   0.0800 
 55 H        6.2030     9.6860    -1.4050 H     1 <1>   0.0800 
 56 H        6.4630    10.8780     0.7470 H     1 <1>   0.0800 
 57 H        5.0680    11.8770     0.3500 H     1 <1>   0.0800 
 58 H        7.5370    11.7430    -0.9970 H     1 <1>   0.4000 
@<TRIPOS>BOND
  1   1   2  1   
  2   2   3  ar  
  3   2   4  ar  
  4   3   5  ar  
  5   3  28  1   
  6   4   6  ar  
  7   4  29  1   
  8   5   7  ar  
  9   5   8  ar  
 10   6   7  ar  
 11   6  30  1   
 12   7   9  ar  
 13   8  10  1   
 14   8  11  ar  
 15   9  12  ar  
 16   9  31  1   
 17  10  13  1   
 18  10  14  1   
 19  11  12  ar  
 20  11  32  1   
 21  12  15  1   
 22  13  16  1   
 23  13  33  1   
 24  13  34  1   
 25  14  17  1   
 26  14  35  1   
 27  14  36  1   
 28  15  37  1   
 29  15  38  1   
 30  15  39  1   
 31  16  18  1   
 32  16  40  1   
 33  16  41  1   
 34  17  18  1   
 35  17  42  1   
 36  17  43  1   
 37  18  19  1   
 38  18  44  1   
 39  19  20  1   
 40  19  21  1   
 41  19  45  1   
 42  20  22  1   
 43  20  46  1   
 44  20  47  1   
 45  21  23  1   
 46  21  48  1   
 47  21  49  1   
 48  22  24  1   
 49  22  50  1   
 50  22  51  1   
 51  23  24  1   
 52  23  52  1   
 53  23  53  1   
 54  24  25  1   
 55  25  26  1   
 56  25  54  1   
 57  25  55  1   
 58  26  27  1   
 59  26  56  1   
 60  26  57  1   
 61  27  58  1   
@<TRIPOS>SUBSTRUCTURE
  1 ****  16 GROUP 4 **** **** 0

# MOE 2024.06 (io_trps.svl 2023.06)
