@<TRIPOS>MOLECULE
NONAME
51 54 1 0 0 
SMALL
USER_CHARGES


@<TRIPOS>ATOM
  1 O       -0.4530     0.1460    -0.1550 O.2   1 <1>  -0.5700 
  2 C       -1.5160     0.7190    -0.1830 C.2   1 <1>   0.5690 
  3 N       -2.6920     0.0310    -0.2940 N.am  1 <1>  -0.6600 
  4 C       -1.5540     2.2390    -0.0920 C.3   1 <1>  -0.0990 
  5 C       -4.0570     0.6100    -0.2920 C.3   1 <1>   0.1400 
  6 C       -2.7500    -1.4480    -0.3710 C.3   1 <1>   0.1400 
  7 C       -0.1600     2.8960    -0.0310 C.3   1 <1>  -0.0650 
  8 C       -5.0020    -0.5920    -0.3700 C.3   1 <1>   0.2000 
  9 C       -4.1750    -1.8050     0.0520 C.3   1 <1>  -0.0800 
 10 C       -0.1310     4.4390     0.0570 C.3   1 <1>  -0.1900 
 11 O       -6.0860    -0.4400     0.4810 O.3   1 <1>  -0.6800 
 12 C       -4.6950    -3.1180    -0.5570 C.3   1 <1>  -0.0170 
 13 C       -1.1580     5.1990     0.8330 C.3   1 <1>  -0.2000 
 14 C       -1.1260     5.2830    -0.6730 C.3   1 <1>  -0.2000 
 15 C        1.3120     4.9510     0.1160 C.3   1 <1>  -0.1450 
 16 C       -3.8410    -4.3010    -0.1340 C.ar  1 <1>   0.1670 
 17 N       -2.8210    -4.5970    -0.8790 N.ar  1 <1>  -0.6200 
 18 C       -4.1840    -5.0040     1.0320 C.ar  1 <1>  -0.1500 
 19 C       -2.0430    -5.6430    -0.5000 C.ar  1 <1>   0.3100 
 20 C       -3.4230    -6.0600     1.4340 C.ar  1 <1>  -0.1500 
 21 C       -2.3060    -6.4090     0.6570 C.ar  1 <1>   0.0000 
 22 C       -0.9280    -5.9790    -1.2840 C.ar  1 <1>  -0.1500 
 23 C       -1.4480    -7.4780     0.9800 C.ar  1 <1>  -0.1500 
 24 C       -0.1040    -7.0220    -0.9520 C.ar  1 <1>  -0.1500 
 25 C       -0.3690    -7.7800     0.1940 C.ar  1 <1>  -0.1500 
 26 H       -2.0790     2.6040    -0.9530 H     1 <1>   0.0800 
 27 H       -2.1080     2.4980     0.7890 H     1 <1>   0.0800 
 28 H       -4.2120     1.1630     0.6180 H     1 <1>   0.0800 
 29 H       -4.1910     1.2500    -1.1460 H     1 <1>   0.0800 
 30 H       -2.5590    -1.7540    -1.3860 H     1 <1>   0.0800 
 31 H       -2.0170    -1.9030     0.2760 H     1 <1>   0.0800 
 32 H        0.3910     2.5950    -0.9050 H     1 <1>   0.0800 
 33 H        0.3600     2.4990     0.8240 H     1 <1>   0.0800 
 34 H       -5.3720    -0.6980    -1.3760 H     1 <1>   0.0800 
 35 H       -4.1730    -1.8860     1.1240 H     1 <1>   0.0800 
 36 H       -5.7830    -0.3810     1.4070 H     1 <1>   0.4000 
 37 H       -4.6910    -3.0510    -1.6310 H     1 <1>   0.0800 
 38 H       -5.7130    -3.2800    -0.2470 H     1 <1>   0.0800 
 39 H       -1.9860     4.6920     1.2960 H     1 <1>   0.1000 
 40 H       -0.8510     6.0600     1.4000 H     1 <1>   0.1000 
 41 H       -0.7960     6.2030    -1.1260 H     1 <1>   0.1000 
 42 H       -1.9310     4.8340    -1.2250 H     1 <1>   0.1000 
 43 H        1.3380     6.0250     0.1760 H     1 <1>   0.0800 
 44 H        1.8500     4.6490    -0.7650 H     1 <1>   0.0800 
 45 H        1.8130     4.5510     0.9800 H     1 <1>   0.0800 
 46 H       -5.0460    -4.7000     1.5960 H     1 <1>   0.1500 
 47 H       -3.6530    -6.6230     2.3200 H     1 <1>   0.1500 
 48 H       -0.7410    -5.3830    -2.1580 H     1 <1>   0.1500 
 49 H       -1.6560    -8.0560     1.8630 H     1 <1>   0.1500 
 50 H        0.7480    -7.2680    -1.5620 H     1 <1>   0.1500 
 51 H        0.2860    -8.5970     0.4430 H     1 <1>   0.1500 
@<TRIPOS>BOND
  1   1   2  2   
  2   2   3  am  
  3   2   4  1   
  4   3   5  1   
  5   3   6  1   
  6   4   7  1   
  7   4  26  1   
  8   4  27  1   
  9   5   8  1   
 10   5  28  1   
 11   5  29  1   
 12   6   9  1   
 13   6  30  1   
 14   6  31  1   
 15   7  10  1   
 16   7  32  1   
 17   7  33  1   
 18   8   9  1   
 19   8  11  1   
 20   8  34  1   
 21   9  12  1   
 22   9  35  1   
 23  10  13  1   
 24  10  14  1   
 25  10  15  1   
 26  11  36  1   
 27  12  16  1   
 28  12  37  1   
 29  12  38  1   
 30  13  14  1   
 31  13  39  1   
 32  13  40  1   
 33  14  41  1   
 34  14  42  1   
 35  15  43  1   
 36  15  44  1   
 37  15  45  1   
 38  16  17  ar  
 39  16  18  ar  
 40  17  19  ar  
 41  18  20  ar  
 42  18  46  1   
 43  19  21  ar  
 44  19  22  ar  
 45  20  21  ar  
 46  20  47  1   
 47  21  23  ar  
 48  22  24  ar  
 49  22  48  1   
 50  23  25  ar  
 51  23  49  1   
 52  24  25  ar  
 53  24  50  1   
 54  25  51  1   
@<TRIPOS>SUBSTRUCTURE
  1 ****   6 GROUP 4 **** **** 0

# MOE 2024.06 (io_trps.svl 2023.06)
