@<TRIPOS>MOLECULE
NONAME
53 57 1 0 0 
SMALL
USER_CHARGES


@<TRIPOS>ATOM
  1 N        0.3800     0.1260     0.4040 N.ar  1 <1>  -0.6200 
  2 C       -0.6110     0.9710     0.7290 C.ar  1 <1>   0.6200 
  3 C        1.2210     0.5670    -0.4960 C.ar  1 <1>   0.1660 
  4 N       -0.7780     2.1970     0.2130 N.ar  1 <1>  -0.6200 
  5 C       -1.5720     0.5240     1.7250 C.ar  1 <1>   0.0000 
  6 C        1.1300     1.7940    -1.0740 C.ar  1 <1>  -0.1430 
  7 C        2.4130    -0.2090    -1.0030 C.3   1 <1>   0.1440 
  8 C        0.0910     2.6000    -0.6860 C.ar  1 <1>   0.1600 
  9 C       -2.1450     1.4140     2.6380 C.ar  1 <1>  -0.1500 
 10 C       -1.9650    -0.8140     1.8150 C.ar  1 <1>  -0.1500 
 11 C        2.2430     2.0300    -2.0630 C.3   1 <1>  -0.0160 
 12 C        3.1700    -0.7750     0.2100 C.3   1 <1>   0.3430 
 13 C        1.9500    -1.3530    -1.9300 C.3   1 <1>  -0.1600 
 14 C        3.2210     0.8760    -1.7660 C.3   1 <1>  -0.1600 
 15 C       -3.0560     0.9920     3.5900 C.ar  1 <1>  -0.1500 
 16 C       -2.8750    -1.2430     2.7640 C.ar  1 <1>  -0.1500 
 17 N        4.2930    -1.6900    -0.2000 N.4   1 <1>  -0.9590 
 18 C        3.0940    -2.3290    -2.2610 C.3   1 <1>  -0.1600 
 19 C       -3.4230    -0.3390     3.6560 C.ar  1 <1>  -0.1500 
 20 C        3.7970    -2.8430    -1.0010 C.3   1 <1>   0.3430 
 21 C        5.0820    -2.1240     0.9780 C.3   1 <1>   0.5240 
 22 C        5.8170    -0.9080     1.4850 C.2   1 <1>  -0.1810 
 23 C        5.4720    -0.1580     2.6030 C.2   1 <1>   0.1390 
 24 C        6.9130    -0.2930     0.9850 C.2   1 <1>  -0.3020 
 25 N        6.2710     0.8460     2.7750 N.2   1 <1>  -0.7070 
 26 N        7.1720     0.7610     1.7850 N.pl3 1 <1>   0.3140 
 27 C        8.2750     1.7240     1.6700 C.3   1 <1>   0.0160 
 28 H       -0.0320     3.5820    -1.1120 H     1 <1>   0.1500 
 29 H       -1.8720     2.4540     2.5990 H     1 <1>   0.1500 
 30 H       -1.5530    -1.5300     1.1260 H     1 <1>   0.1500 
 31 H        2.7050     2.9920    -1.9220 H     1 <1>   0.0800 
 32 H        1.8560     1.9570    -3.0660 H     1 <1>   0.0800 
 33 H        2.4690    -1.3160     0.8240 H     1 <1>   0.0800 
 34 H        3.5510     0.0490     0.7930 H     1 <1>   0.0800 
 35 H        1.5330    -0.9480    -2.8380 H     1 <1>   0.0800 
 36 H        1.1630    -1.9000    -1.4380 H     1 <1>   0.0800 
 37 H        3.6700     0.5090    -2.6720 H     1 <1>   0.0800 
 38 H        4.0010     1.2610    -1.1300 H     1 <1>   0.0800 
 39 H       -3.4810     1.7010     4.2790 H     1 <1>   0.1500 
 40 H       -3.1610    -2.2790     2.8090 H     1 <1>   0.1500 
 41 H        4.9400    -1.1380    -0.7760 H     1 <1>   0.4500 
 42 H        3.8150    -1.8590    -2.9070 H     1 <1>   0.0800 
 43 H        2.6910    -3.1700    -2.8000 H     1 <1>   0.0800 
 44 H       -4.1320    -0.6690     4.3950 H     1 <1>   0.1500 
 45 H        3.1010    -3.4220    -0.4150 H     1 <1>   0.0800 
 46 H        4.6190    -3.4830    -1.2840 H     1 <1>   0.0800 
 47 H        5.7990    -2.8760     0.6910 H     1 <1>   0.0800 
 48 H        4.4390    -2.5270     1.7440 H     1 <1>   0.0800 
 49 H        4.6450    -0.3580     3.2660 H     1 <1>   0.1500 
 50 H        7.5240    -0.5300     0.1320 H     1 <1>   0.1500 
 51 H        8.7390     1.6350     0.7070 H     1 <1>   0.0800 
 52 H        8.9930     1.5230     2.4430 H     1 <1>   0.0800 
 53 H        7.8860     2.7180     1.7960 H     1 <1>   0.0800 
@<TRIPOS>BOND
  1   1   2  ar  
  2   1   3  ar  
  3   2   4  ar  
  4   2   5  1   
  5   3   6  ar  
  6   3   7  1   
  7   4   8  ar  
  8   5   9  ar  
  9   5  10  ar  
 10   6   8  ar  
 11   6  11  1   
 12   7  12  1   
 13   7  13  1   
 14   7  14  1   
 15   8  28  1   
 16   9  15  ar  
 17   9  29  1   
 18  10  16  ar  
 19  10  30  1   
 20  11  14  1   
 21  11  31  1   
 22  11  32  1   
 23  12  17  1   
 24  12  33  1   
 25  12  34  1   
 26  13  18  1   
 27  13  35  1   
 28  13  36  1   
 29  14  37  1   
 30  14  38  1   
 31  15  19  ar  
 32  15  39  1   
 33  16  19  ar  
 34  16  40  1   
 35  17  20  1   
 36  17  21  1   
 37  17  41  1   
 38  18  20  1   
 39  18  42  1   
 40  18  43  1   
 41  19  44  1   
 42  20  45  1   
 43  20  46  1   
 44  21  22  1   
 45  21  47  1   
 46  21  48  1   
 47  22  23  1   
 48  22  24  2   
 49  23  25  2   
 50  23  49  1   
 51  24  26  1   
 52  24  50  1   
 53  25  26  1   
 54  26  27  1   
 55  27  51  1   
 56  27  52  1   
 57  27  53  1   
@<TRIPOS>SUBSTRUCTURE
  1 ****  12 GROUP 4 **** **** 0

# MOE 2024.06 (io_trps.svl 2023.06)
