@<TRIPOS>MOLECULE
NONAME
53 55 1 0 0 
SMALL
USER_CHARGES


@<TRIPOS>ATOM
  1 O        0.5490    -1.5400    -1.8960 O.3   1 <1>  -0.6800 
  2 C        0.1660    -2.0100    -0.6510 C.3   1 <1>   0.1200 
  3 C        1.3280    -1.9810     0.3850 C.3   1 <1>   0.0000 
  4 C        2.6810    -2.5630    -0.1310 C.3   1 <1>   0.4230 
  5 C        1.5480    -0.5180     0.8690 C.3   1 <1>  -0.1600 
  6 C        0.8850    -2.8360     1.6090 C.3   1 <1>  -0.1600 
  7 N        2.5830    -4.0070    -0.6120 N.4   1 <1>  -0.9590 
  8 C        3.4590    -1.6110    -1.0730 C.3   1 <1>   0.2090 
  9 C        2.3020     0.3770    -0.1240 C.3   1 <1>   0.2090 
 10 C        1.4000    -4.2920     1.5750 C.3   1 <1>  -0.1600 
 11 C        1.5910    -4.8290     0.1550 C.3   1 <1>   0.3430 
 12 C        2.3200    -4.1390    -2.0820 C.3   1 <1>   0.2630 
 13 N        3.6080    -0.2650    -0.4380 N.pl3 1 <1>  -0.8380 
 14 C        4.8130     0.2390    -0.0480 C.ar  1 <1>   0.4100 
 15 N        5.7260    -0.6440     0.3580 N.ar  1 <1>  -0.6200 
 16 C        5.0730     1.6030    -0.0710 C.ar  1 <1>  -0.1500 
 17 C        6.8740    -0.1630     0.7510 C.ar  1 <1>   0.7710 
 18 C        6.2930     2.0760     0.3430 C.ar  1 <1>   0.4610 
 19 N        7.1710     1.1500     0.7540 N.ar  1 <1>  -0.1790 
 20 N        7.7870    -1.0440     1.1730 N.pl3 1 <1>  -0.9000 
 21 N        6.6650     3.3940     0.3800 N.pl3 1 <1>  -0.8380 
 22 C        5.6600     4.4950     0.5190 C.3   1 <1>   0.1290 
 23 C        8.0470     3.9010     0.1020 C.3   1 <1>   0.1290 
 24 H       -0.2360    -1.3000    -2.4340 H     1 <1>   0.4000 
 25 H       -0.6500    -1.3970    -0.3050 H     1 <1>   0.0800 
 26 H       -0.2110    -3.0070    -0.7900 H     1 <1>   0.0800 
 27 H        3.3010    -2.5960     0.7500 H     1 <1>   0.0800 
 28 H        2.1260    -0.5150     1.7770 H     1 <1>   0.0800 
 29 H        0.6030    -0.0600     1.1010 H     1 <1>   0.0800 
 30 H        1.2390    -2.4000     2.5290 H     1 <1>   0.0800 
 31 H       -0.1910    -2.8390     1.6820 H     1 <1>   0.0800 
 32 H        3.5090    -4.4160    -0.4290 H     1 <1>   0.4500 
 33 H        2.9530    -1.4870    -2.0120 H     1 <1>   0.0800 
 34 H        4.4290    -2.0280    -1.2790 H     1 <1>   0.0800 
 35 H        2.4500     1.3450     0.3230 H     1 <1>   0.0800 
 36 H        1.7350     0.5140    -1.0300 H     1 <1>   0.0800 
 37 H        0.7040    -4.9230     2.1010 H     1 <1>   0.0800 
 38 H        2.3380    -4.3600     2.0980 H     1 <1>   0.0800 
 39 H        0.6380    -4.8080    -0.3480 H     1 <1>   0.0800 
 40 H        1.9180    -5.8560     0.1930 H     1 <1>   0.0800 
 41 H        1.3660    -3.7080    -2.3350 H     1 <1>   0.0800 
 42 H        2.3130    -5.1780    -2.3700 H     1 <1>   0.0800 
 43 H        3.0840    -3.6350    -2.6520 H     1 <1>   0.0800 
 44 H        4.3270     2.2790    -0.4370 H     1 <1>   0.1500 
 45 H        8.0500     1.4640     1.1310 H     1 <1>   0.4570 
 46 H        8.7340    -0.8590     1.5080 H     1 <1>   0.4000 
 47 H        7.5380    -2.0370     1.1680 H     1 <1>   0.4000 
 48 H        6.0390     5.2600     1.1760 H     1 <1>   0.0800 
 49 H        4.7390     4.1240     0.9360 H     1 <1>   0.0800 
 50 H        5.4580     4.9330    -0.4440 H     1 <1>   0.0800 
 51 H        8.0060     4.6850    -0.6370 H     1 <1>   0.0800 
 52 H        8.6820     3.1210    -0.2820 H     1 <1>   0.0800 
 53 H        8.4810     4.3040     1.0020 H     1 <1>   0.0800 
@<TRIPOS>BOND
  1   1   2  1   
  2   1  24  1   
  3   2   3  1   
  4   2  25  1   
  5   2  26  1   
  6   3   4  1   
  7   3   5  1   
  8   3   6  1   
  9   4   7  1   
 10   4   8  1   
 11   4  27  1   
 12   5   9  1   
 13   5  28  1   
 14   5  29  1   
 15   6  10  1   
 16   6  30  1   
 17   6  31  1   
 18   7  11  1   
 19   7  12  1   
 20   7  32  1   
 21   8  13  1   
 22   8  33  1   
 23   8  34  1   
 24   9  13  1   
 25   9  35  1   
 26   9  36  1   
 27  10  11  1   
 28  10  37  1   
 29  10  38  1   
 30  11  39  1   
 31  11  40  1   
 32  12  41  1   
 33  12  42  1   
 34  12  43  1   
 35  13  14  1   
 36  14  15  ar  
 37  14  16  ar  
 38  15  17  ar  
 39  16  18  ar  
 40  16  44  1   
 41  17  19  ar  
 42  17  20  1   
 43  18  19  ar  
 44  18  21  1   
 45  19  45  1   
 46  20  46  1   
 47  20  47  1   
 48  21  22  1   
 49  21  23  1   
 50  22  48  1   
 51  22  49  1   
 52  22  50  1   
 53  23  51  1   
 54  23  52  1   
 55  23  53  1   
@<TRIPOS>SUBSTRUCTURE
  1 ****  13 GROUP 4 **** **** 0

# MOE 2024.06 (io_trps.svl 2023.06)
