@<TRIPOS>MOLECULE
NONAME
36 37 1 0 0 
SMALL
USER_CHARGES


@<TRIPOS>ATOM
  1 S       -0.3800     0.2500    -1.4160 S.o2  1 <1>   1.4470 
  2 O       -0.1230    -1.0190    -2.0600 O.2   1 <1>  -0.6500 
  3 O       -0.6950     1.3710    -2.2710 O.2   1 <1>  -0.6500 
  4 N       -1.6980     0.0230    -0.3770 N.am  1 <1>  -0.8490 
  5 C        1.0030     0.6880    -0.3000 C.ar  1 <1>  -0.0090 
  6 C       -1.5010    -1.0550     0.6250 C.3   1 <1>   0.1960 
  7 C       -2.9540    -0.0610    -1.1350 C.3   1 <1>   0.1960 
  8 C        1.2010     1.9500     0.2890 C.ar  1 <1>  -0.1440 
  9 C        1.9140    -0.3220     0.0030 C.ar  1 <1>  -0.1500 
 10 C       -2.2750    -2.3230     0.2780 C.3   1 <1>  -0.1860 
 11 C       -4.0960    -0.6040    -0.2740 C.3   1 <1>  -0.1600 
 12 C        2.3040     2.1430     1.1250 C.ar  1 <1>  -0.1500 
 13 C        0.2550     3.1480     0.0440 C.3   1 <1>   1.1640 
 14 C        2.9940    -0.1190     0.8380 C.ar  1 <1>  -0.1500 
 15 C       -1.8560    -3.4400     1.2140 C.2   1 <1>   0.9060 
 16 C       -3.7850    -2.0170     0.2420 C.3   1 <1>   0.2000 
 17 C        3.1920     1.1230     1.3990 C.ar  1 <1>  -0.1500 
 18 F        0.4350     3.6940    -1.1500 F     1 <1>  -0.3400 
 19 F       -1.0300     2.8560     0.1550 F     1 <1>  -0.3400 
 20 F        0.4550     4.1350     0.9110 F     1 <1>  -0.3400 
 21 O       -0.6500    -3.6520     1.3600 O.co2 1 <1>  -0.9000 
 22 O       -2.7140    -4.1000     1.8160 O.co2 1 <1>  -0.9000 
 23 O       -4.3140    -2.1050     1.5100 O.3   1 <1>  -0.6800 
 24 H       -0.4570    -1.2890     0.7360 H     1 <1>   0.0800 
 25 H       -1.8480    -0.7020     1.5820 H     1 <1>   0.0800 
 26 H       -3.2080     0.9190    -1.5020 H     1 <1>   0.0800 
 27 H       -2.8220    -0.7110    -1.9860 H     1 <1>   0.0800 
 28 H        1.7750    -1.3060    -0.4180 H     1 <1>   0.1500 
 29 H       -1.9620    -2.6390    -0.6980 H     1 <1>   0.0800 
 30 H       -5.0000    -0.6310    -0.8520 H     1 <1>   0.0800 
 31 H       -4.2420     0.0750     0.5480 H     1 <1>   0.0800 
 32 H        2.4930     3.1000     1.5830 H     1 <1>   0.1500 
 33 H        3.6720    -0.9290     1.0500 H     1 <1>   0.1500 
 34 H       -4.2770    -2.7630    -0.3600 H     1 <1>   0.0800 
 35 H        4.0330     1.2930     2.0500 H     1 <1>   0.1500 
 36 H       -3.9110    -2.9380     1.9040 H     1 <1>   0.4000 
@<TRIPOS>BOND
  1   1   2  2   
  2   1   3  2   
  3   1   4  am  
  4   1   5  1   
  5   4   6  1   
  6   4   7  1   
  7   5   8  ar  
  8   5   9  ar  
  9   6  10  1   
 10   6  24  1   
 11   6  25  1   
 12   7  11  1   
 13   7  26  1   
 14   7  27  1   
 15   8  12  ar  
 16   8  13  1   
 17   9  14  ar  
 18   9  28  1   
 19  10  15  1   
 20  10  16  1   
 21  10  29  1   
 22  11  16  1   
 23  11  30  1   
 24  11  31  1   
 25  12  17  ar  
 26  12  32  1   
 27  13  18  1   
 28  13  19  1   
 29  13  20  1   
 30  14  17  ar  
 31  14  33  1   
 32  15  21  ar  
 33  15  22  ar  
 34  16  23  1   
 35  16  34  1   
 36  17  35  1   
 37  23  36  1   
@<TRIPOS>SUBSTRUCTURE
  1 ****   4 GROUP 4 **** **** 0

# MOE 2024.06 (io_trps.svl 2023.06)
