@<TRIPOS>MOLECULE
NONAME
51 53 1 0 0 
SMALL
USER_CHARGES


@<TRIPOS>ATOM
  1 O        0.0540    -2.5190    -2.3240 O.3   1 <1>  -0.6800 
  2 C        1.2680    -2.3150    -1.6870 C.3   1 <1>   0.1200 
  3 C        1.0500    -1.9700    -0.1840 C.3   1 <1>   0.0000 
  4 C        2.4020    -1.6590     0.5090 C.3   1 <1>   0.4230 
  5 C        0.1710    -0.6970    -0.0520 C.3   1 <1>  -0.1600 
  6 C        0.3510    -3.1440     0.5650 C.3   1 <1>  -0.1600 
  7 N        3.3590    -2.8430     0.5730 N.4   1 <1>  -0.9590 
  8 C        3.0470    -0.3640    -0.0310 C.3   1 <1>   0.1100 
  9 C        0.8520     0.5680    -0.5850 C.3   1 <1>   0.1100 
 10 C        1.3210    -4.0580     1.3370 C.3   1 <1>  -0.1600 
 11 C        2.6730    -4.1750     0.6380 C.3   1 <1>   0.3430 
 12 C        4.4270    -2.8630    -0.4780 C.3   1 <1>   0.2630 
 13 N        2.1320     0.7860     0.1070 N.3   1 <1>  -0.8100 
 14 C        2.7650     2.0400    -0.3760 C.3   1 <1>   0.2530 
 15 C        4.0810     2.3510     0.3350 C.ar  1 <1>   0.1670 
 16 N        5.2080     2.0300    -0.2710 N.ar  1 <1>  -0.6200 
 17 C        4.0760     2.9410     1.5770 C.ar  1 <1>  -0.1500 
 18 C        6.3210     2.3310     0.3850 C.ar  1 <1>   0.4770 
 19 C        5.2890     3.1900     2.1680 C.ar  1 <1>   0.1600 
 20 N        6.4250     2.8860     1.5810 N.ar  1 <1>  -0.6200 
 21 C        7.6280     2.0000    -0.3170 C.3   1 <1>  -0.0170 
 22 C        8.0850     3.1310    -1.2500 C.3   1 <1>  -0.2400 
 23 H        0.1650    -2.6920    -3.2820 H     1 <1>   0.4000 
 24 H        1.8410    -3.2160    -1.8010 H     1 <1>   0.0800 
 25 H        1.7700    -1.5180    -2.2060 H     1 <1>   0.0800 
 26 H        2.1410    -1.4290     1.5290 H     1 <1>   0.0800 
 27 H       -0.0700    -0.5200     0.9820 H     1 <1>   0.0800 
 28 H       -0.7630    -0.8350    -0.5680 H     1 <1>   0.0800 
 29 H       -0.3690    -2.7660     1.2720 H     1 <1>   0.0800 
 30 H       -0.2130    -3.7400    -0.1330 H     1 <1>   0.0800 
 31 H        3.8380    -2.7280     1.4780 H     1 <1>   0.4500 
 32 H        3.3260    -0.4690    -1.0640 H     1 <1>   0.0800 
 33 H        3.9340    -0.1750     0.5480 H     1 <1>   0.0800 
 34 H        0.2040     1.4110    -0.4080 H     1 <1>   0.0800 
 35 H        1.0080     0.4910    -1.6490 H     1 <1>   0.0800 
 36 H        0.8820    -5.0360     1.4290 H     1 <1>   0.0800 
 37 H        1.4700    -3.6820     2.3350 H     1 <1>   0.0800 
 38 H        2.5090    -4.5510    -0.3580 H     1 <1>   0.0800 
 39 H        3.2950    -4.8830     1.1620 H     1 <1>   0.0800 
 40 H        3.9890    -2.9350    -1.4600 H     1 <1>   0.0800 
 41 H        5.0800    -3.7080    -0.3310 H     1 <1>   0.0800 
 42 H        5.0220    -1.9650    -0.4300 H     1 <1>   0.0800 
 43 H        2.9500     1.9750    -1.4350 H     1 <1>   0.0800 
 44 H        2.0880     2.8610    -0.2120 H     1 <1>   0.0800 
 45 H        3.1560     3.1940     2.0710 H     1 <1>   0.1500 
 46 H        5.3320     3.6490     3.1420 H     1 <1>   0.1500 
 47 H        8.3880     1.8210     0.4230 H     1 <1>   0.0800 
 48 H        7.5030     1.0970    -0.8840 H     1 <1>   0.0800 
 49 H        8.2290     4.0360    -0.6870 H     1 <1>   0.0800 
 50 H        7.3410     3.3100    -2.0060 H     1 <1>   0.0800 
 51 H        9.0120     2.8680    -1.7280 H     1 <1>   0.0800 
@<TRIPOS>BOND
  1   1   2  1   
  2   1  23  1   
  3   2   3  1   
  4   2  24  1   
  5   2  25  1   
  6   3   4  1   
  7   3   5  1   
  8   3   6  1   
  9   4   7  1   
 10   4   8  1   
 11   4  26  1   
 12   5   9  1   
 13   5  27  1   
 14   5  28  1   
 15   6  10  1   
 16   6  29  1   
 17   6  30  1   
 18   7  11  1   
 19   7  12  1   
 20   7  31  1   
 21   8  13  1   
 22   8  32  1   
 23   8  33  1   
 24   9  13  1   
 25   9  34  1   
 26   9  35  1   
 27  10  11  1   
 28  10  36  1   
 29  10  37  1   
 30  11  38  1   
 31  11  39  1   
 32  12  40  1   
 33  12  41  1   
 34  12  42  1   
 35  13  14  1   
 36  14  15  1   
 37  14  43  1   
 38  14  44  1   
 39  15  16  ar  
 40  15  17  ar  
 41  16  18  ar  
 42  17  19  ar  
 43  17  45  1   
 44  18  20  ar  
 45  18  21  1   
 46  19  20  ar  
 47  19  46  1   
 48  21  22  1   
 49  21  47  1   
 50  21  48  1   
 51  22  49  1   
 52  22  50  1   
 53  22  51  1   
@<TRIPOS>SUBSTRUCTURE
  1 ****   8 GROUP 4 **** **** 0

# MOE 2024.06 (io_trps.svl 2023.06)
