@<TRIPOS>MOLECULE
NONAME
54 56 1 0 0 
SMALL
USER_CHARGES


@<TRIPOS>ATOM
  1 F       -0.1100    -2.3400     2.6630 F     1 <1>  -0.1900 
  2 C       -0.8070    -3.1530     1.9100 C.ar  1 <1>   0.1900 
  3 C       -0.2440    -3.8130     0.8120 C.ar  1 <1>   0.0820 
  4 C       -2.1310    -3.3300     2.2560 C.ar  1 <1>  -0.1500 
  5 O        1.0450    -3.7230     0.3710 O.3   1 <1>  -0.3630 
  6 C       -1.0660    -4.6540     0.0780 C.ar  1 <1>  -0.1500 
  7 C       -2.9220    -4.1770     1.5020 C.ar  1 <1>  -0.1500 
  8 C        2.0090    -2.8930     0.9800 C.3   1 <1>   0.0400 
  9 C       -2.4130    -4.8600     0.3940 C.ar  1 <1>   0.0530 
 10 C       -3.2290    -5.7470    -0.4060 C.2   1 <1>   0.0870 
 11 O       -2.6600    -6.6280    -1.1980 O.3   1 <1>  -0.0190 
 12 C       -4.5690    -5.9170    -0.5450 C.2   1 <1>  -0.2330 
 13 N       -3.5230    -7.3610    -1.8530 N.2   1 <1>  -0.4100 
 14 C       -4.6810    -6.9300    -1.4970 C.2   1 <1>   0.3720 
 15 C       -5.6620    -5.3130     0.1400 C.2   1 <1>   1.0330 
 16 N       -5.8620    -7.4820    -2.0060 N.pl3 1 <1>  -0.8210 
 17 O       -6.3290    -4.4020    -0.3760 O.co2 1 <1>  -0.9000 
 18 O       -5.9630    -5.7060     1.2830 O.co2 1 <1>  -0.9000 
 19 C       -6.2770    -8.7920    -1.4610 C.3   1 <1>   0.2090 
 20 C       -6.9190    -6.5330    -2.4600 C.3   1 <1>   0.1290 
 21 C       -6.5530    -8.7640     0.0600 C.3   1 <1>  -0.0800 
 22 C       -6.2230   -10.1170     0.6930 C.3   1 <1>   0.3430 
 23 C       -7.9620    -8.2520     0.4190 C.3   1 <1>  -0.2400 
 24 N       -7.1650   -11.1950     0.2630 N.4   1 <1>  -0.9590 
 25 C       -8.3180   -11.3610     1.1810 C.3   1 <1>   0.3430 
 26 C       -6.5160   -12.5230     0.1820 C.3   1 <1>   0.3430 
 27 C       -8.8360   -12.7630     0.8880 C.3   1 <1>  -0.1600 
 28 C       -7.6750   -13.5090     0.2230 C.3   1 <1>  -0.1600 
 29 H       -2.5430    -2.8120     3.1030 H     1 <1>   0.1500 
 30 H       -0.6430    -5.1610    -0.7690 H     1 <1>   0.1500 
 31 H       -3.9510    -4.3070     1.7890 H     1 <1>   0.1500 
 32 H        2.9300    -2.9940     0.4350 H     1 <1>   0.0800 
 33 H        2.1520    -3.2110     1.9980 H     1 <1>   0.0800 
 34 H        1.6700    -1.8730     0.9380 H     1 <1>   0.0800 
 35 H       -5.4710    -9.4780    -1.6640 H     1 <1>   0.0800 
 36 H       -7.1420    -9.1390    -1.9960 H     1 <1>   0.0800 
 37 H       -6.4630    -5.6150    -2.7920 H     1 <1>   0.0800 
 38 H       -7.5960    -6.2940    -1.6620 H     1 <1>   0.0800 
 39 H       -7.4680    -6.9590    -3.2800 H     1 <1>   0.0800 
 40 H       -5.8480    -8.0960     0.5160 H     1 <1>   0.0800 
 41 H       -6.2410   -10.0190     1.7660 H     1 <1>   0.0800 
 42 H       -5.2170   -10.3780     0.4070 H     1 <1>   0.0800 
 43 H       -8.7290    -8.7560    -0.1390 H     1 <1>   0.0800 
 44 H       -8.0280    -7.1980     0.2110 H     1 <1>   0.0800 
 45 H       -8.1440    -8.3620     1.4730 H     1 <1>   0.0800 
 46 H       -7.5350   -10.9600    -0.6650 H     1 <1>   0.4500 
 47 H       -9.0760   -10.6120     1.0140 H     1 <1>   0.0800 
 48 H       -7.9810   -11.3060     2.2040 H     1 <1>   0.0800 
 49 H       -5.8850   -12.6740     1.0430 H     1 <1>   0.0800 
 50 H       -5.9300   -12.6290    -0.7170 H     1 <1>   0.0800 
 51 H       -9.6800   -12.7100     0.2230 H     1 <1>   0.0800 
 52 H       -9.1500   -13.2430     1.8000 H     1 <1>   0.0800 
 53 H       -7.3980   -14.3920     0.7730 H     1 <1>   0.0800 
 54 H       -7.9410   -13.8010    -0.7780 H     1 <1>   0.0800 
@<TRIPOS>BOND
  1   1   2  1   
  2   2   3  ar  
  3   2   4  ar  
  4   3   5  1   
  5   3   6  ar  
  6   4   7  ar  
  7   4  29  1   
  8   5   8  1   
  9   6   9  ar  
 10   6  30  1   
 11   7   9  ar  
 12   7  31  1   
 13   8  32  1   
 14   8  33  1   
 15   8  34  1   
 16   9  10  1   
 17  10  11  1   
 18  10  12  2   
 19  11  13  1   
 20  12  14  1   
 21  12  15  1   
 22  13  14  2   
 23  14  16  1   
 24  15  17  ar  
 25  15  18  ar  
 26  16  19  1   
 27  16  20  1   
 28  19  21  1   
 29  19  35  1   
 30  19  36  1   
 31  20  37  1   
 32  20  38  1   
 33  20  39  1   
 34  21  22  1   
 35  21  23  1   
 36  21  40  1   
 37  22  24  1   
 38  22  41  1   
 39  22  42  1   
 40  23  43  1   
 41  23  44  1   
 42  23  45  1   
 43  24  25  1   
 44  24  26  1   
 45  24  46  1   
 46  25  27  1   
 47  25  47  1   
 48  25  48  1   
 49  26  28  1   
 50  26  49  1   
 51  26  50  1   
 52  27  28  1   
 53  27  51  1   
 54  27  52  1   
 55  28  53  1   
 56  28  54  1   
@<TRIPOS>SUBSTRUCTURE
  1 ****  12 GROUP 4 **** **** 0

# MOE 2024.06 (io_trps.svl 2023.06)
