@<TRIPOS>MOLECULE
NONAME
52 55 1 0 0 
SMALL
USER_CHARGES


@<TRIPOS>ATOM
  1 O        0.8380    -1.4210     0.7730 O.3   1 <1>  -0.5600 
  2 C        0.1800    -2.4030     0.0070 C.3   1 <1>   0.2800 
  3 C        0.8040    -0.1000     0.3060 C.3   1 <1>   0.1200 
  4 C       -1.2900    -1.9900    -0.2260 C.3   1 <1>  -0.1600 
  5 C        0.2200    -3.6880     0.8590 C.3   1 <1>  -0.1600 
  6 C        0.9850    -2.6820    -1.2810 C.3   1 <1>  -0.1600 
  7 C       -0.6430     0.3870     0.2280 C.3   1 <1>  -0.1600 
  8 C       -1.4840    -0.5330    -0.6550 C.3   1 <1>   0.2800 
  9 C        1.5910    -4.3760     0.9030 C.3   1 <1>   0.3430 
 10 C        2.4400    -3.0820    -1.0070 C.3   1 <1>   0.3430 
 11 O       -1.0510    -0.4020    -1.9520 O.3   1 <1>  -0.6800 
 12 C       -2.9580    -0.1340    -0.6520 C.3   1 <1>  -0.2400 
 13 N        2.6340    -3.4360     0.4310 N.4   1 <1>  -0.9590 
 14 C        4.0210    -3.8640     0.7520 C.3   1 <1>   0.4810 
 15 C        4.9670    -2.6950     0.6010 C.2   1 <1>  -0.1240 
 16 C        5.6310    -2.5940    -0.6590 C.2   1 <1>   0.6160 
 17 C        5.1980    -1.7870     1.5830 C.2   1 <1>  -0.1780 
 18 O        5.4130    -3.3680    -1.5730 O.2   1 <1>  -0.5700 
 19 N        6.5100    -1.5740    -0.8430 N.am  1 <1>  -0.5470 
 20 C        6.1150    -0.7060     1.3710 C.ar  1 <1>   0.0280 
 21 C        6.7740    -0.6160     0.1310 C.ar  1 <1>   0.1170 
 22 C        6.3800     0.2600     2.3420 C.ar  1 <1>  -0.1500 
 23 C        7.6720     0.4220    -0.1020 C.ar  1 <1>  -0.1500 
 24 C        7.2710     1.2840     2.0970 C.ar  1 <1>  -0.1500 
 25 C        7.9190     1.3650     0.8710 C.ar  1 <1>  -0.1500 
 26 H        1.2830    -0.0470    -0.6560 H     1 <1>   0.0800 
 27 H        1.3600     0.5070     0.9990 H     1 <1>   0.0800 
 28 H       -1.8190    -2.1260     0.7000 H     1 <1>   0.0800 
 29 H       -1.7520    -2.6430    -0.9450 H     1 <1>   0.0800 
 30 H       -0.4850    -4.3990     0.4680 H     1 <1>   0.0800 
 31 H       -0.0970    -3.4580     1.8610 H     1 <1>   0.0800 
 32 H        0.9800    -1.8420    -1.9460 H     1 <1>   0.0800 
 33 H        0.5080    -3.4830    -1.8180 H     1 <1>   0.0800 
 34 H       -0.6730     1.3940    -0.1470 H     1 <1>   0.0800 
 35 H       -1.0490     0.4020     1.2240 H     1 <1>   0.0800 
 36 H        1.5810    -5.2480     0.2690 H     1 <1>   0.0800 
 37 H        1.7980    -4.6910     1.9130 H     1 <1>   0.0800 
 38 H        3.0770    -2.2490    -1.2550 H     1 <1>   0.0800 
 39 H        2.7190    -3.9090    -1.6400 H     1 <1>   0.0800 
 40 H       -1.3520     0.4560    -2.3080 H     1 <1>   0.4000 
 41 H       -3.3640    -0.2290     0.3390 H     1 <1>   0.0800 
 42 H       -3.5220    -0.7750    -1.3070 H     1 <1>   0.0800 
 43 H       -3.0790     0.8880    -0.9640 H     1 <1>   0.0800 
 44 H        2.4300    -2.5480     0.9310 H     1 <1>   0.4500 
 45 H        4.3230    -4.6730     0.1060 H     1 <1>   0.0800 
 46 H        4.0620    -4.2110     1.7720 H     1 <1>   0.0800 
 47 H        4.7180    -1.8350     2.5450 H     1 <1>   0.1500 
 48 H        6.9840    -1.5440    -1.7460 H     1 <1>   0.3700 
 49 H        5.8840     0.2050     3.2950 H     1 <1>   0.1500 
 50 H        8.1750     0.4870    -1.0500 H     1 <1>   0.1500 
 51 H        7.4700     2.0250     2.8530 H     1 <1>   0.1500 
 52 H        8.6130     2.1680     0.6890 H     1 <1>   0.1500 
@<TRIPOS>BOND
  1   1   2  1   
  2   1   3  1   
  3   2   4  1   
  4   2   5  1   
  5   2   6  1   
  6   3   7  1   
  7   3  26  1   
  8   3  27  1   
  9   4   8  1   
 10   4  28  1   
 11   4  29  1   
 12   5   9  1   
 13   5  30  1   
 14   5  31  1   
 15   6  10  1   
 16   6  32  1   
 17   6  33  1   
 18   7   8  1   
 19   7  34  1   
 20   7  35  1   
 21   8  11  1   
 22   8  12  1   
 23   9  13  1   
 24   9  36  1   
 25   9  37  1   
 26  10  13  1   
 27  10  38  1   
 28  10  39  1   
 29  11  40  1   
 30  12  41  1   
 31  12  42  1   
 32  12  43  1   
 33  13  14  1   
 34  13  44  1   
 35  14  15  1   
 36  14  45  1   
 37  14  46  1   
 38  15  16  1   
 39  15  17  2   
 40  16  18  2   
 41  16  19  am  
 42  17  20  1   
 43  17  47  1   
 44  19  21  1   
 45  19  48  1   
 46  20  21  ar  
 47  20  22  ar  
 48  21  23  ar  
 49  22  24  ar  
 50  22  49  1   
 51  23  25  ar  
 52  23  50  1   
 53  24  25  ar  
 54  24  51  1   
 55  25  52  1   
@<TRIPOS>SUBSTRUCTURE
  1 ****  13 GROUP 4 **** **** 0

# MOE 2024.06 (io_trps.svl 2023.06)
