@<TRIPOS>MOLECULE
NONAME
39 41 1 0 0 
SMALL
USER_CHARGES


@<TRIPOS>ATOM
  1 O       -1.5680     0.5040    -2.0880 O.2   1 <1>  -0.5700 
  2 C       -2.0430     0.6510    -0.9780 C.2   1 <1>   0.5440 
  3 N       -1.2320     1.1290     0.0350 N.am  1 <1>  -0.6600 
  4 C       -3.4290     0.3070    -0.7610 C.ar  1 <1>   0.0860 
  5 C        0.0990     1.7310    -0.2610 C.3   1 <1>   0.0600 
  6 C       -1.4940     0.9000     1.4830 C.3   1 <1>   0.0600 
  7 C       -3.9550    -0.8600    -1.3090 C.ar  1 <1>   0.1600 
  8 C       -4.3020     1.1000    -0.0220 C.ar  1 <1>  -0.1500 
  9 N       -5.1940    -1.2980    -1.1670 N.ar  1 <1>  -0.6200 
 10 C       -5.5960     0.6650     0.1320 C.ar  1 <1>  -0.1500 
 11 C       -6.0100    -0.5330    -0.4440 C.ar  1 <1>   0.4100 
 12 N       -7.3060    -0.9530    -0.2480 N.3   1 <1>  -0.5900 
 13 C       -7.5650    -2.0270     0.7760 C.3   1 <1>   0.2450 
 14 C       -8.0260    -1.8030    -1.2660 C.3   1 <1>   0.2450 
 15 C       -7.7780    -3.0370    -0.3730 C.3   1 <1>   0.1080 
 16 C       -8.9790    -3.9570    -0.1990 C.ar  1 <1>   0.2020 
 17 N       -9.2160    -4.4060     1.0270 N.ar  1 <1>  -0.6200 
 18 C       -9.7490    -4.3000    -1.3030 C.ar  1 <1>  -0.1500 
 19 C      -10.2590    -5.2110     1.1580 C.ar  1 <1>   0.1600 
 20 C      -10.8320    -5.1390    -1.1520 C.ar  1 <1>  -0.1500 
 21 C      -11.0860    -5.6010     0.1200 C.ar  1 <1>  -0.1500 
 22 H        0.1490     2.0480    -1.2890 H     1 <1>   0.0800 
 23 H        0.8720     1.0040    -0.0860 H     1 <1>   0.0800 
 24 H        0.2630     2.5870     0.3680 H     1 <1>   0.0800 
 25 H       -2.2860     0.1840     1.6220 H     1 <1>   0.0800 
 26 H       -1.7700     1.8280     1.9530 H     1 <1>   0.0800 
 27 H       -0.6080     0.5170     1.9570 H     1 <1>   0.0800 
 28 H       -3.2920    -1.4680    -1.9030 H     1 <1>   0.1500 
 29 H       -3.9660     2.0270     0.4070 H     1 <1>   0.1500 
 30 H       -6.3110     1.2370     0.6940 H     1 <1>   0.1500 
 31 H       -8.4520    -1.8030     1.3430 H     1 <1>   0.0000 
 32 H       -6.7020    -2.2380     1.3820 H     1 <1>   0.0000 
 33 H       -7.5260    -1.8440    -2.2170 H     1 <1>   0.0000 
 34 H       -9.0610    -1.5140    -1.3350 H     1 <1>   0.0000 
 35 H       -6.8760    -3.5660    -0.6280 H     1 <1>   0.0000 
 36 H       -9.5050    -3.9210    -2.2780 H     1 <1>   0.1500 
 37 H      -10.4640    -5.5800     2.1480 H     1 <1>   0.1500 
 38 H      -11.4490    -5.4200    -1.9880 H     1 <1>   0.1500 
 39 H      -11.9150    -6.2580     0.3090 H     1 <1>   0.1500 
@<TRIPOS>BOND
  1   1   2  2   
  2   2   3  am  
  3   2   4  1   
  4   3   5  1   
  5   3   6  1   
  6   4   7  ar  
  7   4   8  ar  
  8   5  22  1   
  9   5  23  1   
 10   5  24  1   
 11   6  25  1   
 12   6  26  1   
 13   6  27  1   
 14   7   9  ar  
 15   7  28  1   
 16   8  10  ar  
 17   8  29  1   
 18   9  11  ar  
 19  10  11  ar  
 20  10  30  1   
 21  11  12  1   
 22  12  13  1   
 23  12  14  1   
 24  13  15  1   
 25  13  31  1   
 26  13  32  1   
 27  14  15  1   
 28  14  33  1   
 29  14  34  1   
 30  15  16  1   
 31  15  35  1   
 32  16  17  ar  
 33  16  18  ar  
 34  17  19  ar  
 35  18  20  ar  
 36  18  36  1   
 37  19  21  ar  
 38  19  37  1   
 39  20  21  ar  
 40  20  38  1   
 41  21  39  1   
@<TRIPOS>SUBSTRUCTURE
  1 ****  11 GROUP 4 **** **** 0

# MOE 2024.06 (io_trps.svl 2023.06)
