@<TRIPOS>MOLECULE
NONAME
53 56 1 0 0 
SMALL
USER_CHARGES


@<TRIPOS>ATOM
  1 O       -1.2700    -0.8220    -1.9450 O.3   1 <1>  -0.0190 
  2 N       -1.4750     0.4350    -1.6950 N.2   1 <1>  -0.4100 
  3 C       -2.0120    -1.5930    -1.2010 C.2   1 <1>  -0.0400 
  4 C       -2.3590     0.4840    -0.7690 C.2   1 <1>   0.1080 
  5 C       -2.7650    -0.8040    -0.4150 C.2   1 <1>  -0.1810 
  6 C       -1.8820    -3.0960    -1.3640 C.3   1 <1>  -0.0600 
  7 C       -2.8300     1.8000    -0.1840 C.3   1 <1>  -0.0590 
  8 C       -3.8070    -1.2110     0.5950 C.3   1 <1>   0.5240 
  9 N       -5.0120    -1.5860    -0.1840 N.4   1 <1>  -0.9590 
 10 C       -5.9360    -0.4220    -0.4410 C.3   1 <1>   0.3430 
 11 C       -5.6990    -2.8040     0.3650 C.3   1 <1>   0.3430 
 12 C       -6.7760     0.0250     0.7810 C.3   1 <1>   0.1430 
 13 C       -7.0180    -2.4910     1.0850 C.3   1 <1>  -0.1600 
 14 C       -8.0680     0.5380     0.1830 C.ar  1 <1>   0.1670 
 15 C       -7.0080    -1.1270     1.7870 C.3   1 <1>  -0.1600 
 16 C       -6.2260     1.2870     1.5030 C.3   1 <1>  -0.1600 
 17 N       -8.9640    -0.2170    -0.3960 N.ar  1 <1>  -0.6200 
 18 C       -8.1720     1.8920     0.2680 C.ar  1 <1>  -0.1430 
 19 C       -6.9780     2.5100     0.9450 C.3   1 <1>  -0.0170 
 20 C      -10.0210     0.4350    -0.8890 C.ar  1 <1>   0.7200 
 21 C       -9.2920     2.4770    -0.2670 C.ar  1 <1>   0.1600 
 22 N      -10.2190     1.7560    -0.8500 N.ar  1 <1>  -0.6200 
 23 N      -10.9870    -0.3300    -1.5060 N.pl3 1 <1>  -0.8380 
 24 C      -11.2340    -1.7500    -1.1360 C.3   1 <1>   0.1290 
 25 C      -12.0180     0.2830    -2.3900 C.3   1 <1>   0.1290 
 26 H       -0.8660    -3.3900    -1.1670 H     1 <1>   0.0800 
 27 H       -2.1250    -3.3760    -2.3740 H     1 <1>   0.0800 
 28 H       -2.5290    -3.6200    -0.6860 H     1 <1>   0.0800 
 29 H       -2.1540     2.5840    -0.4770 H     1 <1>   0.0800 
 30 H       -2.8400     1.7520     0.8890 H     1 <1>   0.0800 
 31 H       -3.8070     2.0440    -0.5560 H     1 <1>   0.0800 
 32 H       -4.0180    -0.4130     1.2860 H     1 <1>   0.0800 
 33 H       -3.4410    -2.0610     1.1470 H     1 <1>   0.0800 
 34 H       -4.6300    -1.8470    -1.1050 H     1 <1>   0.4500 
 35 H       -6.6320    -0.7210    -1.2100 H     1 <1>   0.0800 
 36 H       -5.3850     0.4180    -0.8290 H     1 <1>   0.0800 
 37 H       -5.0390    -3.3070     1.0530 H     1 <1>   0.0800 
 38 H       -5.9100    -3.4920    -0.4380 H     1 <1>   0.0800 
 39 H       -7.2170    -3.2690     1.8020 H     1 <1>   0.0800 
 40 H       -7.8210    -2.5230     0.3680 H     1 <1>   0.0800 
 41 H       -7.9450    -0.9750     2.2990 H     1 <1>   0.0800 
 42 H       -6.2310    -1.1320     2.5310 H     1 <1>   0.0800 
 43 H       -5.1650     1.3990     1.4070 H     1 <1>   0.0800 
 44 H       -6.4590     1.2260     2.5530 H     1 <1>   0.0800 
 45 H       -6.3820     3.0380     0.2200 H     1 <1>   0.0800 
 46 H       -7.2770     3.1850     1.7290 H     1 <1>   0.0800 
 47 H       -9.4290     3.5450    -0.2240 H     1 <1>   0.1500 
 48 H      -10.7360    -1.9990    -0.2150 H     1 <1>   0.0800 
 49 H      -10.8700    -2.3940    -1.9170 H     1 <1>   0.0800 
 50 H      -12.2880    -1.9170    -1.0030 H     1 <1>   0.0800 
 51 H      -11.6130     1.1400    -2.9010 H     1 <1>   0.0800 
 52 H      -12.8610     0.5960    -1.8000 H     1 <1>   0.0800 
 53 H      -12.3430    -0.4290    -3.1280 H     1 <1>   0.0800 
@<TRIPOS>BOND
  1   1   2  1   
  2   1   3  1   
  3   2   4  2   
  4   3   5  2   
  5   3   6  1   
  6   4   5  1   
  7   4   7  1   
  8   5   8  1   
  9   6  26  1   
 10   6  27  1   
 11   6  28  1   
 12   7  29  1   
 13   7  30  1   
 14   7  31  1   
 15   8   9  1   
 16   8  32  1   
 17   8  33  1   
 18   9  10  1   
 19   9  11  1   
 20   9  34  1   
 21  10  12  1   
 22  10  35  1   
 23  10  36  1   
 24  11  13  1   
 25  11  37  1   
 26  11  38  1   
 27  12  14  1   
 28  12  15  1   
 29  12  16  1   
 30  13  15  1   
 31  13  39  1   
 32  13  40  1   
 33  14  17  ar  
 34  14  18  ar  
 35  15  41  1   
 36  15  42  1   
 37  16  19  1   
 38  16  43  1   
 39  16  44  1   
 40  17  20  ar  
 41  18  19  1   
 42  18  21  ar  
 43  19  45  1   
 44  19  46  1   
 45  20  22  ar  
 46  20  23  1   
 47  21  22  ar  
 48  21  47  1   
 49  23  24  1   
 50  23  25  1   
 51  24  48  1   
 52  24  49  1   
 53  24  50  1   
 54  25  51  1   
 55  25  52  1   
 56  25  53  1   
@<TRIPOS>SUBSTRUCTURE
  1 ****  10 GROUP 4 **** **** 0

# MOE 2024.06 (io_trps.svl 2023.06)
