@<TRIPOS>MOLECULE
NONAME
52 55 1 0 0 
SMALL
USER_CHARGES


@<TRIPOS>ATOM
  1 O       -2.3780     2.6720     1.2220 O.3   1 <1>  -0.0190 
  2 N       -1.8830     3.8420     1.0430 N.2   1 <1>  -0.4100 
  3 C       -1.9550     1.8500     0.2990 C.2   1 <1>   0.4250 
  4 C       -1.1670     3.7040    -0.0030 C.2   1 <1>   0.3350 
  5 N       -1.1620     2.4670    -0.5140 N.2   1 <1>  -0.5650 
  6 C       -2.3660     0.4630     0.2810 C.ar  1 <1>   0.0530 
  7 C       -0.3470     4.8330    -0.6270 C.3   1 <1>   0.5240 
  8 C       -1.9640    -0.3920    -0.7460 C.ar  1 <1>  -0.1500 
  9 C       -3.1740    -0.0790     1.2820 C.ar  1 <1>  -0.1500 
 10 N        1.0830     4.8300    -0.1590 N.4   1 <1>  -0.9590 
 11 C       -2.3460    -1.7210    -0.7720 C.ar  1 <1>  -0.1500 
 12 C       -3.5580    -1.4070     1.2590 C.ar  1 <1>  -0.1500 
 13 C        1.7930     6.0690    -0.6170 C.3   1 <1>   0.3430 
 14 C        1.8030     3.5870    -0.5750 C.3   1 <1>   0.3430 
 15 C       -3.1480    -2.2370     0.2310 C.ar  1 <1>  -0.1430 
 16 C        3.2380     6.1270    -0.0860 C.3   1 <1>   0.2000 
 17 C        3.2350     3.6040    -0.0300 C.3   1 <1>  -0.1600 
 18 C       -3.5670    -3.6960     0.2050 C.3   1 <1>  -0.0970 
 19 O        3.8890     7.2080    -0.6760 O.3   1 <1>  -0.5600 
 20 C        4.0090     4.8600    -0.4650 C.3   1 <1>  -0.1600 
 21 C        3.9750     8.3700     0.1140 C.3   1 <1>   0.2630 
 22 C        2.6030     9.0100     0.3380 C.ar  1 <1>   0.1670 
 23 N        1.8660     8.5430     1.3430 N.ar  1 <1>  -0.6200 
 24 C        2.1960    10.0350    -0.5030 C.ar  1 <1>  -0.1500 
 25 C        0.7030     9.1490     1.5340 C.ar  1 <1>   0.1600 
 26 C        0.9740    10.6400    -0.3050 C.ar  1 <1>  -0.1500 
 27 C        0.2170    10.1800     0.7500 C.ar  1 <1>  -0.1500 
 28 H       -0.8110     5.7670    -0.3570 H     1 <1>   0.0800 
 29 H       -0.3850     4.7370    -1.6980 H     1 <1>   0.0800 
 30 H       -1.3440    -0.0140    -1.5390 H     1 <1>   0.1500 
 31 H       -3.5110     0.5400     2.0950 H     1 <1>   0.1500 
 32 H        1.0560     4.8460     0.8700 H     1 <1>   0.4500 
 33 H       -2.0180    -2.3540    -1.5780 H     1 <1>   0.1500 
 34 H       -4.1810    -1.7950     2.0470 H     1 <1>   0.1500 
 35 H        1.2580     6.9400    -0.2810 H     1 <1>   0.0800 
 36 H        1.8310     6.0860    -1.6940 H     1 <1>   0.0800 
 37 H        1.8300     3.5230    -1.6510 H     1 <1>   0.0800 
 38 H        1.2900     2.7150    -0.2000 H     1 <1>   0.0800 
 39 H        3.2380     6.2460     0.9850 H     1 <1>   0.0800 
 40 H        3.7520     2.7300    -0.3860 H     1 <1>   0.0800 
 41 H        3.2070     3.5420     1.0440 H     1 <1>   0.0800 
 42 H       -3.6460    -4.0470    -0.8090 H     1 <1>   0.0800 
 43 H       -4.5230    -3.8220     0.6810 H     1 <1>   0.0800 
 44 H       -2.8390    -4.2930     0.7240 H     1 <1>   0.0800 
 45 H        4.9750     4.8730     0.0100 H     1 <1>   0.0800 
 46 H        4.1560     4.8370    -1.5310 H     1 <1>   0.0800 
 47 H        4.6190     9.0590    -0.4020 H     1 <1>   0.0800 
 48 H        4.4360     8.1230     1.0550 H     1 <1>   0.0800 
 49 H        2.8310    10.3640    -1.3070 H     1 <1>   0.1500 
 50 H        0.1040     8.8100     2.3620 H     1 <1>   0.1500 
 51 H        0.6310    11.4410    -0.9390 H     1 <1>   0.1500 
 52 H       -0.7400    10.6210     0.9670 H     1 <1>   0.1500 
@<TRIPOS>BOND
  1   1   2  1   
  2   1   3  1   
  3   2   4  2   
  4   3   5  2   
  5   3   6  1   
  6   4   5  1   
  7   4   7  1   
  8   6   8  ar  
  9   6   9  ar  
 10   7  10  1   
 11   7  28  1   
 12   7  29  1   
 13   8  11  ar  
 14   8  30  1   
 15   9  12  ar  
 16   9  31  1   
 17  10  13  1   
 18  10  14  1   
 19  10  32  1   
 20  11  15  ar  
 21  11  33  1   
 22  12  15  ar  
 23  12  34  1   
 24  13  16  1   
 25  13  35  1   
 26  13  36  1   
 27  14  17  1   
 28  14  37  1   
 29  14  38  1   
 30  15  18  1   
 31  16  19  1   
 32  16  20  1   
 33  16  39  1   
 34  17  20  1   
 35  17  40  1   
 36  17  41  1   
 37  18  42  1   
 38  18  43  1   
 39  18  44  1   
 40  19  21  1   
 41  20  45  1   
 42  20  46  1   
 43  21  22  1   
 44  21  47  1   
 45  21  48  1   
 46  22  23  ar  
 47  22  24  ar  
 48  23  25  ar  
 49  24  26  ar  
 50  24  49  1   
 51  25  27  ar  
 52  25  50  1   
 53  26  27  ar  
 54  26  51  1   
 55  27  52  1   
@<TRIPOS>SUBSTRUCTURE
  1 ****   7 GROUP 4 **** **** 0

# MOE 2024.06 (io_trps.svl 2023.06)
