@<TRIPOS>MOLECULE
NONAME
46 48 1 0 0 
SMALL
USER_CHARGES


@<TRIPOS>ATOM
  1 O        0.1160    -0.2240     0.1130 O.2   1 <1>  -0.5700 
  2 C        1.1320    -0.7880    -0.2480 C.2   1 <1>   0.7150 
  3 N        2.2170    -0.0660    -0.6660 N.am  1 <1>  -0.4940 
  4 C        1.2480    -2.2250    -0.2370 C.2   1 <1>  -0.2370 
  5 C        2.4560     1.3270    -0.7570 C.2   1 <1>  -0.0880 
  6 N        0.4660    -3.0710     0.5300 N.pl3 1 <1>   0.0480 
  7 C        2.1190    -3.0010    -0.9500 C.2   1 <1>  -0.1500 
  8 N        1.5730     2.3090    -1.0940 N.pl3 1 <1>   0.3140 
  9 C        3.6420     1.9450    -0.5350 C.2   1 <1>  -0.1810 
 10 C        0.8580    -4.3690     0.2900 C.ar  1 <1>  -0.1520 
 11 C       -0.5890    -2.6700     1.4870 C.3   1 <1>   0.0160 
 12 C        1.8950    -4.3480    -0.6330 C.ar  1 <1>   0.0000 
 13 N        2.1640     3.5240    -1.0880 N.2   1 <1>  -0.7070 
 14 C        0.1740     2.1860    -1.5240 C.3   1 <1>   0.0160 
 15 C        3.3900     3.2970    -0.7480 C.2   1 <1>   0.1080 
 16 C        4.9660     1.3170    -0.1310 C.3   1 <1>   0.0210 
 17 C        0.3970    -5.5880     0.8010 C.ar  1 <1>  -0.1500 
 18 C        2.4850    -5.5450    -1.0530 C.ar  1 <1>  -0.1500 
 19 C        4.3970     4.4180    -0.6160 C.3   1 <1>  -0.0590 
 20 C        5.0530     1.1950     1.3910 C.3   1 <1>  -0.2400 
 21 C        0.9820    -6.7610     0.3830 C.ar  1 <1>  -0.1500 
 22 C        2.0360    -6.7430    -0.5510 C.ar  1 <1>   0.0830 
 23 O        2.6550    -7.8710    -1.0010 O.3   1 <1>  -0.3620 
 24 C        2.2490    -9.1480    -0.5610 C.3   1 <1>   0.0400 
 25 H        3.0460    -0.6440    -0.7700 H     1 <1>   0.3700 
 26 H        2.8640    -2.6860    -1.6590 H     1 <1>   0.1500 
 27 H       -0.2150    -1.8870     2.1220 H     1 <1>   0.0800 
 28 H       -0.8800    -3.5050     2.0940 H     1 <1>   0.0800 
 29 H       -1.4400    -2.3080     0.9410 H     1 <1>   0.0800 
 30 H        0.0490     1.2770    -2.0800 H     1 <1>   0.0800 
 31 H       -0.0790     3.0260    -2.1420 H     1 <1>   0.0800 
 32 H       -0.4570     2.1750    -0.6550 H     1 <1>   0.0800 
 33 H        5.7800     1.9170    -0.4970 H     1 <1>   0.0800 
 34 H        5.0530     0.3420    -0.5760 H     1 <1>   0.0800 
 35 H       -0.4080    -5.6080     1.5120 H     1 <1>   0.1500 
 36 H        3.2860    -5.5220    -1.7670 H     1 <1>   0.1500 
 37 H        4.9670     4.2980     0.2860 H     1 <1>   0.0800 
 38 H        3.8850     5.3620    -0.5790 H     1 <1>   0.0800 
 39 H        5.0570     4.4120    -1.4630 H     1 <1>   0.0800 
 40 H        4.9780     2.1660     1.8460 H     1 <1>   0.0800 
 41 H        5.9890     0.7490     1.6770 H     1 <1>   0.0800 
 42 H        4.2480     0.5830     1.7590 H     1 <1>   0.0800 
 43 H        0.6210    -7.6900     0.7810 H     1 <1>   0.1500 
 44 H        2.8660    -9.8800    -1.0500 H     1 <1>   0.0800 
 45 H        1.2190    -9.3000    -0.8320 H     1 <1>   0.0800 
 46 H        2.3840    -9.2100     0.5040 H     1 <1>   0.0800 
@<TRIPOS>BOND
  1   1   2  2   
  2   2   3  am  
  3   2   4  1   
  4   3   5  1   
  5   3  25  1   
  6   4   6  1   
  7   4   7  2   
  8   5   8  1   
  9   5   9  2   
 10   6  10  1   
 11   6  11  1   
 12   7  12  1   
 13   7  26  1   
 14   8  13  1   
 15   8  14  1   
 16   9  15  1   
 17   9  16  1   
 18  10  12  ar  
 19  10  17  ar  
 20  11  27  1   
 21  11  28  1   
 22  11  29  1   
 23  12  18  ar  
 24  13  15  2   
 25  14  30  1   
 26  14  31  1   
 27  14  32  1   
 28  15  19  1   
 29  16  20  1   
 30  16  33  1   
 31  16  34  1   
 32  17  21  ar  
 33  17  35  1   
 34  18  22  ar  
 35  18  36  1   
 36  19  37  1   
 37  19  38  1   
 38  19  39  1   
 39  20  40  1   
 40  20  41  1   
 41  20  42  1   
 42  21  22  ar  
 43  21  43  1   
 44  22  23  1   
 45  23  24  1   
 46  24  44  1   
 47  24  45  1   
 48  24  46  1   
@<TRIPOS>SUBSTRUCTURE
  1 ****   4 GROUP 4 **** **** 0

# MOE 2024.06 (io_trps.svl 2023.06)
