@<TRIPOS>MOLECULE
NONAME
45 48 1 0 0 
SMALL
USER_CHARGES


@<TRIPOS>ATOM
  1 CL      -0.0480    -0.5630     1.3490 Cl    1 <1>  -0.1770 
  2 C       -0.0950    -2.1560     0.6420 C.ar  1 <1>   0.1770 
  3 C        0.4650    -3.2180     1.3250 C.ar  1 <1>  -0.1500 
  4 C       -0.6910    -2.3330    -0.5910 C.ar  1 <1>  -0.1500 
  5 C        0.4240    -4.4840     0.7650 C.ar  1 <1>  -0.1500 
  6 C       -0.7320    -3.6000    -1.1500 C.ar  1 <1>  -0.1500 
  7 C       -0.1810    -4.6810    -0.4720 C.ar  1 <1>  -0.1430 
  8 C       -0.2430    -6.0710    -1.0800 C.3   1 <1>   0.4870 
  9 N       -1.2670    -6.8670    -0.3510 N.4   1 <1>  -0.9590 
 10 C       -2.6430    -6.2590    -0.4730 C.3   1 <1>   0.3430 
 11 C       -1.2780    -8.3020    -0.7990 C.3   1 <1>   0.3430 
 12 C       -3.7180    -7.1050     0.2400 C.3   1 <1>   0.1900 
 13 C       -2.3780    -9.1200    -0.0930 C.3   1 <1>   0.1100 
 14 N       -3.7090    -8.5010    -0.2680 N.3   1 <1>  -0.8100 
 15 C       -5.1050    -6.4640     0.0500 C.3   1 <1>   0.1200 
 16 C       -4.8060    -9.2810     0.3660 C.3   1 <1>   0.2850 
 17 O       -6.0650    -7.2260     0.7120 O.3   1 <1>  -0.5600 
 18 C       -4.9280   -10.6640    -0.2910 C.3   1 <1>  -0.1950 
 19 C       -6.1560    -8.5400     0.2350 C.3   1 <1>   0.1200 
 20 C       -5.7030   -11.7570     0.3800 C.3   1 <1>  -0.2000 
 21 C       -4.2140   -11.8730     0.2370 C.3   1 <1>  -0.2000 
 22 H        0.9290    -3.0470     2.2810 H     1 <1>   0.1500 
 23 H       -1.1120    -1.4850    -1.1030 H     1 <1>   0.1500 
 24 H        0.8720    -5.3010     1.3040 H     1 <1>   0.1500 
 25 H       -1.1930    -3.7240    -2.1160 H     1 <1>   0.1500 
 26 H        0.7230    -6.5400    -0.9940 H     1 <1>   0.0800 
 27 H       -0.4980    -6.0040    -2.1250 H     1 <1>   0.0800 
 28 H       -1.0200    -6.8410     0.6450 H     1 <1>   0.4500 
 29 H       -2.6420    -5.2670    -0.0510 H     1 <1>   0.0800 
 30 H       -2.9130    -6.1780    -1.5120 H     1 <1>   0.0800 
 31 H       -1.4580    -8.3490    -1.8600 H     1 <1>   0.0800 
 32 H       -0.3210    -8.7570    -0.6040 H     1 <1>   0.0800 
 33 H       -3.5060    -7.1040     1.2960 H     1 <1>   0.0800 
 34 H       -2.1500    -9.2200     0.9550 H     1 <1>   0.0800 
 35 H       -2.3780   -10.1050    -0.5260 H     1 <1>   0.0800 
 36 H       -5.3700    -6.4060    -0.9920 H     1 <1>   0.0800 
 37 H       -5.1310    -5.4760     0.4740 H     1 <1>   0.0800 
 38 H       -4.6010    -9.4090     1.4160 H     1 <1>   0.0800 
 39 H       -5.0580   -10.5860    -1.3570 H     1 <1>   0.1000 
 40 H       -6.9120    -9.0450     0.8100 H     1 <1>   0.0800 
 41 H       -6.4720    -8.5120    -0.7940 H     1 <1>   0.0800 
 42 H       -6.1070   -11.5990     1.3660 H     1 <1>   0.1000 
 43 H       -6.3290   -12.3940    -0.2220 H     1 <1>   0.1000 
 44 H       -3.8240   -12.5940    -0.4610 H     1 <1>   0.1000 
 45 H       -3.6170   -11.8000     1.1290 H     1 <1>   0.1000 
@<TRIPOS>BOND
  1   1   2  1   
  2   2   3  ar  
  3   2   4  ar  
  4   3   5  ar  
  5   3  22  1   
  6   4   6  ar  
  7   4  23  1   
  8   5   7  ar  
  9   5  24  1   
 10   6   7  ar  
 11   6  25  1   
 12   7   8  1   
 13   8   9  1   
 14   8  26  1   
 15   8  27  1   
 16   9  10  1   
 17   9  11  1   
 18   9  28  1   
 19  10  12  1   
 20  10  29  1   
 21  10  30  1   
 22  11  13  1   
 23  11  31  1   
 24  11  32  1   
 25  12  14  1   
 26  12  15  1   
 27  12  33  1   
 28  13  14  1   
 29  13  34  1   
 30  13  35  1   
 31  14  16  1   
 32  15  17  1   
 33  15  36  1   
 34  15  37  1   
 35  16  18  1   
 36  16  19  1   
 37  16  38  1   
 38  17  19  1   
 39  18  20  1   
 40  18  21  1   
 41  18  39  1   
 42  19  40  1   
 43  19  41  1   
 44  20  21  1   
 45  20  42  1   
 46  20  43  1   
 47  21  44  1   
 48  21  45  1   
@<TRIPOS>SUBSTRUCTURE
  1 ****  10 GROUP 4 **** **** 0

# MOE 2024.06 (io_trps.svl 2023.06)
