@<TRIPOS>MOLECULE
NONAME
49 52 1 0 0 
SMALL
USER_CHARGES


@<TRIPOS>ATOM
  1 S       -0.5420    -0.7840     1.3790 S.3   1 <1>  -0.0800 
  2 C       -1.5500    -1.6130     0.2120 C.ar  1 <1>   0.0400 
  3 C       -0.8880     0.7390     0.5680 C.2   1 <1>   0.1980 
  4 C       -2.0420    -0.6700    -0.6690 C.ar  1 <1>   0.2270 
  5 C       -1.8430    -2.9590     0.1320 C.ar  1 <1>  -0.1500 
  6 N       -1.6540     0.6450    -0.4410 N.2   1 <1>  -0.5650 
  7 C       -0.2510     1.9810     1.1450 C.3   1 <1>  -0.0600 
  8 C       -2.8670    -1.1080    -1.6930 C.ar  1 <1>  -0.1500 
  9 C       -2.6870    -3.4050    -0.8840 C.ar  1 <1>   0.0860 
 10 C       -3.1770    -2.4540    -1.7950 C.ar  1 <1>  -0.1500 
 11 C       -3.0420    -4.8080    -0.9900 C.2   1 <1>   0.5440 
 12 O       -2.1860    -5.6630    -0.8540 O.2   1 <1>  -0.5700 
 13 N       -4.3370    -5.2210    -1.2110 N.am  1 <1>  -0.6600 
 14 C       -4.6940    -6.6000    -1.5770 C.3   1 <1>   0.1400 
 15 C       -5.5440    -4.4630    -0.8490 C.3   1 <1>   0.1400 
 16 C       -5.5860    -7.3150    -0.5240 C.3   1 <1>   0.4230 
 17 C       -6.1890    -5.2180     0.3060 C.3   1 <1>  -0.1600 
 18 N       -4.9630    -7.9020     0.7020 N.4   1 <1>  -0.9590 
 19 C       -6.9130    -6.6270    -0.0150 C.3   1 <1>  -0.1060 
 20 C       -5.6630    -9.1940     0.9570 C.3   1 <1>   0.3430 
 21 C       -3.4750    -8.0190     0.6960 C.3   1 <1>   0.2630 
 22 C       -8.2490    -6.0050     0.4230 C.2   1 <1>   0.9060 
 23 C       -7.6720    -8.0250    -0.2410 C.3   1 <1>  -0.1600 
 24 C       -7.1920    -9.0230     0.8510 C.3   1 <1>  -0.1600 
 25 O       -8.9320    -5.4230    -0.4270 O.co2 1 <1>  -0.9000 
 26 O       -8.5670    -6.0920     1.6150 O.co2 1 <1>  -0.9000 
 27 H       -1.4270    -3.6520     0.8420 H     1 <1>   0.1500 
 28 H       -0.5380     2.8390     0.5650 H     1 <1>   0.0800 
 29 H        0.8190     1.8860     1.1220 H     1 <1>   0.0800 
 30 H       -0.5750     2.1200     2.1590 H     1 <1>   0.0800 
 31 H       -3.2520    -0.3880    -2.3930 H     1 <1>   0.1500 
 32 H       -3.8140    -2.7870    -2.5970 H     1 <1>   0.1500 
 33 H       -5.2570    -6.5490    -2.4930 H     1 <1>   0.0800 
 34 H       -3.8170    -7.1830    -1.7910 H     1 <1>   0.0800 
 35 H       -5.2910    -3.4670    -0.5280 H     1 <1>   0.0800 
 36 H       -6.2240    -4.3950    -1.6830 H     1 <1>   0.0800 
 37 H       -5.8150    -8.1780    -1.1190 H     1 <1>   0.0800 
 38 H       -5.4370    -5.3670     1.0610 H     1 <1>   0.0800 
 39 H       -6.7990    -4.4520     0.7720 H     1 <1>   0.0800 
 40 H       -5.2490    -7.2550     1.4530 H     1 <1>   0.4500 
 41 H       -5.3460    -9.9150     0.2210 H     1 <1>   0.0800 
 42 H       -5.4070    -9.5740     1.9320 H     1 <1>   0.0800 
 43 H       -3.1410    -8.5840    -0.1580 H     1 <1>   0.0800 
 44 H       -3.1350    -8.5080     1.5940 H     1 <1>   0.0800 
 45 H       -3.0300    -7.0400     0.6580 H     1 <1>   0.0800 
 46 H       -8.7540    -8.0280    -0.1500 H     1 <1>   0.0800 
 47 H       -7.5640    -8.4250    -1.2370 H     1 <1>   0.0800 
 48 H       -7.6470    -9.9850     0.6900 H     1 <1>   0.0800 
 49 H       -7.5530    -8.6670     1.8020 H     1 <1>   0.0800 
@<TRIPOS>BOND
  1   1   2  1   
  2   1   3  1   
  3   2   4  ar  
  4   2   5  ar  
  5   3   6  2   
  6   3   7  1   
  7   4   6  1   
  8   4   8  ar  
  9   5   9  ar  
 10   5  27  1   
 11   7  28  1   
 12   7  29  1   
 13   7  30  1   
 14   8  10  ar  
 15   8  31  1   
 16   9  10  ar  
 17   9  11  1   
 18  10  32  1   
 19  11  12  2   
 20  11  13  am  
 21  13  14  1   
 22  13  15  1   
 23  14  16  1   
 24  14  33  1   
 25  14  34  1   
 26  15  17  1   
 27  15  35  1   
 28  15  36  1   
 29  16  18  1   
 30  16  19  1   
 31  16  37  1   
 32  17  19  1   
 33  17  38  1   
 34  17  39  1   
 35  18  20  1   
 36  18  21  1   
 37  18  40  1   
 38  19  22  1   
 39  19  23  1   
 40  20  24  1   
 41  20  41  1   
 42  20  42  1   
 43  21  43  1   
 44  21  44  1   
 45  21  45  1   
 46  22  25  ar  
 47  22  26  ar  
 48  23  24  1   
 49  23  46  1   
 50  23  47  1   
 51  24  48  1   
 52  24  49  1   
@<TRIPOS>SUBSTRUCTURE
  1 ****  13 GROUP 4 **** **** 0

# MOE 2024.06 (io_trps.svl 2023.06)
