@<TRIPOS>MOLECULE
NONAME
47 49 1 0 0 
SMALL
USER_CHARGES


@<TRIPOS>ATOM
  1 S        1.0110     0.2550    -0.1010 S.o2  1 <1>   1.0900 
  2 O        0.8110    -1.1720    -0.1590 O.2   1 <1>  -0.6500 
  3 O        2.2750     0.8220     0.3200 O.2   1 <1>  -0.6500 
  4 C       -0.2890     0.9840     0.8850 C.3   1 <1>  -0.0550 
  5 C        0.5730     0.9670    -1.6800 C.3   1 <1>  -0.0550 
  6 C       -0.2200     2.5190     0.8710 C.3   1 <1>  -0.1600 
  7 C        0.6270     2.5030    -1.6440 C.3   1 <1>  -0.1600 
  8 C       -0.2470     3.1420    -0.5420 C.3   1 <1>   0.2890 
  9 N        0.1090     4.5690    -0.4310 N.pl3 1 <1>  -0.8690 
 10 C        1.2400     5.1980    -0.0540 C.ar  1 <1>   0.4100 
 11 N        1.1560     6.5060    -0.0890 N.ar  1 <1>  -0.6200 
 12 C        2.4220     4.5430     0.3480 C.ar  1 <1>  -0.1500 
 13 C        2.2170     7.2180     0.2690 C.ar  1 <1>   0.7710 
 14 C        3.4980     5.2810     0.7030 C.ar  1 <1>   0.2180 
 15 N        3.3640     6.6260     0.6510 N.ar  1 <1>  -0.1790 
 16 N        2.1560     8.5760     0.2450 N.pl3 1 <1>  -0.8380 
 17 C        4.8200     4.6790     1.1460 C.3   1 <1>  -0.0970 
 18 C        0.9910     9.3040    -0.3600 C.3   1 <1>   0.2090 
 19 C        3.1790     9.5370     0.7620 C.3   1 <1>   0.2090 
 20 C        1.4850    10.1390    -1.5470 C.3   1 <1>  -0.1600 
 21 C        3.7310    10.3580    -0.4060 C.3   1 <1>  -0.1600 
 22 C        2.6080    11.1050    -1.1410 C.3   1 <1>  -0.1600 
 23 H       -0.2010     0.6390     1.8990 H     1 <1>   0.0800 
 24 H       -1.2450     0.6640     0.5160 H     1 <1>   0.0800 
 25 H       -0.4130     0.6490    -1.9600 H     1 <1>   0.0800 
 26 H        1.2540     0.6120    -2.4310 H     1 <1>   0.0800 
 27 H        0.6710     2.8020     1.3960 H     1 <1>   0.0800 
 28 H       -1.0520     2.9070     1.4310 H     1 <1>   0.0800 
 29 H        0.3040     2.8820    -2.5980 H     1 <1>   0.0800 
 30 H        1.6540     2.7840    -1.5260 H     1 <1>   0.0800 
 31 H       -1.2680     3.0860    -0.8850 H     1 <1>   0.0800 
 32 H       -0.6550     5.2020    -0.6890 H     1 <1>   0.4000 
 33 H        2.4650     3.4720     0.3690 H     1 <1>   0.1500 
 34 H        4.1240     7.2540     0.8720 H     1 <1>   0.4570 
 35 H        4.7660     3.6040     1.1330 H     1 <1>   0.0800 
 36 H        5.0600     4.9900     2.1470 H     1 <1>   0.0800 
 37 H        5.6130     4.9810     0.4830 H     1 <1>   0.0800 
 38 H        0.5500     9.9500     0.3810 H     1 <1>   0.0800 
 39 H        0.2210     8.6330    -0.7020 H     1 <1>   0.0800 
 40 H        3.9840     9.0410     1.2720 H     1 <1>   0.0800 
 41 H        2.7100    10.2010     1.4710 H     1 <1>   0.0800 
 42 H        0.6610    10.6980    -1.9530 H     1 <1>   0.0800 
 43 H        1.8360     9.4730    -2.3160 H     1 <1>   0.0800 
 44 H        4.2420     9.7070    -1.0940 H     1 <1>   0.0800 
 45 H        4.4470    11.0720    -0.0370 H     1 <1>   0.0800 
 46 H        2.2030    11.8660    -0.4940 H     1 <1>   0.0800 
 47 H        3.0030    11.5930    -2.0160 H     1 <1>   0.0800 
@<TRIPOS>BOND
  1   1   2  2   
  2   1   3  2   
  3   1   4  1   
  4   1   5  1   
  5   4   6  1   
  6   4  23  1   
  7   4  24  1   
  8   5   7  1   
  9   5  25  1   
 10   5  26  1   
 11   6   8  1   
 12   6  27  1   
 13   6  28  1   
 14   7   8  1   
 15   7  29  1   
 16   7  30  1   
 17   8   9  1   
 18   8  31  1   
 19   9  10  1   
 20   9  32  1   
 21  10  11  ar  
 22  10  12  ar  
 23  11  13  ar  
 24  12  14  ar  
 25  12  33  1   
 26  13  15  ar  
 27  13  16  1   
 28  14  15  ar  
 29  14  17  1   
 30  15  34  1   
 31  16  18  1   
 32  16  19  1   
 33  17  35  1   
 34  17  36  1   
 35  17  37  1   
 36  18  20  1   
 37  18  38  1   
 38  18  39  1   
 39  19  21  1   
 40  19  40  1   
 41  19  41  1   
 42  20  22  1   
 43  20  42  1   
 44  20  43  1   
 45  21  22  1   
 46  21  44  1   
 47  21  45  1   
 48  22  46  1   
 49  22  47  1   
@<TRIPOS>SUBSTRUCTURE
  1 ****  10 GROUP 4 **** **** 0

# MOE 2024.06 (io_trps.svl 2023.06)
