@<TRIPOS>MOLECULE
NONAME
43 45 1 0 0 
SMALL
USER_CHARGES


@<TRIPOS>ATOM
  1 S       -1.8500     0.3970    -0.0330 S.3   1 <1>  -0.4600 
  2 C       -3.3830    -0.2070     0.7390 C.3   1 <1>   0.2500 
  3 C       -1.7150    -0.5780    -1.5590 C.3   1 <1>  -0.0100 
  4 C       -3.2610    -1.6930     1.0270 C.2   1 <1>  -0.0400 
  5 O       -3.4880    -2.5580     0.0640 O.3   1 <1>  -0.2800 
  6 C       -2.9510    -2.3430     2.1690 C.2   1 <1>  -0.1500 
  7 C       -3.3220    -3.7910     0.5320 C.2   1 <1>   0.0550 
  8 C       -2.9880    -3.7010     1.8510 C.2   1 <1>  -0.1500 
  9 C       -3.4980    -4.9440    -0.3240 C.2   1 <1>   0.7150 
 10 O       -3.7150    -4.8420    -1.5180 O.2   1 <1>  -0.5700 
 11 N       -3.4400    -6.2000     0.2070 N.am  1 <1>  -0.7300 
 12 C       -3.5830    -7.4660    -0.5470 C.3   1 <1>   0.2200 
 13 C       -4.9630    -8.0790    -0.3410 C.3   1 <1>  -0.0800 
 14 C       -2.7110    -8.5230     0.1140 C.3   1 <1>   0.1200 
 15 C       -4.8050    -8.8580     0.9710 C.3   1 <1>   0.1200 
 16 C       -6.1490    -7.0960    -0.3570 C.3   1 <1>  -0.0170 
 17 O       -3.4330    -8.9260     1.2370 O.3   1 <1>  -0.5600 
 18 C       -7.4700    -7.8380    -0.2370 C.ar  1 <1>  -0.1430 
 19 C       -8.1430    -7.9530     0.9630 C.ar  1 <1>  -0.1500 
 20 C       -8.0650    -8.4380    -1.3290 C.ar  1 <1>  -0.1500 
 21 C       -9.3400    -8.6470     1.0130 C.ar  1 <1>   0.1600 
 22 C       -9.2660    -9.1100    -1.1710 C.ar  1 <1>   0.1600 
 23 N       -9.9160    -9.2310    -0.0250 N.ar  1 <1>  -0.6200 
 24 H       -3.5110     0.3520     1.6470 H     1 <1>   0.0800 
 25 H       -4.1950    -0.0050     0.0630 H     1 <1>   0.0800 
 26 H       -0.9330    -0.1460    -2.1560 H     1 <1>   0.0800 
 27 H       -2.6600    -0.5340    -2.0700 H     1 <1>   0.0800 
 28 H       -1.4720    -1.5900    -1.2880 H     1 <1>   0.0800 
 29 H       -2.7130    -1.9280     3.1330 H     1 <1>   0.1500 
 30 H       -2.7810    -4.4980     2.5420 H     1 <1>   0.1500 
 31 H       -3.3130    -6.3250     1.2120 H     1 <1>   0.3700 
 32 H       -3.3390    -7.3250    -1.5870 H     1 <1>   0.0800 
 33 H       -5.1190    -8.8010    -1.1230 H     1 <1>   0.0800 
 34 H       -1.7490    -8.1470     0.4140 H     1 <1>   0.0800 
 35 H       -2.5890    -9.3780    -0.5280 H     1 <1>   0.0800 
 36 H       -5.1970    -9.8580     0.8890 H     1 <1>   0.0800 
 37 H       -5.2720    -8.3520     1.7980 H     1 <1>   0.0800 
 38 H       -6.1370    -6.5370    -1.2780 H     1 <1>   0.0800 
 39 H       -6.0650    -6.3890     0.4490 H     1 <1>   0.0800 
 40 H       -7.7500    -7.5090     1.8590 H     1 <1>   0.1500 
 41 H       -7.6070    -8.3890    -2.2990 H     1 <1>   0.1500 
 42 H       -9.8510    -8.7270     1.9570 H     1 <1>   0.1500 
 43 H       -9.7150    -9.5720    -2.0330 H     1 <1>   0.1500 
@<TRIPOS>BOND
  1   1   2  1   
  2   1   3  1   
  3   2   4  1   
  4   2  24  1   
  5   2  25  1   
  6   3  26  1   
  7   3  27  1   
  8   3  28  1   
  9   4   5  1   
 10   4   6  2   
 11   5   7  1   
 12   6   8  1   
 13   6  29  1   
 14   7   8  2   
 15   7   9  1   
 16   8  30  1   
 17   9  10  2   
 18   9  11  am  
 19  11  12  1   
 20  11  31  1   
 21  12  13  1   
 22  12  14  1   
 23  12  32  1   
 24  13  15  1   
 25  13  16  1   
 26  13  33  1   
 27  14  17  1   
 28  14  34  1   
 29  14  35  1   
 30  15  17  1   
 31  15  36  1   
 32  15  37  1   
 33  16  18  1   
 34  16  38  1   
 35  16  39  1   
 36  18  19  ar  
 37  18  20  ar  
 38  19  21  ar  
 39  19  40  1   
 40  20  22  ar  
 41  20  41  1   
 42  21  23  ar  
 43  21  42  1   
 44  22  23  ar  
 45  22  43  1   
@<TRIPOS>SUBSTRUCTURE
  1 ****  11 GROUP 4 **** **** 0

# MOE 2024.06 (io_trps.svl 2023.06)
