@<TRIPOS>MOLECULE
NONAME
42 44 1 0 0 
SMALL
USER_CHARGES


@<TRIPOS>ATOM
  1 S       -1.8530     0.9530    -1.2080 S.3   1 <1>  -0.0800 
  2 C       -0.5840     2.1150    -0.9390 C.2   1 <1>  -0.1400 
  3 C       -0.9380     0.3020    -2.5510 C.2   1 <1>   0.2280 
  4 C        0.3730     1.9150    -1.8600 C.2   1 <1>   0.0770 
  5 C       -0.7620     3.0920     0.2060 C.3   1 <1>   0.2900 
  6 N        0.1730     0.8870    -2.7650 N.2   1 <1>  -0.5650 
  7 N        0.5240     3.7430     0.5500 N.3   1 <1>  -0.8100 
  8 C        0.2710     4.9610     1.3700 C.3   1 <1>   0.1100 
  9 C        1.4320     2.7960     1.2380 C.3   1 <1>   0.1100 
 10 C        1.5440     5.8000     1.6060 C.3   1 <1>   0.3430 
 11 C        2.8820     3.0140     0.7800 C.3   1 <1>  -0.1600 
 12 N        2.5530     5.4350     0.5710 N.4   1 <1>  -0.9590 
 13 C        3.4800     4.3950     1.0640 C.3   1 <1>   0.3430 
 14 C        3.2000     6.5880    -0.1040 C.3   1 <1>   0.4860 
 15 C        2.1230     7.4870    -0.6880 C.ar  1 <1>  -0.1440 
 16 C        1.2600     7.0110    -1.6670 C.ar  1 <1>  -0.1500 
 17 C        1.9850     8.7950    -0.2360 C.ar  1 <1>  -0.1500 
 18 C        0.2790     7.8510    -2.1570 C.ar  1 <1>   0.1900 
 19 C        0.9940     9.6220    -0.7450 C.ar  1 <1>  -0.1500 
 20 F       -0.5360     7.3950    -3.0680 F     1 <1>  -0.1900 
 21 C        0.1270     9.1500    -1.7150 C.ar  1 <1>  -0.1500 
 22 H       -1.3710    -0.5260    -3.0850 H     1 <1>   0.1500 
 23 H        1.2780     2.4870    -1.9530 H     1 <1>   0.1500 
 24 H       -1.1550     2.5770     1.0670 H     1 <1>   0.0800 
 25 H       -1.4830     3.8310    -0.1010 H     1 <1>   0.0800 
 26 H       -0.1720     4.6970     2.3160 H     1 <1>   0.0800 
 27 H       -0.4340     5.5880     0.8500 H     1 <1>   0.0800 
 28 H        1.1650     1.7800     0.9920 H     1 <1>   0.0800 
 29 H        1.3490     2.8950     2.3080 H     1 <1>   0.0800 
 30 H        1.9320     5.6040     2.5920 H     1 <1>   0.0800 
 31 H        1.2880     6.8450     1.5500 H     1 <1>   0.0800 
 32 H        2.9480     2.8110    -0.2740 H     1 <1>   0.0800 
 33 H        3.5000     2.2800     1.2670 H     1 <1>   0.0800 
 34 H        1.9560     4.9390    -0.1200 H     1 <1>   0.4500 
 35 H        4.4300     4.4730     0.5610 H     1 <1>   0.0800 
 36 H        3.6460     4.5180     2.1220 H     1 <1>   0.0800 
 37 H        3.8410     6.2390    -0.8980 H     1 <1>   0.0800 
 38 H        3.7980     7.1420     0.6010 H     1 <1>   0.0800 
 39 H        1.3280     6.0110    -2.0580 H     1 <1>   0.1500 
 40 H        2.6470     9.1910     0.5170 H     1 <1>   0.1500 
 41 H        0.8970    10.6350    -0.3890 H     1 <1>   0.1500 
 42 H       -0.6490     9.7730    -2.1240 H     1 <1>   0.1500 
@<TRIPOS>BOND
  1   1   2  1   
  2   1   3  1   
  3   2   4  2   
  4   2   5  1   
  5   3   6  2   
  6   3  22  1   
  7   4   6  1   
  8   4  23  1   
  9   5   7  1   
 10   5  24  1   
 11   5  25  1   
 12   7   8  1   
 13   7   9  1   
 14   8  10  1   
 15   8  26  1   
 16   8  27  1   
 17   9  11  1   
 18   9  28  1   
 19   9  29  1   
 20  10  12  1   
 21  10  30  1   
 22  10  31  1   
 23  11  13  1   
 24  11  32  1   
 25  11  33  1   
 26  12  13  1   
 27  12  14  1   
 28  12  34  1   
 29  13  35  1   
 30  13  36  1   
 31  14  15  1   
 32  14  37  1   
 33  14  38  1   
 34  15  16  ar  
 35  15  17  ar  
 36  16  18  ar  
 37  16  39  1   
 38  17  19  ar  
 39  17  40  1   
 40  18  20  1   
 41  18  21  ar  
 42  19  21  ar  
 43  19  41  1   
 44  21  42  1   
@<TRIPOS>SUBSTRUCTURE
  1 ****   7 GROUP 4 **** **** 0

# MOE 2024.06 (io_trps.svl 2023.06)
