@<TRIPOS>MOLECULE
NONAME
46 49 1 0 0 
SMALL
USER_CHARGES


@<TRIPOS>ATOM
  1 O        0.4330     1.6500    -1.4530 O.2   1 <1>  -0.5700 
  2 C        0.0060     2.7680    -1.2830 C.2   1 <1>   0.5690 
  3 N       -0.6860     3.1550    -0.1640 N.am  1 <1>  -0.5090 
  4 C        0.2570     3.8050    -2.3710 C.3   1 <1>   0.1810 
  5 C       -1.1810     4.5640    -0.0110 C.3   1 <1>   0.3640 
  6 C       -0.7300     2.3130     1.0590 C.3   1 <1>   0.0490 
  7 O        0.4670     5.0740    -1.8120 O.3   1 <1>  -0.5600 
  8 C       -2.7080     4.5870    -0.0720 C.ar  1 <1>  -0.1440 
  9 C       -0.6270     5.5750    -1.0590 C.3   1 <1>   0.2610 
 10 C       -1.2690     0.9200     0.9620 C.3   1 <1>  -0.2000 
 11 C       -2.0360     1.9620     1.7070 C.3   1 <1>  -0.2000 
 12 C       -3.4050     3.8280    -1.0060 C.ar  1 <1>   0.1600 
 13 C       -3.4310     5.3790     0.8000 C.ar  1 <1>  -0.1500 
 14 C       -0.2440     6.8910    -0.3680 C.2   1 <1>   0.5690 
 15 N       -4.7200     3.8080    -1.1410 N.ar  1 <1>  -0.6200 
 16 C       -4.8030     5.3650     0.6780 C.ar  1 <1>  -0.1500 
 17 O       -1.0010     7.3880     0.4340 O.2   1 <1>  -0.5700 
 18 N        0.9380     7.4820    -0.6670 N.am  1 <1>  -0.7300 
 19 C       -5.3890     4.5750    -0.2950 C.ar  1 <1>   0.1600 
 20 C        1.4800     8.7230    -0.0720 C.3   1 <1>   0.2840 
 21 C        2.9590     8.5440     0.2490 C.ar  1 <1>   0.1670 
 22 N        3.7660     8.2960    -0.7770 N.ar  1 <1>  -0.6200 
 23 C        3.3900     8.6410     1.5640 C.ar  1 <1>  -0.1500 
 24 C        5.0470     8.1460    -0.4770 C.ar  1 <1>   0.1600 
 25 C        4.7270     8.4830     1.8600 C.ar  1 <1>  -0.1500 
 26 C        5.5710     8.2280     0.8010 C.ar  1 <1>  -0.1500 
 27 H       -0.5780     3.8500    -3.0460 H     1 <1>   0.0800 
 28 H        1.1410     3.5380    -2.9210 H     1 <1>   0.0800 
 29 H       -0.8800     4.8980     0.9670 H     1 <1>   0.0800 
 30 H        0.1300     2.4690     1.6900 H     1 <1>   0.1000 
 31 H       -1.4040     5.8090    -1.7640 H     1 <1>   0.0800 
 32 H       -1.6410     0.5780     0.0120 H     1 <1>   0.1000 
 33 H       -0.7810     0.1410     1.5190 H     1 <1>   0.1000 
 34 H       -2.0790     1.8830     2.7780 H     1 <1>   0.1000 
 35 H       -2.9750     2.2670     1.2830 H     1 <1>   0.1000 
 36 H       -2.8560     3.1960    -1.6820 H     1 <1>   0.1500 
 37 H       -2.9510     5.9930     1.5450 H     1 <1>   0.1500 
 38 H       -5.4160     5.9620     1.3280 H     1 <1>   0.1500 
 39 H        1.5930     7.0050    -1.2980 H     1 <1>   0.3700 
 40 H       -6.4620     4.5730    -0.3830 H     1 <1>   0.1500 
 41 H        1.3720     9.5260    -0.7800 H     1 <1>   0.0800 
 42 H        0.9280     8.9770     0.8160 H     1 <1>   0.0800 
 43 H        2.6880     8.8380     2.3540 H     1 <1>   0.1500 
 44 H        5.7160     7.9450    -1.2970 H     1 <1>   0.1500 
 45 H        5.0950     8.5530     2.8690 H     1 <1>   0.1500 
 46 H        6.6250     8.0950     0.9610 H     1 <1>   0.1500 
@<TRIPOS>BOND
  1   1   2  2   
  2   2   3  am  
  3   2   4  1   
  4   3   5  1   
  5   3   6  1   
  6   4   7  1   
  7   4  27  1   
  8   4  28  1   
  9   5   8  1   
 10   5   9  1   
 11   5  29  1   
 12   6  10  1   
 13   6  11  1   
 14   6  30  1   
 15   7   9  1   
 16   8  12  ar  
 17   8  13  ar  
 18   9  14  1   
 19   9  31  1   
 20  10  11  1   
 21  10  32  1   
 22  10  33  1   
 23  11  34  1   
 24  11  35  1   
 25  12  15  ar  
 26  12  36  1   
 27  13  16  ar  
 28  13  37  1   
 29  14  17  2   
 30  14  18  am  
 31  15  19  ar  
 32  16  19  ar  
 33  16  38  1   
 34  18  20  1   
 35  18  39  1   
 36  19  40  1   
 37  20  21  1   
 38  20  41  1   
 39  20  42  1   
 40  21  22  ar  
 41  21  23  ar  
 42  22  24  ar  
 43  23  25  ar  
 44  23  43  1   
 45  24  26  ar  
 46  24  44  1   
 47  25  26  ar  
 48  25  45  1   
 49  26  46  1   
@<TRIPOS>SUBSTRUCTURE
  1 ****   9 GROUP 4 **** **** 0

# MOE 2024.06 (io_trps.svl 2023.06)
