@<TRIPOS>MOLECULE
NONAME
51 55 1 0 0 
SMALL
USER_CHARGES


@<TRIPOS>ATOM
  1 O       -2.1700     0.3430    -2.2570 O.2   1 <1>  -0.5700 
  2 C       -1.9650     0.8560    -1.1730 C.2   1 <1>   0.6160 
  3 N       -2.2280     0.0920    -0.0560 N.am  1 <1>  -0.6600 
  4 C       -1.5650     2.2450    -1.0590 C.2   1 <1>   0.0140 
  5 C       -3.0520     0.6470     1.0600 C.3   1 <1>   0.1400 
  6 C       -2.3310    -1.3910    -0.1810 C.3   1 <1>   0.1400 
  7 C       -0.6920     2.6630    -0.1040 C.2   1 <1>  -0.1780 
  8 C       -2.1400     3.1720    -2.0060 C.2   1 <1>  -0.1500 
  9 C       -4.5380     0.2370     0.9070 C.3   1 <1>   0.4230 
 10 C       -3.8020    -1.7900    -0.3910 C.3   1 <1>   0.3430 
 11 C       -0.2280     4.0000     0.1690 C.ar  1 <1>   0.0280 
 12 C       -2.4240     4.4660    -1.7830 C.2   1 <1>  -0.0730 
 13 N       -4.7020    -1.2630     0.7080 N.4   1 <1>  -0.9590 
 14 C       -5.2090     1.0260    -0.2440 C.3   1 <1>   0.1200 
 15 C       -0.9820     5.1580    -0.0810 C.ar  1 <1>   0.0830 
 16 C        1.0320     4.1710     0.7360 C.ar  1 <1>  -0.1500 
 17 O       -2.2380     5.1030    -0.6040 O.3   1 <1>  -0.1590 
 18 C       -6.1530    -1.5860     0.4750 C.3   1 <1>   0.5180 
 19 O       -6.5510     0.6520    -0.3660 O.3   1 <1>  -0.5600 
 20 C       -0.4910     6.4120     0.2300 C.ar  1 <1>  -0.1500 
 21 C        1.5280     5.4270     1.0430 C.ar  1 <1>  -0.1500 
 22 C       -6.3120    -3.1040     0.2540 C.3   1 <1>  -0.1950 
 23 C       -6.7540    -0.7050    -0.6480 C.3   1 <1>   0.1200 
 24 C        0.7670     6.5520     0.7910 C.ar  1 <1>  -0.1500 
 25 C       -6.2070    -3.7930    -1.0770 C.3   1 <1>  -0.2000 
 26 C       -7.5320    -3.7120    -0.3720 C.3   1 <1>  -0.2000 
 27 H       -2.6700     0.2790     1.9960 H     1 <1>   0.0800 
 28 H       -2.9810     1.7210     1.0860 H     1 <1>   0.0800 
 29 H       -1.7430    -1.7330    -1.0160 H     1 <1>   0.0800 
 30 H       -1.9390    -1.8580     0.7050 H     1 <1>   0.0800 
 31 H       -0.2540     1.9220     0.5420 H     1 <1>   0.1500 
 32 H       -2.3530     2.7500    -2.9750 H     1 <1>   0.1500 
 33 H       -5.0460     0.5260     1.8120 H     1 <1>   0.0800 
 34 H       -3.8650    -2.8650    -0.4370 H     1 <1>   0.0800 
 35 H       -4.1200    -1.4010    -1.3450 H     1 <1>   0.0800 
 36 H       -2.8500     5.1160    -2.5280 H     1 <1>   0.1500 
 37 H       -4.4290    -1.7300     1.5780 H     1 <1>   0.4500 
 38 H       -4.7170     0.8560    -1.1860 H     1 <1>   0.0800 
 39 H       -5.1850     2.0820    -0.0360 H     1 <1>   0.0800 
 40 H        1.6430     3.3090     0.9400 H     1 <1>   0.1500 
 41 H       -6.7000    -1.3430     1.3710 H     1 <1>   0.0800 
 42 H       -1.0920     7.2820     0.0340 H     1 <1>   0.1500 
 43 H        2.5080     5.5280     1.4790 H     1 <1>   0.1500 
 44 H       -5.9500    -3.6460     1.1120 H     1 <1>   0.1000 
 45 H       -7.8160    -0.8600    -0.7120 H     1 <1>   0.0800 
 46 H       -6.3180    -0.9280    -1.6060 H     1 <1>   0.0800 
 47 H        1.1480     7.5300     1.0300 H     1 <1>   0.1500 
 48 H       -6.1080    -3.2410    -1.9960 H     1 <1>   0.1000 
 49 H       -5.7330    -4.7590    -1.1360 H     1 <1>   0.1000 
 50 H       -7.9380    -4.6170     0.0500 H     1 <1>   0.1000 
 51 H       -8.3000    -3.1060    -0.8220 H     1 <1>   0.1000 
@<TRIPOS>BOND
  1   1   2  2   
  2   2   3  am  
  3   2   4  1   
  4   3   5  1   
  5   3   6  1   
  6   4   7  2   
  7   4   8  1   
  8   5   9  1   
  9   5  27  1   
 10   5  28  1   
 11   6  10  1   
 12   6  29  1   
 13   6  30  1   
 14   7  11  1   
 15   7  31  1   
 16   8  12  2   
 17   8  32  1   
 18   9  13  1   
 19   9  14  1   
 20   9  33  1   
 21  10  13  1   
 22  10  34  1   
 23  10  35  1   
 24  11  15  ar  
 25  11  16  ar  
 26  12  17  1   
 27  12  36  1   
 28  13  18  1   
 29  13  37  1   
 30  14  19  1   
 31  14  38  1   
 32  14  39  1   
 33  15  17  1   
 34  15  20  ar  
 35  16  21  ar  
 36  16  40  1   
 37  18  22  1   
 38  18  23  1   
 39  18  41  1   
 40  19  23  1   
 41  20  24  ar  
 42  20  42  1   
 43  21  24  ar  
 44  21  43  1   
 45  22  25  1   
 46  22  26  1   
 47  22  44  1   
 48  23  45  1   
 49  23  46  1   
 50  24  47  1   
 51  25  26  1   
 52  25  48  1   
 53  25  49  1   
 54  26  50  1   
 55  26  51  1   
@<TRIPOS>SUBSTRUCTURE
  1 ****   2 GROUP 4 **** **** 0

# MOE 2024.06 (io_trps.svl 2023.06)
