@<TRIPOS>MOLECULE
NONAME
51 53 1 0 0 
SMALL
USER_CHARGES


@<TRIPOS>ATOM
  1 CL      -0.0510    -0.4550    -0.8530 Cl    1 <1>  -0.1770 
  2 C       -0.8780    -1.9350    -0.4440 C.ar  1 <1>   0.1770 
  3 C       -2.1090    -2.2080    -1.0080 C.ar  1 <1>  -0.1500 
  4 C       -0.2920    -2.8200     0.4400 C.ar  1 <1>  -0.1500 
  5 C       -2.7570    -3.3860    -0.6820 C.ar  1 <1>  -0.1500 
  6 C       -0.9530    -3.9930     0.7600 C.ar  1 <1>  -0.1500 
  7 C       -2.1990    -4.3050     0.2090 C.ar  1 <1>   0.0530 
  8 C       -2.8550    -5.5470     0.5460 C.2   1 <1>   0.0870 
  9 O       -2.1170    -6.6090     0.7780 O.3   1 <1>  -0.0190 
 10 C       -4.1530    -5.9350     0.6790 C.2   1 <1>  -0.2330 
 11 N       -2.8230    -7.6740     1.0480 N.2   1 <1>  -0.4100 
 12 C       -4.0480    -7.2870     1.0020 C.2   1 <1>   0.3720 
 13 C       -5.3960    -5.2360     0.5440 C.2   1 <1>   1.0330 
 14 N       -5.1310    -8.1180     1.2320 N.pl3 1 <1>  -0.8520 
 15 O       -5.4440    -3.9960     0.5600 O.co2 1 <1>  -0.9000 
 16 O       -6.4610    -5.8660     0.3860 O.co2 1 <1>  -0.9000 
 17 C       -5.1910    -9.3000     0.3540 C.3   1 <1>   0.2090 
 18 C       -6.5740    -9.9650     0.4200 C.3   1 <1>  -0.0800 
 19 C       -6.5850   -11.1820    -0.5190 C.3   1 <1>   0.1400 
 20 C       -7.7150    -8.9890     0.0640 C.3   1 <1>  -0.1600 
 21 N       -7.9270   -11.8400    -0.5270 N.am  1 <1>  -0.6600 
 22 C       -9.0650    -9.7160     0.0140 C.3   1 <1>  -0.1600 
 23 C       -8.0650   -13.1630    -0.1660 C.2   1 <1>   0.5690 
 24 C       -9.0280   -10.9190    -0.9300 C.3   1 <1>   0.1400 
 25 O       -7.1110   -13.8080     0.2070 O.2   1 <1>  -0.5700 
 26 C       -9.4330   -13.8710    -0.2170 C.3   1 <1>  -0.0190 
 27 C      -10.2540   -13.5860     1.0530 C.3   1 <1>  -0.2400 
 28 C       -9.3150   -15.3950    -0.4110 C.3   1 <1>  -0.2400 
 29 H       -2.5580    -1.5080    -1.6890 H     1 <1>   0.1500 
 30 H        0.6650    -2.5900     0.8700 H     1 <1>   0.1500 
 31 H       -3.7180    -3.5950    -1.1190 H     1 <1>   0.1500 
 32 H       -0.5020    -4.6830     1.4510 H     1 <1>   0.1500 
 33 H       -5.9710    -7.5250     1.0520 H     1 <1>   0.4000 
 34 H       -4.4320    -9.9990     0.6640 H     1 <1>   0.0800 
 35 H       -4.9800    -8.9950    -0.6580 H     1 <1>   0.0800 
 36 H       -6.7160   -10.3240     1.4250 H     1 <1>   0.0800 
 37 H       -5.8230   -11.8760    -0.2080 H     1 <1>   0.0800 
 38 H       -6.3530   -10.8670    -1.5210 H     1 <1>   0.0800 
 39 H       -7.5160    -8.5280    -0.8880 H     1 <1>   0.0800 
 40 H       -7.7730    -8.2010     0.7970 H     1 <1>   0.0800 
 41 H       -9.8250    -9.0280    -0.3110 H     1 <1>   0.0800 
 42 H       -9.3280   -10.0520     1.0020 H     1 <1>   0.0800 
 43 H       -9.9840   -11.4060    -0.9080 H     1 <1>   0.0800 
 44 H       -8.8490   -10.5820    -1.9370 H     1 <1>   0.0800 
 45 H       -9.9710   -13.5030    -1.0700 H     1 <1>   0.0800 
 46 H       -9.7410   -13.9730     1.9160 H     1 <1>   0.0800 
 47 H      -11.2220   -14.0490     0.9890 H     1 <1>   0.0800 
 48 H      -10.3870   -12.5280     1.1870 H     1 <1>   0.0800 
 49 H       -8.8130   -15.8430     0.4280 H     1 <1>   0.0800 
 50 H       -8.7460   -15.6090    -1.2990 H     1 <1>   0.0800 
 51 H      -10.2880   -15.8420    -0.5110 H     1 <1>   0.0800 
@<TRIPOS>BOND
  1   1   2  1   
  2   2   3  ar  
  3   2   4  ar  
  4   3   5  ar  
  5   3  29  1   
  6   4   6  ar  
  7   4  30  1   
  8   5   7  ar  
  9   5  31  1   
 10   6   7  ar  
 11   6  32  1   
 12   7   8  1   
 13   8   9  1   
 14   8  10  2   
 15   9  11  1   
 16  10  12  1   
 17  10  13  1   
 18  11  12  2   
 19  12  14  1   
 20  13  15  ar  
 21  13  16  ar  
 22  14  17  1   
 23  14  33  1   
 24  17  18  1   
 25  17  34  1   
 26  17  35  1   
 27  18  19  1   
 28  18  20  1   
 29  18  36  1   
 30  19  21  1   
 31  19  37  1   
 32  19  38  1   
 33  20  22  1   
 34  20  39  1   
 35  20  40  1   
 36  21  23  am  
 37  21  24  1   
 38  22  24  1   
 39  22  41  1   
 40  22  42  1   
 41  23  25  2   
 42  23  26  1   
 43  24  43  1   
 44  24  44  1   
 45  26  27  1   
 46  26  28  1   
 47  26  45  1   
 48  27  46  1   
 49  27  47  1   
 50  27  48  1   
 51  28  49  1   
 52  28  50  1   
 53  28  51  1   
@<TRIPOS>SUBSTRUCTURE
  1 ****  14 GROUP 4 **** **** 0

# MOE 2024.06 (io_trps.svl 2023.06)
