@<TRIPOS>MOLECULE
NONAME
44 46 1 0 0 
SMALL
USER_CHARGES


@<TRIPOS>ATOM
  1 O        0.4030    -0.1640     0.6490 O.2   1 <1>  -0.5700 
  2 C        1.4280    -0.7030     0.2560 C.2   1 <1>   0.7160 
  3 N        2.4320     0.1210    -0.2410 N.am  1 <1>  -0.6600 
  4 C        1.5280    -2.1650     0.3130 C.2   1 <1>   0.1410 
  5 C        3.5870    -0.4180    -1.0250 C.3   1 <1>   0.1400 
  6 C        2.2970     1.6060    -0.1540 C.3   1 <1>   0.1400 
  7 N        2.6840    -2.8420     0.6060 N.2   1 <1>  -0.5650 
  8 C        0.5340    -3.0900     0.1200 C.2   1 <1>  -0.3320 
  9 C        4.8410    -0.5730    -0.1520 C.3   1 <1>   0.1400 
 10 C        3.6230     2.3590     0.0220 C.3   1 <1>  -0.1600 
 11 C        2.3630    -4.0890     0.5880 C.2   1 <1>   0.0360 
 12 N        1.0670    -4.3050     0.2990 N.pl3 1 <1>   0.0330 
 13 C       -0.9350    -2.8980    -0.2290 C.3   1 <1>  -0.0600 
 14 N        5.4820     0.7450     0.1560 N.am  1 <1>  -0.6600 
 15 C        4.6240     1.6650     0.9530 C.3   1 <1>   0.1400 
 16 C        6.7360     1.0400    -0.3320 C.2   1 <1>   0.5690 
 17 O        7.3010     0.2840    -1.0880 O.2   1 <1>  -0.5700 
 18 C        7.4540     2.3370     0.0550 C.3   1 <1>  -0.0190 
 19 C        6.9090     3.5840    -0.6750 C.3   1 <1>  -0.0220 
 20 C        8.9870     2.3560    -0.1620 C.3   1 <1>  -0.0220 
 21 C        8.1340     4.4520    -0.8190 C.2   1 <1>  -0.2880 
 22 C        9.2510     3.7930    -0.5400 C.2   1 <1>  -0.2880 
 23 H        3.8050     0.2260    -1.8590 H     1 <1>   0.0800 
 24 H        3.3280    -1.3800    -1.4310 H     1 <1>   0.0800 
 25 H        1.6720     1.8480     0.6900 H     1 <1>   0.0800 
 26 H        1.7940     1.9620    -1.0360 H     1 <1>   0.0800 
 27 H        5.5340    -1.2110    -0.6710 H     1 <1>   0.0800 
 28 H        4.5850    -1.0690     0.7670 H     1 <1>   0.0800 
 29 H        3.3880     3.3230     0.4330 H     1 <1>   0.0800 
 30 H        4.0720     2.5320    -0.9400 H     1 <1>   0.0800 
 31 H        3.0480    -4.8970     0.7830 H     1 <1>   0.1500 
 32 H        0.5960    -5.2120     0.2380 H     1 <1>   0.2700 
 33 H       -1.1500    -1.8660    -0.4410 H     1 <1>   0.0800 
 34 H       -1.5530    -3.2090     0.5940 H     1 <1>   0.0800 
 35 H       -1.1910    -3.4780    -1.0980 H     1 <1>   0.0800 
 36 H        4.1040     1.1110     1.7180 H     1 <1>   0.0800 
 37 H        5.2220     2.4050     1.4490 H     1 <1>   0.0800 
 38 H        7.3180     2.4920     1.1080 H     1 <1>   0.0800 
 39 H        6.1480     4.0750    -0.0960 H     1 <1>   0.0800 
 40 H        6.5280     3.3300    -1.6490 H     1 <1>   0.0800 
 41 H        9.2990     1.7190    -0.9720 H     1 <1>   0.0800 
 42 H        9.5080     2.0770     0.7370 H     1 <1>   0.0800 
 43 H        8.0150     5.4760    -1.1330 H     1 <1>   0.1500 
 44 H       10.2690     4.1430    -0.5690 H     1 <1>   0.1500 
@<TRIPOS>BOND
  1   1   2  2   
  2   2   3  am  
  3   2   4  1   
  4   3   5  1   
  5   3   6  1   
  6   4   7  1   
  7   4   8  2   
  8   5   9  1   
  9   5  23  1   
 10   5  24  1   
 11   6  10  1   
 12   6  25  1   
 13   6  26  1   
 14   7  11  2   
 15   8  12  1   
 16   8  13  1   
 17   9  14  1   
 18   9  27  1   
 19   9  28  1   
 20  10  15  1   
 21  10  29  1   
 22  10  30  1   
 23  11  12  1   
 24  11  31  1   
 25  12  32  1   
 26  13  33  1   
 27  13  34  1   
 28  13  35  1   
 29  14  15  1   
 30  14  16  am  
 31  15  36  1   
 32  15  37  1   
 33  16  17  2   
 34  16  18  1   
 35  18  19  1   
 36  18  20  1   
 37  18  38  1   
 38  19  21  1   
 39  19  39  1   
 40  19  40  1   
 41  20  22  1   
 42  20  41  1   
 43  20  42  1   
 44  21  22  2   
 45  21  43  1   
 46  22  44  1   
@<TRIPOS>SUBSTRUCTURE
  1 ****   9 GROUP 4 **** **** 0

# MOE 2024.06 (io_trps.svl 2023.06)
