@<TRIPOS>MOLECULE
NONAME
50 52 1 0 0 
SMALL
USER_CHARGES


@<TRIPOS>ATOM
  1 O       -1.7770    -0.9900     2.4830 O.3   1 <1>  -0.6800 
  2 C       -2.9230    -1.6320     2.0410 C.3   1 <1>   0.1200 
  3 C       -2.5190    -2.6550     0.9740 C.3   1 <1>   0.1100 
  4 N       -3.6890    -3.3860     0.4360 N.3   1 <1>  -0.8100 
  5 C       -4.4910    -2.5500    -0.4920 C.3   1 <1>   0.1100 
  6 C       -3.2560    -4.6240    -0.2490 C.3   1 <1>   0.1100 
  7 C       -5.6370    -3.3400    -1.1710 C.3   1 <1>   0.3430 
  8 C       -4.4530    -5.4530    -0.7750 C.3   1 <1>   0.3430 
  9 N       -5.7640    -4.7290    -0.6040 N.4   1 <1>  -0.9590 
 10 C       -6.9740    -5.4960    -1.0440 C.3   1 <1>   0.4230 
 11 C       -8.2490    -4.6870    -0.7550 C.3   1 <1>  -0.1600 
 12 C       -7.0170    -6.8600    -0.3360 C.3   1 <1>  -0.1600 
 13 C       -9.5150    -5.4810    -1.0750 C.3   1 <1>   0.2090 
 14 C       -8.2910    -7.6250    -0.6810 C.3   1 <1>   0.2090 
 15 N       -9.4530    -6.7700    -0.3510 N.pl3 1 <1>  -0.8380 
 16 C      -10.5130    -7.2430     0.3950 C.ar  1 <1>   0.7200 
 17 N      -11.7160    -6.7640     0.1130 N.ar  1 <1>  -0.6200 
 18 N      -10.2240    -8.1420     1.3340 N.ar  1 <1>  -0.6200 
 19 C      -12.7090    -7.2260     0.8300 C.ar  1 <1>   0.4100 
 20 C      -11.2400    -8.5870     2.0380 C.ar  1 <1>   0.1600 
 21 N      -13.9210    -6.7000     0.4960 N.pl3 1 <1>  -0.9000 
 22 C      -12.5300    -8.1670     1.8350 C.ar  1 <1>   0.0730 
 23 C      -13.6140    -8.6720     2.6070 C.1   1 <1>   0.4840 
 24 N      -14.4840    -9.0870     3.2170 N.1   1 <1>  -0.5570 
 25 H       -1.9820    -0.3640     3.2050 H     1 <1>   0.4000 
 26 H       -3.5850    -0.8860     1.6400 H     1 <1>   0.0800 
 27 H       -3.3800    -2.1260     2.8810 H     1 <1>   0.0800 
 28 H       -1.8450    -3.3550     1.4400 H     1 <1>   0.0800 
 29 H       -1.9920    -2.1570     0.1770 H     1 <1>   0.0800 
 30 H       -3.8550    -2.1320    -1.2550 H     1 <1>   0.0800 
 31 H       -4.9220    -1.7280     0.0520 H     1 <1>   0.0800 
 32 H       -2.6910    -5.2350     0.4360 H     1 <1>   0.0800 
 33 H       -2.6050    -4.3770    -1.0710 H     1 <1>   0.0800 
 34 H       -5.4500    -3.3940    -2.2300 H     1 <1>   0.0800 
 35 H       -6.5510    -2.7900    -1.0270 H     1 <1>   0.0800 
 36 H       -4.4760    -6.3820    -0.2310 H     1 <1>   0.0800 
 37 H       -4.2910    -5.6870    -1.8140 H     1 <1>   0.0800 
 38 H       -5.8260    -4.5750     0.4140 H     1 <1>   0.4500 
 39 H       -6.9170    -5.6690    -2.1070 H     1 <1>   0.0800 
 40 H       -8.2810    -3.7950    -1.3520 H     1 <1>   0.0800 
 41 H       -8.2850    -4.4120     0.2840 H     1 <1>   0.0800 
 42 H       -6.9880    -6.7290     0.7320 H     1 <1>   0.0800 
 43 H       -6.1900    -7.4750    -0.6340 H     1 <1>   0.0800 
 44 H       -9.5940    -5.6700    -2.1330 H     1 <1>   0.0800 
 45 H      -10.3760    -4.9080    -0.7720 H     1 <1>   0.0800 
 46 H       -8.3180    -8.5540    -0.1360 H     1 <1>   0.0800 
 47 H       -8.3170    -7.8630    -1.7320 H     1 <1>   0.0800 
 48 H      -11.0320    -9.3150     2.8050 H     1 <1>   0.1500 
 49 H      -14.8100    -7.1270     0.7680 H     1 <1>   0.4000 
 50 H      -13.9510    -6.1170    -0.3450 H     1 <1>   0.4000 
@<TRIPOS>BOND
  1   1   2  1   
  2   1  25  1   
  3   2   3  1   
  4   2  26  1   
  5   2  27  1   
  6   3   4  1   
  7   3  28  1   
  8   3  29  1   
  9   4   5  1   
 10   4   6  1   
 11   5   7  1   
 12   5  30  1   
 13   5  31  1   
 14   6   8  1   
 15   6  32  1   
 16   6  33  1   
 17   7   9  1   
 18   7  34  1   
 19   7  35  1   
 20   8   9  1   
 21   8  36  1   
 22   8  37  1   
 23   9  10  1   
 24   9  38  1   
 25  10  11  1   
 26  10  12  1   
 27  10  39  1   
 28  11  13  1   
 29  11  40  1   
 30  11  41  1   
 31  12  14  1   
 32  12  42  1   
 33  12  43  1   
 34  13  15  1   
 35  13  44  1   
 36  13  45  1   
 37  14  15  1   
 38  14  46  1   
 39  14  47  1   
 40  15  16  1   
 41  16  17  ar  
 42  16  18  ar  
 43  17  19  ar  
 44  18  20  ar  
 45  19  21  1   
 46  19  22  ar  
 47  20  22  ar  
 48  20  48  1   
 49  21  49  1   
 50  21  50  1   
 51  22  23  1   
 52  23  24  3   
@<TRIPOS>SUBSTRUCTURE
  1 ****  11 GROUP 4 **** **** 0

# MOE 2024.06 (io_trps.svl 2023.06)
