@<TRIPOS>MOLECULE
NONAME
46 48 1 0 0 
SMALL
USER_CHARGES


@<TRIPOS>ATOM
  1 O       -0.5450     0.0780    -0.4000 O.co2 1 <1>  -0.9000 
  2 C        0.5530    -0.4990    -0.5470 C.2   1 <1>   0.9790 
  3 O        1.5480     0.2260    -0.7710 O.co2 1 <1>  -0.9000 
  4 C        0.7150    -1.9630    -0.4640 C.ar  1 <1>   0.1310 
  5 N       -0.3080    -2.8070    -0.2830 N.ar  1 <1>  -0.6200 
  6 C        1.9860    -2.5050    -0.5780 C.ar  1 <1>  -0.1500 
  7 C       -0.0550    -4.1100    -0.2250 C.ar  1 <1>   0.7200 
  8 C        2.1520    -3.8630    -0.5010 C.ar  1 <1>   0.1660 
  9 N        1.1450    -4.6740    -0.3220 N.ar  1 <1>  -0.6200 
 10 N       -1.1340    -4.9560    -0.0480 N.pl3 1 <1>  -0.8380 
 11 C        3.5200    -4.4960    -0.6210 C.3   1 <1>  -0.0970 
 12 C       -1.1930    -6.2450    -0.8260 C.3   1 <1>   0.2090 
 13 C       -2.4650    -4.3760     0.2860 C.3   1 <1>   0.2090 
 14 C       -2.0310    -7.3170    -0.1020 C.3   1 <1>  -0.1060 
 15 C       -3.3360    -5.3990     1.0110 C.3   1 <1>  -0.1600 
 16 C       -2.3110    -8.4800    -1.0490 C.2   1 <1>   0.9060 
 17 C       -3.4080    -6.6980     0.2120 C.3   1 <1>   0.2000 
 18 C       -1.2970    -7.8160     1.1750 C.3   1 <1>  -0.0160 
 19 O       -1.9390    -8.4400    -2.2260 O.co2 1 <1>  -0.9000 
 20 O       -3.0030    -9.4220    -0.6250 O.co2 1 <1>  -0.9000 
 21 O       -4.1840    -7.5970     0.9200 O.3   1 <1>  -0.6800 
 22 C        0.0780    -8.4320     0.9250 C.ar  1 <1>  -0.1440 
 23 C        1.2260    -7.6860     1.1420 C.ar  1 <1>  -0.1500 
 24 C        0.1970    -9.7420     0.4880 C.ar  1 <1>  -0.1500 
 25 C        2.4760    -8.2410     0.9320 C.ar  1 <1>  -0.1500 
 26 C        1.4460   -10.3000     0.2760 C.ar  1 <1>  -0.1500 
 27 C        2.5880    -9.5510     0.5000 C.ar  1 <1>  -0.1500 
 28 H        2.8260    -1.8510    -0.7260 H     1 <1>   0.1500 
 29 H        4.2730    -3.7530    -0.8070 H     1 <1>   0.0800 
 30 H        3.5150    -5.2020    -1.4320 H     1 <1>   0.0800 
 31 H        3.7530    -5.0150     0.2900 H     1 <1>   0.0800 
 32 H       -1.6350    -6.0330    -1.7850 H     1 <1>   0.0800 
 33 H       -0.2070    -6.6310    -1.0170 H     1 <1>   0.0800 
 34 H       -2.3470    -3.5130     0.9200 H     1 <1>   0.0800 
 35 H       -2.9430    -4.0590    -0.6250 H     1 <1>   0.0800 
 36 H       -4.3240    -4.9950     1.1250 H     1 <1>   0.0800 
 37 H       -2.9270    -5.5770     1.9870 H     1 <1>   0.0800 
 38 H       -3.9190    -6.5090    -0.7190 H     1 <1>   0.0800 
 39 H       -1.1780    -6.9990     1.8600 H     1 <1>   0.0800 
 40 H       -1.9030    -8.5530     1.6710 H     1 <1>   0.0800 
 41 H       -4.0120    -8.4880     0.4950 H     1 <1>   0.4000 
 42 H        1.1420    -6.6630     1.4670 H     1 <1>   0.1500 
 43 H       -0.6900   -10.3260     0.3030 H     1 <1>   0.1500 
 44 H        3.3550    -7.6470     1.1010 H     1 <1>   0.1500 
 45 H        1.5190   -11.3150    -0.0700 H     1 <1>   0.1500 
 46 H        3.5570    -9.9840     0.3320 H     1 <1>   0.1500 
@<TRIPOS>BOND
  1   1   2  ar  
  2   2   3  ar  
  3   2   4  1   
  4   4   5  ar  
  5   4   6  ar  
  6   5   7  ar  
  7   6   8  ar  
  8   6  28  1   
  9   7   9  ar  
 10   7  10  1   
 11   8   9  ar  
 12   8  11  1   
 13  10  12  1   
 14  10  13  1   
 15  11  29  1   
 16  11  30  1   
 17  11  31  1   
 18  12  14  1   
 19  12  32  1   
 20  12  33  1   
 21  13  15  1   
 22  13  34  1   
 23  13  35  1   
 24  14  16  1   
 25  14  17  1   
 26  14  18  1   
 27  15  17  1   
 28  15  36  1   
 29  15  37  1   
 30  16  19  ar  
 31  16  20  ar  
 32  17  21  1   
 33  17  38  1   
 34  18  22  1   
 35  18  39  1   
 36  18  40  1   
 37  21  41  1   
 38  22  23  ar  
 39  22  24  ar  
 40  23  25  ar  
 41  23  42  1   
 42  24  26  ar  
 43  24  43  1   
 44  25  27  ar  
 45  25  44  1   
 46  26  27  ar  
 47  26  45  1   
 48  27  46  1   
@<TRIPOS>SUBSTRUCTURE
  1 ****  10 GROUP 4 **** **** 0

# MOE 2024.06 (io_trps.svl 2023.06)
