@<TRIPOS>MOLECULE
NONAME
39 40 1 0 0 
SMALL
USER_CHARGES


@<TRIPOS>ATOM
  1 O        0.3880    -0.4110     1.5030 O.2   1 <1>  -0.5700 
  2 C        1.2080    -0.8050     0.6910 C.2   1 <1>   0.7160 
  3 N        2.0440     0.0870     0.0580 N.am  1 <1>  -0.4940 
  4 C        1.3690    -2.2080     0.3660 C.2   1 <1>   0.2030 
  5 C        2.2910     1.4600     0.2680 C.2   1 <1>  -0.0880 
  6 N        2.3100    -2.6880    -0.4290 N.2   1 <1>  -0.7070 
  7 C        0.5650    -3.2470     0.8460 C.2   1 <1>  -0.1500 
  8 N        1.3400     2.4080     0.4300 N.pl3 1 <1>   0.0480 
  9 C        3.5120     2.0950     0.3230 C.2   1 <1>   0.1410 
 10 N        2.1080    -4.0110    -0.4630 N.pl3 1 <1>   0.3140 
 11 C        1.0570    -4.3760     0.3020 C.2   1 <1>  -0.3320 
 12 C        2.0290     3.5650     0.5950 C.2   1 <1>   0.0360 
 13 C       -0.1370     2.2630     0.3650 C.3   1 <1>   0.0960 
 14 N        3.3050     3.4310     0.5340 N.2   1 <1>  -0.5650 
 15 C        4.8270     1.4920     0.2060 C.2   1 <1>   0.7160 
 16 C        2.9640    -4.9000    -1.2620 C.3   1 <1>   0.0160 
 17 C        0.5620    -5.8020     0.4820 C.3   1 <1>  -0.0600 
 18 C       -0.8140     3.4360    -0.3610 C.3   1 <1>  -0.1600 
 19 O        5.8150     2.0900    -0.1760 O.2   1 <1>  -0.5700 
 20 N        5.0400     0.1900     0.5260 N.am  1 <1>  -0.8000 
 21 C       -2.3170     3.1870    -0.5250 C.3   1 <1>  -0.2400 
 22 H        2.7000    -0.4170    -0.5510 H     1 <1>   0.3700 
 23 H       -0.2690    -3.1200     1.5140 H     1 <1>   0.1500 
 24 H        1.5330     4.5050     0.7590 H     1 <1>   0.1500 
 25 H       -0.5150     2.1730     1.3680 H     1 <1>   0.0800 
 26 H       -0.3650     1.3550    -0.1630 H     1 <1>   0.0800 
 27 H        3.7160    -4.3150    -1.7580 H     1 <1>   0.0800 
 28 H        2.3620    -5.4060    -1.9920 H     1 <1>   0.0800 
 29 H        3.4330    -5.6140    -0.6130 H     1 <1>   0.0800 
 30 H       -0.2880    -5.8180     1.1410 H     1 <1>   0.0800 
 31 H        1.3350    -6.4150     0.9100 H     1 <1>   0.0800 
 32 H        0.2660    -6.2180    -0.4640 H     1 <1>   0.0800 
 33 H       -0.3710     3.5580    -1.3350 H     1 <1>   0.0800 
 34 H       -0.6750     4.3440     0.1990 H     1 <1>   0.0800 
 35 H        6.0040    -0.1390     0.5280 H     1 <1>   0.3700 
 36 H        4.3730    -0.3320     1.0920 H     1 <1>   0.3700 
 37 H       -2.4910     2.2970    -1.1050 H     1 <1>   0.0800 
 38 H       -2.7750     4.0180    -1.0320 H     1 <1>   0.0800 
 39 H       -2.7870     3.0710     0.4360 H     1 <1>   0.0800 
@<TRIPOS>BOND
  1   1   2  2   
  2   2   3  am  
  3   2   4  1   
  4   3   5  1   
  5   3  22  1   
  6   4   6  2   
  7   4   7  1   
  8   5   8  1   
  9   5   9  2   
 10   6  10  1   
 11   7  11  2   
 12   7  23  1   
 13   8  12  1   
 14   8  13  1   
 15   9  14  1   
 16   9  15  1   
 17  10  11  1   
 18  10  16  1   
 19  11  17  1   
 20  12  14  2   
 21  12  24  1   
 22  13  18  1   
 23  13  25  1   
 24  13  26  1   
 25  15  19  2   
 26  15  20  am  
 27  16  27  1   
 28  16  28  1   
 29  16  29  1   
 30  17  30  1   
 31  17  31  1   
 32  17  32  1   
 33  18  21  1   
 34  18  33  1   
 35  18  34  1   
 36  20  35  1   
 37  20  36  1   
 38  21  37  1   
 39  21  38  1   
 40  21  39  1   
@<TRIPOS>SUBSTRUCTURE
  1 ****   3 GROUP 4 **** **** 0

# MOE 2024.06 (io_trps.svl 2023.06)
