@<TRIPOS>MOLECULE
NONAME
45 48 1 0 0 
SMALL
USER_CHARGES


@<TRIPOS>ATOM
  1 S       -0.1540    -0.1390     1.1450 S.3   1 <1>  -0.0800 
  2 C        0.7230    -0.9910    -0.1330 C.2   1 <1>   0.4420 
  3 C        0.5700     1.3670     0.6310 C.ar  1 <1>   0.0400 
  4 N        1.4620    -0.2370    -0.8510 N.2   1 <1>  -0.5650 
  5 N        0.6000    -2.3460    -0.3170 N.am  1 <1>  -0.4940 
  6 C        1.3970     1.0960    -0.4450 C.ar  1 <1>   0.2270 
  7 C        0.3830     2.6290     1.1690 C.ar  1 <1>  -0.1500 
  8 C       -0.1090    -3.3060     0.3500 C.2   1 <1>   0.5690 
  9 C        2.0650     2.1920    -0.9910 C.ar  1 <1>   0.1900 
 10 C        1.0660     3.6910     0.5970 C.ar  1 <1>  -0.1500 
 11 O       -0.8110    -3.0710     1.3000 O.2   1 <1>  -0.5700 
 12 C        0.0220    -4.7410    -0.1500 C.3   1 <1>  -0.0190 
 13 F        2.8650     2.0160    -2.0110 F     1 <1>  -0.1900 
 14 C        1.9120     3.4730    -0.4890 C.ar  1 <1>  -0.1500 
 15 C       -1.1980    -5.5840     0.2500 C.3   1 <1>   0.1400 
 16 C        1.3000    -5.4070     0.3800 C.3   1 <1>  -0.1600 
 17 N       -1.0470    -7.0270    -0.1220 N.am  1 <1>  -0.6600 
 18 C        1.4590    -6.7980    -0.2500 C.3   1 <1>  -0.0990 
 19 C        0.1810    -7.6210    -0.2900 C.2   1 <1>   0.5690 
 20 C       -2.2890    -7.8670    -0.1660 C.3   1 <1>   0.2200 
 21 O        0.3110    -8.8040    -0.4960 O.2   1 <1>  -0.5700 
 22 C       -3.2950    -7.3450    -1.1970 C.3   1 <1>  -0.1600 
 23 C       -3.0360    -7.8550     1.1690 C.3   1 <1>  -0.1600 
 24 C       -4.4390    -6.6630    -0.4310 C.3   1 <1>  -0.1600 
 25 C       -4.1110    -6.7730     1.0590 C.3   1 <1>  -0.1600 
 26 H        1.1680    -2.6690    -1.0950 H     1 <1>   0.3700 
 27 H       -0.2760     2.7720     2.0090 H     1 <1>   0.1500 
 28 H        0.9440     4.6860     0.9900 H     1 <1>   0.1500 
 29 H        0.0560    -4.7110    -1.2250 H     1 <1>   0.0800 
 30 H        2.4460     4.2900    -0.9400 H     1 <1>   0.1500 
 31 H       -2.0700    -5.1700    -0.2240 H     1 <1>   0.0800 
 32 H       -1.3410    -5.5260     1.3160 H     1 <1>   0.0800 
 33 H        1.2300    -5.5050     1.4510 H     1 <1>   0.0800 
 34 H        2.1660    -4.8080     0.1560 H     1 <1>   0.0800 
 35 H        2.2060    -7.3510     0.2900 H     1 <1>   0.0800 
 36 H        1.8010    -6.6950    -1.2630 H     1 <1>   0.0800 
 37 H       -2.0320    -8.8840    -0.4120 H     1 <1>   0.0800 
 38 H       -3.6950    -8.1840    -1.7380 H     1 <1>   0.0800 
 39 H       -2.8300    -6.6820    -1.9050 H     1 <1>   0.0800 
 40 H       -2.3760    -7.7060     2.0050 H     1 <1>   0.0800 
 41 H       -3.5230    -8.8070     1.2850 H     1 <1>   0.0800 
 42 H       -5.3650    -7.1720    -0.6390 H     1 <1>   0.0800 
 43 H       -4.5420    -5.6320    -0.7230 H     1 <1>   0.0800 
 44 H       -3.7250    -5.8350     1.4170 H     1 <1>   0.0800 
 45 H       -4.9830    -7.0240     1.6400 H     1 <1>   0.0800 
@<TRIPOS>BOND
  1   1   2  1   
  2   1   3  1   
  3   2   4  2   
  4   2   5  1   
  5   3   6  ar  
  6   3   7  ar  
  7   4   6  1   
  8   5   8  am  
  9   5  26  1   
 10   6   9  ar  
 11   7  10  ar  
 12   7  27  1   
 13   8  11  2   
 14   8  12  1   
 15   9  13  1   
 16   9  14  ar  
 17  10  14  ar  
 18  10  28  1   
 19  12  15  1   
 20  12  16  1   
 21  12  29  1   
 22  14  30  1   
 23  15  17  1   
 24  15  31  1   
 25  15  32  1   
 26  16  18  1   
 27  16  33  1   
 28  16  34  1   
 29  17  19  am  
 30  17  20  1   
 31  18  19  1   
 32  18  35  1   
 33  18  36  1   
 34  19  21  2   
 35  20  22  1   
 36  20  23  1   
 37  20  37  1   
 38  22  24  1   
 39  22  38  1   
 40  22  39  1   
 41  23  25  1   
 42  23  40  1   
 43  23  41  1   
 44  24  25  1   
 45  24  42  1   
 46  24  43  1   
 47  25  44  1   
 48  25  45  1   
@<TRIPOS>SUBSTRUCTURE
  1 ****   8 GROUP 4 **** **** 0

# MOE 2024.06 (io_trps.svl 2023.06)
