@<TRIPOS>MOLECULE
NONAME
50 53 1 0 0 
SMALL
USER_CHARGES


@<TRIPOS>ATOM
  1 O       -2.1670     2.8130    -2.6170 O.2   1 <1>  -0.5700 
  2 C       -2.0550     2.4900    -1.4460 C.2   1 <1>   0.5440 
  3 N       -3.0930     1.7910    -0.8790 N.am  1 <1>  -0.6600 
  4 C       -0.8720     2.8890    -0.7050 C.ar  1 <1>   0.0860 
  5 C       -3.4400     0.4790    -1.5120 C.3   1 <1>   0.1400 
  6 C       -3.4130     1.8720     0.5760 C.3   1 <1>   0.1400 
  7 C       -0.1370     2.0030     0.1070 C.ar  1 <1>   0.0410 
  8 C       -0.4420     4.2140    -0.7970 C.ar  1 <1>  -0.1500 
  9 C       -4.9480     0.2230    -1.6330 C.3   1 <1>   0.1400 
 10 C       -4.8110     2.4560     0.8180 C.3   1 <1>  -0.1600 
 11 C       -0.4790     0.6110     0.2470 C.2   1 <1>   0.6970 
 12 C        0.9630     2.4950     0.8130 C.ar  1 <1>  -0.1500 
 13 C        0.6550     4.6780    -0.1000 C.ar  1 <1>  -0.1500 
 14 N       -5.6590     0.4190    -0.3300 N.am  1 <1>  -0.6600 
 15 C       -5.9380     1.8450    -0.0250 C.3   1 <1>   0.1400 
 16 N       -0.3950    -0.2750    -0.7030 N.2   1 <1>  -0.6190 
 17 N       -0.9100     0.0930     1.3670 N.2   1 <1>  -0.6190 
 18 C        1.3600     3.8130     0.7160 C.ar  1 <1>  -0.1500 
 19 C       -5.8060    -0.5510     0.6350 C.2   1 <1>   0.5690 
 20 N       -0.8000    -1.3560    -0.1410 N.2   1 <1>  -0.2500 
 21 N       -1.1210    -1.1480     1.0990 N.2   1 <1>  -0.2500 
 22 O       -6.4470    -0.3250     1.6410 O.2   1 <1>  -0.5700 
 23 C       -5.1560    -1.9290     0.4830 C.3   1 <1>   0.2370 
 24 N       -6.1670    -2.8470    -0.0900 N.pl3 1 <1>   0.3140 
 25 C       -4.5650    -2.4880     1.7930 C.3   1 <1>  -0.2400 
 26 N       -6.0490    -3.3580    -1.3370 N.2   1 <1>  -0.7070 
 27 C       -7.3030    -3.2820     0.4980 C.2   1 <1>  -0.3020 
 28 C       -7.1010    -4.1000    -1.4980 C.2   1 <1>   0.1390 
 29 C       -7.9270    -4.0930    -0.3810 C.2   1 <1>  -0.1500 
 30 H       -3.0060    -0.3110    -0.9290 H     1 <1>   0.0800 
 31 H       -2.9960     0.4190    -2.4900 H     1 <1>   0.0800 
 32 H       -2.6900     2.4780     1.0920 H     1 <1>   0.0800 
 33 H       -3.3610     0.8850     1.0060 H     1 <1>   0.0800 
 34 H       -0.9900     4.8870    -1.4350 H     1 <1>   0.1500 
 35 H       -5.1100    -0.7770    -1.9940 H     1 <1>   0.0800 
 36 H       -5.3540     0.8910    -2.3720 H     1 <1>   0.0800 
 37 H       -4.7850     3.5170     0.6480 H     1 <1>   0.0800 
 38 H       -5.0510     2.3100     1.8560 H     1 <1>   0.0800 
 39 H        1.5070     1.8120     1.4440 H     1 <1>   0.1500 
 40 H        0.9600     5.7060    -0.1900 H     1 <1>   0.1500 
 41 H       -6.0270     2.3950    -0.9460 H     1 <1>   0.0800 
 42 H       -6.8740     1.9280     0.5000 H     1 <1>   0.0800 
 43 H        2.2140     4.1640     1.2690 H     1 <1>   0.1500 
 44 H       -4.3470    -1.8680    -0.2160 H     1 <1>   0.0800 
 45 H       -5.3210    -2.5810     2.5510 H     1 <1>   0.0800 
 46 H       -3.8020    -1.8180     2.1500 H     1 <1>   0.0800 
 47 H       -4.1090    -3.4450     1.6130 H     1 <1>   0.0800 
 48 H       -7.5930    -2.9860     1.4900 H     1 <1>   0.1500 
 49 H       -7.3010    -4.6530    -2.4000 H     1 <1>   0.1500 
 50 H       -8.8550    -4.6240    -0.2720 H     1 <1>   0.1500 
@<TRIPOS>BOND
  1   1   2  2   
  2   2   3  am  
  3   2   4  1   
  4   3   5  1   
  5   3   6  1   
  6   4   7  ar  
  7   4   8  ar  
  8   5   9  1   
  9   5  30  1   
 10   5  31  1   
 11   6  10  1   
 12   6  32  1   
 13   6  33  1   
 14   7  11  1   
 15   7  12  ar  
 16   8  13  ar  
 17   8  34  1   
 18   9  14  1   
 19   9  35  1   
 20   9  36  1   
 21  10  15  1   
 22  10  37  1   
 23  10  38  1   
 24  11  16  2   
 25  11  17  1   
 26  12  18  ar  
 27  12  39  1   
 28  13  18  ar  
 29  13  40  1   
 30  14  15  1   
 31  14  19  am  
 32  15  41  1   
 33  15  42  1   
 34  16  20  1   
 35  17  21  2   
 36  18  43  1   
 37  19  22  2   
 38  19  23  1   
 39  20  21  1   
 40  23  24  1   
 41  23  25  1   
 42  23  44  1   
 43  24  26  1   
 44  24  27  1   
 45  25  45  1   
 46  25  46  1   
 47  25  47  1   
 48  26  28  2   
 49  27  29  2   
 50  27  48  1   
 51  28  29  1   
 52  28  49  1   
 53  29  50  1   
@<TRIPOS>SUBSTRUCTURE
  1 ****   5 GROUP 4 **** **** 0

# MOE 2024.06 (io_trps.svl 2023.06)
