@<TRIPOS>MOLECULE
NONAME
48 50 1 0 0 
SMALL
USER_CHARGES


@<TRIPOS>ATOM
  1 O       -1.6530     0.6710     2.7530 O.2   1 <1>  -0.5700 
  2 C       -1.9800     1.1450     1.6890 C.2   1 <1>   0.5690 
  3 N       -2.4190     0.3530     0.6640 N.am  1 <1>  -0.6600 
  4 C       -1.9110     2.6510     1.5480 C.3   1 <1>   0.1570 
  5 C       -2.7950     0.7990    -0.7040 C.3   1 <1>   0.1400 
  6 C       -2.5740    -1.1140     0.7810 C.3   1 <1>   0.1400 
  7 N       -0.9390     3.0400     0.5170 N.pl3 1 <1>   0.3140 
  8 C       -3.4470    -0.4180    -1.3700 C.3   1 <1>   0.2000 
  9 C       -2.8030    -1.6080    -0.6500 C.3   1 <1>  -0.0800 
 10 N       -1.3380     3.6760    -0.6040 N.2   1 <1>  -0.7070 
 11 C        0.4040     2.8670     0.5250 C.2   1 <1>  -0.3320 
 12 O       -4.8250    -0.4260    -1.1180 O.3   1 <1>  -0.5600 
 13 C       -3.6050    -2.9190    -0.7190 C.3   1 <1>   0.0200 
 14 C       -0.2510     3.8940    -1.2720 C.2   1 <1>   0.1080 
 15 C        0.8740     3.4090    -0.6170 C.2   1 <1>  -0.1500 
 16 C        1.1910     2.1840     1.6330 C.3   1 <1>  -0.0600 
 17 C       -5.5900     0.3460    -1.9910 C.3   1 <1>   0.0400 
 18 C       -2.8720    -4.0430    -0.0140 C.2   1 <1>  -0.0400 
 19 C       -0.2460     4.6010    -2.6060 C.3   1 <1>  -0.0590 
 20 O       -1.7160    -4.4550    -0.4620 O.3   1 <1>  -0.0190 
 21 C       -3.1760    -4.7690     1.0720 C.2   1 <1>  -0.1500 
 22 N       -1.2280    -5.4170     0.2670 N.2   1 <1>  -0.4100 
 23 C       -2.0880    -5.6270     1.1990 C.2   1 <1>   0.1080 
 24 C       -1.9270    -6.6680     2.2850 C.3   1 <1>  -0.0590 
 25 H       -1.6140     3.0880     2.4810 H     1 <1>   0.0800 
 26 H       -2.8770     3.0290     1.2780 H     1 <1>   0.0800 
 27 H       -3.4550     1.6480    -0.6750 H     1 <1>   0.0800 
 28 H       -1.8990     1.0610    -1.2390 H     1 <1>   0.0800 
 29 H       -1.6990    -1.5620     1.2210 H     1 <1>   0.0800 
 30 H       -3.4330    -1.3210     1.3970 H     1 <1>   0.0800 
 31 H       -3.2780    -0.4510    -2.4330 H     1 <1>   0.0800 
 32 H       -1.8350    -1.7730    -1.0900 H     1 <1>   0.0800 
 33 H       -3.7640    -3.1930    -1.7460 H     1 <1>   0.0800 
 34 H       -4.5680    -2.7890    -0.2570 H     1 <1>   0.0800 
 35 H        1.8880     3.4680    -0.9690 H     1 <1>   0.1500 
 36 H        2.2450     2.2410     1.4290 H     1 <1>   0.0800 
 37 H        0.9150     1.1460     1.7020 H     1 <1>   0.0800 
 38 H        0.9990     2.6590     2.5790 H     1 <1>   0.0800 
 39 H       -6.6200     0.2640    -1.6910 H     1 <1>   0.0800 
 40 H       -5.4750    -0.0300    -2.9920 H     1 <1>   0.0800 
 41 H       -5.2810     1.3740    -1.9330 H     1 <1>   0.0800 
 42 H        0.7550     4.6850    -2.9840 H     1 <1>   0.0800 
 43 H       -0.6630     5.5850    -2.4900 H     1 <1>   0.0800 
 44 H       -0.8440     4.0500    -3.3070 H     1 <1>   0.0800 
 45 H       -4.0370    -4.7250     1.7120 H     1 <1>   0.1500 
 46 H       -2.7510    -7.3560     2.2550 H     1 <1>   0.0800 
 47 H       -1.8980    -6.1890     3.2460 H     1 <1>   0.0800 
 48 H       -1.0120    -7.2120     2.1390 H     1 <1>   0.0800 
@<TRIPOS>BOND
  1   1   2  2   
  2   2   3  am  
  3   2   4  1   
  4   3   5  1   
  5   3   6  1   
  6   4   7  1   
  7   4  25  1   
  8   4  26  1   
  9   5   8  1   
 10   5  27  1   
 11   5  28  1   
 12   6   9  1   
 13   6  29  1   
 14   6  30  1   
 15   7  10  1   
 16   7  11  1   
 17   8   9  1   
 18   8  12  1   
 19   8  31  1   
 20   9  13  1   
 21   9  32  1   
 22  10  14  2   
 23  11  15  2   
 24  11  16  1   
 25  12  17  1   
 26  13  18  1   
 27  13  33  1   
 28  13  34  1   
 29  14  15  1   
 30  14  19  1   
 31  15  35  1   
 32  16  36  1   
 33  16  37  1   
 34  16  38  1   
 35  17  39  1   
 36  17  40  1   
 37  17  41  1   
 38  18  20  1   
 39  18  21  2   
 40  19  42  1   
 41  19  43  1   
 42  19  44  1   
 43  20  22  1   
 44  21  23  1   
 45  21  45  1   
 46  22  23  2   
 47  23  24  1   
 48  24  46  1   
 49  24  47  1   
 50  24  48  1   
@<TRIPOS>SUBSTRUCTURE
  1 ****   3 GROUP 4 **** **** 0

# MOE 2024.06 (io_trps.svl 2023.06)
