@<TRIPOS>MOLECULE
NONAME
46 47 1 0 0 
SMALL
USER_CHARGES


@<TRIPOS>ATOM
  1 S       -0.7350    -2.4780     2.3420 S.3   1 <1>  -0.4600 
  2 C       -0.3750    -2.1420     0.5780 C.3   1 <1>   0.1310 
  3 C        0.8790    -2.9780     3.0010 C.3   1 <1>  -0.0100 
  4 C       -1.6430    -1.9780    -0.2620 C.2   1 <1>   0.5690 
  5 O       -1.8000    -0.8890    -0.7670 O.2   1 <1>  -0.5700 
  6 N       -2.5610    -2.9850    -0.4770 N.am  1 <1>  -0.6600 
  7 C       -2.4540    -4.3660     0.1310 C.3   1 <1>   0.3640 
  8 C       -3.8520    -2.6190    -1.1360 C.3   1 <1>   0.1400 
  9 C       -1.1330    -5.0050    -0.3090 C.ar  1 <1>  -0.1440 
 10 C       -3.6120    -5.3590    -0.2100 C.3   1 <1>   0.2000 
 11 C       -4.6180    -3.8290    -1.6630 C.3   1 <1>   0.1200 
 12 C       -0.2850    -5.5620     0.6380 C.ar  1 <1>  -0.1500 
 13 C       -0.7590    -5.0330    -1.6460 C.ar  1 <1>  -0.1500 
 14 O       -4.7950    -4.7350    -0.6250 O.3   1 <1>  -0.5600 
 15 C       -3.9990    -6.2490     0.9820 C.3   1 <1>   0.1200 
 16 C        0.9210    -6.1290     0.2670 C.ar  1 <1>   0.0830 
 17 C        0.4470    -5.5960    -2.0280 C.ar  1 <1>  -0.1500 
 18 O       -2.9230    -7.0130     1.4210 O.3   1 <1>  -0.6800 
 19 O        1.6910    -6.6580     1.2470 O.3   1 <1>  -0.3630 
 20 C        1.3000    -6.1330    -1.0790 C.ar  1 <1>   0.0830 
 21 C        1.8050    -8.0640     1.2510 C.3   1 <1>   0.0400 
 22 O        2.4780    -6.6430    -1.5140 O.3   1 <1>  -0.3630 
 23 C        3.6500    -5.9890    -1.0800 C.3   1 <1>   0.0400 
 24 H        0.1900    -1.2290     0.5560 H     1 <1>   0.0800 
 25 H        0.2420    -2.9350     0.2040 H     1 <1>   0.0800 
 26 H        0.7470    -3.2180     4.0410 H     1 <1>   0.0800 
 27 H        1.5580    -2.1540     2.8810 H     1 <1>   0.0800 
 28 H        1.2150    -3.8400     2.4510 H     1 <1>   0.0800 
 29 H       -2.4450    -4.2480     1.2000 H     1 <1>   0.0800 
 30 H       -4.4690    -2.0970    -0.4240 H     1 <1>   0.0800 
 31 H       -3.6620    -1.9480    -1.9560 H     1 <1>   0.0800 
 32 H       -3.3070    -5.9970    -1.0200 H     1 <1>   0.0800 
 33 H       -4.0910    -4.3050    -2.4720 H     1 <1>   0.0800 
 34 H       -5.5920    -3.5280    -2.0080 H     1 <1>   0.0800 
 35 H       -0.5580    -5.5630     1.6800 H     1 <1>   0.1500 
 36 H       -1.4030    -4.6060    -2.3960 H     1 <1>   0.1500 
 37 H       -4.7910    -6.9210     0.7040 H     1 <1>   0.0800 
 38 H       -4.3230    -5.6390     1.8080 H     1 <1>   0.0800 
 39 H        0.7360    -5.6150    -3.0640 H     1 <1>   0.1500 
 40 H       -2.6250    -7.6340     0.7270 H     1 <1>   0.4000 
 41 H        2.3950    -8.3520     2.1020 H     1 <1>   0.0800 
 42 H        2.2870    -8.3840     0.3440 H     1 <1>   0.0800 
 43 H        0.8210    -8.4910     1.3220 H     1 <1>   0.0800 
 44 H        4.4850    -6.4120    -1.6080 H     1 <1>   0.0800 
 45 H        3.7720    -6.1390    -0.0230 H     1 <1>   0.0800 
 46 H        3.5660    -4.9400    -1.3030 H     1 <1>   0.0800 
@<TRIPOS>BOND
  1   1   2  1   
  2   1   3  1   
  3   2   4  1   
  4   2  24  1   
  5   2  25  1   
  6   3  26  1   
  7   3  27  1   
  8   3  28  1   
  9   4   5  2   
 10   4   6  am  
 11   6   7  1   
 12   6   8  1   
 13   7   9  1   
 14   7  10  1   
 15   7  29  1   
 16   8  11  1   
 17   8  30  1   
 18   8  31  1   
 19   9  12  ar  
 20   9  13  ar  
 21  10  14  1   
 22  10  15  1   
 23  10  32  1   
 24  11  14  1   
 25  11  33  1   
 26  11  34  1   
 27  12  16  ar  
 28  12  35  1   
 29  13  17  ar  
 30  13  36  1   
 31  15  18  1   
 32  15  37  1   
 33  15  38  1   
 34  16  19  1   
 35  16  20  ar  
 36  17  20  ar  
 37  17  39  1   
 38  18  40  1   
 39  19  21  1   
 40  20  22  1   
 41  21  41  1   
 42  21  42  1   
 43  21  43  1   
 44  22  23  1   
 45  23  44  1   
 46  23  45  1   
 47  23  46  1   
@<TRIPOS>SUBSTRUCTURE
  1 ****   9 GROUP 4 **** **** 0

# MOE 2024.06 (io_trps.svl 2023.06)
