@<TRIPOS>MOLECULE
NONAME
31 33 1 0 0 
SMALL
USER_CHARGES


@<TRIPOS>ATOM
  1 F       -0.6680    -0.4730    -0.9890 F     1 <1>  -0.1900 
  2 C       -0.6710    -1.7230    -0.6210 C.ar  1 <1>   0.1900 
  3 C       -0.0510    -2.0740     0.5620 C.ar  1 <1>  -0.1500 
  4 C       -1.2930    -2.6570    -1.4280 C.ar  1 <1>  -0.1500 
  5 C       -0.0600    -3.4050     0.9450 C.ar  1 <1>  -0.1500 
  6 C       -1.2890    -3.9830    -1.0300 C.ar  1 <1>  -0.1500 
  7 C       -0.6810    -4.3830     0.1640 C.ar  1 <1>   0.0860 
  8 C       -0.6700    -5.7730     0.5790 C.2   1 <1>   0.5440 
  9 O        0.4010    -6.3160     0.7860 O.2   1 <1>  -0.5700 
 10 N       -1.8260    -6.4870     0.7540 N.am  1 <1>  -0.6600 
 11 C       -3.2190    -5.9540     0.7040 C.3   1 <1>   0.2350 
 12 C       -1.8800    -7.9740     0.6800 C.3   1 <1>   0.2350 
 13 C       -4.0130    -7.0100    -0.0400 C.3   1 <1>  -0.2420 
 14 C       -3.1920    -8.2780    -0.0300 C.3   1 <1>  -0.2420 
 15 C       -5.5120    -6.7380     0.1080 C.2   1 <1>   0.9470 
 16 C       -3.5190    -7.6030    -1.3380 C.3   1 <1>  -0.2000 
 17 C       -3.6020    -9.7380     0.1800 C.2   1 <1>   0.9470 
 18 O       -6.1980    -6.5510    -0.9060 O.co2 1 <1>  -0.9000 
 19 O       -5.9710    -6.5230     1.2380 O.co2 1 <1>  -0.9000 
 20 O       -3.7610   -10.4740    -0.8040 O.co2 1 <1>  -0.9000 
 21 O       -3.6150   -10.1970     1.3310 O.co2 1 <1>  -0.9000 
 22 H        0.4260    -1.3230     1.1650 H     1 <1>   0.1500 
 23 H       -1.7680    -2.3530    -2.3430 H     1 <1>   0.1500 
 24 H        0.4210    -3.7080     1.8600 H     1 <1>   0.1500 
 25 H       -1.7650    -4.7300    -1.6430 H     1 <1>   0.1500 
 26 H       -3.5950    -5.8600     1.7080 H     1 <1>   0.0800 
 27 H       -3.2930    -5.0060     0.2080 H     1 <1>   0.0800 
 28 H       -1.0440    -8.3730     0.1330 H     1 <1>   0.0800 
 29 H       -1.8900    -8.3810     1.6770 H     1 <1>   0.0800 
 30 H       -2.7380    -7.1170    -1.8900 H     1 <1>   0.1000 
 31 H       -4.2410    -8.0810    -1.9790 H     1 <1>   0.1000 
@<TRIPOS>BOND
  1   1   2  1   
  2   2   3  ar  
  3   2   4  ar  
  4   3   5  ar  
  5   3  22  1   
  6   4   6  ar  
  7   4  23  1   
  8   5   7  ar  
  9   5  24  1   
 10   6   7  ar  
 11   6  25  1   
 12   7   8  1   
 13   8   9  2   
 14   8  10  am  
 15  10  11  1   
 16  10  12  1   
 17  11  13  1   
 18  11  26  1   
 19  11  27  1   
 20  12  14  1   
 21  12  28  1   
 22  12  29  1   
 23  13  14  1   
 24  13  15  1   
 25  13  16  1   
 26  14  16  1   
 27  14  17  1   
 28  15  18  ar  
 29  15  19  ar  
 30  16  30  1   
 31  16  31  1   
 32  17  20  ar  
 33  17  21  ar  
@<TRIPOS>SUBSTRUCTURE
  1 ****  11 GROUP 4 **** **** 0

# MOE 2024.06 (io_trps.svl 2023.06)
