@<TRIPOS>MOLECULE
NONAME
55 58 1 0 0 
SMALL
USER_CHARGES


@<TRIPOS>ATOM
  1 O        0.6520     0.8070    -0.1740 O.co2 1 <1>  -0.9000 
  2 C        1.1650    -0.1610    -0.7580 C.2   1 <1>   0.9790 
  3 O        0.4960    -0.7250    -1.6500 O.co2 1 <1>  -0.9000 
  4 C        2.4730    -0.6250    -0.3910 C.ar  1 <1>  -0.1790 
  5 C        2.6570    -1.8650     0.2350 C.ar  1 <1>   0.4100 
  6 C        3.5960     0.1430    -0.6440 C.ar  1 <1>  -0.1500 
  7 N        3.8380    -2.3770     0.5450 N.ar  1 <1>  -0.6200 
  8 N        1.6050    -2.6870     0.5700 N.pl3 1 <1>  -0.8380 
  9 C        4.8210    -0.3770    -0.3020 C.ar  1 <1>  -0.1500 
 10 C        4.9110    -1.6390     0.2760 C.ar  1 <1>   0.3100 
 11 C        1.1580    -3.6060    -0.5040 C.3   1 <1>   0.2090 
 12 C        0.6330    -2.2320     1.6070 C.3   1 <1>   0.2090 
 13 C        6.2120    -2.1850     0.6100 C.ar  1 <1>   0.0000 
 14 C       -0.1480    -4.3120    -0.1040 C.3   1 <1>   0.4230 
 15 C       -0.8010    -2.1240     1.0600 C.3   1 <1>  -0.1600 
 16 C        6.4540    -2.7480     1.8620 C.ar  1 <1>  -0.1500 
 17 C        7.2660    -2.1680    -0.3040 C.ar  1 <1>  -0.1500 
 18 N       -0.5400    -5.5160    -0.9530 N.4   1 <1>  -0.9590 
 19 C       -1.3150    -3.3370     0.2270 C.3   1 <1>   0.0000 
 20 C        7.6950    -3.2610     2.1950 C.ar  1 <1>  -0.1500 
 21 C        8.5090    -2.6800     0.0220 C.ar  1 <1>  -0.1500 
 22 C       -1.9590    -5.9350    -0.7450 C.3   1 <1>   0.3430 
 23 C       -0.2830    -5.3160    -2.4180 C.3   1 <1>   0.2630 
 24 C       -2.3180    -4.1520     1.0890 C.3   1 <1>  -0.1600 
 25 C       -2.0800    -2.7670    -1.0070 C.3   1 <1>   0.1200 
 26 C        8.7270    -3.2260     1.2740 C.ar  1 <1>  -0.1500 
 27 C       -2.4260    -5.6430     0.6870 C.3   1 <1>  -0.1600 
 28 O       -1.2520    -2.5330    -2.0890 O.3   1 <1>  -0.6800 
 29 H        3.4920     1.1160    -1.0960 H     1 <1>   0.1500 
 30 H        5.7130     0.1930    -0.4790 H     1 <1>   0.1500 
 31 H        1.0430    -3.0590    -1.4200 H     1 <1>   0.0800 
 32 H        1.9320    -4.3380    -0.6470 H     1 <1>   0.0800 
 33 H        0.6600    -2.9280     2.4260 H     1 <1>   0.0800 
 34 H        0.9390    -1.2700     1.9870 H     1 <1>   0.0800 
 35 H        0.1050    -4.7300     0.8550 H     1 <1>   0.0800 
 36 H       -1.4600    -1.9190     1.8840 H     1 <1>   0.0800 
 37 H       -0.8380    -1.2320     0.4650 H     1 <1>   0.0800 
 38 H        5.6490    -2.7800     2.5760 H     1 <1>   0.1500 
 39 H        7.1040    -1.7560    -1.2840 H     1 <1>   0.1500 
 40 H        0.0700    -6.2780    -0.6330 H     1 <1>   0.4500 
 41 H        7.8570    -3.6880     3.1690 H     1 <1>   0.1500 
 42 H        9.3090    -2.6570    -0.6990 H     1 <1>   0.1500 
 43 H       -2.5930    -5.3970    -1.4300 H     1 <1>   0.0800 
 44 H       -2.0650    -6.9870    -0.9580 H     1 <1>   0.0800 
 45 H       -0.9730    -4.5990    -2.8300 H     1 <1>   0.0800 
 46 H       -0.4070    -6.2450    -2.9500 H     1 <1>   0.0800 
 47 H        0.7190    -4.9570    -2.5870 H     1 <1>   0.0800 
 48 H       -2.0180    -4.1230     2.1240 H     1 <1>   0.0800 
 49 H       -3.2910    -3.6900     1.0410 H     1 <1>   0.0800 
 50 H       -2.5710    -1.8380    -0.7660 H     1 <1>   0.0800 
 51 H       -2.8370    -3.4490    -1.3450 H     1 <1>   0.0800 
 52 H        9.6920    -3.6250     1.5310 H     1 <1>   0.1500 
 53 H       -3.4480    -5.9620     0.7940 H     1 <1>   0.0800 
 54 H       -1.8400    -6.2410     1.3630 H     1 <1>   0.0800 
 55 H       -0.6230    -1.7440    -1.9150 H     1 <1>   0.4000 
@<TRIPOS>BOND
  1   1   2  ar  
  2   2   3  ar  
  3   2   4  1   
  4   4   5  ar  
  5   4   6  ar  
  6   5   7  ar  
  7   5   8  1   
  8   6   9  ar  
  9   6  29  1   
 10   7  10  ar  
 11   8  11  1   
 12   8  12  1   
 13   9  10  ar  
 14   9  30  1   
 15  10  13  1   
 16  11  14  1   
 17  11  31  1   
 18  11  32  1   
 19  12  15  1   
 20  12  33  1   
 21  12  34  1   
 22  13  16  ar  
 23  13  17  ar  
 24  14  18  1   
 25  14  19  1   
 26  14  35  1   
 27  15  19  1   
 28  15  36  1   
 29  15  37  1   
 30  16  20  ar  
 31  16  38  1   
 32  17  21  ar  
 33  17  39  1   
 34  18  22  1   
 35  18  23  1   
 36  18  40  1   
 37  19  24  1   
 38  19  25  1   
 39  20  26  ar  
 40  20  41  1   
 41  21  26  ar  
 42  21  42  1   
 43  22  27  1   
 44  22  43  1   
 45  22  44  1   
 46  23  45  1   
 47  23  46  1   
 48  23  47  1   
 49  24  27  1   
 50  24  48  1   
 51  24  49  1   
 52  25  28  1   
 53  25  50  1   
 54  25  51  1   
 55  26  52  1   
 56  27  53  1   
 57  27  54  1   
 58  28  55  1   
@<TRIPOS>SUBSTRUCTURE
  1 ****   8 GROUP 4 **** **** 0

# MOE 2024.06 (io_trps.svl 2023.06)
