@<TRIPOS>MOLECULE
NONAME
56 59 1 0 0 
SMALL
USER_CHARGES


@<TRIPOS>ATOM
  1 O       -1.1970     0.7280    -0.9090 O.2   1 <1>  -0.5700 
  2 C       -0.9010     1.8010    -0.4370 C.2   1 <1>   0.5690 
  3 N       -1.7790     2.5680     0.2830 N.am  1 <1>  -0.5090 
  4 C        0.5120     2.3220    -0.7020 C.3   1 <1>   0.1810 
  5 C       -1.4400     3.9690     0.6940 C.3   1 <1>   0.3640 
  6 C       -3.1140     2.0730     0.7030 C.3   1 <1>   0.0490 
  7 O        0.8730     3.3950     0.1320 O.3   1 <1>  -0.5600 
  8 C       -2.5340     4.9290     0.2240 C.ar  1 <1>  -0.1440 
  9 C       -0.0700     4.4490     0.1510 C.3   1 <1>   0.2610 
 10 C       -3.4490     2.0540     2.1630 C.3   1 <1>  -0.2000 
 11 C       -3.2210     0.7710     1.4320 C.3   1 <1>  -0.2000 
 12 C       -3.0420     5.8790     1.1000 C.ar  1 <1>   0.1600 
 13 C       -3.0370     4.8830    -1.0640 C.ar  1 <1>  -0.1500 
 14 C        0.4660     5.6510     0.9460 C.2   1 <1>   0.5690 
 15 N       -3.9880     6.7560     0.8020 N.ar  1 <1>  -0.6200 
 16 C       -4.0210     5.7910    -1.3900 C.ar  1 <1>  -0.1500 
 17 O        0.0000     5.8980     2.0370 O.2   1 <1>  -0.5700 
 18 N        1.4470     6.4440     0.4120 N.am  1 <1>  -0.6600 
 19 C       -4.4540     6.6920    -0.4330 C.ar  1 <1>   0.1600 
 20 C        1.9790     7.6390     1.1090 C.3   1 <1>   0.1400 
 21 C        2.2150     6.1810    -0.8220 C.3   1 <1>   0.1400 
 22 C        2.8670     8.3610     0.0790 C.3   1 <1>   0.0000 
 23 C        3.3670     7.1800    -0.7750 C.3   1 <1>  -0.1600 
 24 C        4.0740     9.1090     0.7140 C.3   1 <1>  -0.1600 
 25 C        2.0190     9.2850    -0.8450 C.3   1 <1>  -0.1600 
 26 C        3.8090     9.8200     2.0540 C.3   1 <1>  -0.2400 
 27 C        1.4380    10.5570    -0.2120 C.3   1 <1>  -0.2400 
 28 H        0.5920     2.6410    -1.7250 H     1 <1>   0.0800 
 29 H        1.2170     1.5280    -0.5320 H     1 <1>   0.0800 
 30 H       -1.4020     3.9780     1.7690 H     1 <1>   0.0800 
 31 H       -3.8900     2.3230    -0.0010 H     1 <1>   0.1000 
 32 H       -0.2030     4.7750    -0.8640 H     1 <1>   0.0800 
 33 H       -2.7150     2.3500     2.8910 H     1 <1>   0.1000 
 34 H       -4.4530     2.2960     2.4650 H     1 <1>   0.1000 
 35 H       -4.0660     0.1380     1.2260 H     1 <1>   0.1000 
 36 H       -2.3210     0.2110     1.6160 H     1 <1>   0.1000 
 37 H       -2.6480     5.9280     2.1020 H     1 <1>   0.1500 
 38 H       -2.6890     4.1650    -1.7880 H     1 <1>   0.1500 
 39 H       -4.4530     5.8020    -2.3740 H     1 <1>   0.1500 
 40 H       -5.2250     7.3960    -0.6970 H     1 <1>   0.1500 
 41 H        1.1780     8.2590     1.4710 H     1 <1>   0.0800 
 42 H        2.5660     7.3000     1.9440 H     1 <1>   0.0800 
 43 H        2.5780     5.1680    -0.8440 H     1 <1>   0.0800 
 44 H        1.5900     6.3680    -1.6790 H     1 <1>   0.0800 
 45 H        4.1960     6.6890    -0.2960 H     1 <1>   0.0800 
 46 H        3.6800     7.4750    -1.7610 H     1 <1>   0.0800 
 47 H        4.8720     8.4120     0.8980 H     1 <1>   0.0800 
 48 H        4.4530     9.8250     0.0050 H     1 <1>   0.0800 
 49 H        2.6220     9.5870    -1.6840 H     1 <1>   0.0800 
 50 H        1.1940     8.7200    -1.2430 H     1 <1>   0.0800 
 51 H        3.6040     9.1080     2.8330 H     1 <1>   0.0800 
 52 H        2.9850    10.5040     1.9950 H     1 <1>   0.0800 
 53 H        4.6830    10.3770     2.3420 H     1 <1>   0.0800 
 54 H        2.2200    11.2550     0.0240 H     1 <1>   0.0800 
 55 H        0.8790    10.3310     0.6780 H     1 <1>   0.0800 
 56 H        0.7740    11.0340    -0.9100 H     1 <1>   0.0800 
@<TRIPOS>BOND
  1   1   2  2   
  2   2   3  am  
  3   2   4  1   
  4   3   5  1   
  5   3   6  1   
  6   4   7  1   
  7   4  28  1   
  8   4  29  1   
  9   5   8  1   
 10   5   9  1   
 11   5  30  1   
 12   6  10  1   
 13   6  11  1   
 14   6  31  1   
 15   7   9  1   
 16   8  12  ar  
 17   8  13  ar  
 18   9  14  1   
 19   9  32  1   
 20  10  11  1   
 21  10  33  1   
 22  10  34  1   
 23  11  35  1   
 24  11  36  1   
 25  12  15  ar  
 26  12  37  1   
 27  13  16  ar  
 28  13  38  1   
 29  14  17  2   
 30  14  18  am  
 31  15  19  ar  
 32  16  19  ar  
 33  16  39  1   
 34  18  20  1   
 35  18  21  1   
 36  19  40  1   
 37  20  22  1   
 38  20  41  1   
 39  20  42  1   
 40  21  23  1   
 41  21  43  1   
 42  21  44  1   
 43  22  23  1   
 44  22  24  1   
 45  22  25  1   
 46  23  45  1   
 47  23  46  1   
 48  24  26  1   
 49  24  47  1   
 50  24  48  1   
 51  25  27  1   
 52  25  49  1   
 53  25  50  1   
 54  26  51  1   
 55  26  52  1   
 56  26  53  1   
 57  27  54  1   
 58  27  55  1   
 59  27  56  1   
@<TRIPOS>SUBSTRUCTURE
  1 ****   9 GROUP 4 **** **** 0

# MOE 2024.06 (io_trps.svl 2023.06)
