@<TRIPOS>MOLECULE
NONAME
41 43 1 0 0 
SMALL
USER_CHARGES


@<TRIPOS>ATOM
  1 CL      -0.6290    -0.7640     1.7810 Cl    1 <1>  -0.1770 
  2 C        0.9690    -1.1760     1.1780 C.ar  1 <1>   0.1770 
  3 C        1.1890    -2.3300     0.4330 C.ar  1 <1>   0.4100 
  4 C        2.0370    -0.3650     1.4450 C.ar  1 <1>   0.1600 
  5 N        2.4020    -2.6310     0.0080 N.ar  1 <1>  -0.6200 
  6 N        0.1780    -3.2110     0.0870 N.pl3 1 <1>  -0.8380 
  7 N        3.2530    -0.6560     1.0160 N.ar  1 <1>  -0.6200 
  8 C        3.3610    -1.7750     0.3210 C.ar  1 <1>   0.4770 
  9 C        0.4520    -4.6800     0.1690 C.3   1 <1>   0.2090 
 10 C       -0.7230    -2.8080    -1.0210 C.3   1 <1>   0.2090 
 11 C        4.7490    -2.1120    -0.1680 C.3   1 <1>  -0.0960 
 12 C       -0.6910    -5.4440     0.8680 C.3   1 <1>   0.3430 
 13 C       -2.1790    -2.8130    -0.5480 C.3   1 <1>  -0.1600 
 14 N       -2.0710    -5.1430     0.3280 N.4   1 <1>  -0.9590 
 15 C       -2.4750    -3.7400     0.6330 C.3   1 <1>   0.3430 
 16 C       -3.0590    -6.1100     0.8710 C.3   1 <1>   0.5230 
 17 C       -2.7930    -7.4900     0.3020 C.2   1 <1>  -0.1400 
 18 S       -3.5230    -8.8150     1.1920 S.3   1 <1>  -0.0800 
 19 C       -2.1090    -7.9610    -0.7620 C.2   1 <1>  -0.1500 
 20 C       -2.8610    -9.9940     0.0770 C.2   1 <1>  -0.1100 
 21 C       -2.1480    -9.3860    -0.8870 C.2   1 <1>  -0.1500 
 22 H        1.9010     0.5360     2.0180 H     1 <1>   0.1500 
 23 H        1.3570    -4.8500     0.7300 H     1 <1>   0.0800 
 24 H        0.6140    -5.0770    -0.8170 H     1 <1>   0.0800 
 25 H       -0.6000    -3.4880    -1.8480 H     1 <1>   0.0800 
 26 H       -0.4590    -1.8240    -1.3760 H     1 <1>   0.0800 
 27 H        4.7180    -2.9270    -0.8680 H     1 <1>   0.0800 
 28 H        5.3640    -2.3880     0.6670 H     1 <1>   0.0800 
 29 H        5.1780    -1.2550    -0.6520 H     1 <1>   0.0800 
 30 H       -0.6590    -5.2010     1.9170 H     1 <1>   0.0800 
 31 H       -0.4870    -6.4980     0.7780 H     1 <1>   0.0800 
 32 H       -2.8260    -3.0440    -1.3760 H     1 <1>   0.0800 
 33 H       -2.4270    -1.8120    -0.2420 H     1 <1>   0.0800 
 34 H       -2.0610    -5.2620    -0.6890 H     1 <1>   0.4500 
 35 H       -3.5310    -3.6930     0.8480 H     1 <1>   0.0800 
 36 H       -1.9420    -3.3860     1.5020 H     1 <1>   0.0800 
 37 H       -4.0610    -5.8120     0.6090 H     1 <1>   0.0800 
 38 H       -2.9850    -6.1440     1.9460 H     1 <1>   0.0800 
 39 H       -1.5680    -7.3850    -1.4920 H     1 <1>   0.1500 
 40 H       -3.0800   -11.0320     0.2620 H     1 <1>   0.1500 
 41 H       -1.6410    -9.8890    -1.6940 H     1 <1>   0.1500 
@<TRIPOS>BOND
  1   1   2  1   
  2   2   3  ar  
  3   2   4  ar  
  4   3   5  ar  
  5   3   6  1   
  6   4   7  ar  
  7   4  22  1   
  8   5   8  ar  
  9   6   9  1   
 10   6  10  1   
 11   7   8  ar  
 12   8  11  1   
 13   9  12  1   
 14   9  23  1   
 15   9  24  1   
 16  10  13  1   
 17  10  25  1   
 18  10  26  1   
 19  11  27  1   
 20  11  28  1   
 21  11  29  1   
 22  12  14  1   
 23  12  30  1   
 24  12  31  1   
 25  13  15  1   
 26  13  32  1   
 27  13  33  1   
 28  14  15  1   
 29  14  16  1   
 30  14  34  1   
 31  15  35  1   
 32  15  36  1   
 33  16  17  1   
 34  16  37  1   
 35  16  38  1   
 36  17  18  1   
 37  17  19  2   
 38  18  20  1   
 39  19  21  1   
 40  19  39  1   
 41  20  21  2   
 42  20  40  1   
 43  21  41  1   
@<TRIPOS>SUBSTRUCTURE
  1 ****   9 GROUP 4 **** **** 0

# MOE 2024.06 (io_trps.svl 2023.06)
