@<TRIPOS>MOLECULE
NONAME
52 54 1 0 0 
SMALL
USER_CHARGES


@<TRIPOS>ATOM
  1 F       -0.6830     0.2100    -0.8540 F     1 <1>  -0.1900 
  2 C       -1.5850     1.0210    -0.3740 C.ar  1 <1>   0.1900 
  3 C       -1.5330     2.3500    -0.6940 C.ar  1 <1>  -0.1500 
  4 C       -2.5720     0.4880     0.4490 C.ar  1 <1>  -0.1500 
  5 C       -2.5000     3.2410    -0.1840 C.ar  1 <1>   0.0000 
  6 C       -3.5250     1.3340     0.9570 C.ar  1 <1>  -0.1500 
  7 C       -3.5060     2.7070     0.6530 C.ar  1 <1>   0.3610 
  8 C       -2.5090     4.6420    -0.4730 C.ar  1 <1>   0.1000 
  9 N       -4.4670     3.5490     1.1660 N.ar  1 <1>  -0.1790 
 10 N       -1.5590     5.1810    -1.2700 N.pl3 1 <1>  -0.8690 
 11 C       -3.5210     5.4150     0.0980 C.ar  1 <1>  -0.1500 
 12 C       -4.4850     4.8680     0.9050 C.ar  1 <1>   0.2180 
 13 C       -1.3960     6.5750    -1.7460 C.3   1 <1>   0.2090 
 14 C       -5.5860     5.7140     1.5230 C.3   1 <1>  -0.0970 
 15 C       -0.3740     7.2760    -0.8500 C.3   1 <1>  -0.1600 
 16 C       -0.1150     8.7220    -1.3000 C.3   1 <1>  -0.1600 
 17 C        0.9200     9.4020    -0.3920 C.3   1 <1>  -0.1600 
 18 C        1.1900    10.8390    -0.8430 C.3   1 <1>   0.3430 
 19 N        2.1020    11.5230     0.1130 N.4   1 <1>  -0.9590 
 20 C        2.1270    13.0120    -0.0800 C.3   1 <1>   0.3430 
 21 C        3.5050    10.9790     0.1340 C.3   1 <1>   0.3430 
 22 C        3.0560    13.6990     0.9480 C.3   1 <1>   0.1200 
 23 C        4.4110    11.7790     1.1000 C.3   1 <1>   0.1200 
 24 O        3.6780    12.7590     1.7840 O.3   1 <1>  -0.5600 
 25 H       -0.7460     2.6980    -1.3370 H     1 <1>   0.1500 
 26 H       -2.5620    -0.5680     0.6650 H     1 <1>   0.1500 
 27 H       -4.2930     0.9320     1.5960 H     1 <1>   0.1500 
 28 H       -5.1840     3.1390     1.7670 H     1 <1>   0.4570 
 29 H       -0.8180     4.5750    -1.6420 H     1 <1>   0.4000 
 30 H       -3.5420     6.4700    -0.0980 H     1 <1>   0.1500 
 31 H       -2.3360     7.0980    -1.7320 H     1 <1>   0.0800 
 32 H       -1.0450     6.5580    -2.7650 H     1 <1>   0.0800 
 33 H       -6.5520     5.3740     1.1940 H     1 <1>   0.0800 
 34 H       -5.4810     6.7450     1.2330 H     1 <1>   0.0800 
 35 H       -5.5420     5.6650     2.5970 H     1 <1>   0.0800 
 36 H        0.5480     6.7220    -0.8780 H     1 <1>   0.0800 
 37 H       -0.7410     7.2740     0.1620 H     1 <1>   0.0800 
 38 H       -1.0400     9.2740    -1.2740 H     1 <1>   0.0800 
 39 H        0.2430     8.7170    -2.3170 H     1 <1>   0.0800 
 40 H        1.8310     8.8290    -0.4220 H     1 <1>   0.0800 
 41 H        0.5470     9.4070     0.6180 H     1 <1>   0.0800 
 42 H        0.2520    11.3690    -0.8850 H     1 <1>   0.0800 
 43 H        1.6210    10.8400    -1.8320 H     1 <1>   0.0800 
 44 H        1.7520    11.3900     1.0750 H     1 <1>   0.4500 
 45 H        1.1330    13.4160     0.0220 H     1 <1>   0.0800 
 46 H        2.4720    13.2480    -1.0730 H     1 <1>   0.0800 
 47 H        3.9310    11.0160    -0.8550 H     1 <1>   0.0800 
 48 H        3.4970     9.9480     0.4440 H     1 <1>   0.0800 
 49 H        2.4880    14.3660     1.5740 H     1 <1>   0.0800 
 50 H        3.8170    14.2750     0.4500 H     1 <1>   0.0800 
 51 H        5.2120    12.2600     0.5640 H     1 <1>   0.0800 
 52 H        4.8450    11.1210     1.8330 H     1 <1>   0.0800 
@<TRIPOS>BOND
  1   1   2  1   
  2   2   3  ar  
  3   2   4  ar  
  4   3   5  ar  
  5   3  25  1   
  6   4   6  ar  
  7   4  26  1   
  8   5   7  ar  
  9   5   8  ar  
 10   6   7  ar  
 11   6  27  1   
 12   7   9  ar  
 13   8  10  1   
 14   8  11  ar  
 15   9  12  ar  
 16   9  28  1   
 17  10  13  1   
 18  10  29  1   
 19  11  12  ar  
 20  11  30  1   
 21  12  14  1   
 22  13  15  1   
 23  13  31  1   
 24  13  32  1   
 25  14  33  1   
 26  14  34  1   
 27  14  35  1   
 28  15  16  1   
 29  15  36  1   
 30  15  37  1   
 31  16  17  1   
 32  16  38  1   
 33  16  39  1   
 34  17  18  1   
 35  17  40  1   
 36  17  41  1   
 37  18  19  1   
 38  18  42  1   
 39  18  43  1   
 40  19  20  1   
 41  19  21  1   
 42  19  44  1   
 43  20  22  1   
 44  20  45  1   
 45  20  46  1   
 46  21  23  1   
 47  21  47  1   
 48  21  48  1   
 49  22  24  1   
 50  22  49  1   
 51  22  50  1   
 52  23  24  1   
 53  23  51  1   
 54  23  52  1   
@<TRIPOS>SUBSTRUCTURE
  1 ****  15 GROUP 4 **** **** 0

# MOE 2024.06 (io_trps.svl 2023.06)
