@<TRIPOS>MOLECULE
NONAME
40 41 1 0 0 
SMALL
USER_CHARGES


@<TRIPOS>ATOM
  1 S       -0.1180     0.4440    -0.0380 S.3   1 <1>  -0.3310 
  2 C        0.0000     2.2120     0.0080 C.ar  1 <1>   0.7720 
  3 C       -1.8440     0.0630     0.5190 C.3   1 <1>  -0.0100 
  4 N        1.1970     2.6980    -0.3690 N.ar  1 <1>  -0.1790 
  5 N       -1.0180     2.9110     0.3820 N.ar  1 <1>  -0.6200 
  6 C        1.4220     4.0210    -0.3830 C.ar  1 <1>   0.4610 
  7 C       -0.8360     4.2370     0.3860 C.ar  1 <1>   0.4100 
  8 N        2.6470     4.4750    -0.7630 N.pl3 1 <1>  -0.8690 
  9 C        0.3580     4.8150     0.0080 C.ar  1 <1>  -0.1500 
 10 N       -1.8920     4.9500     0.7830 N.pl3 1 <1>  -0.9000 
 11 C        3.0230     5.9160    -0.9210 C.3   1 <1>   0.2090 
 12 C        3.5710     6.4880     0.3950 C.3   1 <1>   0.1400 
 13 N        3.6070     7.9810     0.3370 N.am  1 <1>  -0.4690 
 14 C        2.4080     8.6580     0.5490 C.2   1 <1>   0.8410 
 15 C        4.7610     8.6950     0.0930 C.2   1 <1>  -0.0290 
 16 O        1.3750     8.0300     0.7250 O.2   1 <1>  -0.5700 
 17 N        2.3460    10.0220     0.5370 N.2   1 <1>  -0.6610 
 18 C        4.6720    10.0470     0.0840 C.2   1 <1>  -0.1360 
 19 C        6.0860     7.9890    -0.1550 C.3   1 <1>  -0.1020 
 20 C        3.4270    10.6710     0.3180 C.2   1 <1>   0.3750 
 21 C        3.3720    12.1820     0.3050 C.3   1 <1>  -0.1790 
 22 H       -1.9680    -1.0060     0.5060 H     1 <1>   0.0800 
 23 H       -2.5290     0.5350    -0.1630 H     1 <1>   0.0800 
 24 H       -1.9680     0.4490     1.5160 H     1 <1>   0.0800 
 25 H        1.9090     2.0330    -0.6440 H     1 <1>   0.4570 
 26 H        3.4230     3.8460    -1.0050 H     1 <1>   0.4000 
 27 H        0.4390     5.8830     0.0290 H     1 <1>   0.1500 
 28 H       -1.8960     5.9720     0.8760 H     1 <1>   0.4000 
 29 H       -2.7640     4.4930     1.0620 H     1 <1>   0.4000 
 30 H        2.1600     6.4800    -1.2330 H     1 <1>   0.0800 
 31 H        3.7700     6.0100    -1.6910 H     1 <1>   0.0800 
 32 H        4.5470     6.0880     0.5930 H     1 <1>   0.0800 
 33 H        2.9300     6.1930     1.2090 H     1 <1>   0.0800 
 34 H        5.5250    10.6740    -0.0960 H     1 <1>   0.1500 
 35 H        6.0030     7.3160    -0.9890 H     1 <1>   0.0800 
 36 H        6.3860     7.4400     0.7190 H     1 <1>   0.0800 
 37 H        6.8590     8.7020    -0.3790 H     1 <1>   0.0800 
 38 H        4.0150    12.5780     1.0690 H     1 <1>   0.0800 
 39 H        2.3680    12.5200     0.4910 H     1 <1>   0.0800 
 40 H        3.6870    12.5530    -0.6530 H     1 <1>   0.0800 
@<TRIPOS>BOND
  1   1   2  1   
  2   1   3  1   
  3   2   4  ar  
  4   2   5  ar  
  5   3  22  1   
  6   3  23  1   
  7   3  24  1   
  8   4   6  ar  
  9   4  25  1   
 10   5   7  ar  
 11   6   8  1   
 12   6   9  ar  
 13   7   9  ar  
 14   7  10  1   
 15   8  11  1   
 16   8  26  1   
 17   9  27  1   
 18  10  28  1   
 19  10  29  1   
 20  11  12  1   
 21  11  30  1   
 22  11  31  1   
 23  12  13  1   
 24  12  32  1   
 25  12  33  1   
 26  13  14  am  
 27  13  15  1   
 28  14  16  2   
 29  14  17  1   
 30  15  18  2   
 31  15  19  1   
 32  17  20  2   
 33  18  20  1   
 34  18  34  1   
 35  19  35  1   
 36  19  36  1   
 37  19  37  1   
 38  20  21  1   
 39  21  38  1   
 40  21  39  1   
 41  21  40  1   
@<TRIPOS>SUBSTRUCTURE
  1 ****  11 GROUP 4 **** **** 0

# MOE 2024.06 (io_trps.svl 2023.06)
