@<TRIPOS>MOLECULE
NONAME
46 49 1 0 0 
SMALL
USER_CHARGES


@<TRIPOS>ATOM
  1 O       -2.8650     0.6690    -1.8290 O.2   1 <1>  -0.5700 
  2 C       -2.3530     0.8200    -0.7340 C.2   1 <1>   0.6160 
  3 N       -1.9940    -0.3090    -0.0580 N.am  1 <1>  -0.7300 
  4 C       -2.1560     2.1490    -0.2020 C.2   1 <1>   0.0290 
  5 C       -2.1930    -1.7010    -0.5210 C.3   1 <1>   0.2200 
  6 C       -1.6760     2.3390     1.1460 C.2   1 <1>   0.6160 
  7 C       -2.4200     3.2710    -0.9600 C.2   1 <1>  -0.1500 
  8 C       -3.4220    -2.3070     0.1390 C.3   1 <1>  -0.0800 
  9 C       -1.0500    -2.6280    -0.0990 C.3   1 <1>   0.1200 
 10 O       -1.4100     1.4370     1.9300 O.2   1 <1>  -0.5700 
 11 N       -1.4980     3.6140     1.6190 N.am  1 <1>  -0.5390 
 12 C       -2.2180     4.5530    -0.4170 C.2   1 <1>  -0.1380 
 13 C       -2.9820    -3.7400     0.4020 C.3   1 <1>   0.1200 
 14 C       -4.6880    -2.1840    -0.7220 C.3   1 <1>  -0.0170 
 15 O       -1.6180    -3.6580     0.6540 O.3   1 <1>  -0.5600 
 16 C       -1.7670     4.7010     0.8420 C.2   1 <1>  -0.0290 
 17 C       -2.4550     5.8850    -1.0830 C.3   1 <1>  -0.0220 
 18 C       -5.8680    -2.8870    -0.0690 C.ar  1 <1>  -0.1430 
 19 C       -1.6160     6.1410     1.2490 C.3   1 <1>  -0.0220 
 20 C       -1.9070     6.9050    -0.0600 C.3   1 <1>  -0.1600 
 21 C       -6.3380    -4.1050    -0.5180 C.ar  1 <1>  -0.1500 
 22 C       -6.5280    -2.3400     1.0130 C.ar  1 <1>  -0.1500 
 23 C       -7.4130    -4.7000     0.1210 C.ar  1 <1>   0.1600 
 24 C       -7.5930    -3.0190     1.5800 C.ar  1 <1>   0.1600 
 25 N       -8.0520    -4.1880     1.1610 N.ar  1 <1>  -0.6200 
 26 H       -1.6540    -0.1930     0.9080 H     1 <1>   0.3700 
 27 H       -2.2770    -1.7240    -1.5940 H     1 <1>   0.0800 
 28 H       -2.7830     3.1910    -1.9710 H     1 <1>   0.1500 
 29 H       -3.5890    -1.8430     1.0950 H     1 <1>   0.0800 
 30 H       -0.3190    -2.1270     0.5100 H     1 <1>   0.0800 
 31 H       -0.5780    -3.0670    -0.9600 H     1 <1>   0.0800 
 32 H       -1.1580     3.6860     2.5790 H     1 <1>   0.3700 
 33 H       -3.1230    -4.3640    -0.4640 H     1 <1>   0.0800 
 34 H       -3.4770    -4.1730     1.2550 H     1 <1>   0.0800 
 35 H       -4.5110    -2.6010    -1.6980 H     1 <1>   0.0800 
 36 H       -4.9260    -1.1420    -0.8570 H     1 <1>   0.0800 
 37 H       -1.9280     5.9500    -2.0190 H     1 <1>   0.0800 
 38 H       -3.5080     6.0310    -1.2450 H     1 <1>   0.0800 
 39 H       -2.3370     6.3860     2.0090 H     1 <1>   0.0800 
 40 H       -0.6200     6.3420     1.6050 H     1 <1>   0.0800 
 41 H       -2.6100     7.7030     0.1050 H     1 <1>   0.0800 
 42 H       -0.9900     7.3230    -0.4360 H     1 <1>   0.0800 
 43 H       -5.8820    -4.5970    -1.3570 H     1 <1>   0.1500 
 44 H       -6.2220    -1.3930     1.4190 H     1 <1>   0.1500 
 45 H       -7.7670    -5.6500    -0.2420 H     1 <1>   0.1500 
 46 H       -8.0950    -2.5770     2.4240 H     1 <1>   0.1500 
@<TRIPOS>BOND
  1   1   2  2   
  2   2   3  am  
  3   2   4  1   
  4   3   5  1   
  5   3  26  1   
  6   4   6  1   
  7   4   7  2   
  8   5   8  1   
  9   5   9  1   
 10   5  27  1   
 11   6  10  2   
 12   6  11  am  
 13   7  12  1   
 14   7  28  1   
 15   8  13  1   
 16   8  14  1   
 17   8  29  1   
 18   9  15  1   
 19   9  30  1   
 20   9  31  1   
 21  11  16  1   
 22  11  32  1   
 23  12  16  2   
 24  12  17  1   
 25  13  15  1   
 26  13  33  1   
 27  13  34  1   
 28  14  18  1   
 29  14  35  1   
 30  14  36  1   
 31  16  19  1   
 32  17  20  1   
 33  17  37  1   
 34  17  38  1   
 35  18  21  ar  
 36  18  22  ar  
 37  19  20  1   
 38  19  39  1   
 39  19  40  1   
 40  20  41  1   
 41  20  42  1   
 42  21  23  ar  
 43  21  43  1   
 44  22  24  ar  
 45  22  44  1   
 46  23  25  ar  
 47  23  45  1   
 48  24  25  ar  
 49  24  46  1   
@<TRIPOS>SUBSTRUCTURE
  1 ****   3 GROUP 4 **** **** 0

# MOE 2024.06 (io_trps.svl 2023.06)
