@<TRIPOS>MOLECULE
NONAME
58 61 1 0 0 
SMALL
USER_CHARGES


@<TRIPOS>ATOM
  1 N       -0.9910     0.2730    -0.0350 N.ar  1 <1>  -0.6200 
  2 C        0.2730     0.6240     0.1280 C.ar  1 <1>   0.7710 
  3 C       -1.8840     1.2250    -0.2220 C.ar  1 <1>   0.4100 
  4 N        0.6550     1.9110     0.1020 N.ar  1 <1>  -0.1790 
  5 N        1.2180    -0.3390     0.3300 N.pl3 1 <1>  -0.8380 
  6 N       -3.1660     0.8240    -0.3640 N.pl3 1 <1>  -0.8380 
  7 C       -1.5280     2.5940    -0.2790 C.ar  1 <1>  -0.1430 
  8 C       -0.2190     2.9200    -0.1160 C.ar  1 <1>   0.2180 
  9 C        2.7050    -0.1590     0.3240 C.3   1 <1>   0.1290 
 10 C        0.8270    -1.7750     0.5210 C.3   1 <1>   0.1290 
 11 C       -3.5480    -0.2450    -1.3410 C.3   1 <1>   0.2090 
 12 C       -4.1620     0.9600     0.7430 C.3   1 <1>   0.2090 
 13 C       -2.5870     3.6650    -0.5610 C.3   1 <1>  -0.0170 
 14 C        0.3180     4.3470    -0.1690 C.3   1 <1>  -0.0170 
 15 C       -3.8590    -1.5750    -0.6300 C.3   1 <1>   0.1100 
 16 C       -4.4600    -0.4000     1.4040 C.3   1 <1>   0.1100 
 17 C       -2.0910     5.0870    -0.2630 C.3   1 <1>  -0.1600 
 18 C       -0.6820     5.3110    -0.8200 C.3   1 <1>  -0.1600 
 19 N       -4.8880    -1.4100     0.4190 N.3   1 <1>  -0.8100 
 20 C       -5.2600    -2.6880     1.0770 C.3   1 <1>   0.2530 
 21 C       -5.7470    -3.7810     0.1110 C.ar  1 <1>   0.1670 
 22 N       -6.9690    -3.6010    -0.3790 N.ar  1 <1>  -0.6200 
 23 C       -4.9470    -4.8850    -0.2000 C.ar  1 <1>  -0.1430 
 24 C       -7.4100    -4.5230    -1.2140 C.ar  1 <1>   0.1600 
 25 C       -5.4340    -5.8370    -1.0740 C.ar  1 <1>  -0.1500 
 26 C       -3.5560    -5.0970     0.3870 C.3   1 <1>  -0.0970 
 27 C       -6.6950    -5.6430    -1.5910 C.ar  1 <1>  -0.1500 
 28 H        1.6390     2.0710     0.2640 H     1 <1>   0.4570 
 29 H        2.9980     0.7560    -0.1580 H     1 <1>   0.0800 
 30 H        3.1660    -0.9710    -0.2150 H     1 <1>   0.0800 
 31 H        3.0790    -0.1680     1.3340 H     1 <1>   0.0800 
 32 H       -0.1800    -1.8640     0.8950 H     1 <1>   0.0800 
 33 H        1.4830    -2.2500     1.2300 H     1 <1>   0.0800 
 34 H        0.8910    -2.2980    -0.4190 H     1 <1>   0.0800 
 35 H       -2.7510    -0.3970    -2.0470 H     1 <1>   0.0800 
 36 H       -4.4200     0.0690    -1.8870 H     1 <1>   0.0800 
 37 H       -5.0780     1.3640     0.3480 H     1 <1>   0.0800 
 38 H       -3.7890     1.6380     1.4900 H     1 <1>   0.0800 
 39 H       -3.4710     3.4900     0.0230 H     1 <1>   0.0800 
 40 H       -2.8700     3.5940    -1.5980 H     1 <1>   0.0800 
 41 H        1.2380     4.3810    -0.7260 H     1 <1>   0.0800 
 42 H        0.5220     4.6770     0.8360 H     1 <1>   0.0800 
 43 H       -2.9510    -1.9530    -0.1960 H     1 <1>   0.0800 
 44 H       -4.2050    -2.2770    -1.3680 H     1 <1>   0.0800 
 45 H       -5.2390    -0.2640     2.1340 H     1 <1>   0.0800 
 46 H       -3.5750    -0.7390     1.9140 H     1 <1>   0.0800 
 47 H       -2.0860     5.2480     0.8020 H     1 <1>   0.0800 
 48 H       -2.7720     5.7990    -0.6970 H     1 <1>   0.0800 
 49 H       -0.6950     5.1560    -1.8860 H     1 <1>   0.0800 
 50 H       -0.3750     6.3290    -0.6400 H     1 <1>   0.0800 
 51 H       -6.0640    -2.4910     1.7640 H     1 <1>   0.0800 
 52 H       -4.4290    -3.0410     1.6560 H     1 <1>   0.0800 
 53 H       -8.3960    -4.3770    -1.6190 H     1 <1>   0.1500 
 54 H       -4.8590    -6.7040    -1.3490 H     1 <1>   0.1500 
 55 H       -2.9290    -4.2480     0.1860 H     1 <1>   0.0800 
 56 H       -3.0860    -5.9650    -0.0400 H     1 <1>   0.0800 
 57 H       -3.6230    -5.2420     1.4500 H     1 <1>   0.0800 
 58 H       -7.1220    -6.3500    -2.2770 H     1 <1>   0.1500 
@<TRIPOS>BOND
  1   1   2  ar  
  2   1   3  ar  
  3   2   4  ar  
  4   2   5  1   
  5   3   6  1   
  6   3   7  ar  
  7   4   8  ar  
  8   4  28  1   
  9   5   9  1   
 10   5  10  1   
 11   6  11  1   
 12   6  12  1   
 13   7   8  ar  
 14   7  13  1   
 15   8  14  1   
 16   9  29  1   
 17   9  30  1   
 18   9  31  1   
 19  10  32  1   
 20  10  33  1   
 21  10  34  1   
 22  11  15  1   
 23  11  35  1   
 24  11  36  1   
 25  12  16  1   
 26  12  37  1   
 27  12  38  1   
 28  13  17  1   
 29  13  39  1   
 30  13  40  1   
 31  14  18  1   
 32  14  41  1   
 33  14  42  1   
 34  15  19  1   
 35  15  43  1   
 36  15  44  1   
 37  16  19  1   
 38  16  45  1   
 39  16  46  1   
 40  17  18  1   
 41  17  47  1   
 42  17  48  1   
 43  18  49  1   
 44  18  50  1   
 45  19  20  1   
 46  20  21  1   
 47  20  51  1   
 48  20  52  1   
 49  21  22  ar  
 50  21  23  ar  
 51  22  24  ar  
 52  23  25  ar  
 53  23  26  1   
 54  24  27  ar  
 55  24  53  1   
 56  25  27  ar  
 57  25  54  1   
 58  26  55  1   
 59  26  56  1   
 60  26  57  1   
 61  27  58  1   
@<TRIPOS>SUBSTRUCTURE
  1 ****   6 GROUP 4 **** **** 0

# MOE 2024.06 (io_trps.svl 2023.06)
