@<TRIPOS>MOLECULE
NONAME
50 52 1 0 0 
SMALL
USER_CHARGES


@<TRIPOS>ATOM
  1 O        1.4410     0.3860     0.2220 O.3   1 <1>  -0.3630 
  2 C        1.7010    -0.9150     0.3860 C.ar  1 <1>   0.0830 
  3 C        2.0030     1.0590     1.3470 C.3   1 <1>   0.4000 
  4 C        2.3890    -1.1140     1.5470 C.ar  1 <1>   0.0830 
  5 C        1.3640    -1.9670    -0.4430 C.ar  1 <1>  -0.1500 
  6 O        2.5940     0.0530     2.1670 O.3   1 <1>  -0.3630 
  7 C        2.7770    -2.3780     1.9440 C.ar  1 <1>  -0.1500 
  8 C        1.7420    -3.2520    -0.0660 C.ar  1 <1>  -0.1440 
  9 C        2.4470    -3.4480     1.1220 C.ar  1 <1>  -0.1500 
 10 C        1.3920    -4.4400    -0.9500 C.3   1 <1>  -0.0160 
 11 C        0.2490    -5.2970    -0.3680 C.3   1 <1>  -0.0800 
 12 C        0.0650    -6.5470    -1.2470 C.3   1 <1>   0.3430 
 13 C       -1.0470    -4.4720    -0.2260 C.3   1 <1>  -0.2400 
 14 N       -0.9680    -7.4490    -0.6750 N.4   1 <1>  -0.9590 
 15 C       -0.4780    -8.8420    -0.4840 C.3   1 <1>   0.5240 
 16 C       -2.2790    -7.3610    -1.3950 C.3   1 <1>   0.3430 
 17 C       -1.0030    -9.3150     0.8660 C.2   1 <1>   0.0460 
 18 C       -3.4590    -7.9060    -0.5760 C.3   1 <1>   0.1200 
 19 N       -1.1390    -8.4250     1.8750 N.2   1 <1>  -0.5650 
 20 C       -1.4010   -10.5500     1.2540 C.2   1 <1>  -0.3320 
 21 O       -4.6120    -7.7040    -1.3140 O.3   1 <1>  -0.6800 
 22 C       -1.5980    -9.1360     2.8540 C.2   1 <1>   0.0360 
 23 N       -1.7800   -10.4350     2.5420 N.pl3 1 <1>   0.0330 
 24 C       -1.4540   -11.8730     0.5060 C.3   1 <1>  -0.0600 
 25 H        1.2250     1.5600     1.8950 H     1 <1>   0.0800 
 26 H        2.7630     1.7450     1.0150 H     1 <1>   0.0800 
 27 H        0.8220    -1.7700    -1.3500 H     1 <1>   0.1500 
 28 H        3.3200    -2.5130     2.8620 H     1 <1>   0.1500 
 29 H        2.7450    -4.4390     1.4180 H     1 <1>   0.1500 
 30 H        2.2780    -5.0420    -1.0620 H     1 <1>   0.0800 
 31 H        1.1210    -4.0870    -1.9310 H     1 <1>   0.0800 
 32 H        0.5550    -5.6210     0.6130 H     1 <1>   0.0800 
 33 H        1.0100    -7.0640    -1.3060 H     1 <1>   0.0800 
 34 H       -0.2140    -6.2500    -2.2450 H     1 <1>   0.0800 
 35 H       -1.3960    -4.1340    -1.1870 H     1 <1>   0.0800 
 36 H       -0.8750    -3.6060     0.3900 H     1 <1>   0.0800 
 37 H       -1.8260    -5.0410     0.2480 H     1 <1>   0.0800 
 38 H       -1.1250    -7.1580     0.3110 H     1 <1>   0.4500 
 39 H        0.5980    -8.8550    -0.4480 H     1 <1>   0.0800 
 40 H       -0.8140    -9.4900    -1.2770 H     1 <1>   0.0800 
 41 H       -2.2200    -7.8990    -2.3270 H     1 <1>   0.0800 
 42 H       -2.4890    -6.3280    -1.6160 H     1 <1>   0.0800 
 43 H       -3.5580    -7.3770     0.3560 H     1 <1>   0.0800 
 44 H       -3.3630    -8.9630    -0.3970 H     1 <1>   0.0800 
 45 H       -5.4090    -7.9960    -0.8220 H     1 <1>   0.4000 
 46 H       -1.8210    -8.7500     3.8360 H     1 <1>   0.1500 
 47 H       -2.1270   -11.1740     3.1650 H     1 <1>   0.2700 
 48 H       -1.1050   -11.7610    -0.5050 H     1 <1>   0.0800 
 49 H       -2.4630   -12.2450     0.4780 H     1 <1>   0.0800 
 50 H       -0.8330   -12.6020     0.9990 H     1 <1>   0.0800 
@<TRIPOS>BOND
  1   1   2  1   
  2   1   3  1   
  3   2   4  ar  
  4   2   5  ar  
  5   3   6  1   
  6   3  25  1   
  7   3  26  1   
  8   4   6  1   
  9   4   7  ar  
 10   5   8  ar  
 11   5  27  1   
 12   7   9  ar  
 13   7  28  1   
 14   8   9  ar  
 15   8  10  1   
 16   9  29  1   
 17  10  11  1   
 18  10  30  1   
 19  10  31  1   
 20  11  12  1   
 21  11  13  1   
 22  11  32  1   
 23  12  14  1   
 24  12  33  1   
 25  12  34  1   
 26  13  35  1   
 27  13  36  1   
 28  13  37  1   
 29  14  15  1   
 30  14  16  1   
 31  14  38  1   
 32  15  17  1   
 33  15  39  1   
 34  15  40  1   
 35  16  18  1   
 36  16  41  1   
 37  16  42  1   
 38  17  19  1   
 39  17  20  2   
 40  18  21  1   
 41  18  43  1   
 42  18  44  1   
 43  19  22  2   
 44  20  23  1   
 45  20  24  1   
 46  21  45  1   
 47  22  23  1   
 48  22  46  1   
 49  23  47  1   
 50  24  48  1   
 51  24  49  1   
 52  24  50  1   
@<TRIPOS>SUBSTRUCTURE
  1 ****  11 GROUP 4 **** **** 0

# MOE 2024.06 (io_trps.svl 2023.06)
