@<TRIPOS>MOLECULE
NONAME
58 61 1 0 0 
SMALL
USER_CHARGES


@<TRIPOS>ATOM
  1 F       -3.0620    -2.4510     1.8350 F     1 <1>  -0.1900 
  2 C       -3.8930    -1.5060     1.4760 C.ar  1 <1>   0.1900 
  3 C       -3.5710    -0.1490     1.6000 C.ar  1 <1>   0.0830 
  4 C       -5.1100    -1.9150     0.9670 C.ar  1 <1>  -0.1500 
  5 O       -2.4100     0.3800     2.0850 O.3   1 <1>  -0.3630 
  6 C       -4.5200     0.7760     1.1940 C.ar  1 <1>  -0.1500 
  7 C       -6.0300    -0.9660     0.5670 C.ar  1 <1>  -0.1500 
  8 C       -1.3340    -0.4130     2.5330 C.3   1 <1>   0.0400 
  9 C       -5.7590     0.4000     0.6720 C.ar  1 <1>   0.0530 
 10 C       -6.7230     1.3950     0.2720 C.2   1 <1>   0.0870 
 11 O       -6.7840     2.5490     0.8860 O.3   1 <1>  -0.0190 
 12 C       -7.6940     1.4060    -0.6770 C.2   1 <1>  -0.0860 
 13 N       -7.7340     3.3230     0.4260 N.2   1 <1>  -0.4100 
 14 C       -8.2970     2.6560    -0.5210 C.2   1 <1>   0.3720 
 15 C       -8.0570     0.4100    -1.6320 C.2   1 <1>   0.7160 
 16 N       -9.3830     3.1260    -1.2760 N.pl3 1 <1>  -0.8210 
 17 O       -7.3430     0.2400    -2.6050 O.2   1 <1>  -0.5700 
 18 N       -9.1710    -0.3890    -1.4650 N.am  1 <1>  -0.6600 
 19 C      -10.1740     4.2260    -0.6580 C.3   1 <1>   0.1290 
 20 C       -9.0710     3.3940    -2.7080 C.3   1 <1>   0.1290 
 21 C       -9.4210    -1.5800    -2.3200 C.3   1 <1>   0.1400 
 22 C      -10.1420    -0.2170    -0.3510 C.3   1 <1>   0.1400 
 23 C       -9.3500    -2.8370    -1.4510 C.3   1 <1>  -0.1600 
 24 C      -10.0950    -1.4510     0.5520 C.3   1 <1>  -0.1600 
 25 C      -10.3060    -2.7370    -0.2560 C.3   1 <1>   0.2200 
 26 N      -10.1630    -3.9210     0.6240 N.am  1 <1>  -0.6600 
 27 C       -9.0500    -4.3340     1.2800 C.2   1 <1>   0.5690 
 28 C      -11.3150    -4.8110     0.8490 C.3   1 <1>   0.1400 
 29 O       -7.9670    -3.8000     1.2750 O.2   1 <1>  -0.5700 
 30 C       -9.3210    -5.5970     2.0490 C.3   1 <1>  -0.0990 
 31 C      -10.8470    -5.7610     1.9600 C.3   1 <1>  -0.1600 
 32 H       -5.3410    -2.9640     0.8880 H     1 <1>   0.1500 
 33 H       -4.2850     1.8210     1.2860 H     1 <1>   0.1500 
 34 H       -6.9740    -1.3030     0.1780 H     1 <1>   0.1500 
 35 H       -0.5460     0.2440     2.8550 H     1 <1>   0.0800 
 36 H       -0.9870    -1.0250     1.7190 H     1 <1>   0.0800 
 37 H       -1.6640    -1.0190     3.3580 H     1 <1>   0.0800 
 38 H      -10.4070     3.9780     0.3640 H     1 <1>   0.0800 
 39 H      -11.0930     4.3660    -1.1980 H     1 <1>   0.0800 
 40 H       -9.6070     5.1420    -0.6710 H     1 <1>   0.0800 
 41 H       -8.3730     2.6700    -3.0900 H     1 <1>   0.0800 
 42 H       -8.6380     4.3740    -2.8130 H     1 <1>   0.0800 
 43 H       -9.9730     3.3400    -3.2910 H     1 <1>   0.0800 
 44 H       -8.6940    -1.6480    -3.1110 H     1 <1>   0.0800 
 45 H      -10.3950    -1.4920    -2.7700 H     1 <1>   0.0800 
 46 H      -11.1290    -0.1010    -0.7660 H     1 <1>   0.0800 
 47 H       -9.9270     0.6630     0.2280 H     1 <1>   0.0800 
 48 H       -8.3370    -2.9530    -1.1140 H     1 <1>   0.0800 
 49 H       -9.6060    -3.6940    -2.0460 H     1 <1>   0.0800 
 50 H      -10.8600    -1.3680     1.3020 H     1 <1>   0.0800 
 51 H       -9.1430    -1.4740     1.0490 H     1 <1>   0.0800 
 52 H      -11.3120    -2.7210    -0.6420 H     1 <1>   0.0800 
 53 H      -11.5300    -5.3530    -0.0560 H     1 <1>   0.0800 
 54 H      -12.1790    -4.2470     1.1560 H     1 <1>   0.0800 
 55 H       -8.9860    -5.5000     3.0650 H     1 <1>   0.0800 
 56 H       -8.8130    -6.4120     1.5690 H     1 <1>   0.0800 
 57 H      -11.1320    -6.7770     1.7530 H     1 <1>   0.0800 
 58 H      -11.2990    -5.4580     2.8890 H     1 <1>   0.0800 
@<TRIPOS>BOND
  1   1   2  1   
  2   2   3  ar  
  3   2   4  ar  
  4   3   5  1   
  5   3   6  ar  
  6   4   7  ar  
  7   4  32  1   
  8   5   8  1   
  9   6   9  ar  
 10   6  33  1   
 11   7   9  ar  
 12   7  34  1   
 13   8  35  1   
 14   8  36  1   
 15   8  37  1   
 16   9  10  1   
 17  10  11  1   
 18  10  12  2   
 19  11  13  1   
 20  12  14  1   
 21  12  15  1   
 22  13  14  2   
 23  14  16  1   
 24  15  17  2   
 25  15  18  am  
 26  16  19  1   
 27  16  20  1   
 28  18  21  1   
 29  18  22  1   
 30  19  38  1   
 31  19  39  1   
 32  19  40  1   
 33  20  41  1   
 34  20  42  1   
 35  20  43  1   
 36  21  23  1   
 37  21  44  1   
 38  21  45  1   
 39  22  24  1   
 40  22  46  1   
 41  22  47  1   
 42  23  25  1   
 43  23  48  1   
 44  23  49  1   
 45  24  25  1   
 46  24  50  1   
 47  24  51  1   
 48  25  26  1   
 49  25  52  1   
 50  26  27  am  
 51  26  28  1   
 52  27  29  2   
 53  27  30  1   
 54  28  31  1   
 55  28  53  1   
 56  28  54  1   
 57  30  31  1   
 58  30  55  1   
 59  30  56  1   
 60  31  57  1   
 61  31  58  1   
@<TRIPOS>SUBSTRUCTURE
  1 ****   7 GROUP 4 **** **** 0

# MOE 2024.06 (io_trps.svl 2023.06)
