@<TRIPOS>MOLECULE
NONAME
53 56 1 0 0 
SMALL
USER_CHARGES


@<TRIPOS>ATOM
  1 F       -0.4440    -0.8310     0.5040 F     1 <1>  -0.1900 
  2 C       -0.7480    -1.9170    -0.1610 C.ar  1 <1>   0.1900 
  3 C       -0.1570    -2.1750    -1.3870 C.ar  1 <1>   0.1900 
  4 C       -1.6640    -2.7950     0.3840 C.ar  1 <1>  -0.1500 
  5 F        0.7130    -1.3350    -1.8960 F     1 <1>  -0.1900 
  6 C       -0.4710    -3.3210    -2.0940 C.ar  1 <1>  -0.1500 
  7 C       -1.9950    -3.9540    -0.3160 C.ar  1 <1>   0.1000 
  8 C       -1.3910    -4.2030    -1.5480 C.ar  1 <1>  -0.1500 
  9 N       -2.9100    -4.8730     0.1900 N.pl3 1 <1>  -0.8380 
 10 C       -4.1970    -4.3640     0.7140 C.3   1 <1>   0.2090 
 11 C       -2.3470    -6.0330     0.9130 C.3   1 <1>   0.2090 
 12 C       -5.2260    -5.4830     0.5710 C.3   1 <1>  -0.1600 
 13 C       -3.3350    -7.1860     0.7670 C.3   1 <1>  -0.1600 
 14 C       -4.7220    -6.7560     1.2620 C.3   1 <1>   0.4230 
 15 N       -5.7250    -7.8430     1.1110 N.4   1 <1>  -0.9060 
 16 C       -5.9600    -8.3890    -0.2600 C.3   1 <1>   0.4230 
 17 C       -7.3940    -8.9070    -0.3880 C.3   1 <1>  -0.0800 
 18 C       -5.2130    -9.7140    -0.3740 C.3   1 <1>   0.1200 
 19 C       -7.3140   -10.3170     0.2210 C.3   1 <1>   0.1200 
 20 C       -8.5220    -8.0290     0.1910 C.3   1 <1>  -0.0160 
 21 O       -5.9550   -10.5510     0.4490 O.3   1 <1>  -0.5600 
 22 C       -9.8780    -8.6350    -0.1250 C.ar  1 <1>  -0.1430 
 23 C      -10.5840    -9.3810     0.7990 C.ar  1 <1>  -0.1500 
 24 C      -10.4770    -8.4710    -1.3590 C.ar  1 <1>  -0.1500 
 25 C      -11.8130    -9.9170     0.4520 C.ar  1 <1>   0.1600 
 26 C      -11.7110    -9.0500    -1.6040 C.ar  1 <1>   0.1600 
 27 N      -12.3890    -9.7710    -0.7290 N.ar  1 <1>  -0.6200 
 28 H       -2.1040    -2.5800     1.3380 H     1 <1>   0.1500 
 29 H       -0.0070    -3.5120    -3.0450 H     1 <1>   0.1500 
 30 H       -1.6540    -5.0980    -2.0810 H     1 <1>   0.1500 
 31 H       -4.0830    -4.0750     1.7460 H     1 <1>   0.0800 
 32 H       -4.5050    -3.5000     0.1460 H     1 <1>   0.0800 
 33 H       -1.3930    -6.3020     0.4880 H     1 <1>   0.0800 
 34 H       -2.1970    -5.7770     1.9500 H     1 <1>   0.0800 
 35 H       -5.3810    -5.6470    -0.4800 H     1 <1>   0.0800 
 36 H       -6.1490    -5.1560     1.0130 H     1 <1>   0.0800 
 37 H       -2.9750    -8.0210     1.3400 H     1 <1>   0.0800 
 38 H       -3.3580    -7.4540    -0.2730 H     1 <1>   0.0800 
 39 H       -4.6260    -6.5290     2.3130 H     1 <1>   0.0800 
 40 H       -6.6160    -7.5220     1.4950 H     1 <1>   0.4500 
 41 H       -5.4580    -8.6630     1.6780 H     1 <1>   0.4500 
 42 H       -5.6970    -7.6840    -1.0310 H     1 <1>   0.0800 
 43 H       -7.5940    -9.0340    -1.4390 H     1 <1>   0.0800 
 44 H       -4.1940    -9.6810    -0.0330 H     1 <1>   0.0800 
 45 H       -5.2480   -10.1040    -1.3780 H     1 <1>   0.0800 
 46 H       -7.6880   -11.0660    -0.4590 H     1 <1>   0.0800 
 47 H       -7.8300   -10.3980     1.1630 H     1 <1>   0.0800 
 48 H       -8.4770    -7.0430    -0.2390 H     1 <1>   0.0800 
 49 H       -8.4330    -7.9320     1.2580 H     1 <1>   0.0800 
 50 H      -10.2020    -9.5560     1.7880 H     1 <1>   0.1500 
 51 H      -10.0050    -7.8990    -2.1360 H     1 <1>   0.1500 
 52 H      -12.3520   -10.4970     1.1830 H     1 <1>   0.1500 
 53 H      -12.1650    -8.9120    -2.5720 H     1 <1>   0.1500 
@<TRIPOS>BOND
  1   1   2  1   
  2   2   3  ar  
  3   2   4  ar  
  4   3   5  1   
  5   3   6  ar  
  6   4   7  ar  
  7   4  28  1   
  8   6   8  ar  
  9   6  29  1   
 10   7   8  ar  
 11   7   9  1   
 12   8  30  1   
 13   9  10  1   
 14   9  11  1   
 15  10  12  1   
 16  10  31  1   
 17  10  32  1   
 18  11  13  1   
 19  11  33  1   
 20  11  34  1   
 21  12  14  1   
 22  12  35  1   
 23  12  36  1   
 24  13  14  1   
 25  13  37  1   
 26  13  38  1   
 27  14  15  1   
 28  14  39  1   
 29  15  16  1   
 30  15  40  1   
 31  15  41  1   
 32  16  17  1   
 33  16  18  1   
 34  16  42  1   
 35  17  19  1   
 36  17  20  1   
 37  17  43  1   
 38  18  21  1   
 39  18  44  1   
 40  18  45  1   
 41  19  21  1   
 42  19  46  1   
 43  19  47  1   
 44  20  22  1   
 45  20  48  1   
 46  20  49  1   
 47  22  23  ar  
 48  22  24  ar  
 49  23  25  ar  
 50  23  50  1   
 51  24  26  ar  
 52  24  51  1   
 53  25  27  ar  
 54  25  52  1   
 55  26  27  ar  
 56  26  53  1   
@<TRIPOS>SUBSTRUCTURE
  1 ****  12 GROUP 4 **** **** 0

# MOE 2024.06 (io_trps.svl 2023.06)
