@<TRIPOS>MOLECULE
NONAME
64 67 1 0 0 
SMALL
USER_CHARGES


@<TRIPOS>ATOM
  1 O       -1.9770     1.6140    -0.7370 O.2   1 <1>  -0.5700 
  2 C       -1.4390     2.2830     0.1130 C.2   1 <1>   0.5690 
  3 N       -0.0960     2.4260     0.1860 N.am  1 <1>  -0.7300 
  4 C       -2.3070     2.9880     1.1330 C.3   1 <1>  -0.0990 
  5 C        0.8720     1.8140    -0.7410 C.3   1 <1>   0.2200 
  6 C       -3.4410     2.0880     1.6400 C.3   1 <1>   0.3430 
  7 C        1.8420     0.9400     0.0610 C.3   1 <1>  -0.1600 
  8 C        1.6140     2.9270    -1.4880 C.3   1 <1>  -0.1600 
  9 N       -4.3740     1.6930     0.5440 N.4   1 <1>  -0.9590 
 10 C        2.9400     0.3590    -0.8420 C.3   1 <1>  -0.1600 
 11 C        2.7110     2.3500    -2.3940 C.3   1 <1>  -0.1600 
 12 C       -5.2470     2.8030     0.0210 C.3   1 <1>   0.3430 
 13 C       -5.1590     0.4640     0.8900 C.3   1 <1>   0.3430 
 14 C        3.6840     1.4700    -1.5970 C.3   1 <1>  -0.1600 
 15 C       -6.3140     3.2860     1.0310 C.3   1 <1>   0.1430 
 16 C       -6.5900     0.7710     1.3640 C.3   1 <1>  -0.1600 
 17 C       -7.4670     3.7750     0.1810 C.ar  1 <1>   0.1670 
 18 C       -6.7420     2.1600     2.0060 C.3   1 <1>  -0.1600 
 19 C       -5.8950     4.5710     1.7990 C.3   1 <1>  -0.1600 
 20 N       -8.2370     3.0000    -0.5380 N.ar  1 <1>  -0.6200 
 21 C       -7.5910     5.1290     0.2140 C.ar  1 <1>  -0.1430 
 22 C       -6.5510     5.7730     1.0930 C.3   1 <1>  -0.0170 
 23 C       -9.1850     3.6330    -1.2360 C.ar  1 <1>   0.7200 
 24 C       -8.5920     5.6940    -0.5360 C.ar  1 <1>   0.1600 
 25 N       -9.3910     4.9520    -1.2660 N.ar  1 <1>  -0.6200 
 26 N      -10.0200     2.8480    -2.0030 N.pl3 1 <1>  -0.8380 
 27 C      -10.2680     1.4120    -1.6990 C.3   1 <1>   0.1290 
 28 C      -10.8880     3.4340    -3.0620 C.3   1 <1>   0.1290 
 29 H        0.3350     3.0260     0.8900 H     1 <1>   0.3700 
 30 H       -2.6990     3.8880     0.7000 H     1 <1>   0.0800 
 31 H       -1.6990     3.2680     1.9730 H     1 <1>   0.0800 
 32 H        0.3560     1.1960    -1.4580 H     1 <1>   0.0800 
 33 H       -3.9870     2.5910     2.4210 H     1 <1>   0.0800 
 34 H       -3.0000     1.2010     2.0650 H     1 <1>   0.0800 
 35 H        1.3000     0.1320     0.5200 H     1 <1>   0.0800 
 36 H        2.3050     1.5270     0.8350 H     1 <1>   0.0800 
 37 H        2.0660     3.6000    -0.7820 H     1 <1>   0.0800 
 38 H        0.9140     3.4800    -2.0910 H     1 <1>   0.0800 
 39 H       -3.7370     1.4240    -0.2410 H     1 <1>   0.4500 
 40 H        2.4980    -0.3180    -1.5530 H     1 <1>   0.0800 
 41 H        3.6400    -0.2020    -0.2460 H     1 <1>   0.0800 
 42 H        3.2530     3.1540    -2.8630 H     1 <1>   0.0800 
 43 H        2.2580     1.7620    -3.1750 H     1 <1>   0.0800 
 44 H       -5.7680     2.4330    -0.8490 H     1 <1>   0.0800 
 45 H       -4.6490     3.6380    -0.3020 H     1 <1>   0.0800 
 46 H       -4.6410    -0.0840     1.6610 H     1 <1>   0.0800 
 47 H       -5.2190    -0.1790     0.0260 H     1 <1>   0.0800 
 48 H        4.4040     1.0310    -2.2660 H     1 <1>   0.0800 
 49 H        4.2210     2.0810    -0.8920 H     1 <1>   0.0800 
 50 H       -6.8990     0.0110     2.0600 H     1 <1>   0.0800 
 51 H       -7.2520     0.6980     0.5180 H     1 <1>   0.0800 
 52 H       -7.7660     2.3120     2.3070 H     1 <1>   0.0800 
 53 H       -6.1380     2.1890     2.8950 H     1 <1>   0.0800 
 54 H       -4.8300     4.6930     1.8590 H     1 <1>   0.0800 
 55 H       -6.2870     4.5350     2.8020 H     1 <1>   0.0800 
 56 H       -5.8390     6.3030     0.4840 H     1 <1>   0.0800 
 57 H       -7.0010     6.4500     1.7990 H     1 <1>   0.0800 
 58 H       -8.7380     6.7610    -0.5440 H     1 <1>   0.1500 
 59 H       -9.9660     1.1770    -0.6930 H     1 <1>   0.0800 
 60 H       -9.7120     0.7980    -2.3850 H     1 <1>   0.0800 
 61 H      -11.3160     1.1920    -1.7950 H     1 <1>   0.0800 
 62 H      -10.4140     4.2940    -3.5040 H     1 <1>   0.0800 
 63 H      -11.8270     3.7360    -2.6330 H     1 <1>   0.0800 
 64 H      -11.0660     2.7100    -3.8380 H     1 <1>   0.0800 
@<TRIPOS>BOND
  1   1   2  2   
  2   2   3  am  
  3   2   4  1   
  4   3   5  1   
  5   3  29  1   
  6   4   6  1   
  7   4  30  1   
  8   4  31  1   
  9   5   7  1   
 10   5   8  1   
 11   5  32  1   
 12   6   9  1   
 13   6  33  1   
 14   6  34  1   
 15   7  10  1   
 16   7  35  1   
 17   7  36  1   
 18   8  11  1   
 19   8  37  1   
 20   8  38  1   
 21   9  12  1   
 22   9  13  1   
 23   9  39  1   
 24  10  14  1   
 25  10  40  1   
 26  10  41  1   
 27  11  14  1   
 28  11  42  1   
 29  11  43  1   
 30  12  15  1   
 31  12  44  1   
 32  12  45  1   
 33  13  16  1   
 34  13  46  1   
 35  13  47  1   
 36  14  48  1   
 37  14  49  1   
 38  15  17  1   
 39  15  18  1   
 40  15  19  1   
 41  16  18  1   
 42  16  50  1   
 43  16  51  1   
 44  17  20  ar  
 45  17  21  ar  
 46  18  52  1   
 47  18  53  1   
 48  19  22  1   
 49  19  54  1   
 50  19  55  1   
 51  20  23  ar  
 52  21  22  1   
 53  21  24  ar  
 54  22  56  1   
 55  22  57  1   
 56  23  25  ar  
 57  23  26  1   
 58  24  25  ar  
 59  24  58  1   
 60  26  27  1   
 61  26  28  1   
 62  27  59  1   
 63  27  60  1   
 64  27  61  1   
 65  28  62  1   
 66  28  63  1   
 67  28  64  1   
@<TRIPOS>SUBSTRUCTURE
  1 ****  12 GROUP 4 **** **** 0

# MOE 2024.06 (io_trps.svl 2023.06)
