@<TRIPOS>MOLECULE
NONAME
48 50 1 0 0 
SMALL
USER_CHARGES


@<TRIPOS>ATOM
  1 S        1.1780     0.6870    -0.4040 S.3   1 <1>  -0.3320 
  2 C       -0.0730    -0.5980    -0.5840 C.ar  1 <1>   0.1020 
  3 C        1.4570     0.8980     1.4110 C.3   1 <1>   0.2500 
  4 C       -0.6910    -1.1920     0.5050 C.ar  1 <1>  -0.1500 
  5 C       -0.3990    -0.9760    -1.8730 C.ar  1 <1>  -0.1500 
  6 C        2.5270     1.9520     1.6210 C.2   1 <1>  -0.0400 
  7 C       -1.6410    -2.1770     0.2920 C.ar  1 <1>  -0.1500 
  8 C       -1.3500    -1.9610    -2.0790 C.ar  1 <1>  -0.1500 
  9 O        2.2110     3.2210     1.4930 O.3   1 <1>  -0.2800 
 10 C        3.8320     1.8300     1.9440 C.2   1 <1>  -0.1500 
 11 C       -1.9730    -2.5660    -0.9980 C.ar  1 <1>  -0.1430 
 12 C        3.2880     3.9670     1.7180 C.2   1 <1>   0.0550 
 13 C        4.3280     3.1320     2.0060 C.2   1 <1>  -0.1500 
 14 C       -3.0160    -3.6450    -1.2250 C.3   1 <1>  -0.0970 
 15 C        3.2310     5.4090     1.6300 C.2   1 <1>   0.7150 
 16 O        2.1780     6.0140     1.5240 O.2   1 <1>  -0.5700 
 17 N        4.3830     6.1350     1.6410 N.am  1 <1>  -0.7300 
 18 C        4.4740     7.5780     1.3980 C.3   1 <1>   0.4000 
 19 C        5.0980     7.7850     0.0210 C.2   1 <1>   0.0070 
 20 C        5.3070     8.1920     2.5210 C.3   1 <1>  -0.2400 
 21 N        6.3680     7.8500    -0.2150 N.2   1 <1>  -0.3380 
 22 N        4.3870     7.8980    -1.1090 N.pl3 1 <1>   0.0480 
 23 N        6.5170     8.0160    -1.5290 N.2   1 <1>  -0.3380 
 24 C        5.3350     8.0410    -2.0360 C.2   1 <1>   0.0360 
 25 C        2.9250     7.8620    -1.3330 C.3   1 <1>   0.0960 
 26 C        2.3120     9.2530    -1.1420 C.3   1 <1>  -0.2400 
 27 H        1.7720    -0.0550     1.7950 H     1 <1>   0.0800 
 28 H        0.5260     1.2000     1.8550 H     1 <1>   0.0800 
 29 H       -0.4550    -0.9070     1.5110 H     1 <1>   0.1500 
 30 H        0.0880    -0.5020    -2.7060 H     1 <1>   0.1500 
 31 H       -2.1240    -2.6390     1.1340 H     1 <1>   0.1500 
 32 H       -1.6030    -2.2520    -3.0830 H     1 <1>   0.1500 
 33 H        4.4000     0.9320     2.1180 H     1 <1>   0.1500 
 34 H        5.3450     3.3930     2.2400 H     1 <1>   0.1500 
 35 H       -3.0210    -4.3440    -0.4080 H     1 <1>   0.0800 
 36 H       -2.8070    -4.1860    -2.1310 H     1 <1>   0.0800 
 37 H       -3.9910    -3.1980    -1.3050 H     1 <1>   0.0800 
 38 H        5.2730     5.6530     1.5180 H     1 <1>   0.3700 
 39 H        3.4960     8.0260     1.4210 H     1 <1>   0.0800 
 40 H        6.2880     7.7540     2.5510 H     1 <1>   0.0800 
 41 H        4.8180     8.0450     3.4670 H     1 <1>   0.0800 
 42 H        5.4140     9.2480     2.3520 H     1 <1>   0.0800 
 43 H        5.1210     8.1600    -3.0830 H     1 <1>   0.1500 
 44 H        2.4770     7.1620    -0.6530 H     1 <1>   0.0800 
 45 H        2.7380     7.5150    -2.3340 H     1 <1>   0.0800 
 46 H        2.4730     9.6030    -0.1380 H     1 <1>   0.0800 
 47 H        1.2520     9.2070    -1.3170 H     1 <1>   0.0800 
 48 H        2.7420     9.9530    -1.8360 H     1 <1>   0.0800 
@<TRIPOS>BOND
  1   1   2  1   
  2   1   3  1   
  3   2   4  ar  
  4   2   5  ar  
  5   3   6  1   
  6   3  27  1   
  7   3  28  1   
  8   4   7  ar  
  9   4  29  1   
 10   5   8  ar  
 11   5  30  1   
 12   6   9  1   
 13   6  10  2   
 14   7  11  ar  
 15   7  31  1   
 16   8  11  ar  
 17   8  32  1   
 18   9  12  1   
 19  10  13  1   
 20  10  33  1   
 21  11  14  1   
 22  12  13  2   
 23  12  15  1   
 24  13  34  1   
 25  14  35  1   
 26  14  36  1   
 27  14  37  1   
 28  15  16  2   
 29  15  17  am  
 30  17  18  1   
 31  17  38  1   
 32  18  19  1   
 33  18  20  1   
 34  18  39  1   
 35  19  21  2   
 36  19  22  1   
 37  20  40  1   
 38  20  41  1   
 39  20  42  1   
 40  21  23  1   
 41  22  24  1   
 42  22  25  1   
 43  23  24  2   
 44  24  43  1   
 45  25  26  1   
 46  25  44  1   
 47  25  45  1   
 48  26  46  1   
 49  26  47  1   
 50  26  48  1   
@<TRIPOS>SUBSTRUCTURE
  1 ****   9 GROUP 4 **** **** 0

# MOE 2024.06 (io_trps.svl 2023.06)
