@<TRIPOS>MOLECULE
NONAME
43 46 1 0 0 
SMALL
USER_CHARGES


@<TRIPOS>ATOM
  1 S        1.9720    -0.1350     0.8520 S.3   1 <1>  -0.0800 
  2 C        0.6240    -0.6980    -0.1020 C.2   1 <1>   0.1980 
  3 C        2.0470    -1.6920     1.6090 C.2   1 <1>  -0.1100 
  4 N        0.2810    -1.8990     0.1320 N.2   1 <1>  -0.5650 
  5 C        0.0170     0.2740    -1.0870 C.3   1 <1>  -0.0600 
  6 C        1.0820    -2.5030     1.1230 C.2   1 <1>   0.1410 
  7 C        0.8900    -3.8910     1.5400 C.2   1 <1>   0.7160 
  8 O        1.8620    -4.5400     1.8860 O.2   1 <1>  -0.5700 
  9 N       -0.3400    -4.5230     1.5610 N.am  1 <1>  -0.6600 
 10 C       -0.4680    -5.9960     1.3410 C.3   1 <1>   0.1400 
 11 C       -1.6590    -3.8320     1.4670 C.3   1 <1>   0.1400 
 12 C       -1.2430    -6.2810     0.0370 C.3   1 <1>   0.3440 
 13 C       -2.3390    -4.1900     0.1330 C.3   1 <1>   0.2950 
 14 O       -2.4630    -5.5800     0.0210 O.3   1 <1>  -0.5600 
 15 C       -1.5100    -7.7760    -0.1110 C.ar  1 <1>  -0.1440 
 16 C       -3.7430    -3.5870     0.0380 C.3   1 <1>  -0.1950 
 17 C       -0.6020    -8.5710    -0.7960 C.ar  1 <1>  -0.1500 
 18 C       -2.6400    -8.3670     0.4390 C.ar  1 <1>  -0.1500 
 19 C       -4.3900    -3.3370    -1.2880 C.3   1 <1>  -0.2000 
 20 C       -3.9410    -2.1820    -0.4380 C.3   1 <1>  -0.2000 
 21 C       -0.8170    -9.9320    -0.9280 C.ar  1 <1>  -0.1500 
 22 C       -2.8570    -9.7280     0.3080 C.ar  1 <1>  -0.1500 
 23 C       -1.9450   -10.5120    -0.3760 C.ar  1 <1>  -0.1500 
 24 H        2.8090    -1.8660     2.3470 H     1 <1>   0.1500 
 25 H       -0.7910    -0.1990    -1.6150 H     1 <1>   0.0800 
 26 H        0.7610     0.5870    -1.7950 H     1 <1>   0.0800 
 27 H       -0.3610     1.1330    -0.5650 H     1 <1>   0.0800 
 28 H        0.5010    -6.4590     1.2810 H     1 <1>   0.0800 
 29 H       -0.9920    -6.4380     2.1700 H     1 <1>   0.0800 
 30 H       -2.2860    -4.1580     2.2780 H     1 <1>   0.0800 
 31 H       -1.5520    -2.7670     1.5550 H     1 <1>   0.0800 
 32 H       -0.6630    -5.9420    -0.8040 H     1 <1>   0.0800 
 33 H       -1.7380    -3.8340    -0.6870 H     1 <1>   0.0800 
 34 H       -4.3810    -3.9250     0.8370 H     1 <1>   0.1000 
 35 H        0.2810    -8.1350    -1.2310 H     1 <1>   0.1500 
 36 H       -3.3580    -7.7650     0.9680 H     1 <1>   0.1500 
 37 H       -3.8410    -3.5780    -2.1820 H     1 <1>   0.1000 
 38 H       -5.4430    -3.5390    -1.3870 H     1 <1>   0.1000 
 39 H       -4.6880    -1.5720     0.0390 H     1 <1>   0.1000 
 40 H       -3.0860    -1.6110    -0.7600 H     1 <1>   0.1000 
 41 H       -0.1070   -10.5400    -1.4610 H     1 <1>   0.1500 
 42 H       -3.7370   -10.1750     0.7360 H     1 <1>   0.1500 
 43 H       -2.1130   -11.5700    -0.4780 H     1 <1>   0.1500 
@<TRIPOS>BOND
  1   1   2  1   
  2   1   3  1   
  3   2   4  2   
  4   2   5  1   
  5   3   6  2   
  6   3  24  1   
  7   4   6  1   
  8   5  25  1   
  9   5  26  1   
 10   5  27  1   
 11   6   7  1   
 12   7   8  2   
 13   7   9  am  
 14   9  10  1   
 15   9  11  1   
 16  10  12  1   
 17  10  28  1   
 18  10  29  1   
 19  11  13  1   
 20  11  30  1   
 21  11  31  1   
 22  12  14  1   
 23  12  15  1   
 24  12  32  1   
 25  13  14  1   
 26  13  16  1   
 27  13  33  1   
 28  15  17  ar  
 29  15  18  ar  
 30  16  19  1   
 31  16  20  1   
 32  16  34  1   
 33  17  21  ar  
 34  17  35  1   
 35  18  22  ar  
 36  18  36  1   
 37  19  20  1   
 38  19  37  1   
 39  19  38  1   
 40  20  39  1   
 41  20  40  1   
 42  21  23  ar  
 43  21  41  1   
 44  22  23  ar  
 45  22  42  1   
 46  23  43  1   
@<TRIPOS>SUBSTRUCTURE
  1 ****   9 GROUP 4 **** **** 0

# MOE 2024.06 (io_trps.svl 2023.06)
