@<TRIPOS>MOLECULE
NONAME
49 51 1 0 0 
SMALL
USER_CHARGES


@<TRIPOS>ATOM
  1 O        0.2470    -0.7420     0.7640 O.3   1 <1>  -0.5600 
  2 C       -0.0180    -1.9560     0.1300 C.3   1 <1>   0.2000 
  3 C        0.6420     0.2960    -0.0740 C.3   1 <1>   0.1200 
  4 C       -0.9750    -2.7580     1.0240 C.3   1 <1>   0.2090 
  5 C        1.3000    -2.7210    -0.0790 C.3   1 <1>  -0.1600 
  6 C        0.8430     1.5400     0.7880 C.3   1 <1>  -0.1600 
  7 N       -1.2090    -4.1160     0.4420 N.pl3 1 <1>  -0.7880 
  8 C        1.0310    -4.1480    -0.5910 C.3   1 <1>  -0.1600 
  9 C        1.2780     2.7420    -0.0560 C.3   1 <1>  -0.2400 
 10 C       -2.4450    -4.6340     0.1690 C.2   1 <1>   0.4860 
 11 C        0.0400    -4.9140     0.2960 C.3   1 <1>   0.2090 
 12 N       -2.5880    -5.9500     0.2530 N.2   1 <1>  -0.6210 
 13 C       -3.5240    -3.8010    -0.1910 C.2   1 <1>  -0.1360 
 14 C       -3.7860    -6.4920     0.0180 C.2   1 <1>   0.2710 
 15 C       -4.7390    -4.3480    -0.4340 C.2   1 <1>  -0.0380 
 16 N       -4.8320    -5.6860    -0.3170 N.pl3 1 <1>  -0.6000 
 17 C       -3.9670    -7.9080     0.1170 C.2   1 <1>   0.0140 
 18 C       -5.9780    -3.5740    -0.8290 C.3   1 <1>  -0.1020 
 19 C       -5.2090    -8.5630    -0.1440 C.2   1 <1>   0.5410 
 20 C       -2.8920    -8.7430     0.4900 C.2   1 <1>  -0.1500 
 21 O       -6.2540    -7.9600    -0.4800 O.2   1 <1>  -0.5700 
 22 C       -5.2980    -9.9660    -0.0250 C.2   1 <1>  -0.1360 
 23 C       -3.0050   -10.1070     0.5990 C.2   1 <1>  -0.1500 
 24 C       -4.2260   -10.7300     0.3380 C.2   1 <1>  -0.1500 
 25 H       -0.5070    -1.7650    -0.8100 H     1 <1>   0.0800 
 26 H       -0.1290     0.4650    -0.8070 H     1 <1>   0.0800 
 27 H        1.5620     0.0250    -0.5630 H     1 <1>   0.0800 
 28 H       -1.8970    -2.2210     1.1450 H     1 <1>   0.0800 
 29 H       -0.5300    -2.8750     1.9960 H     1 <1>   0.0800 
 30 H        1.8240    -2.7770     0.8590 H     1 <1>   0.0800 
 31 H        1.9200    -2.2060    -0.7900 H     1 <1>   0.0800 
 32 H        1.5960     1.3360     1.5300 H     1 <1>   0.0800 
 33 H       -0.0800     1.7730     1.2910 H     1 <1>   0.0800 
 34 H        1.9550    -4.6950    -0.6380 H     1 <1>   0.0800 
 35 H        0.6270    -4.1040    -1.5870 H     1 <1>   0.0800 
 36 H        2.2100     2.5360    -0.5540 H     1 <1>   0.0800 
 37 H        1.4120     3.6030     0.5750 H     1 <1>   0.0800 
 38 H        0.5320     2.9740    -0.7960 H     1 <1>   0.0800 
 39 H       -0.1660    -5.8710    -0.1530 H     1 <1>   0.0800 
 40 H        0.4650    -5.0840     1.2700 H     1 <1>   0.0800 
 41 H       -3.3690    -2.7480    -0.2830 H     1 <1>   0.1500 
 42 H       -5.7280    -6.1710    -0.4900 H     1 <1>   0.4000 
 43 H       -6.3280    -3.9110    -1.7880 H     1 <1>   0.0800 
 44 H       -5.7640    -2.5220    -0.8880 H     1 <1>   0.0800 
 45 H       -6.7520    -3.7290    -0.0990 H     1 <1>   0.0800 
 46 H       -1.9370    -8.2920     0.7000 H     1 <1>   0.1500 
 47 H       -6.2530   -10.4100    -0.2340 H     1 <1>   0.1500 
 48 H       -2.1570   -10.7060     0.8870 H     1 <1>   0.1500 
 49 H       -4.3040   -11.8010     0.4260 H     1 <1>   0.1500 
@<TRIPOS>BOND
  1   1   2  1   
  2   1   3  1   
  3   2   4  1   
  4   2   5  1   
  5   2  25  1   
  6   3   6  1   
  7   3  26  1   
  8   3  27  1   
  9   4   7  1   
 10   4  28  1   
 11   4  29  1   
 12   5   8  1   
 13   5  30  1   
 14   5  31  1   
 15   6   9  1   
 16   6  32  1   
 17   6  33  1   
 18   7  10  1   
 19   7  11  1   
 20   8  11  1   
 21   8  34  1   
 22   8  35  1   
 23   9  36  1   
 24   9  37  1   
 25   9  38  1   
 26  10  12  2   
 27  10  13  1   
 28  11  39  1   
 29  11  40  1   
 30  12  14  1   
 31  13  15  2   
 32  13  41  1   
 33  14  16  1   
 34  14  17  2   
 35  15  16  1   
 36  15  18  1   
 37  16  42  1   
 38  17  19  1   
 39  17  20  1   
 40  18  43  1   
 41  18  44  1   
 42  18  45  1   
 43  19  21  2   
 44  19  22  1   
 45  20  23  2   
 46  20  46  1   
 47  22  24  2   
 48  22  47  1   
 49  23  24  1   
 50  23  48  1   
 51  24  49  1   
@<TRIPOS>SUBSTRUCTURE
  1 ****  10 GROUP 4 **** **** 0

# MOE 2024.06 (io_trps.svl 2023.06)
