@<TRIPOS>MOLECULE
NONAME
57 59 1 0 0 
SMALL
USER_CHARGES


@<TRIPOS>ATOM
  1 O       -0.0660    -1.7300     0.7260 O.2   1 <1>  -0.5700 
  2 C       -1.2520    -1.8110     0.5170 C.2   1 <1>   0.6900 
  3 N       -2.1980    -1.1900     1.2520 N.am  1 <1>  -0.4900 
  4 N       -1.8140    -2.5590    -0.4520 N.am  1 <1>  -0.7300 
  5 C       -3.4360    -1.5350     0.8360 C.2   1 <1>   0.5690 
  6 C       -3.2900    -2.5230    -0.3300 C.3   1 <1>   0.2810 
  7 O       -4.4680    -1.1160     1.2970 O.2   1 <1>  -0.5700 
  8 C       -3.8140    -3.9410    -0.0570 C.3   1 <1>  -0.1600 
  9 C       -5.3360    -3.9790     0.2040 C.3   1 <1>  -0.0990 
 10 C       -5.9090    -5.3820     0.3760 C.2   1 <1>   0.5690 
 11 O       -5.2460    -6.3170    -0.0080 O.2   1 <1>  -0.5700 
 12 N       -7.1460    -5.5660     0.9430 N.am  1 <1>  -0.6600 
 13 C       -7.6310    -6.9570     1.2030 C.3   1 <1>   0.1400 
 14 C       -8.0760    -4.4630     1.3300 C.3   1 <1>   0.1400 
 15 C       -8.3630    -7.5400    -0.0140 C.3   1 <1>   0.1400 
 16 C       -9.5300    -4.7110     0.9050 C.3   1 <1>  -0.1600 
 17 N       -9.6910    -6.8920    -0.2580 N.am  1 <1>  -0.6600 
 18 C       -9.6800    -5.4150    -0.4480 C.3   1 <1>   0.1400 
 19 C      -10.8850    -7.6000    -0.3030 C.2   1 <1>   0.7160 
 20 O      -11.9110    -6.9750    -0.0730 O.2   1 <1>  -0.5700 
 21 C      -10.9830    -9.0310    -0.5920 C.2   1 <1>   0.2030 
 22 N      -10.1010    -9.8030    -1.2110 N.2   1 <1>  -0.7070 
 23 C      -12.1060    -9.7960    -0.2430 C.2   1 <1>  -0.1500 
 24 N      -10.6520   -11.0230    -1.2510 N.pl3 1 <1>   0.3000 
 25 C      -11.8650   -11.0500    -0.6670 C.2   1 <1>  -0.3320 
 26 C      -12.7420   -12.2880    -0.5610 C.3   1 <1>   0.0200 
 27 C      -12.3660   -13.1870     0.6310 C.3   1 <1>  -0.0800 
 28 C      -10.9540   -13.7800     0.5070 C.3   1 <1>  -0.2400 
 29 C      -13.3850   -14.3260     0.7730 C.3   1 <1>  -0.2400 
 30 H       -1.9830    -0.5660     2.0200 H     1 <1>   0.3700 
 31 H       -1.2980    -3.2920    -0.9410 H     1 <1>   0.3700 
 32 H       -3.7270    -2.1070    -1.2210 H     1 <1>   0.0800 
 33 H       -3.5930    -4.5550    -0.9140 H     1 <1>   0.0800 
 34 H       -3.3070    -4.3590     0.7960 H     1 <1>   0.0800 
 35 H       -5.8520    -3.5100    -0.6130 H     1 <1>   0.0800 
 36 H       -5.5420    -3.4280     1.1020 H     1 <1>   0.0800 
 37 H       -6.7870    -7.5860     1.4260 H     1 <1>   0.0800 
 38 H       -8.2780    -6.9740     2.0630 H     1 <1>   0.0800 
 39 H       -8.0340    -4.3250     2.3970 H     1 <1>   0.0800 
 40 H       -7.7610    -3.5440     0.8710 H     1 <1>   0.0800 
 41 H       -8.4950    -8.5880     0.1780 H     1 <1>   0.0800 
 42 H       -7.7450    -7.4450    -0.8900 H     1 <1>   0.0800 
 43 H      -10.0170    -3.7550     0.8450 H     1 <1>   0.0800 
 44 H      -10.0500    -5.2710     1.6620 H     1 <1>   0.0800 
 45 H       -8.8830    -5.1370    -1.1170 H     1 <1>   0.0800 
 46 H      -10.6060    -5.1080    -0.9040 H     1 <1>   0.0800 
 47 H      -12.9730    -9.4090     0.2640 H     1 <1>   0.1500 
 48 H      -10.1810   -11.8270    -1.6820 H     1 <1>   0.2700 
 49 H      -13.7610   -11.9610    -0.4370 H     1 <1>   0.0800 
 50 H      -12.6960   -12.8480    -1.4790 H     1 <1>   0.0800 
 51 H      -12.4050   -12.5890     1.5270 H     1 <1>   0.0800 
 52 H      -10.8470   -14.3220    -0.4160 H     1 <1>   0.0800 
 53 H      -10.7640   -14.4570     1.3220 H     1 <1>   0.0800 
 54 H      -10.2110   -13.0050     0.5510 H     1 <1>   0.0800 
 55 H      -13.3780   -14.9540    -0.1010 H     1 <1>   0.0800 
 56 H      -14.3760   -13.9280     0.9030 H     1 <1>   0.0800 
 57 H      -13.1520   -14.9310     1.6320 H     1 <1>   0.0800 
@<TRIPOS>BOND
  1   1   2  2   
  2   2   3  am  
  3   2   4  am  
  4   3   5  am  
  5   3  30  1   
  6   4   6  1   
  7   4  31  1   
  8   5   6  1   
  9   5   7  2   
 10   6   8  1   
 11   6  32  1   
 12   8   9  1   
 13   8  33  1   
 14   8  34  1   
 15   9  10  1   
 16   9  35  1   
 17   9  36  1   
 18  10  11  2   
 19  10  12  am  
 20  12  13  1   
 21  12  14  1   
 22  13  15  1   
 23  13  37  1   
 24  13  38  1   
 25  14  16  1   
 26  14  39  1   
 27  14  40  1   
 28  15  17  1   
 29  15  41  1   
 30  15  42  1   
 31  16  18  1   
 32  16  43  1   
 33  16  44  1   
 34  17  18  1   
 35  17  19  am  
 36  18  45  1   
 37  18  46  1   
 38  19  20  2   
 39  19  21  1   
 40  21  22  2   
 41  21  23  1   
 42  22  24  1   
 43  23  25  2   
 44  23  47  1   
 45  24  25  1   
 46  24  48  1   
 47  25  26  1   
 48  26  27  1   
 49  26  49  1   
 50  26  50  1   
 51  27  28  1   
 52  27  29  1   
 53  27  51  1   
 54  28  52  1   
 55  28  53  1   
 56  28  54  1   
 57  29  55  1   
 58  29  56  1   
 59  29  57  1   
@<TRIPOS>SUBSTRUCTURE
  1 ****  13 GROUP 4 **** **** 0

# MOE 2024.06 (io_trps.svl 2023.06)
