@<TRIPOS>MOLECULE
NONAME
42 43 1 0 0 
SMALL
USER_CHARGES


@<TRIPOS>ATOM
  1 F       -1.8590    -0.4100     1.0670 F     1 <1>  -0.1900 
  2 C       -2.5550     0.3490     0.2620 C.ar  1 <1>   0.1900 
  3 C       -3.1680    -0.2160    -0.8520 C.ar  1 <1>  -0.1440 
  4 C       -2.6510     1.6920     0.5680 C.ar  1 <1>  -0.1500 
  5 C       -3.9090     0.6120    -1.6880 C.ar  1 <1>  -0.1500 
  6 C       -3.0450    -1.7020    -1.1680 C.3   1 <1>  -0.0160 
  7 C       -3.3940     2.4790    -0.2880 C.ar  1 <1>   0.1900 
  8 C       -4.0250     1.9660    -1.4080 C.ar  1 <1>  -0.1500 
  9 C       -4.0430    -2.5200    -0.3330 C.3   1 <1>  -0.0990 
 10 F       -3.5070     3.7540    -0.0320 F     1 <1>  -0.1900 
 11 C       -4.0250    -4.0140    -0.6380 C.2   1 <1>   0.5690 
 12 O       -3.2210    -4.4210    -1.4430 O.2   1 <1>  -0.5700 
 13 N       -4.8990    -4.8630    -0.0060 N.am  1 <1>  -0.6600 
 14 C       -4.8430    -6.3280    -0.2910 C.3   1 <1>   0.3200 
 15 C       -5.8480    -4.4360     1.0710 C.3   1 <1>   0.1400 
 16 C       -6.2220    -6.8550    -0.6330 C.2   1 <1>  -0.3320 
 17 C       -7.1920    -3.9730     0.4930 C.3   1 <1>   0.1200 
 18 N       -7.0660    -7.4290     0.2460 N.pl3 1 <1>   0.0330 
 19 C       -6.8600    -6.8540    -1.8230 C.2   1 <1>   0.0770 
 20 O       -8.0320    -3.6470     1.5470 O.3   1 <1>  -0.6800 
 21 C       -8.1710    -7.7300    -0.4680 C.2   1 <1>   0.0060 
 22 N       -8.0860    -7.3990    -1.7130 N.2   1 <1>  -0.5650 
 23 C       -9.3880    -8.3900     0.1440 C.3   1 <1>  -0.0600 
 24 H       -2.1680     2.1060     1.4330 H     1 <1>   0.1500 
 25 H       -4.3970     0.2080    -2.5590 H     1 <1>   0.1500 
 26 H       -2.0420    -2.0380    -0.9650 H     1 <1>   0.0800 
 27 H       -3.2310    -1.8690    -2.2150 H     1 <1>   0.0800 
 28 H       -4.5940     2.6170    -2.0480 H     1 <1>   0.1500 
 29 H       -5.0310    -2.1430    -0.5180 H     1 <1>   0.0800 
 30 H       -3.8130    -2.3800     0.7060 H     1 <1>   0.0800 
 31 H       -4.4440    -6.8450     0.5640 H     1 <1>   0.0800 
 32 H       -4.1890    -6.5280    -1.1240 H     1 <1>   0.0800 
 33 H       -5.4180    -3.6350     1.6440 H     1 <1>   0.0800 
 34 H       -6.0180    -5.2590     1.7420 H     1 <1>   0.0800 
 35 H       -7.6650    -4.7520    -0.0790 H     1 <1>   0.0800 
 36 H       -7.0690    -3.0990    -0.1210 H     1 <1>   0.0800 
 37 H       -6.9200    -7.6000     1.2450 H     1 <1>   0.2700 
 38 H       -6.4980    -6.4770    -2.7650 H     1 <1>   0.1500 
 39 H       -8.9130    -3.3860     1.2120 H     1 <1>   0.4000 
 40 H       -9.7880    -7.7740     0.9280 H     1 <1>   0.0800 
 41 H       -9.1250    -9.3530     0.5420 H     1 <1>   0.0800 
 42 H      -10.1440    -8.5240    -0.6090 H     1 <1>   0.0800 
@<TRIPOS>BOND
  1   1   2  1   
  2   2   3  ar  
  3   2   4  ar  
  4   3   5  ar  
  5   3   6  1   
  6   4   7  ar  
  7   4  24  1   
  8   5   8  ar  
  9   5  25  1   
 10   6   9  1   
 11   6  26  1   
 12   6  27  1   
 13   7   8  ar  
 14   7  10  1   
 15   8  28  1   
 16   9  11  1   
 17   9  29  1   
 18   9  30  1   
 19  11  12  2   
 20  11  13  am  
 21  13  14  1   
 22  13  15  1   
 23  14  16  1   
 24  14  31  1   
 25  14  32  1   
 26  15  17  1   
 27  15  33  1   
 28  15  34  1   
 29  16  18  1   
 30  16  19  2   
 31  17  20  1   
 32  17  35  1   
 33  17  36  1   
 34  18  21  1   
 35  18  37  1   
 36  19  22  1   
 37  19  38  1   
 38  20  39  1   
 39  21  22  2   
 40  21  23  1   
 41  23  40  1   
 42  23  41  1   
 43  23  42  1   
@<TRIPOS>SUBSTRUCTURE
  1 ****   9 GROUP 4 **** **** 0

# MOE 2024.06 (io_trps.svl 2023.06)
