@<TRIPOS>MOLECULE
NONAME
51 53 1 0 0 
SMALL
USER_CHARGES


@<TRIPOS>ATOM
  1 O        2.4460     1.0810     1.2840 O.2   1 <1>  -0.5700 
  2 C        2.6430     0.1680     0.5030 C.2   1 <1>   0.5440 
  3 N        3.0560     0.4620    -0.7820 N.am  1 <1>  -0.6600 
  4 C        2.4440    -1.1900     0.9600 C.ar  1 <1>   0.0860 
  5 C        3.6870    -0.5700    -1.6770 C.3   1 <1>   0.1400 
  6 C        3.0700     1.8740    -1.2620 C.3   1 <1>   0.1400 
  7 C        3.0460    -1.6270     2.1360 C.ar  1 <1>   0.1600 
  8 C        1.6560    -2.1050     0.2740 C.ar  1 <1>  -0.1500 
  9 C        4.9700    -0.0960    -2.3800 C.3   1 <1>   0.1400 
 10 C        4.3500     2.5990    -0.8170 C.3   1 <1>  -0.1600 
 11 N        2.9510    -2.8440     2.6500 N.ar  1 <1>  -0.6200 
 12 C        1.5360    -3.3800     0.7860 C.ar  1 <1>  -0.1430 
 13 N        5.8280     0.6930    -1.4550 N.am  1 <1>  -0.6600 
 14 C        5.6280     2.1630    -1.5430 C.3   1 <1>   0.1400 
 15 C        2.2020    -3.6900     1.9620 C.ar  1 <1>   0.1600 
 16 C        0.6920    -4.4240     0.0730 C.3   1 <1>  -0.0970 
 17 C        6.5830     0.0490    -0.5050 C.2   1 <1>   0.5690 
 18 O        6.6940    -1.1570    -0.5160 O.2   1 <1>  -0.5700 
 19 C        7.2750     0.8020     0.6270 C.3   1 <1>   0.0820 
 20 C        8.4240     1.6990     0.1740 C.2   1 <1>  -0.1810 
 21 C        9.4920     1.3240    -0.6420 C.2   1 <1>   0.1080 
 22 C        8.6490     3.0040     0.4560 C.2   1 <1>  -0.3320 
 23 N       10.3090     2.3040    -0.8600 N.2   1 <1>  -0.7070 
 24 C        9.7240    -0.0490    -1.2330 C.3   1 <1>  -0.0590 
 25 N        9.7920     3.3390    -0.1790 N.pl3 1 <1>   0.3000 
 26 C        7.8610     3.9920     1.3010 C.3   1 <1>  -0.0600 
 27 H        2.9730    -0.8790    -2.4190 H     1 <1>   0.0800 
 28 H        3.9500    -1.4380    -1.0980 H     1 <1>   0.0800 
 29 H        2.2190     2.3860    -0.8440 H     1 <1>   0.0800 
 30 H        2.9700     1.9020    -2.3330 H     1 <1>   0.0800 
 31 H        3.6440    -0.9160     2.6800 H     1 <1>   0.1500 
 32 H        1.1540    -1.8120    -0.6310 H     1 <1>   0.1500 
 33 H        4.7150     0.4950    -3.2410 H     1 <1>   0.0800 
 34 H        5.5160    -0.9540    -2.7340 H     1 <1>   0.0800 
 35 H        4.4770     2.4800     0.2440 H     1 <1>   0.0800 
 36 H        4.2150     3.6490    -0.9960 H     1 <1>   0.0800 
 37 H        6.4700     2.6830    -1.1290 H     1 <1>   0.0800 
 38 H        5.5680     2.4460    -2.5800 H     1 <1>   0.0800 
 39 H        2.1140    -4.6860     2.3620 H     1 <1>   0.1500 
 40 H       -0.0750    -3.9530    -0.5160 H     1 <1>   0.0800 
 41 H        0.2180    -5.0730     0.7870 H     1 <1>   0.0800 
 42 H        1.3130    -5.0160    -0.5750 H     1 <1>   0.0800 
 43 H        7.6650     0.0830     1.3220 H     1 <1>   0.0800 
 44 H        6.5340     1.3740     1.1470 H     1 <1>   0.0800 
 45 H        9.5200    -0.8090    -0.5020 H     1 <1>   0.0800 
 46 H       10.7460    -0.1410    -1.5520 H     1 <1>   0.0800 
 47 H        9.0810    -0.1920    -2.0810 H     1 <1>   0.0800 
 48 H       10.2450     4.2600    -0.1660 H     1 <1>   0.2700 
 49 H        6.9930     3.5270     1.7310 H     1 <1>   0.0800 
 50 H        7.5390     4.8210     0.6970 H     1 <1>   0.0800 
 51 H        8.4760     4.3630     2.1020 H     1 <1>   0.0800 
@<TRIPOS>BOND
  1   1   2  2   
  2   2   3  am  
  3   2   4  1   
  4   3   5  1   
  5   3   6  1   
  6   4   7  ar  
  7   4   8  ar  
  8   5   9  1   
  9   5  27  1   
 10   5  28  1   
 11   6  10  1   
 12   6  29  1   
 13   6  30  1   
 14   7  11  ar  
 15   7  31  1   
 16   8  12  ar  
 17   8  32  1   
 18   9  13  1   
 19   9  33  1   
 20   9  34  1   
 21  10  14  1   
 22  10  35  1   
 23  10  36  1   
 24  11  15  ar  
 25  12  15  ar  
 26  12  16  1   
 27  13  14  1   
 28  13  17  am  
 29  14  37  1   
 30  14  38  1   
 31  15  39  1   
 32  16  40  1   
 33  16  41  1   
 34  16  42  1   
 35  17  18  2   
 36  17  19  1   
 37  19  20  1   
 38  19  43  1   
 39  19  44  1   
 40  20  21  1   
 41  20  22  2   
 42  21  23  2   
 43  21  24  1   
 44  22  25  1   
 45  22  26  1   
 46  23  25  1   
 47  24  45  1   
 48  24  46  1   
 49  24  47  1   
 50  25  48  1   
 51  26  49  1   
 52  26  50  1   
 53  26  51  1   
@<TRIPOS>SUBSTRUCTURE
  1 ****  17 GROUP 4 **** **** 0

# MOE 2024.06 (io_trps.svl 2023.06)
