@<TRIPOS>MOLECULE
NONAME
47 49 1 0 0 
SMALL
USER_CHARGES


@<TRIPOS>ATOM
  1 O        0.2330    -0.1960     1.1950 O.2   1 <1>  -0.5700 
  2 C        1.2230    -0.8240     0.8740 C.2   1 <1>   0.5440 
  3 N        2.3120    -0.1420     0.3800 N.am  1 <1>  -0.6600 
  4 C        1.2270    -2.2680     1.0070 C.ar  1 <1>   0.0860 
  5 C        3.3980    -0.7480    -0.4230 C.3   1 <1>   0.1400 
  6 C        2.3190     1.3320     0.2480 C.3   1 <1>   0.1400 
  7 C        0.1870    -3.0490     0.5400 C.ar  1 <1>  -0.1500 
  8 C        2.2600    -2.9690     1.6150 C.ar  1 <1>  -0.1500 
  9 C        3.9040     0.3850    -1.3070 C.3   1 <1>  -0.1600 
 10 C        3.5980     1.6540    -0.5150 C.3   1 <1>  -0.1600 
 11 C        0.2160    -4.4300     0.6670 C.ar  1 <1>   0.4100 
 12 C        2.2060    -4.3450     1.6990 C.ar  1 <1>   0.1600 
 13 N        1.2170    -5.0870     1.2360 N.ar  1 <1>  -0.6200 
 14 N       -0.8410    -5.1670     0.1860 N.pl3 1 <1>  -0.8690 
 15 C       -0.9950    -6.6030     0.4990 C.3   1 <1>   0.2090 
 16 C       -2.1870    -7.1520    -0.2860 C.3   1 <1>  -0.1600 
 17 C       -2.4740    -8.6350     0.0170 C.3   1 <1>  -0.0800 
 18 C       -1.3070    -9.5530    -0.3960 C.3   1 <1>   0.1200 
 19 C       -3.7640    -9.0750    -0.6930 C.3   1 <1>  -0.1600 
 20 O       -1.6410   -10.8860    -0.1500 O.3   1 <1>  -0.5600 
 21 C       -3.9830   -10.5810    -0.5050 C.3   1 <1>  -0.1600 
 22 C       -2.7220   -11.3650    -0.8880 C.3   1 <1>   0.1200 
 23 H        3.0370    -1.5750    -1.0120 H     1 <1>   0.0800 
 24 H        4.1810    -1.0810     0.2360 H     1 <1>   0.0800 
 25 H        2.3010     1.8000     1.2180 H     1 <1>   0.0800 
 26 H        1.4530     1.6390    -0.3140 H     1 <1>   0.0800 
 27 H       -0.6540    -2.5790     0.0690 H     1 <1>   0.1500 
 28 H        3.0970    -2.4330     2.0250 H     1 <1>   0.1500 
 29 H        3.3450     0.3860    -2.2270 H     1 <1>   0.0800 
 30 H        4.9500     0.2820    -1.5320 H     1 <1>   0.0800 
 31 H        4.3870     1.8440     0.1910 H     1 <1>   0.0800 
 32 H        3.4780     2.5150    -1.1480 H     1 <1>   0.0800 
 33 H        3.0190    -4.8670     2.1730 H     1 <1>   0.1500 
 34 H       -1.7260    -4.6640     0.1140 H     1 <1>   0.4000 
 35 H       -1.1520    -6.7230     1.5580 H     1 <1>   0.0800 
 36 H       -0.0910    -7.1210     0.2250 H     1 <1>   0.0800 
 37 H       -1.9950    -7.0310    -1.3380 H     1 <1>   0.0800 
 38 H       -3.0570    -6.5740    -0.0310 H     1 <1>   0.0800 
 39 H       -2.6150    -8.7440     1.0800 H     1 <1>   0.0800 
 40 H       -0.4250    -9.3370     0.1800 H     1 <1>   0.0800 
 41 H       -1.0760    -9.4460    -1.4420 H     1 <1>   0.0800 
 42 H       -3.6870    -8.8620    -1.7460 H     1 <1>   0.0800 
 43 H       -4.6090    -8.5340    -0.3020 H     1 <1>   0.0800 
 44 H       -4.8090   -10.9110    -1.1100 H     1 <1>   0.0800 
 45 H       -4.2200   -10.7920     0.5230 H     1 <1>   0.0800 
 46 H       -2.8410   -12.4090    -0.6560 H     1 <1>   0.0800 
 47 H       -2.4980   -11.2590    -1.9350 H     1 <1>   0.0800 
@<TRIPOS>BOND
  1   1   2  2   
  2   2   3  am  
  3   2   4  1   
  4   3   5  1   
  5   3   6  1   
  6   4   7  ar  
  7   4   8  ar  
  8   5   9  1   
  9   5  23  1   
 10   5  24  1   
 11   6  10  1   
 12   6  25  1   
 13   6  26  1   
 14   7  11  ar  
 15   7  27  1   
 16   8  12  ar  
 17   8  28  1   
 18   9  10  1   
 19   9  29  1   
 20   9  30  1   
 21  10  31  1   
 22  10  32  1   
 23  11  13  ar  
 24  11  14  1   
 25  12  13  ar  
 26  12  33  1   
 27  14  15  1   
 28  14  34  1   
 29  15  16  1   
 30  15  35  1   
 31  15  36  1   
 32  16  17  1   
 33  16  37  1   
 34  16  38  1   
 35  17  18  1   
 36  17  19  1   
 37  17  39  1   
 38  18  20  1   
 39  18  40  1   
 40  18  41  1   
 41  19  21  1   
 42  19  42  1   
 43  19  43  1   
 44  20  22  1   
 45  21  22  1   
 46  21  44  1   
 47  21  45  1   
 48  22  46  1   
 49  22  47  1   
@<TRIPOS>SUBSTRUCTURE
  1 ****  11 GROUP 4 **** **** 0

# MOE 2024.06 (io_trps.svl 2023.06)
