@<TRIPOS>MOLECULE
NONAME
48 49 1 0 0 
SMALL
USER_CHARGES


@<TRIPOS>ATOM
  1 S        0.9200     1.3090    -1.4080 S.o2  1 <1>   1.3330 
  2 O        0.7810    -0.0530    -1.8700 O.2   1 <1>  -0.6500 
  3 O        0.4730     2.4020    -2.2420 O.2   1 <1>  -0.6500 
  4 N        0.1020     1.4430     0.0760 N.am  1 <1>  -0.8490 
  5 C        2.6400     1.5740    -0.9710 C.3   1 <1>  -0.0550 
  6 C       -1.1360     0.6590     0.0980 C.3   1 <1>   0.1160 
  7 C       -0.1850     2.8310     0.4580 C.3   1 <1>   0.1160 
  8 C        3.2640     0.4470    -0.1190 C.3   1 <1>  -0.0800 
  9 C        4.7670     0.5670     0.0970 C.3   1 <1>   0.2200 
 10 C        2.7240     0.3330     1.3120 C.3   1 <1>   0.1200 
 11 N        5.1460     1.9660     0.4030 N.am  1 <1>  -0.7300 
 12 C        4.9320    -0.2690     1.3570 C.3   1 <1>   0.1200 
 13 O        3.8180     0.0440     2.1360 O.3   1 <1>  -0.5600 
 14 C        5.6480     2.8480    -0.4930 C.2   1 <1>   0.5690 
 15 O        5.8050     2.5570    -1.6520 O.2   1 <1>  -0.5700 
 16 C        5.9690     4.2500    -0.0310 C.3   1 <1>  -0.0990 
 17 C        4.7120     5.1260    -0.0500 C.3   1 <1>  -0.0170 
 18 C        5.0440     6.5430     0.3820 C.ar  1 <1>  -0.1440 
 19 C        5.3730     7.5000    -0.5650 C.ar  1 <1>  -0.1500 
 20 C        5.0240     6.8910     1.7250 C.ar  1 <1>  -0.1500 
 21 C        5.6780     8.7910    -0.1650 C.ar  1 <1>   0.0820 
 22 C        5.3300     8.1830     2.1210 C.ar  1 <1>  -0.1500 
 23 O        5.9950     9.7210    -1.0780 O.3   1 <1>  -0.5330 
 24 C        5.6580     9.1370     1.1740 C.ar  1 <1>  -0.1500 
 25 H        3.2050     1.6510    -1.8810 H     1 <1>   0.0800 
 26 H        2.7320     2.5110    -0.4600 H     1 <1>   0.0800 
 27 H       -1.6250     0.7560     1.0520 H     1 <1>   0.0800 
 28 H       -0.9160    -0.3840    -0.0610 H     1 <1>   0.0800 
 29 H       -1.8040     0.9920    -0.6800 H     1 <1>   0.0800 
 30 H       -0.6180     2.8610     1.4440 H     1 <1>   0.0800 
 31 H       -0.8740     3.2790    -0.2400 H     1 <1>   0.0800 
 32 H        0.7210     3.4100     0.4680 H     1 <1>   0.0800 
 33 H        3.0790    -0.4920    -0.6120 H     1 <1>   0.0800 
 34 H        5.3420     0.1870    -0.7320 H     1 <1>   0.0800 
 35 H        1.9980    -0.4580     1.4020 H     1 <1>   0.0800 
 36 H        2.2960     1.2580     1.6570 H     1 <1>   0.0800 
 37 H        4.9910     2.2300     1.3790 H     1 <1>   0.3700 
 38 H        5.8330    -0.0410     1.8980 H     1 <1>   0.0800 
 39 H        4.8930    -1.3200     1.1300 H     1 <1>   0.0800 
 40 H        6.3840     4.2170     0.9590 H     1 <1>   0.0800 
 41 H        6.7100     4.6680    -0.6880 H     1 <1>   0.0800 
 42 H        3.9680     4.7140     0.6090 H     1 <1>   0.0800 
 43 H        4.2980     5.1370    -1.0440 H     1 <1>   0.0800 
 44 H        5.3940     7.2410    -1.6070 H     1 <1>   0.1500 
 45 H        4.7710     6.1590     2.4720 H     1 <1>   0.1500 
 46 H        5.3130     8.4470     3.1640 H     1 <1>   0.1500 
 47 H        5.9740     9.3800    -1.9890 H     1 <1>   0.4500 
 48 H        5.8970    10.1430     1.4650 H     1 <1>   0.1500 
@<TRIPOS>BOND
  1   1   2  2   
  2   1   3  2   
  3   1   4  am  
  4   1   5  1   
  5   4   6  1   
  6   4   7  1   
  7   5   8  1   
  8   5  25  1   
  9   5  26  1   
 10   6  27  1   
 11   6  28  1   
 12   6  29  1   
 13   7  30  1   
 14   7  31  1   
 15   7  32  1   
 16   8   9  1   
 17   8  10  1   
 18   8  33  1   
 19   9  11  1   
 20   9  12  1   
 21   9  34  1   
 22  10  13  1   
 23  10  35  1   
 24  10  36  1   
 25  11  14  am  
 26  11  37  1   
 27  12  13  1   
 28  12  38  1   
 29  12  39  1   
 30  14  15  2   
 31  14  16  1   
 32  16  17  1   
 33  16  40  1   
 34  16  41  1   
 35  17  18  1   
 36  17  42  1   
 37  17  43  1   
 38  18  19  ar  
 39  18  20  ar  
 40  19  21  ar  
 41  19  44  1   
 42  20  22  ar  
 43  20  45  1   
 44  21  23  1   
 45  21  24  ar  
 46  22  24  ar  
 47  22  46  1   
 48  23  47  1   
 49  24  48  1   
@<TRIPOS>SUBSTRUCTURE
  1 ****  17 GROUP 4 **** **** 0

# MOE 2024.06 (io_trps.svl 2023.06)
