@<TRIPOS>MOLECULE
NONAME
56 58 1 0 0 
SMALL
USER_CHARGES


@<TRIPOS>ATOM
  1 O        0.3600     0.0970     1.5470 O.3   1 <1>  -0.6800 
  2 C        0.9430    -0.2590     0.3380 C.3   1 <1>   0.2000 
  3 C        1.7450    -1.5330     0.5530 C.3   1 <1>  -0.0800 
  4 C        2.0330     0.7670     0.0220 C.3   1 <1>   0.3430 
  5 C        2.9590    -1.0180     1.3310 C.3   1 <1>   0.3430 
  6 C        2.1360    -2.1860    -0.7930 C.3   1 <1>  -0.0170 
  7 N        3.2340     0.3830     0.8520 N.4   1 <1>  -0.9590 
  8 C        3.1750    -3.2800    -0.6250 C.ar  1 <1>   0.1670 
  9 C        4.5580     0.5220     0.1690 C.3   1 <1>   0.4230 
 10 N        4.4480    -2.8970    -0.6190 N.ar  1 <1>  -0.6200 
 11 C        2.7490    -4.5930    -0.4950 C.ar  1 <1>  -0.1500 
 12 C        5.6940     0.3020     1.1660 C.3   1 <1>  -0.1600 
 13 C        4.6800     1.9020    -0.5000 C.3   1 <1>  -0.1600 
 14 C        5.3250    -3.8890    -0.5030 C.ar  1 <1>   0.1600 
 15 C        3.6770    -5.6010    -0.3590 C.ar  1 <1>  -0.1500 
 16 C        7.0660     0.3790     0.4760 C.3   1 <1>   0.5030 
 17 C        6.1120     2.4700    -0.6200 C.3   1 <1>   0.5030 
 18 C        5.0010    -5.2270    -0.3680 C.ar  1 <1>  -0.1500 
 19 N        7.1260     1.4160    -0.5590 N.4   1 <1>  -0.9060 
 20 C        7.3900    -0.9280    -0.2420 C.3   1 <1>  -0.2400 
 21 C        8.1680     0.6680     1.4940 C.3   1 <1>  -0.2400 
 22 C        6.2980     3.1490    -1.9750 C.3   1 <1>  -0.2400 
 23 C        6.4100     3.5030     0.4720 C.3   1 <1>  -0.2400 
 24 H       -0.4640    -0.4110     1.7140 H     1 <1>   0.4000 
 25 H        0.1800    -0.3220    -0.4210 H     1 <1>   0.0800 
 26 H        1.2020    -2.2540     1.1400 H     1 <1>   0.0800 
 27 H        1.6910     1.7650     0.2440 H     1 <1>   0.0800 
 28 H        2.2750     0.7000    -1.0250 H     1 <1>   0.0800 
 29 H        3.8100    -1.6660     1.2200 H     1 <1>   0.0800 
 30 H        2.6970    -0.9820     2.3770 H     1 <1>   0.0800 
 31 H        2.5310    -1.4620    -1.4820 H     1 <1>   0.0800 
 32 H        1.2560    -2.6030    -1.2510 H     1 <1>   0.0800 
 33 H        3.1990     0.9770     1.6930 H     1 <1>   0.4500 
 34 H        4.6320    -0.2380    -0.5960 H     1 <1>   0.0800 
 35 H        1.7020    -4.8380    -0.5050 H     1 <1>   0.1500 
 36 H        5.6090    -0.6630     1.6310 H     1 <1>   0.0800 
 37 H        5.6320     1.0320     1.9520 H     1 <1>   0.0800 
 38 H        4.0860     2.6240     0.0320 H     1 <1>   0.0800 
 39 H        4.2500     1.8190    -1.4830 H     1 <1>   0.0800 
 40 H        6.3700    -3.6360    -0.5190 H     1 <1>   0.1500 
 41 H        3.3830    -6.6330    -0.2560 H     1 <1>   0.1500 
 42 H        5.7750    -5.9690    -0.2760 H     1 <1>   0.1500 
 43 H        7.1570     0.9480    -1.4700 H     1 <1>   0.4500 
 44 H        8.0370     1.8760    -0.4700 H     1 <1>   0.4500 
 45 H        7.4110    -1.7380     0.4670 H     1 <1>   0.0800 
 46 H        8.3600    -0.8890    -0.7070 H     1 <1>   0.0800 
 47 H        6.6540    -1.1630    -0.9900 H     1 <1>   0.0800 
 48 H        8.1850    -0.1050     2.2440 H     1 <1>   0.0800 
 49 H        8.0090     1.6030     2.0000 H     1 <1>   0.0800 
 50 H        9.1380     0.6840     1.0280 H     1 <1>   0.0800 
 51 H        5.5890     3.9510    -2.0870 H     1 <1>   0.0800 
 52 H        6.1420     2.4610    -2.7880 H     1 <1>   0.0800 
 53 H        7.2820     3.5770    -2.0660 H     1 <1>   0.0800 
 54 H        5.7610     4.3540     0.3580 H     1 <1>   0.0800 
 55 H        7.4210     3.8640     0.4010 H     1 <1>   0.0800 
 56 H        6.2490     3.1170     1.4600 H     1 <1>   0.0800 
@<TRIPOS>BOND
  1   1   2  1   
  2   1  24  1   
  3   2   3  1   
  4   2   4  1   
  5   2  25  1   
  6   3   5  1   
  7   3   6  1   
  8   3  26  1   
  9   4   7  1   
 10   4  27  1   
 11   4  28  1   
 12   5   7  1   
 13   5  29  1   
 14   5  30  1   
 15   6   8  1   
 16   6  31  1   
 17   6  32  1   
 18   7   9  1   
 19   7  33  1   
 20   8  10  ar  
 21   8  11  ar  
 22   9  12  1   
 23   9  13  1   
 24   9  34  1   
 25  10  14  ar  
 26  11  15  ar  
 27  11  35  1   
 28  12  16  1   
 29  12  36  1   
 30  12  37  1   
 31  13  17  1   
 32  13  38  1   
 33  13  39  1   
 34  14  18  ar  
 35  14  40  1   
 36  15  18  ar  
 37  15  41  1   
 38  16  19  1   
 39  16  20  1   
 40  16  21  1   
 41  17  19  1   
 42  17  22  1   
 43  17  23  1   
 44  18  42  1   
 45  19  43  1   
 46  19  44  1   
 47  20  45  1   
 48  20  46  1   
 49  20  47  1   
 50  21  48  1   
 51  21  49  1   
 52  21  50  1   
 53  22  51  1   
 54  22  52  1   
 55  22  53  1   
 56  23  54  1   
 57  23  55  1   
 58  23  56  1   
@<TRIPOS>SUBSTRUCTURE
  1 ****   9 GROUP 4 **** **** 0

# MOE 2024.06 (io_trps.svl 2023.06)
