@<TRIPOS>MOLECULE
NONAME
60 64 1 0 0 
SMALL
USER_CHARGES


@<TRIPOS>ATOM
  1 S        0.3730     0.4290     1.3700 S.o2  1 <1>   1.5760 
  2 O        1.4010    -0.1530     2.2030 O.2   1 <1>  -0.6500 
  3 O       -0.8420     0.9600     1.9450 O.2   1 <1>  -0.6500 
  4 N        1.1060     1.6290     0.4310 N.am  1 <1>  -0.8490 
  5 N       -0.0380    -0.6680     0.1600 N.am  1 <1>  -0.8490 
  6 C        2.3870     1.1300    -0.1200 C.3   1 <1>   0.1960 
  7 C        1.3200     2.8450     1.2230 C.3   1 <1>   0.1960 
  8 C       -1.1240    -0.2240    -0.6960 C.3   1 <1>   0.1960 
  9 C       -0.4690    -1.9460     0.6940 C.3   1 <1>   0.1960 
 10 C        2.9270     1.9500    -1.3080 C.3   1 <1>   0.2090 
 11 C        1.1020     4.1060     0.3780 C.3   1 <1>  -0.1600 
 12 C       -1.5750    -1.4910    -1.4120 C.3   1 <1>  -0.1600 
 13 C       -1.1700    -2.6300    -0.4750 C.3   1 <1>  -0.1600 
 14 N        3.0430     3.4280    -1.0200 N.pl3 1 <1>  -0.8380 
 15 C        1.6820     4.0530    -1.0370 C.3   1 <1>   0.2090 
 16 C        4.2050     4.0640    -0.7430 C.ar  1 <1>   0.4610 
 17 N        4.2120     5.3920    -0.6180 N.ar  1 <1>  -0.1790 
 18 C        5.4520     3.4100    -0.5570 C.ar  1 <1>  -0.1500 
 19 C        5.3290     6.1600    -0.3470 C.ar  1 <1>   0.3610 
 20 C        6.6010     4.0900    -0.2850 C.ar  1 <1>  -0.1440 
 21 C        6.5700     5.5140    -0.1750 C.ar  1 <1>   0.0000 
 22 C        5.2300     7.5530    -0.2490 C.ar  1 <1>  -0.1500 
 23 C        7.9130     3.3380    -0.0950 C.3   1 <1>  -0.0970 
 24 C        7.6980     6.3100     0.0960 C.ar  1 <1>  -0.1500 
 25 C        6.3530     8.2930     0.0180 C.ar  1 <1>  -0.1440 
 26 C        7.5740     7.6730     0.1880 C.ar  1 <1>  -0.1440 
 27 C        6.4810     9.7910     0.1630 C.3   1 <1>  -0.0170 
 28 C        8.6600     8.6840     0.4670 C.3   1 <1>  -0.0170 
 29 C        7.9990    10.0260     0.1120 C.3   1 <1>  -0.1600 
 30 H        2.2550     0.1230    -0.4780 H     1 <1>   0.0800 
 31 H        3.1320     1.0830     0.6560 H     1 <1>   0.0800 
 32 H        2.3120     2.8450     1.6450 H     1 <1>   0.0800 
 33 H        0.6310     2.8900     2.0520 H     1 <1>   0.0800 
 34 H       -0.7900     0.5350    -1.3830 H     1 <1>   0.0800 
 35 H       -1.9380     0.1610    -0.1030 H     1 <1>   0.0800 
 36 H       -1.1700    -1.7900     1.4990 H     1 <1>   0.0800 
 37 H        0.3710    -2.5170     1.0540 H     1 <1>   0.0800 
 38 H        2.2640     1.8000    -2.1430 H     1 <1>   0.0800 
 39 H        3.8710     1.5400    -1.6140 H     1 <1>   0.0800 
 40 H        1.5110     4.9450     0.9100 H     1 <1>   0.0800 
 41 H        0.0430     4.2760     0.3000 H     1 <1>   0.0800 
 42 H       -1.0560    -1.5780    -2.3500 H     1 <1>   0.0800 
 43 H       -2.6350    -1.4710    -1.5950 H     1 <1>   0.0800 
 44 H       -2.0210    -3.1910    -0.1300 H     1 <1>   0.0800 
 45 H       -0.4860    -3.2970    -0.9700 H     1 <1>   0.0800 
 46 H        1.7090     5.0380    -1.4680 H     1 <1>   0.0800 
 47 H        1.0190     3.4670    -1.6540 H     1 <1>   0.0800 
 48 H        3.3300     5.8660    -0.7530 H     1 <1>   0.4570 
 49 H        5.4820     2.3400    -0.6230 H     1 <1>   0.1500 
 50 H        4.2870     8.0520    -0.3810 H     1 <1>   0.1500 
 51 H        7.7730     2.2760    -0.1940 H     1 <1>   0.0800 
 52 H        8.3140     3.5310     0.8850 H     1 <1>   0.0800 
 53 H        8.6310     3.6500    -0.8330 H     1 <1>   0.0800 
 54 H        8.6650     5.8610     0.2340 H     1 <1>   0.1500 
 55 H        6.0880    10.0970     1.1180 H     1 <1>   0.0800 
 56 H        5.9750    10.3190    -0.6260 H     1 <1>   0.0800 
 57 H        9.5370     8.5050    -0.1300 H     1 <1>   0.0800 
 58 H        8.9180     8.6560     1.5120 H     1 <1>   0.0800 
 59 H        8.3080    10.8140     0.7760 H     1 <1>   0.0800 
 60 H        8.2750    10.2910    -0.8950 H     1 <1>   0.0800 
@<TRIPOS>BOND
  1   1   2  2   
  2   1   3  2   
  3   1   4  am  
  4   1   5  am  
  5   4   6  1   
  6   4   7  1   
  7   5   8  1   
  8   5   9  1   
  9   6  10  1   
 10   6  30  1   
 11   6  31  1   
 12   7  11  1   
 13   7  32  1   
 14   7  33  1   
 15   8  12  1   
 16   8  34  1   
 17   8  35  1   
 18   9  13  1   
 19   9  36  1   
 20   9  37  1   
 21  10  14  1   
 22  10  38  1   
 23  10  39  1   
 24  11  15  1   
 25  11  40  1   
 26  11  41  1   
 27  12  13  1   
 28  12  42  1   
 29  12  43  1   
 30  13  44  1   
 31  13  45  1   
 32  14  15  1   
 33  14  16  1   
 34  15  46  1   
 35  15  47  1   
 36  16  17  ar  
 37  16  18  ar  
 38  17  19  ar  
 39  17  48  1   
 40  18  20  ar  
 41  18  49  1   
 42  19  21  ar  
 43  19  22  ar  
 44  20  21  ar  
 45  20  23  1   
 46  21  24  ar  
 47  22  25  ar  
 48  22  50  1   
 49  23  51  1   
 50  23  52  1   
 51  23  53  1   
 52  24  26  ar  
 53  24  54  1   
 54  25  26  ar  
 55  25  27  1   
 56  26  28  1   
 57  27  29  1   
 58  27  55  1   
 59  27  56  1   
 60  28  29  1   
 61  28  57  1   
 62  28  58  1   
 63  29  59  1   
 64  29  60  1   
@<TRIPOS>SUBSTRUCTURE
  1 ****  14 GROUP 4 **** **** 0

# MOE 2024.06 (io_trps.svl 2023.06)
