@<TRIPOS>MOLECULE
NONAME
66 69 1 0 0 
SMALL
USER_CHARGES


@<TRIPOS>ATOM
  1 O        0.9370    -0.2700     1.3140 O.2   1 <1>  -0.5700 
  2 C        1.4200    -1.3710     1.1850 C.2   1 <1>   0.5690 
  3 N        2.7670    -1.4960     0.9080 N.am  1 <1>  -0.6600 
  4 C        0.4410    -2.5230     1.3530 C.3   1 <1>  -0.0990 
  5 C        3.4930    -2.8080     0.9810 C.3   1 <1>   0.1400 
  6 C        3.6250    -0.2650     0.8530 C.3   1 <1>   0.1400 
  7 C        0.9200    -3.9410     1.0550 C.3   1 <1>   0.1200 
  8 C        3.0280    -3.8560    -0.0760 C.3   1 <1>   0.2800 
  9 C        3.1530     0.7240    -0.2400 C.3   1 <1>   0.3430 
 10 O        1.6390    -3.9400    -0.1390 O.3   1 <1>  -0.5600 
 11 C        3.4460    -3.4570    -1.5000 C.3   1 <1>  -0.1600 
 12 C        3.5420    -5.2730     0.2340 C.3   1 <1>  -0.1600 
 13 N        3.0900     2.1490     0.2250 N.4   1 <1>  -0.9590 
 14 C        4.9350    -3.6570    -1.7580 C.3   1 <1>   0.3430 
 15 C        5.0300    -5.4340    -0.0600 C.3   1 <1>   0.3430 
 16 C        2.0150     2.3750     1.2570 C.3   1 <1>   0.3430 
 17 C        2.8840     3.1120    -0.9090 C.3   1 <1>   0.3430 
 18 N        5.3060    -5.0700    -1.4770 N.4   1 <1>  -0.9590 
 19 C        1.9710     3.8530     1.7100 C.3   1 <1>   0.1200 
 20 C        2.7320     4.5660    -0.4000 C.3   1 <1>   0.1200 
 21 C        6.7360    -5.3310    -1.8390 C.3   1 <1>   0.5240 
 22 O        2.8900     4.6340     0.9910 O.3   1 <1>  -0.5600 
 23 C        7.6590    -4.5160    -0.9530 C.2   1 <1>  -0.1810 
 24 C        8.2410    -4.9220     0.2460 C.2   1 <1>   0.1080 
 25 C        8.1180    -3.2570    -1.1430 C.2   1 <1>  -0.3020 
 26 N        8.9600    -3.9860     0.7680 N.2   1 <1>  -0.7070 
 27 C        8.1320    -6.2690     0.9300 C.3   1 <1>  -0.0590 
 28 N        8.9100    -2.9630    -0.0940 N.pl3 1 <1>   0.3140 
 29 C        9.6830    -1.7350     0.1350 C.3   1 <1>   0.0160 
 30 H       -0.3960    -2.3240     0.7090 H     1 <1>   0.0800 
 31 H        0.0650    -2.4960     2.3580 H     1 <1>   0.0800 
 32 H        3.3620    -3.2100     1.9710 H     1 <1>   0.0800 
 33 H        4.5500    -2.6470     0.8690 H     1 <1>   0.0800 
 34 H        4.6480    -0.5310     0.6550 H     1 <1>   0.0800 
 35 H        3.5910     0.2050     1.8210 H     1 <1>   0.0800 
 36 H        0.0670    -4.5840     0.9160 H     1 <1>   0.0800 
 37 H        1.5100    -4.3420     1.8600 H     1 <1>   0.0800 
 38 H        2.1730     0.4250    -0.5750 H     1 <1>   0.0800 
 39 H        3.8240     0.6520    -1.0790 H     1 <1>   0.0800 
 40 H        3.1920    -2.4270    -1.6730 H     1 <1>   0.0800 
 41 H        2.8950    -4.0450    -2.2130 H     1 <1>   0.0800 
 42 H        2.9980    -5.9900    -0.3550 H     1 <1>   0.0800 
 43 H        3.3750    -5.5110     1.2690 H     1 <1>   0.0800 
 44 H        3.9660     2.4430     0.6800 H     1 <1>   0.4500 
 45 H        5.5090    -2.9990    -1.1260 H     1 <1>   0.0800 
 46 H        5.1570    -3.4160    -2.7860 H     1 <1>   0.0800 
 47 H        5.3200    -6.4560     0.1210 H     1 <1>   0.0800 
 48 H        5.6030    -4.8000     0.5990 H     1 <1>   0.0800 
 49 H        2.1770     1.7470     2.1170 H     1 <1>   0.0800 
 50 H        1.0540     2.1040     0.8500 H     1 <1>   0.0800 
 51 H        2.0000     2.8450    -1.4630 H     1 <1>   0.0800 
 52 H        3.7190     3.0660    -1.5880 H     1 <1>   0.0800 
 53 H        4.7220    -5.6690    -2.0760 H     1 <1>   0.4500 
 54 H        2.2230     3.9270     2.7530 H     1 <1>   0.0800 
 55 H        0.9850     4.2620     1.5730 H     1 <1>   0.0800 
 56 H        1.7630     4.9600    -0.6560 H     1 <1>   0.0800 
 57 H        3.4800     5.1970    -0.8480 H     1 <1>   0.0800 
 58 H        6.9080    -5.0620    -2.8680 H     1 <1>   0.0800 
 59 H        6.9640    -6.3780    -1.7260 H     1 <1>   0.0800 
 60 H        7.9530    -2.5640    -1.9490 H     1 <1>   0.1500 
 61 H        7.7300    -7.0170     0.2760 H     1 <1>   0.0800 
 62 H        7.5180    -6.1830     1.8080 H     1 <1>   0.0800 
 63 H        9.1130    -6.5830     1.2400 H     1 <1>   0.0800 
 64 H        9.7250    -1.1570    -0.7680 H     1 <1>   0.0800 
 65 H       10.6790    -2.0050     0.4370 H     1 <1>   0.0800 
 66 H        9.2170    -1.1670     0.9180 H     1 <1>   0.0800 
@<TRIPOS>BOND
  1   1   2  2   
  2   2   3  am  
  3   2   4  1   
  4   3   5  1   
  5   3   6  1   
  6   4   7  1   
  7   4  30  1   
  8   4  31  1   
  9   5   8  1   
 10   5  32  1   
 11   5  33  1   
 12   6   9  1   
 13   6  34  1   
 14   6  35  1   
 15   7  10  1   
 16   7  36  1   
 17   7  37  1   
 18   8  10  1   
 19   8  11  1   
 20   8  12  1   
 21   9  13  1   
 22   9  38  1   
 23   9  39  1   
 24  11  14  1   
 25  11  40  1   
 26  11  41  1   
 27  12  15  1   
 28  12  42  1   
 29  12  43  1   
 30  13  16  1   
 31  13  17  1   
 32  13  44  1   
 33  14  18  1   
 34  14  45  1   
 35  14  46  1   
 36  15  18  1   
 37  15  47  1   
 38  15  48  1   
 39  16  19  1   
 40  16  49  1   
 41  16  50  1   
 42  17  20  1   
 43  17  51  1   
 44  17  52  1   
 45  18  21  1   
 46  18  53  1   
 47  19  22  1   
 48  19  54  1   
 49  19  55  1   
 50  20  22  1   
 51  20  56  1   
 52  20  57  1   
 53  21  23  1   
 54  21  58  1   
 55  21  59  1   
 56  23  24  1   
 57  23  25  2   
 58  24  26  2   
 59  24  27  1   
 60  25  28  1   
 61  25  60  1   
 62  26  28  1   
 63  27  61  1   
 64  27  62  1   
 65  27  63  1   
 66  28  29  1   
 67  29  64  1   
 68  29  65  1   
 69  29  66  1   
@<TRIPOS>SUBSTRUCTURE
  1 ****   5 GROUP 4 **** **** 0

# MOE 2024.06 (io_trps.svl 2023.06)
