@<TRIPOS>MOLECULE
NONAME
42 43 1 0 0 
SMALL
USER_CHARGES


@<TRIPOS>ATOM
  1 S        0.5160     0.9610    -1.2500 S.o2  1 <1>   1.3330 
  2 O        0.8560    -0.3820    -1.6600 O.2   1 <1>  -0.6500 
  3 O       -0.2480     1.7940    -2.1510 O.2   1 <1>  -0.6500 
  4 N        1.9800     1.7610    -0.9400 N.am  1 <1>  -0.8490 
  5 C       -0.3760     0.8510     0.3140 C.3   1 <1>  -0.0550 
  6 C        2.6140     2.2120    -2.1820 C.3   1 <1>   0.1160 
  7 C        2.9400     0.9640    -0.1700 C.3   1 <1>   0.1160 
  8 C       -0.7490     2.1310     1.1070 C.3   1 <1>  -0.0800 
  9 C       -1.3300     3.2760     0.2710 C.3   1 <1>   0.2000 
 10 C        0.4330     2.7600     1.8530 C.3   1 <1>   0.1400 
 11 O       -2.2200     3.9680     1.0780 O.3   1 <1>  -0.6800 
 12 C       -0.1480     4.2030    -0.0210 C.3   1 <1>   0.1400 
 13 N        0.8140     3.9730     1.0910 N.am  1 <1>  -0.6600 
 14 C        2.1100     4.4370     1.0890 C.2   1 <1>   0.5440 
 15 O        2.9300     3.8980     1.8100 O.2   1 <1>  -0.5700 
 16 C        2.5270     5.5380     0.2400 C.ar  1 <1>   0.0860 
 17 C        3.6560     5.4170    -0.5650 C.ar  1 <1>  -0.1500 
 18 C        1.8340     6.7470     0.2030 C.ar  1 <1>  -0.1500 
 19 C        4.0810     6.4380    -1.4040 C.ar  1 <1>   0.0730 
 20 C        2.2400     7.7800    -0.6220 C.ar  1 <1>  -0.1500 
 21 C        5.2400     6.2700    -2.2340 C.1   1 <1>   0.4840 
 22 C        3.3560     7.6240    -1.4230 C.ar  1 <1>  -0.1500 
 23 N        6.1530     6.1240    -2.9010 N.1   1 <1>  -0.5570 
 24 H       -1.2980     0.3450     0.1020 H     1 <1>   0.0800 
 25 H        0.1710     0.2020     0.9700 H     1 <1>   0.0800 
 26 H        3.5430     2.7120    -1.9700 H     1 <1>   0.0800 
 27 H        1.9680     2.9030    -2.6970 H     1 <1>   0.0800 
 28 H        2.8070     1.3720    -2.8300 H     1 <1>   0.0800 
 29 H        3.7980     1.5650     0.0800 H     1 <1>   0.0800 
 30 H        3.2620     0.1060    -0.7370 H     1 <1>   0.0800 
 31 H        2.4960     0.6230     0.7480 H     1 <1>   0.0800 
 32 H       -1.4750     1.8170     1.8380 H     1 <1>   0.0800 
 33 H       -1.8580     2.9610    -0.6130 H     1 <1>   0.0800 
 34 H        1.2620     2.0800     1.9390 H     1 <1>   0.0800 
 35 H        0.1330     3.0600     2.8430 H     1 <1>   0.0800 
 36 H       -1.7290     4.3770     1.8180 H     1 <1>   0.4000 
 37 H       -0.4660     5.2290    -0.0720 H     1 <1>   0.0800 
 38 H        0.3180     3.9350    -0.9530 H     1 <1>   0.0800 
 39 H        4.2110     4.4960    -0.5240 H     1 <1>   0.1500 
 40 H        0.9720     6.8770     0.8340 H     1 <1>   0.1500 
 41 H        1.6890     8.7060    -0.6380 H     1 <1>   0.1500 
 42 H        3.6670     8.4310    -2.0660 H     1 <1>   0.1500 
@<TRIPOS>BOND
  1   1   2  2   
  2   1   3  2   
  3   1   4  am  
  4   1   5  1   
  5   4   6  1   
  6   4   7  1   
  7   5   8  1   
  8   5  24  1   
  9   5  25  1   
 10   6  26  1   
 11   6  27  1   
 12   6  28  1   
 13   7  29  1   
 14   7  30  1   
 15   7  31  1   
 16   8   9  1   
 17   8  10  1   
 18   8  32  1   
 19   9  11  1   
 20   9  12  1   
 21   9  33  1   
 22  10  13  1   
 23  10  34  1   
 24  10  35  1   
 25  11  36  1   
 26  12  13  1   
 27  12  37  1   
 28  12  38  1   
 29  13  14  am  
 30  14  15  2   
 31  14  16  1   
 32  16  17  ar  
 33  16  18  ar  
 34  17  19  ar  
 35  17  39  1   
 36  18  20  ar  
 37  18  40  1   
 38  19  21  1   
 39  19  22  ar  
 40  20  22  ar  
 41  20  41  1   
 42  21  23  3   
 43  22  42  1   
@<TRIPOS>SUBSTRUCTURE
  1 ****  14 GROUP 4 **** **** 0

# MOE 2024.06 (io_trps.svl 2023.06)
