@<TRIPOS>MOLECULE
NONAME
49 51 1 0 0 
SMALL
USER_CHARGES


@<TRIPOS>ATOM
  1 O       -1.0550    -0.3490     0.2020 O.3   1 <1>  -0.3630 
  2 C       -1.9560     0.6230     0.5100 C.ar  1 <1>   0.0830 
  3 C        0.3050    -0.0150    -0.0200 C.3   1 <1>   0.1200 
  4 C       -3.1590     0.2310     1.0900 C.ar  1 <1>  -0.1440 
  5 C       -1.7220     1.9730     0.2630 C.ar  1 <1>  -0.1500 
  6 C        1.1280    -1.3010    -0.0960 C.3   1 <1>   0.1200 
  7 C       -4.1110     1.1830     1.4210 C.ar  1 <1>  -0.1500 
  8 C       -3.4340    -1.2330     1.3630 C.3   1 <1>   0.4870 
  9 C       -2.6780     2.9160     0.5950 C.ar  1 <1>  -0.1500 
 10 O        2.4650    -0.9790    -0.2670 O.3   1 <1>  -0.6800 
 11 C       -3.8710     2.5230     1.1740 C.ar  1 <1>  -0.1500 
 12 N       -3.5090    -1.9470     0.0620 N.4   1 <1>  -0.9590 
 13 C       -4.7080    -1.5020    -0.7170 C.3   1 <1>   0.3430 
 14 C       -3.6330    -3.4210     0.2600 C.3   1 <1>   0.3430 
 15 C       -5.7800    -2.5620    -0.4530 C.3   1 <1>   0.2000 
 16 C       -4.9530    -3.8480    -0.3950 C.3   1 <1>  -0.0800 
 17 O       -6.3520    -2.3110     0.7930 O.3   1 <1>  -0.6800 
 18 C       -5.6110    -5.0520     0.3040 C.3   1 <1>  -0.0170 
 19 C       -4.6350    -6.2160     0.3690 C.ar  1 <1>  -0.1430 
 20 C       -4.3250    -6.9690    -0.7460 C.ar  1 <1>  -0.1500 
 21 C       -4.0060    -6.5780     1.5440 C.ar  1 <1>  -0.1500 
 22 C       -3.4120    -8.0050    -0.6410 C.ar  1 <1>   0.1600 
 23 C       -3.1080    -7.6330     1.5420 C.ar  1 <1>   0.1600 
 24 N       -2.7900    -8.3450     0.4750 N.ar  1 <1>  -0.6200 
 25 H        0.3740     0.5310    -0.9440 H     1 <1>   0.0800 
 26 H        0.6440     0.5880     0.8050 H     1 <1>   0.0800 
 27 H       -0.8090     2.3150    -0.1880 H     1 <1>   0.1500 
 28 H        0.8200    -1.9160    -0.9230 H     1 <1>   0.0800 
 29 H        1.0450    -1.8520     0.8250 H     1 <1>   0.0800 
 30 H       -5.0450     0.8970     1.8760 H     1 <1>   0.1500 
 31 H       -4.3600    -1.3450     1.9040 H     1 <1>   0.0800 
 32 H       -2.6320    -1.6350     1.9590 H     1 <1>   0.0800 
 33 H       -2.4940     3.9600     0.4050 H     1 <1>   0.1500 
 34 H        2.6450    -0.6380    -1.1660 H     1 <1>   0.4000 
 35 H       -4.6100     3.2630     1.4330 H     1 <1>   0.1500 
 36 H       -2.6410    -1.6840    -0.4300 H     1 <1>   0.4500 
 37 H       -5.0470    -0.5200    -0.4300 H     1 <1>   0.0800 
 38 H       -4.4690    -1.4980    -1.7670 H     1 <1>   0.0800 
 39 H       -2.8030    -3.9490    -0.1820 H     1 <1>   0.0800 
 40 H       -3.6680    -3.6490     1.3130 H     1 <1>   0.0800 
 41 H       -6.5530    -2.5670    -1.2030 H     1 <1>   0.0800 
 42 H       -4.7230    -4.1360    -1.4060 H     1 <1>   0.0800 
 43 H       -7.2100    -2.7760     0.8890 H     1 <1>   0.4000 
 44 H       -6.4910    -5.3560    -0.2370 H     1 <1>   0.0800 
 45 H       -5.9160    -4.7950     1.3040 H     1 <1>   0.0800 
 46 H       -4.7830    -6.7690    -1.6980 H     1 <1>   0.1500 
 47 H       -4.2020    -6.0610     2.4650 H     1 <1>   0.1500 
 48 H       -3.1810    -8.5840    -1.5190 H     1 <1>   0.1500 
 49 H       -2.6260    -7.9060     2.4660 H     1 <1>   0.1500 
@<TRIPOS>BOND
  1   1   2  1   
  2   1   3  1   
  3   2   4  ar  
  4   2   5  ar  
  5   3   6  1   
  6   3  25  1   
  7   3  26  1   
  8   4   7  ar  
  9   4   8  1   
 10   5   9  ar  
 11   5  27  1   
 12   6  10  1   
 13   6  28  1   
 14   6  29  1   
 15   7  11  ar  
 16   7  30  1   
 17   8  12  1   
 18   8  31  1   
 19   8  32  1   
 20   9  11  ar  
 21   9  33  1   
 22  10  34  1   
 23  11  35  1   
 24  12  13  1   
 25  12  14  1   
 26  12  36  1   
 27  13  15  1   
 28  13  37  1   
 29  13  38  1   
 30  14  16  1   
 31  14  39  1   
 32  14  40  1   
 33  15  16  1   
 34  15  17  1   
 35  15  41  1   
 36  16  18  1   
 37  16  42  1   
 38  17  43  1   
 39  18  19  1   
 40  18  44  1   
 41  18  45  1   
 42  19  20  ar  
 43  19  21  ar  
 44  20  22  ar  
 45  20  46  1   
 46  21  23  ar  
 47  21  47  1   
 48  22  24  ar  
 49  22  48  1   
 50  23  24  ar  
 51  23  49  1   
@<TRIPOS>SUBSTRUCTURE
  1 ****  12 GROUP 4 **** **** 0

# MOE 2024.06 (io_trps.svl 2023.06)
