@<TRIPOS>MOLECULE
NONAME
53 55 1 0 0 
SMALL
USER_CHARGES


@<TRIPOS>ATOM
  1 O       -0.2280    -0.5440     1.9710 O.2   1 <1>  -0.5700 
  2 C       -0.8550     0.3750     1.4960 C.2   1 <1>   0.5690 
  3 N       -1.9700     0.1320     0.7250 N.am  1 <1>  -0.6600 
  4 C       -0.3590     1.7860     1.7870 C.3   1 <1>   0.0440 
  5 C       -2.2810    -1.2540     0.2630 C.3   1 <1>   0.1400 
  6 C       -2.9020     1.1900     0.2390 C.3   1 <1>   0.1400 
  7 C        0.0500     2.5330     0.5140 C.ar  1 <1>  -0.1440 
  8 C       -3.7270    -1.6200     0.6430 C.3   1 <1>   0.4230 
  9 C       -4.3580     0.7900     0.5370 C.3   1 <1>  -0.1600 
 10 C       -0.5230     3.7510     0.1470 C.ar  1 <1>   0.0830 
 11 C        1.0300     1.9720    -0.2910 C.ar  1 <1>  -0.1500 
 12 N       -4.0580    -3.0980     0.5020 N.4   1 <1>  -0.9590 
 13 C       -4.7520    -0.6210     0.0230 C.3   1 <1>   0.0000 
 14 O       -1.4780     4.2800     0.9580 O.3   1 <1>  -0.3630 
 15 C       -0.1100     4.3800    -1.0250 C.ar  1 <1>  -0.1500 
 16 C        1.4360     2.6030    -1.4530 C.ar  1 <1>  -0.1500 
 17 C       -5.5270    -3.3710     0.4010 C.3   1 <1>   0.3430 
 18 C       -3.3540    -3.7920    -0.6230 C.3   1 <1>   0.2630 
 19 C       -6.1920    -0.9320     0.5320 C.3   1 <1>  -0.1600 
 20 C       -4.7260    -0.5530    -1.5330 C.3   1 <1>   0.1200 
 21 C       -1.9310     5.6070     0.7970 C.3   1 <1>   0.0400 
 22 C        0.8650     3.8070    -1.8200 C.ar  1 <1>  -0.1500 
 23 C       -6.3330    -2.3260     1.1700 C.3   1 <1>  -0.1600 
 24 O       -5.1190    -1.7460    -2.1220 O.3   1 <1>  -0.6800 
 25 H       -1.1140     2.3080     2.3410 H     1 <1>   0.0800 
 26 H        0.5020     1.7200     2.4260 H     1 <1>   0.0800 
 27 H       -2.1390    -1.3030    -0.8010 H     1 <1>   0.0800 
 28 H       -1.6100    -1.9560     0.7240 H     1 <1>   0.0800 
 29 H       -2.7070     2.1240     0.7300 H     1 <1>   0.0800 
 30 H       -2.7480     1.3420    -0.8160 H     1 <1>   0.0800 
 31 H       -3.7770    -1.4250     1.7020 H     1 <1>   0.0800 
 32 H       -4.4880     0.8380     1.6050 H     1 <1>   0.0800 
 33 H       -5.0100     1.5340     0.1120 H     1 <1>   0.0800 
 34 H        1.4860     1.0360    -0.0150 H     1 <1>   0.1500 
 35 H       -3.7370    -3.5320     1.3780 H     1 <1>   0.4500 
 36 H       -0.5330     5.3150    -1.3370 H     1 <1>   0.1500 
 37 H        2.1970     2.1560    -2.0690 H     1 <1>   0.1500 
 38 H       -5.8330    -3.3440    -0.6320 H     1 <1>   0.0800 
 39 H       -5.7430    -4.3550     0.7840 H     1 <1>   0.0800 
 40 H       -3.6090    -3.3400    -1.5660 H     1 <1>   0.0800 
 41 H       -3.6370    -4.8310    -0.6560 H     1 <1>   0.0800 
 42 H       -2.2850    -3.7360    -0.4930 H     1 <1>   0.0800 
 43 H       -6.5160    -0.2060     1.2590 H     1 <1>   0.0800 
 44 H       -6.8860    -0.8600    -0.2890 H     1 <1>   0.0800 
 45 H       -3.7470    -0.3130    -1.9100 H     1 <1>   0.0800 
 46 H       -5.4080     0.2090    -1.8710 H     1 <1>   0.0800 
 47 H       -2.6010     5.8320     1.6080 H     1 <1>   0.0800 
 48 H       -2.4520     5.6890    -0.1400 H     1 <1>   0.0800 
 49 H       -1.0850     6.2710     0.8280 H     1 <1>   0.0800 
 50 H        1.1830     4.2980    -2.7240 H     1 <1>   0.1500 
 51 H       -7.3720    -2.6090     1.1630 H     1 <1>   0.0800 
 52 H       -6.0140    -2.3080     2.1970 H     1 <1>   0.0800 
 53 H       -5.2980    -1.6090    -3.0780 H     1 <1>   0.4000 
@<TRIPOS>BOND
  1   1   2  2   
  2   2   3  am  
  3   2   4  1   
  4   3   5  1   
  5   3   6  1   
  6   4   7  1   
  7   4  25  1   
  8   4  26  1   
  9   5   8  1   
 10   5  27  1   
 11   5  28  1   
 12   6   9  1   
 13   6  29  1   
 14   6  30  1   
 15   7  10  ar  
 16   7  11  ar  
 17   8  12  1   
 18   8  13  1   
 19   8  31  1   
 20   9  13  1   
 21   9  32  1   
 22   9  33  1   
 23  10  14  1   
 24  10  15  ar  
 25  11  16  ar  
 26  11  34  1   
 27  12  17  1   
 28  12  18  1   
 29  12  35  1   
 30  13  19  1   
 31  13  20  1   
 32  14  21  1   
 33  15  22  ar  
 34  15  36  1   
 35  16  22  ar  
 36  16  37  1   
 37  17  23  1   
 38  17  38  1   
 39  17  39  1   
 40  18  40  1   
 41  18  41  1   
 42  18  42  1   
 43  19  23  1   
 44  19  43  1   
 45  19  44  1   
 46  20  24  1   
 47  20  45  1   
 48  20  46  1   
 49  21  47  1   
 50  21  48  1   
 51  21  49  1   
 52  22  50  1   
 53  23  51  1   
 54  23  52  1   
 55  24  53  1   
@<TRIPOS>SUBSTRUCTURE
  1 ****   6 GROUP 4 **** **** 0

# MOE 2024.06 (io_trps.svl 2023.06)
