@<TRIPOS>MOLECULE
NONAME
50 52 1 0 0 
SMALL
USER_CHARGES


@<TRIPOS>ATOM
  1 O        0.7040     1.6560     0.9770 O.3   1 <1>  -0.6800 
  2 C        1.5700     1.5170    -0.0920 C.3   1 <1>   0.1200 
  3 C        1.2060     2.5500    -1.1610 C.3   1 <1>  -0.1600 
  4 C        1.2230     3.9870    -0.5980 C.3   1 <1>   0.4230 
  5 N       -0.1610     4.6050    -0.6070 N.4   1 <1>  -0.9590 
  6 C        2.2570     4.8520    -1.3690 C.3   1 <1>   0.2090 
  7 C       -0.1030     6.0470    -0.1560 C.3   1 <1>   0.3430 
  8 C       -1.1040     3.8350     0.2530 C.3   1 <1>   0.4380 
  9 N        2.2580     6.2710    -0.9000 N.pl3 1 <1>  -0.8380 
 10 C        0.9100     6.9000    -0.9450 C.3   1 <1>   0.2090 
 11 C       -2.5300     4.3620     0.0730 C.3   1 <1>  -0.1950 
 12 C        3.0400     6.6200     0.2180 C.ar  1 <1>   0.4100 
 13 C       -3.0990     5.4700     0.9080 C.3   1 <1>  -0.2000 
 14 C       -3.5680     4.0580     1.1070 C.3   1 <1>  -0.2000 
 15 N        3.2560     5.6250     1.0650 N.ar  1 <1>  -0.6200 
 16 C        3.5180     7.9620     0.4430 C.ar  1 <1>   0.4100 
 17 C        3.9750     5.9970     2.1180 C.ar  1 <1>   0.1600 
 18 N        4.2170     8.2970     1.5150 N.ar  1 <1>  -0.6200 
 19 N        3.2740     9.0100    -0.4640 N.pl3 1 <1>  -0.8380 
 20 C        4.4350     7.2800     2.3340 C.ar  1 <1>   0.1600 
 21 C        3.2490    10.4120     0.0450 C.3   1 <1>   0.1290 
 22 C        3.9290     8.8870    -1.7930 C.3   1 <1>   0.1290 
 23 H        0.9010     0.9810     1.6630 H     1 <1>   0.4000 
 24 H        1.4780     0.5150    -0.4790 H     1 <1>   0.0800 
 25 H        2.5760     1.6690     0.2670 H     1 <1>   0.0800 
 26 H        0.2570     2.3000    -1.5990 H     1 <1>   0.0800 
 27 H        1.9380     2.4540    -1.9440 H     1 <1>   0.0800 
 28 H        1.5650     3.9380     0.4230 H     1 <1>   0.0800 
 29 H       -0.5130     4.5800    -1.5670 H     1 <1>   0.4500 
 30 H        2.0400     4.8330    -2.4220 H     1 <1>   0.0800 
 31 H        3.2410     4.4350    -1.2360 H     1 <1>   0.0800 
 32 H        0.1790     6.0830     0.8840 H     1 <1>   0.0800 
 33 H       -1.0750     6.4990    -0.2490 H     1 <1>   0.0800 
 34 H       -0.8060     3.9070     1.2860 H     1 <1>   0.0800 
 35 H       -1.0880     2.7930    -0.0230 H     1 <1>   0.0800 
 36 H        0.9460     7.8870    -0.5170 H     1 <1>   0.0800 
 37 H        0.5950     7.0030    -1.9690 H     1 <1>   0.0800 
 38 H       -2.8670     4.2680    -0.9460 H     1 <1>   0.1000 
 39 H       -3.7860     6.1700     0.4600 H     1 <1>   0.1000 
 40 H       -2.5280     5.9130     1.7060 H     1 <1>   0.1000 
 41 H       -3.2900     3.5550     2.0180 H     1 <1>   0.1000 
 42 H       -4.5650     3.8010     0.7900 H     1 <1>   0.1000 
 43 H        4.2050     5.2380     2.8450 H     1 <1>   0.1500 
 44 H        5.0100     7.4880     3.2200 H     1 <1>   0.1500 
 45 H        2.7170    10.4530     0.9790 H     1 <1>   0.0800 
 46 H        2.7570    11.0530    -0.6640 H     1 <1>   0.0800 
 47 H        4.2550    10.7610     0.2040 H     1 <1>   0.0800 
 48 H        4.0810     7.8520    -2.0470 H     1 <1>   0.0800 
 49 H        4.8860     9.3790    -1.7770 H     1 <1>   0.0800 
 50 H        3.3100     9.3400    -2.5470 H     1 <1>   0.0800 
@<TRIPOS>BOND
  1   1   2  1   
  2   1  23  1   
  3   2   3  1   
  4   2  24  1   
  5   2  25  1   
  6   3   4  1   
  7   3  26  1   
  8   3  27  1   
  9   4   5  1   
 10   4   6  1   
 11   4  28  1   
 12   5   7  1   
 13   5   8  1   
 14   5  29  1   
 15   6   9  1   
 16   6  30  1   
 17   6  31  1   
 18   7  10  1   
 19   7  32  1   
 20   7  33  1   
 21   8  11  1   
 22   8  34  1   
 23   8  35  1   
 24   9  10  1   
 25   9  12  1   
 26  10  36  1   
 27  10  37  1   
 28  11  13  1   
 29  11  14  1   
 30  11  38  1   
 31  12  15  ar  
 32  12  16  ar  
 33  13  14  1   
 34  13  39  1   
 35  13  40  1   
 36  14  41  1   
 37  14  42  1   
 38  15  17  ar  
 39  16  18  ar  
 40  16  19  1   
 41  17  20  ar  
 42  17  43  1   
 43  18  20  ar  
 44  19  21  1   
 45  19  22  1   
 46  20  44  1   
 47  21  45  1   
 48  21  46  1   
 49  21  47  1   
 50  22  48  1   
 51  22  49  1   
 52  22  50  1   
@<TRIPOS>SUBSTRUCTURE
  1 ****   9 GROUP 4 **** **** 0

# MOE 2024.06 (io_trps.svl 2023.06)
