@<TRIPOS>MOLECULE
NONAME
40 43 1 0 0 
SMALL
USER_CHARGES


@<TRIPOS>ATOM
  1 CL       0.9090     0.1630     1.6100 Cl    1 <1>  -0.1770 
  2 C        1.4000    -1.1300     0.5260 C.ar  1 <1>   0.1770 
  3 C        0.7610    -2.3690     0.5020 C.ar  1 <1>   0.4100 
  4 C        2.4570    -0.9290    -0.3180 C.ar  1 <1>   0.1600 
  5 N        1.1960    -3.3160    -0.3140 N.ar  1 <1>  -0.6200 
  6 N       -0.3320    -2.6850     1.2940 N.pl3 1 <1>  -0.8380 
  7 N        2.8860    -1.8680    -1.1440 N.ar  1 <1>  -0.6200 
  8 C        2.2210    -3.0100    -1.0870 C.ar  1 <1>   0.4770 
  9 C       -1.5790    -1.8800     1.2060 C.3   1 <1>   0.2090 
 10 C       -0.4750    -4.0450     1.8780 C.3   1 <1>   0.2090 
 11 C        2.6960    -4.1010    -2.0160 C.3   1 <1>  -0.0960 
 12 C       -2.6530    -2.6700     0.4580 C.3   1 <1>  -0.1600 
 13 C       -1.5520    -4.8280     1.1260 C.3   1 <1>  -0.1600 
 14 C       -2.8800    -4.0570     1.0840 C.3   1 <1>   0.1000 
 15 C       -3.9540    -4.8580     0.3510 C.2   1 <1>   0.2980 
 16 O       -4.3310    -6.0080     0.8920 O.3   1 <1>  -0.2800 
 17 N       -4.5550    -4.5470    -0.7370 N.2   1 <1>  -0.5650 
 18 C       -5.2540    -6.4880     0.0830 C.ar  1 <1>   0.1400 
 19 C       -5.4070    -5.5880    -0.9420 C.ar  1 <1>   0.2270 
 20 C       -5.9910    -7.6620     0.1570 C.ar  1 <1>  -0.1500 
 21 C       -6.3270    -5.8400    -1.9530 C.ar  1 <1>  -0.1500 
 22 C       -6.9070    -7.9120    -0.8490 C.ar  1 <1>  -0.1500 
 23 C       -7.0730    -7.0030    -1.9000 C.ar  1 <1>  -0.1500 
 24 H        2.9670     0.0180    -0.3180 H     1 <1>   0.1500 
 25 H       -1.3930    -0.9580     0.6840 H     1 <1>   0.0800 
 26 H       -1.9150    -1.6430     2.2010 H     1 <1>   0.0800 
 27 H       -0.7450    -3.9520     2.9160 H     1 <1>   0.0800 
 28 H        0.4630    -4.5710     1.8260 H     1 <1>   0.0800 
 29 H        1.8730    -4.7350    -2.2910 H     1 <1>   0.0800 
 30 H        3.4440    -4.6890    -1.5190 H     1 <1>   0.0800 
 31 H        3.1170    -3.6720    -2.9060 H     1 <1>   0.0800 
 32 H       -2.3470    -2.7820    -0.5680 H     1 <1>   0.0800 
 33 H       -3.5730    -2.1140     0.4670 H     1 <1>   0.0800 
 34 H       -1.6940    -5.7790     1.6060 H     1 <1>   0.0800 
 35 H       -1.2080    -5.0140     0.1230 H     1 <1>   0.0800 
 36 H       -3.2240    -3.9170     2.0930 H     1 <1>   0.0800 
 37 H       -5.8410    -8.3410     0.9760 H     1 <1>   0.1500 
 38 H       -6.4370    -5.1270    -2.7500 H     1 <1>   0.1500 
 39 H       -7.4990    -8.8110    -0.8290 H     1 <1>   0.1500 
 40 H       -7.7910    -7.2170    -2.6730 H     1 <1>   0.1500 
@<TRIPOS>BOND
  1   1   2  1   
  2   2   3  ar  
  3   2   4  ar  
  4   3   5  ar  
  5   3   6  1   
  6   4   7  ar  
  7   4  24  1   
  8   5   8  ar  
  9   6   9  1   
 10   6  10  1   
 11   7   8  ar  
 12   8  11  1   
 13   9  12  1   
 14   9  25  1   
 15   9  26  1   
 16  10  13  1   
 17  10  27  1   
 18  10  28  1   
 19  11  29  1   
 20  11  30  1   
 21  11  31  1   
 22  12  14  1   
 23  12  32  1   
 24  12  33  1   
 25  13  14  1   
 26  13  34  1   
 27  13  35  1   
 28  14  15  1   
 29  14  36  1   
 30  15  16  1   
 31  15  17  2   
 32  16  18  1   
 33  17  19  1   
 34  18  19  ar  
 35  18  20  ar  
 36  19  21  ar  
 37  20  22  ar  
 38  20  37  1   
 39  21  23  ar  
 40  21  38  1   
 41  22  23  ar  
 42  22  39  1   
 43  23  40  1   
@<TRIPOS>SUBSTRUCTURE
  1 ****  14 GROUP 4 **** **** 0

# MOE 2024.06 (io_trps.svl 2023.06)
