@<TRIPOS>MOLECULE
NONAME
61 63 1 0 0 
SMALL
USER_CHARGES


@<TRIPOS>ATOM
  1 O        0.7160    -1.6250     1.6240 O.2   1 <1>  -0.5700 
  2 C        1.5650    -1.5890     0.7630 C.2   1 <1>   0.5690 
  3 N        2.1470    -0.4310     0.3240 N.am  1 <1>  -0.4940 
  4 C        2.0090    -2.9000     0.1090 C.3   1 <1>  -0.0190 
  5 C        2.0180     0.9300     0.6880 C.2   1 <1>  -0.0880 
  6 C        0.8830    -3.5650    -0.7290 C.3   1 <1>  -0.0190 
  7 C        2.6110    -3.8620     1.1670 C.3   1 <1>  -0.1600 
  8 N        1.0020     1.5720     1.3300 N.pl3 1 <1>   0.3140 
  9 C        2.9510     1.8780     0.3940 C.2   1 <1>  -0.0540 
 10 C        0.0010    -2.5470    -1.4490 C.2   1 <1>   0.5690 
 11 C        0.0870    -4.5830     0.1120 C.3   1 <1>  -0.1600 
 12 C        2.4690    -5.3340     0.7610 C.3   1 <1>  -0.1600 
 13 N        1.2560     2.8940     1.4520 N.2   1 <1>  -0.7070 
 14 C       -0.2820     1.0520     1.8140 C.3   1 <1>   0.0160 
 15 C        4.2080     1.6990    -0.2860 C.ar  1 <1>   0.0540 
 16 C        2.4110     3.0630     0.9010 C.2   1 <1>   0.1080 
 17 O        0.2300    -2.3060    -2.6090 O.2   1 <1>  -0.5700 
 18 N       -0.9880    -1.9170    -0.7680 N.am  1 <1>  -0.7300 
 19 C        0.9870    -5.7310     0.6120 C.3   1 <1>  -0.1600 
 20 C        5.2090     0.9070     0.2700 C.ar  1 <1>  -0.1500 
 21 C        4.4510     2.2970    -1.5180 C.ar  1 <1>  -0.1500 
 22 C        3.0750     4.4200     0.8360 C.3   1 <1>  -0.0590 
 23 C       -1.8500    -0.8600    -1.3270 C.3   1 <1>   0.1400 
 24 C        6.4130     0.7170    -0.3830 C.ar  1 <1>  -0.1500 
 25 C        5.6530     2.1110    -2.1760 C.ar  1 <1>  -0.1500 
 26 C       -3.1480    -0.7990    -0.5240 C.3   1 <1>  -0.1600 
 27 C        6.6370     1.3190    -1.6090 C.ar  1 <1>  -0.1500 
 28 C       -4.0580     0.3270    -1.0290 C.3   1 <1>  -0.1600 
 29 C       -5.3550     0.3920    -0.2190 C.3   1 <1>  -0.2400 
 30 H        2.8570    -0.5700    -0.3980 H     1 <1>   0.3700 
 31 H        2.7930    -2.6630    -0.5880 H     1 <1>   0.0800 
 32 H        1.3610    -4.1330    -1.5090 H     1 <1>   0.0800 
 33 H        3.6490    -3.6210     1.3230 H     1 <1>   0.0800 
 34 H        2.1080    -3.7310     2.1110 H     1 <1>   0.0800 
 35 H       -0.3430    -4.0790     0.9600 H     1 <1>   0.0800 
 36 H       -0.7220    -4.9900    -0.4700 H     1 <1>   0.0800 
 37 H        2.9790    -5.4910    -0.1740 H     1 <1>   0.0800 
 38 H        2.9370    -5.9660     1.4960 H     1 <1>   0.0800 
 39 H       -0.7060     0.4080     1.0700 H     1 <1>   0.0800 
 40 H       -0.9490     1.8730     2.0010 H     1 <1>   0.0800 
 41 H       -0.1190     0.5080     2.7250 H     1 <1>   0.0800 
 42 H       -0.9970    -2.0090     0.2540 H     1 <1>   0.3700 
 43 H        0.6110    -6.0690     1.5630 H     1 <1>   0.0800 
 44 H        0.9240    -6.5620    -0.0700 H     1 <1>   0.0800 
 45 H        5.0350     0.4440     1.2250 H     1 <1>   0.1500 
 46 H        3.6850     2.9090    -1.9620 H     1 <1>   0.1500 
 47 H        4.1430     4.3160     0.8820 H     1 <1>   0.0800 
 48 H        2.7490     5.0230     1.6640 H     1 <1>   0.0800 
 49 H        2.8040     4.9100    -0.0800 H     1 <1>   0.0800 
 50 H       -1.3310     0.0820    -1.2730 H     1 <1>   0.0800 
 51 H       -2.0590    -1.0760    -2.3620 H     1 <1>   0.0800 
 52 H        7.1770     0.1030     0.0620 H     1 <1>   0.1500 
 53 H        5.8250     2.5810    -3.1290 H     1 <1>   0.1500 
 54 H       -3.6620    -1.7410    -0.6150 H     1 <1>   0.0800 
 55 H       -2.9200    -0.6300     0.5140 H     1 <1>   0.0800 
 56 H        7.5740     1.1740    -2.1190 H     1 <1>   0.1500 
 57 H       -3.5450     1.2710    -0.9520 H     1 <1>   0.0800 
 58 H       -4.2970     0.1610    -2.0670 H     1 <1>   0.0800 
 59 H       -5.1430     0.5810     0.8190 H     1 <1>   0.0800 
 60 H       -5.8970    -0.5340    -0.3000 H     1 <1>   0.0800 
 61 H       -5.9800     1.1860    -0.5890 H     1 <1>   0.0800 
@<TRIPOS>BOND
  1   1   2  2   
  2   2   3  am  
  3   2   4  1   
  4   3   5  1   
  5   3  30  1   
  6   4   6  1   
  7   4   7  1   
  8   4  31  1   
  9   5   8  1   
 10   5   9  2   
 11   6  10  1   
 12   6  11  1   
 13   6  32  1   
 14   7  12  1   
 15   7  33  1   
 16   7  34  1   
 17   8  13  1   
 18   8  14  1   
 19   9  15  1   
 20   9  16  1   
 21  10  17  2   
 22  10  18  am  
 23  11  19  1   
 24  11  35  1   
 25  11  36  1   
 26  12  19  1   
 27  12  37  1   
 28  12  38  1   
 29  13  16  2   
 30  14  39  1   
 31  14  40  1   
 32  14  41  1   
 33  15  20  ar  
 34  15  21  ar  
 35  16  22  1   
 36  18  23  1   
 37  18  42  1   
 38  19  43  1   
 39  19  44  1   
 40  20  24  ar  
 41  20  45  1   
 42  21  25  ar  
 43  21  46  1   
 44  22  47  1   
 45  22  48  1   
 46  22  49  1   
 47  23  26  1   
 48  23  50  1   
 49  23  51  1   
 50  24  27  ar  
 51  24  52  1   
 52  25  27  ar  
 53  25  53  1   
 54  26  28  1   
 55  26  54  1   
 56  26  55  1   
 57  27  56  1   
 58  28  29  1   
 59  28  57  1   
 60  28  58  1   
 61  29  59  1   
 62  29  60  1   
 63  29  61  1   
@<TRIPOS>SUBSTRUCTURE
  1 ****   3 GROUP 4 **** **** 0

# MOE 2024.06 (io_trps.svl 2023.06)
