@<TRIPOS>MOLECULE
NONAME
48 49 1 0 0 
SMALL
USER_CHARGES


@<TRIPOS>ATOM
  1 CL      -1.1080     0.7200    -0.1190 Cl    1 <1>  -0.1770 
  2 C       -0.4750     2.3490    -0.0410 C.ar  1 <1>   0.1770 
  3 C        0.8610     2.5960    -0.3290 C.ar  1 <1>  -0.1440 
  4 C       -1.3390     3.3690     0.3140 C.ar  1 <1>  -0.1500 
  5 C        1.3260     3.9010    -0.2560 C.ar  1 <1>  -0.1500 
  6 C        1.7980     1.4630    -0.7200 C.3   1 <1>  -0.0960 
  7 C       -0.8630     4.6660     0.3840 C.ar  1 <1>  -0.1500 
  8 C        0.4670     4.9400     0.1020 C.ar  1 <1>   0.0830 
  9 O        0.8500     6.2380     0.1970 O.3   1 <1>  -0.3630 
 10 C        2.1960     6.6270     0.0100 C.3   1 <1>   0.1200 
 11 C        2.3010     8.1450     0.2030 C.3   1 <1>   0.2000 
 12 O        1.3930     8.7690    -0.6470 O.3   1 <1>  -0.6800 
 13 C        3.7180     8.6900    -0.0770 C.3   1 <1>   0.2090 
 14 N        3.6720    10.1710    -0.2170 N.pl3 1 <1>  -0.8690 
 15 C        4.5000    11.1880     0.0300 C.ar  1 <1>   0.7710 
 16 N        4.0190    12.3940    -0.1670 N.ar  1 <1>  -0.6200 
 17 N        5.7510    10.9600     0.4540 N.ar  1 <1>  -0.1790 
 18 C        4.8150    13.4240     0.0560 C.ar  1 <1>   0.4100 
 19 C        6.5880    11.9870     0.7310 C.ar  1 <1>   0.2110 
 20 N        4.2940    14.6500    -0.2060 N.pl3 1 <1>  -0.8380 
 21 C        6.1360    13.2540     0.5470 C.ar  1 <1>  -0.1430 
 22 C        4.9220    15.6010    -1.1640 C.3   1 <1>   0.1290 
 23 C        2.8720    14.9700     0.1130 C.3   1 <1>   0.1290 
 24 C        7.0260    14.4450     0.8990 C.3   1 <1>  -0.0970 
 25 H       -2.3670     3.1450     0.5310 H     1 <1>   0.1500 
 26 H        2.3570     4.0920    -0.4820 H     1 <1>   0.1500 
 27 H        1.4350     0.9760    -1.6080 H     1 <1>   0.0800 
 28 H        1.8480     0.7380     0.0740 H     1 <1>   0.0800 
 29 H        2.7910     1.8260    -0.9130 H     1 <1>   0.0800 
 30 H       -1.5220     5.4700     0.6580 H     1 <1>   0.1500 
 31 H        2.4950     6.3530    -0.9870 H     1 <1>   0.0800 
 32 H        2.8000     6.1090     0.7330 H     1 <1>   0.0800 
 33 H        2.0200     8.3900     1.2130 H     1 <1>   0.0800 
 34 H        0.5340     8.2940    -0.5930 H     1 <1>   0.4000 
 35 H        4.0780     8.2630    -0.9980 H     1 <1>   0.0800 
 36 H        4.3780     8.3990     0.7210 H     1 <1>   0.0800 
 37 H        2.7440    10.4570    -0.5760 H     1 <1>   0.4000 
 38 H        6.0180     9.9890     0.5500 H     1 <1>   0.4570 
 39 H        7.5790    11.7690     1.0950 H     1 <1>   0.1500 
 40 H        5.7810    15.1540    -1.6320 H     1 <1>   0.0800 
 41 H        5.2210    16.4960    -0.6470 H     1 <1>   0.0800 
 42 H        4.2180    15.8620    -1.9370 H     1 <1>   0.0800 
 43 H        2.5000    14.3050     0.8730 H     1 <1>   0.0800 
 44 H        2.2670    14.8580    -0.7700 H     1 <1>   0.0800 
 45 H        2.7950    15.9810     0.4730 H     1 <1>   0.0800 
 46 H        6.4570    15.1810     1.4410 H     1 <1>   0.0800 
 47 H        7.4160    14.9010     0.0070 H     1 <1>   0.0800 
 48 H        7.8540    14.1460     1.5160 H     1 <1>   0.0800 
@<TRIPOS>BOND
  1   1   2  1   
  2   2   3  ar  
  3   2   4  ar  
  4   3   5  ar  
  5   3   6  1   
  6   4   7  ar  
  7   4  25  1   
  8   5   8  ar  
  9   5  26  1   
 10   6  27  1   
 11   6  28  1   
 12   6  29  1   
 13   7   8  ar  
 14   7  30  1   
 15   8   9  1   
 16   9  10  1   
 17  10  11  1   
 18  10  31  1   
 19  10  32  1   
 20  11  12  1   
 21  11  13  1   
 22  11  33  1   
 23  12  34  1   
 24  13  14  1   
 25  13  35  1   
 26  13  36  1   
 27  14  15  1   
 28  14  37  1   
 29  15  16  ar  
 30  15  17  ar  
 31  16  18  ar  
 32  17  19  ar  
 33  17  38  1   
 34  18  20  1   
 35  18  21  ar  
 36  19  21  ar  
 37  19  39  1   
 38  20  22  1   
 39  20  23  1   
 40  21  24  1   
 41  22  40  1   
 42  22  41  1   
 43  22  42  1   
 44  23  43  1   
 45  23  44  1   
 46  23  45  1   
 47  24  46  1   
 48  24  47  1   
 49  24  48  1   
@<TRIPOS>SUBSTRUCTURE
  1 ****  11 GROUP 4 **** **** 0

# MOE 2024.06 (io_trps.svl 2023.06)
