@<TRIPOS>MOLECULE
NONAME
53 57 1 0 0 
SMALL
USER_CHARGES


@<TRIPOS>ATOM
  1 F       -0.8850     0.1600     1.3580 F     1 <1>  -0.1370 
  2 C       -1.9200     0.4780     0.6220 C.2   1 <1>  -0.0150 
  3 N       -2.0800     1.7230     0.1710 N.pl3 1 <1>   0.3340 
  4 C       -2.9470    -0.3250     0.2220 C.2   1 <1>   0.1410 
  5 C       -3.2630     1.6440    -0.5260 C.2   1 <1>   0.1410 
  6 C       -1.3680     2.9130     0.2700 C.2   1 <1>  -0.1810 
  7 N       -3.8020     0.4460    -0.5140 N.2   1 <1>  -0.5650 
  8 C       -3.1080    -1.7470     0.5110 C.2   1 <1>   0.7160 
  9 C       -3.7500     2.8200    -1.1530 C.2   1 <1>  -0.1050 
 10 C       -1.8350     4.0410    -0.3290 C.2   1 <1>  -0.1380 
 11 O       -2.1290    -2.4240     0.7790 O.2   1 <1>  -0.5700 
 12 N       -4.3330    -2.3900     0.5070 N.am  1 <1>  -0.6600 
 13 C       -3.0570     3.9890    -1.0580 C.2   1 <1>  -0.1500 
 14 C       -1.0970     5.3640    -0.2510 C.3   1 <1>  -0.1020 
 15 C       -5.6480    -1.7410     0.3150 C.3   1 <1>   0.1400 
 16 C       -4.4740    -3.8310     0.8010 C.3   1 <1>   0.1400 
 17 C       -6.6910    -2.8060     0.6740 C.3   1 <1>  -0.0800 
 18 C       -5.9570    -4.1620     0.6200 C.3   1 <1>  -0.0800 
 19 C       -8.0190    -2.7320    -0.1260 C.3   1 <1>   0.4240 
 20 C       -6.2410    -4.9260    -0.6850 C.3   1 <1>  -0.1600 
 21 O       -7.7610    -2.4110    -1.4470 O.3   1 <1>  -0.6800 
 22 C       -8.9350    -1.6440     0.4710 C.ar  1 <1>  -0.1430 
 23 C       -8.6540    -4.1340    -0.1890 C.3   1 <1>  -0.1600 
 24 C       -7.7500    -5.1860    -0.8770 C.3   1 <1>  -0.1600 
 25 C       -8.8770    -0.3330     0.0070 C.ar  1 <1>  -0.1500 
 26 C       -9.8210    -1.9270     1.5080 C.ar  1 <1>  -0.1500 
 27 C       -9.6800     0.6570     0.5480 C.ar  1 <1>  -0.1500 
 28 C      -10.6260    -0.9410     2.0500 C.ar  1 <1>  -0.1500 
 29 C      -10.5580     0.3540     1.5710 C.ar  1 <1>  -0.1500 
 30 H       -0.4560     2.8720     0.8370 H     1 <1>   0.1500 
 31 H       -4.6760     2.7430    -1.6950 H     1 <1>   0.1500 
 32 H       -3.4150     4.8890    -1.5290 H     1 <1>   0.1500 
 33 H       -1.7200     6.1060     0.2150 H     1 <1>   0.0800 
 34 H       -0.8360     5.6980    -1.2390 H     1 <1>   0.0800 
 35 H       -0.1940     5.2640     0.3250 H     1 <1>   0.0800 
 36 H       -5.7480    -0.8780     0.9520 H     1 <1>   0.0800 
 37 H       -5.7210    -1.4240    -0.7100 H     1 <1>   0.0800 
 38 H       -3.8470    -4.4100     0.1430 H     1 <1>   0.0800 
 39 H       -4.1720    -4.0080     1.8190 H     1 <1>   0.0800 
 40 H       -6.9390    -2.6470     1.7080 H     1 <1>   0.0800 
 41 H       -6.2750    -4.7830     1.4400 H     1 <1>   0.0800 
 42 H       -5.8600    -4.3540    -1.5130 H     1 <1>   0.0800 
 43 H       -5.7160    -5.8660    -0.6820 H     1 <1>   0.0800 
 44 H       -7.2470    -3.1420    -1.8320 H     1 <1>   0.4000 
 45 H       -8.8360    -4.4720     0.8140 H     1 <1>   0.0800 
 46 H       -9.6080    -4.0780    -0.6840 H     1 <1>   0.0800 
 47 H       -7.9980    -6.1560    -0.4800 H     1 <1>   0.0800 
 48 H       -7.9670    -5.2140    -1.9320 H     1 <1>   0.0800 
 49 H       -8.2010    -0.0690    -0.7880 H     1 <1>   0.1500 
 50 H       -9.8990    -2.9170     1.9150 H     1 <1>   0.1500 
 51 H       -9.6180     1.6620     0.1690 H     1 <1>   0.1500 
 52 H      -11.3080    -1.1800     2.8480 H     1 <1>   0.1500 
 53 H      -11.1840     1.1210     1.9910 H     1 <1>   0.1500 
@<TRIPOS>BOND
  1   1   2  1   
  2   2   3  1   
  3   2   4  2   
  4   3   5  1   
  5   3   6  1   
  6   4   7  1   
  7   4   8  1   
  8   5   7  2   
  9   5   9  1   
 10   6  10  2   
 11   6  30  1   
 12   8  11  2   
 13   8  12  am  
 14   9  13  2   
 15   9  31  1   
 16  10  13  1   
 17  10  14  1   
 18  12  15  1   
 19  12  16  1   
 20  13  32  1   
 21  14  33  1   
 22  14  34  1   
 23  14  35  1   
 24  15  17  1   
 25  15  36  1   
 26  15  37  1   
 27  16  18  1   
 28  16  38  1   
 29  16  39  1   
 30  17  18  1   
 31  17  19  1   
 32  17  40  1   
 33  18  20  1   
 34  18  41  1   
 35  19  21  1   
 36  19  22  1   
 37  19  23  1   
 38  20  24  1   
 39  20  42  1   
 40  20  43  1   
 41  21  44  1   
 42  22  25  ar  
 43  22  26  ar  
 44  23  24  1   
 45  23  45  1   
 46  23  46  1   
 47  24  47  1   
 48  24  48  1   
 49  25  27  ar  
 50  25  49  1   
 51  26  28  ar  
 52  26  50  1   
 53  27  29  ar  
 54  27  51  1   
 55  28  29  ar  
 56  28  52  1   
 57  29  53  1   
@<TRIPOS>SUBSTRUCTURE
  1 ****  15 GROUP 4 **** **** 0

# MOE 2024.06 (io_trps.svl 2023.06)
