@<TRIPOS>MOLECULE
NONAME
43 45 1 0 0 
SMALL
USER_CHARGES


@<TRIPOS>ATOM
  1 O       -0.5650    -0.0580    -0.2920 O.2   1 <1>  -0.5700 
  2 C       -1.5780     0.5680    -0.5480 C.2   1 <1>   0.7150 
  3 N       -2.7860    -0.0810    -0.4650 N.am  1 <1>  -0.6600 
  4 C       -1.4950     1.9550    -0.9170 C.2   1 <1>  -0.2370 
  5 C       -4.1040     0.5810    -0.3550 C.3   1 <1>   0.1400 
  6 C       -2.8970    -1.5220    -0.1500 C.3   1 <1>   0.1400 
  7 N       -0.5590     2.8180    -0.4390 N.pl3 1 <1>   0.3140 
  8 C       -2.2550     2.6980    -1.7700 C.2   1 <1>  -0.1500 
  9 C       -4.9770    -0.3940     0.4460 C.3   1 <1>  -0.0800 
 10 C       -4.3800    -1.7800     0.1350 C.3   1 <1>  -0.0800 
 11 N       -0.7080     4.0570    -0.9340 N.2   1 <1>  -0.7070 
 12 C        0.5200     2.5300     0.5200 C.3   1 <1>   0.0160 
 13 C       -1.7260     3.9730    -1.7340 C.2   1 <1>   0.1390 
 14 C       -6.5180    -0.2750     0.2300 C.3   1 <1>   0.2800 
 15 C       -5.1020    -2.4350    -1.0530 C.3   1 <1>  -0.1600 
 16 O       -6.7880     0.2380    -1.0260 O.3   1 <1>  -0.6800 
 17 C       -7.1710    -1.6690     0.2810 C.3   1 <1>  -0.1600 
 18 C       -7.1940     0.6630     1.2540 C.3   1 <1>  -0.1600 
 19 C       -6.5960    -2.6600    -0.7550 C.3   1 <1>  -0.1600 
 20 C       -6.6980     2.1190     1.2550 C.3   1 <1>  -0.2400 
 21 H       -4.0220     1.5330     0.1380 H     1 <1>   0.0800 
 22 H       -4.4840     0.7240    -1.3500 H     1 <1>   0.0800 
 23 H       -2.5360    -2.1130    -0.9740 H     1 <1>   0.0800 
 24 H       -2.3060    -1.7370     0.7240 H     1 <1>   0.0800 
 25 H       -3.0930     2.3800    -2.3640 H     1 <1>   0.1500 
 26 H       -4.7750    -0.2130     1.4870 H     1 <1>   0.0800 
 27 H       -4.4680    -2.4310     0.9880 H     1 <1>   0.0800 
 28 H        0.1070     2.0550     1.3890 H     1 <1>   0.0800 
 29 H        0.9990     3.4490     0.8020 H     1 <1>   0.0800 
 30 H        1.2360     1.8780     0.0550 H     1 <1>   0.0800 
 31 H       -2.1000     4.8100    -2.2990 H     1 <1>   0.1500 
 32 H       -5.0110    -1.7900    -1.9110 H     1 <1>   0.0800 
 33 H       -4.6390    -3.3740    -1.3030 H     1 <1>   0.0800 
 34 H       -7.7500     0.2290    -1.1750 H     1 <1>   0.4000 
 35 H       -7.0020    -2.0750     1.2630 H     1 <1>   0.0800 
 36 H       -8.2360    -1.5930     0.1570 H     1 <1>   0.0800 
 37 H       -8.2550     0.6650     1.0760 H     1 <1>   0.0800 
 38 H       -7.0480     0.2580     2.2400 H     1 <1>   0.0800 
 39 H       -6.7440    -3.6620    -0.3900 H     1 <1>   0.0800 
 40 H       -7.1420    -2.5700    -1.6780 H     1 <1>   0.0800 
 41 H       -6.7750     2.5510     0.2720 H     1 <1>   0.0800 
 42 H       -5.6750     2.1770     1.5810 H     1 <1>   0.0800 
 43 H       -7.2950     2.7070     1.9290 H     1 <1>   0.0800 
@<TRIPOS>BOND
  1   1   2  2   
  2   2   3  am  
  3   2   4  1   
  4   3   5  1   
  5   3   6  1   
  6   4   7  1   
  7   4   8  2   
  8   5   9  1   
  9   5  21  1   
 10   5  22  1   
 11   6  10  1   
 12   6  23  1   
 13   6  24  1   
 14   7  11  1   
 15   7  12  1   
 16   8  13  1   
 17   8  25  1   
 18   9  10  1   
 19   9  14  1   
 20   9  26  1   
 21  10  15  1   
 22  10  27  1   
 23  11  13  2   
 24  12  28  1   
 25  12  29  1   
 26  12  30  1   
 27  13  31  1   
 28  14  16  1   
 29  14  17  1   
 30  14  18  1   
 31  15  19  1   
 32  15  32  1   
 33  15  33  1   
 34  16  34  1   
 35  17  19  1   
 36  17  35  1   
 37  17  36  1   
 38  18  20  1   
 39  18  37  1   
 40  18  38  1   
 41  19  39  1   
 42  19  40  1   
 43  20  41  1   
 44  20  42  1   
 45  20  43  1   
@<TRIPOS>SUBSTRUCTURE
  1 ****   5 GROUP 4 **** **** 0

# MOE 2024.06 (io_trps.svl 2023.06)
