@<TRIPOS>MOLECULE
NONAME
45 46 1 0 0 
SMALL
USER_CHARGES


@<TRIPOS>ATOM
  1 O       -0.2730     0.0500    -0.3140 O.2   1 <1>  -0.5700 
  2 C        0.7040    -0.5950    -0.5980 C.2   1 <1>   0.5690 
  3 N        1.9560    -0.0760    -0.7490 N.am  1 <1>  -0.4940 
  4 C        0.5300    -2.0830    -0.7740 C.3   1 <1>  -0.0990 
  5 C        2.3890     1.2500    -0.6210 C.2   1 <1>   0.2040 
  6 C        0.2520    -2.7280     0.5850 C.3   1 <1>   0.0960 
  7 O        1.5690     2.2290    -0.3200 O.3   1 <1>  -0.0190 
  8 C        3.6210     1.7780    -0.7610 C.2   1 <1>  -0.1810 
  9 N        0.2020    -4.1960     0.4460 N.pl3 1 <1>   0.3140 
 10 N        2.1890     3.3800    -0.2520 N.2   1 <1>  -0.4100 
 11 C        3.4230     3.1370    -0.5120 C.2   1 <1>   0.1080 
 12 C        4.9370     1.1000    -1.1050 C.3   1 <1>  -0.0590 
 13 N        1.3400    -4.8790     0.2720 N.2   1 <1>  -0.7070 
 14 C       -0.8690    -5.0120     0.4460 C.2   1 <1>  -0.3320 
 15 C        4.4930     4.2150    -0.5350 C.3   1 <1>   0.0210 
 16 C        0.9790    -6.1140     0.1710 C.2   1 <1>   0.1080 
 17 C       -0.4110    -6.2910     0.2540 C.2   1 <1>  -0.0860 
 18 C       -2.2910    -4.5010     0.6580 C.3   1 <1>  -0.0600 
 19 C        5.2030     4.3230     0.8190 C.3   1 <1>  -0.2400 
 20 C        2.0020    -7.2140    -0.0260 C.3   1 <1>  -0.0590 
 21 C       -1.0840    -7.5610     0.1370 C.2   1 <1>   0.5950 
 22 O       -0.5900    -8.6140     0.4540 O.2   1 <1>  -0.5700 
 23 C       -2.4780    -7.6270    -0.4450 C.3   1 <1>  -0.1790 
 24 H        2.6890    -0.7420    -0.9780 H     1 <1>   0.3700 
 25 H        1.4150    -2.5090    -1.2110 H     1 <1>   0.0800 
 26 H       -0.3000    -2.2570    -1.4350 H     1 <1>   0.0800 
 27 H       -0.6740    -2.3650     0.9890 H     1 <1>   0.0800 
 28 H        1.0410    -2.4900     1.2760 H     1 <1>   0.0800 
 29 H        4.7990     0.0430    -1.2350 H     1 <1>   0.0800 
 30 H        5.6490     1.2580    -0.3140 H     1 <1>   0.0800 
 31 H        5.3340     1.5100    -2.0160 H     1 <1>   0.0800 
 32 H        4.0280     5.1580    -0.7680 H     1 <1>   0.0800 
 33 H        5.2070     4.0000    -1.3090 H     1 <1>   0.0800 
 34 H       -2.3320    -3.8680     1.5270 H     1 <1>   0.0800 
 35 H       -2.9810    -5.3060     0.8200 H     1 <1>   0.0800 
 36 H       -2.6140    -3.9350    -0.1980 H     1 <1>   0.0800 
 37 H        4.4880     4.5550     1.5880 H     1 <1>   0.0800 
 38 H        5.9430     5.1030     0.7880 H     1 <1>   0.0800 
 39 H        5.6850     3.3950     1.0660 H     1 <1>   0.0800 
 40 H        2.9790    -6.7890    -0.1700 H     1 <1>   0.0800 
 41 H        1.7480    -7.8040    -0.8870 H     1 <1>   0.0800 
 42 H        2.0230    -7.8470     0.8410 H     1 <1>   0.0800 
 43 H       -2.6530    -6.7920    -1.0960 H     1 <1>   0.0800 
 44 H       -3.1990    -7.6320     0.3500 H     1 <1>   0.0800 
 45 H       -2.5850    -8.5320    -1.0130 H     1 <1>   0.0800 
@<TRIPOS>BOND
  1   1   2  2   
  2   2   3  am  
  3   2   4  1   
  4   3   5  1   
  5   3  24  1   
  6   4   6  1   
  7   4  25  1   
  8   4  26  1   
  9   5   7  1   
 10   5   8  2   
 11   6   9  1   
 12   6  27  1   
 13   6  28  1   
 14   7  10  1   
 15   8  11  1   
 16   8  12  1   
 17   9  13  1   
 18   9  14  1   
 19  10  11  2   
 20  11  15  1   
 21  12  29  1   
 22  12  30  1   
 23  12  31  1   
 24  13  16  2   
 25  14  17  2   
 26  14  18  1   
 27  15  19  1   
 28  15  32  1   
 29  15  33  1   
 30  16  17  1   
 31  16  20  1   
 32  17  21  1   
 33  18  34  1   
 34  18  35  1   
 35  18  36  1   
 36  19  37  1   
 37  19  38  1   
 38  19  39  1   
 39  20  40  1   
 40  20  41  1   
 41  20  42  1   
 42  21  22  2   
 43  21  23  1   
 44  23  43  1   
 45  23  44  1   
 46  23  45  1   
@<TRIPOS>SUBSTRUCTURE
  1 ****   4 GROUP 4 **** **** 0

# MOE 2024.06 (io_trps.svl 2023.06)
