@<TRIPOS>MOLECULE
NONAME
52 54 1 0 0 
SMALL
USER_CHARGES


@<TRIPOS>ATOM
  1 O        0.3070     0.1560     0.5250 O.3   1 <1>  -0.5600 
  2 C        1.3250     0.7330    -0.2250 C.3   1 <1>   0.1200 
  3 C        0.2010    -1.2260     0.3400 C.3   1 <1>   0.1200 
  4 C        2.6720     0.1380     0.2130 C.3   1 <1>   0.1900 
  5 C        1.5150    -1.9600     0.7170 C.3   1 <1>   0.1900 
  6 N        2.6880    -1.3400     0.0280 N.3   1 <1>  -0.8100 
  7 C        3.8160     0.8060    -0.5760 C.3   1 <1>   0.3430 
  8 C        1.4120    -3.4590     0.3580 C.3   1 <1>  -0.1600 
  9 C        3.9950    -1.8910     0.4580 C.3   1 <1>   0.1100 
 10 N        5.1670     0.2470    -0.2060 N.4   1 <1>  -0.9590 
 11 C        0.1810    -4.1670     0.9520 C.3   1 <1>  -0.1600 
 12 C        5.1660    -1.2500    -0.3150 C.3   1 <1>   0.3430 
 13 C        6.2570     0.8590    -1.0110 C.3   1 <1>   0.4860 
 14 C        0.2360    -5.6750     0.6900 C.3   1 <1>  -0.2400 
 15 C        6.3080     2.3420    -0.7040 C.ar  1 <1>  -0.1440 
 16 C        5.6820     3.2430    -1.5530 C.ar  1 <1>  -0.1500 
 17 C        6.9680     2.8150     0.4240 C.ar  1 <1>  -0.1500 
 18 C        5.7010     4.5920    -1.2600 C.ar  1 <1>   0.0820 
 19 C        6.9950     4.1720     0.7090 C.ar  1 <1>  -0.1500 
 20 O        5.0690     5.4460    -2.0790 O.3   1 <1>  -0.5330 
 21 C        6.3570     5.0770    -0.1330 C.ar  1 <1>   0.0820 
 22 O        6.3340     6.4250     0.0740 O.3   1 <1>  -0.3620 
 23 C        7.0570     7.0130     1.1350 C.3   1 <1>   0.0400 
 24 H        1.1340     0.5500    -1.2690 H     1 <1>   0.0800 
 25 H        1.2970     1.7930    -0.0430 H     1 <1>   0.0800 
 26 H       -0.6080    -1.5620     0.9630 H     1 <1>   0.0800 
 27 H       -0.0560    -1.4150    -0.6880 H     1 <1>   0.0800 
 28 H        2.7990     0.3700     1.2570 H     1 <1>   0.0800 
 29 H        1.6410    -1.8710     1.7830 H     1 <1>   0.0800 
 30 H        3.7940     1.8670    -0.3860 H     1 <1>   0.0800 
 31 H        3.6340     0.6540    -1.6270 H     1 <1>   0.0800 
 32 H        1.3920    -3.5640    -0.7130 H     1 <1>   0.0800 
 33 H        2.2740    -3.9760     0.7330 H     1 <1>   0.0800 
 34 H        4.1280    -1.7450     1.5170 H     1 <1>   0.0800 
 35 H        4.0310    -2.9470     0.2620 H     1 <1>   0.0800 
 36 H        5.3330     0.5050     0.7740 H     1 <1>   0.4500 
 37 H        0.1390    -3.9970     2.0150 H     1 <1>   0.0800 
 38 H       -0.7240    -3.7820     0.5130 H     1 <1>   0.0800 
 39 H        5.0770    -1.5360    -1.3500 H     1 <1>   0.0800 
 40 H        6.0950    -1.6470     0.0600 H     1 <1>   0.0800 
 41 H        7.2040     0.4100    -0.7600 H     1 <1>   0.0800 
 42 H        6.0750     0.7080    -2.0630 H     1 <1>   0.0800 
 43 H        1.1080    -6.1090     1.1490 H     1 <1>   0.0800 
 44 H        0.2650    -5.8740    -0.3670 H     1 <1>   0.0800 
 45 H       -0.6360    -6.1510     1.1020 H     1 <1>   0.0800 
 46 H        5.1740     2.9250    -2.4470 H     1 <1>   0.1500 
 47 H        7.4730     2.1380     1.0920 H     1 <1>   0.1500 
 48 H        7.5160     4.5060     1.5880 H     1 <1>   0.1500 
 49 H        5.1860     6.3610    -1.7510 H     1 <1>   0.4500 
 50 H        6.9230     8.0780     1.0820 H     1 <1>   0.0800 
 51 H        8.1000     6.7720     1.0250 H     1 <1>   0.0800 
 52 H        6.6720     6.6450     2.0690 H     1 <1>   0.0800 
@<TRIPOS>BOND
  1   1   2  1   
  2   1   3  1   
  3   2   4  1   
  4   2  24  1   
  5   2  25  1   
  6   3   5  1   
  7   3  26  1   
  8   3  27  1   
  9   4   6  1   
 10   4   7  1   
 11   4  28  1   
 12   5   6  1   
 13   5   8  1   
 14   5  29  1   
 15   6   9  1   
 16   7  10  1   
 17   7  30  1   
 18   7  31  1   
 19   8  11  1   
 20   8  32  1   
 21   8  33  1   
 22   9  12  1   
 23   9  34  1   
 24   9  35  1   
 25  10  12  1   
 26  10  13  1   
 27  10  36  1   
 28  11  14  1   
 29  11  37  1   
 30  11  38  1   
 31  12  39  1   
 32  12  40  1   
 33  13  15  1   
 34  13  41  1   
 35  13  42  1   
 36  14  43  1   
 37  14  44  1   
 38  14  45  1   
 39  15  16  ar  
 40  15  17  ar  
 41  16  18  ar  
 42  16  46  1   
 43  17  19  ar  
 44  17  47  1   
 45  18  20  1   
 46  18  21  ar  
 47  19  21  ar  
 48  19  48  1   
 49  20  49  1   
 50  21  22  1   
 51  22  23  1   
 52  23  50  1   
 53  23  51  1   
 54  23  52  1   
@<TRIPOS>SUBSTRUCTURE
  1 ****   7 GROUP 4 **** **** 0

# MOE 2024.06 (io_trps.svl 2023.06)
