@<TRIPOS>MOLECULE
NONAME
46 48 1 0 0 
SMALL
USER_CHARGES


@<TRIPOS>ATOM
  1 CL       1.6290     3.0270    -0.2810 Cl    1 <1>  -0.1770 
  2 C        2.6830     1.6430    -0.1230 C.ar  1 <1>   0.1770 
  3 C        3.6900     1.4510    -1.0490 C.ar  1 <1>  -0.1500 
  4 C        2.4920     0.7620     0.9230 C.ar  1 <1>  -0.1500 
  5 C        4.5350     0.3560    -0.9350 C.ar  1 <1>  -0.1440 
  6 C        3.3300    -0.3330     1.0440 C.ar  1 <1>  -0.1500 
  7 C        4.3530    -0.5380     0.1200 C.ar  1 <1>   0.0830 
  8 C        5.6540     0.1660    -1.9550 C.3   1 <1>   0.3530 
  9 O        5.1970    -1.5960     0.2180 O.3   1 <1>  -0.3630 
 10 N        6.7210     1.1990    -1.7800 N.pl3 1 <1>  -0.8380 
 11 C        5.5290    -2.1180     1.4880 C.3   1 <1>   0.0400 
 12 C        7.1550     1.4750    -0.4880 C.ar  1 <1>   0.4100 
 13 C        6.7440     2.2710    -2.8140 C.3   1 <1>   0.1290 
 14 N        7.0950     2.7380    -0.0970 N.ar  1 <1>  -0.6200 
 15 C        7.6190     0.4520     0.3550 C.ar  1 <1>   0.1600 
 16 C        7.4800     2.9410     1.1750 C.ar  1 <1>   0.3960 
 17 N        8.0120     0.6100     1.6030 N.ar  1 <1>  -0.6200 
 18 C        7.4490     4.2790     1.7770 C.2   1 <1>   0.5440 
 19 C        7.9170     1.8790     1.9750 C.ar  1 <1>   0.1600 
 20 O        7.3670     4.3770     2.9920 O.2   1 <1>  -0.5700 
 21 N        7.5300     5.4630     1.0650 N.am  1 <1>  -0.6600 
 22 C        7.4380     6.7910     1.7100 C.3   1 <1>   0.1400 
 23 C        7.7480     5.6000    -0.3930 C.3   1 <1>   0.1400 
 24 C        7.3740     7.7860     0.5570 C.3   1 <1>  -0.1600 
 25 C        8.0660     7.0760    -0.6030 C.3   1 <1>  -0.1600 
 26 H        3.8120     2.1620    -1.8440 H     1 <1>   0.1500 
 27 H        1.7000     0.9350     1.6290 H     1 <1>   0.1500 
 28 H        3.1720    -1.0180     1.8550 H     1 <1>   0.1500 
 29 H        5.2380     0.2380    -2.9440 H     1 <1>   0.0800 
 30 H        6.0950    -0.8120    -1.8690 H     1 <1>   0.0800 
 31 H        6.3720    -2.7740     1.3700 H     1 <1>   0.0800 
 32 H        4.6900    -2.6700     1.8730 H     1 <1>   0.0800 
 33 H        5.7910    -1.3050     2.1440 H     1 <1>   0.0800 
 34 H        6.7500     1.8380    -3.7980 H     1 <1>   0.0800 
 35 H        7.6320     2.8700    -2.6980 H     1 <1>   0.0800 
 36 H        5.8830     2.9060    -2.7040 H     1 <1>   0.0800 
 37 H        7.6540    -0.5400    -0.0530 H     1 <1>   0.1500 
 38 H        8.2100     2.1000     2.9870 H     1 <1>   0.1500 
 39 H        8.3210     6.9530     2.3050 H     1 <1>   0.0800 
 40 H        6.5650     6.8510     2.3380 H     1 <1>   0.0800 
 41 H        6.8400     5.3350    -0.9080 H     1 <1>   0.0800 
 42 H        8.5540     4.9690    -0.7260 H     1 <1>   0.0800 
 43 H        7.8450     8.7200     0.8080 H     1 <1>   0.0800 
 44 H        6.3420     7.9670     0.3110 H     1 <1>   0.0800 
 45 H        7.7260     7.4260    -1.5610 H     1 <1>   0.0800 
 46 H        9.1310     7.2160    -0.5340 H     1 <1>   0.0800 
@<TRIPOS>BOND
  1   1   2  1   
  2   2   3  ar  
  3   2   4  ar  
  4   3   5  ar  
  5   3  26  1   
  6   4   6  ar  
  7   4  27  1   
  8   5   7  ar  
  9   5   8  1   
 10   6   7  ar  
 11   6  28  1   
 12   7   9  1   
 13   8  10  1   
 14   8  29  1   
 15   8  30  1   
 16   9  11  1   
 17  10  12  1   
 18  10  13  1   
 19  11  31  1   
 20  11  32  1   
 21  11  33  1   
 22  12  14  ar  
 23  12  15  ar  
 24  13  34  1   
 25  13  35  1   
 26  13  36  1   
 27  14  16  ar  
 28  15  17  ar  
 29  15  37  1   
 30  16  18  1   
 31  16  19  ar  
 32  17  19  ar  
 33  18  20  2   
 34  18  21  am  
 35  19  38  1   
 36  21  22  1   
 37  21  23  1   
 38  22  24  1   
 39  22  39  1   
 40  22  40  1   
 41  23  25  1   
 42  23  41  1   
 43  23  42  1   
 44  24  25  1   
 45  24  43  1   
 46  24  44  1   
 47  25  45  1   
 48  25  46  1   
@<TRIPOS>SUBSTRUCTURE
  1 ****  14 GROUP 4 **** **** 0

# MOE 2024.06 (io_trps.svl 2023.06)
