@<TRIPOS>MOLECULE
NONAME
51 54 1 0 0 
SMALL
USER_CHARGES


@<TRIPOS>ATOM
  1 O        1.3480     1.8020    -1.3590 O.3   1 <1>  -0.0190 
  2 N        2.1630     0.7910    -1.3680 N.2   1 <1>  -0.4100 
  3 C        0.8990     2.0550    -0.1590 C.2   1 <1>  -0.0400 
  4 C        2.2220     0.3670    -0.1560 C.2   1 <1>   0.1080 
  5 C        1.4270     1.1500     0.6780 C.2   1 <1>  -0.1500 
  6 C       -0.0330     3.2300     0.0650 C.3   1 <1>   0.0200 
  7 C        3.0450    -0.8210     0.2900 C.3   1 <1>  -0.0590 
  8 C        0.5110     4.4850    -0.6470 C.3   1 <1>  -0.0800 
  9 C       -0.1950     5.8070    -0.3480 C.3   1 <1>   0.2000 
 10 C        1.9860     4.7640    -0.3360 C.3   1 <1>   0.3430 
 11 O       -0.3780     5.9440     1.0260 O.3   1 <1>  -0.6800 
 12 C        0.8480     6.8310    -0.8010 C.3   1 <1>   0.3430 
 13 N        2.1770     6.2440    -0.4280 N.4   1 <1>  -0.9590 
 14 C        2.6580     6.8040     0.8670 C.3   1 <1>   0.4860 
 15 C        2.9910     8.2670     0.6540 C.ar  1 <1>  -0.1440 
 16 C        4.1260     8.6390    -0.1080 C.ar  1 <1>   0.0000 
 17 C        2.1630     9.2160     1.1920 C.ar  1 <1>  -0.1500 
 18 C        4.3440    10.0140    -0.3660 C.ar  1 <1>   0.0000 
 19 C        5.0600     7.7070    -0.6280 C.ar  1 <1>  -0.1500 
 20 C        2.4000    10.5720     0.9700 C.ar  1 <1>  -0.1500 
 21 C        3.4630    10.9730     0.1970 C.ar  1 <1>   0.0820 
 22 C        5.4420    10.3800    -1.1770 C.ar  1 <1>  -0.1500 
 23 C        6.1160     8.1000    -1.4010 C.ar  1 <1>  -0.1500 
 24 O        3.7250    12.2790    -0.0630 O.3   1 <1>  -0.3630 
 25 C        6.3050     9.4520    -1.6860 C.ar  1 <1>  -0.1500 
 26 C        2.9730    13.3320     0.4990 C.3   1 <1>   0.0400 
 27 H        1.2990     1.0200     1.7370 H     1 <1>   0.1500 
 28 H       -1.0060     2.9850    -0.3240 H     1 <1>   0.0800 
 29 H       -0.1250     3.3900     1.1250 H     1 <1>   0.0800 
 30 H        3.7320    -0.5250     1.0620 H     1 <1>   0.0800 
 31 H        3.6030    -1.2150    -0.5400 H     1 <1>   0.0800 
 32 H        2.3980    -1.5920     0.6680 H     1 <1>   0.0800 
 33 H        0.4450     4.3120    -1.7080 H     1 <1>   0.0800 
 34 H       -1.1420     5.9280    -0.8490 H     1 <1>   0.0800 
 35 H        2.6240     4.2390    -1.0300 H     1 <1>   0.0800 
 36 H        2.2090     4.4250     0.6640 H     1 <1>   0.0800 
 37 H       -1.2380     5.5640     1.3080 H     1 <1>   0.4000 
 38 H        0.6770     7.7930    -0.3460 H     1 <1>   0.0800 
 39 H        0.7940     6.9360    -1.8720 H     1 <1>   0.0800 
 40 H        2.8700     6.5010    -1.1450 H     1 <1>   0.4500 
 41 H        1.8920     6.7040     1.6200 H     1 <1>   0.0800 
 42 H        3.5380     6.2800     1.2020 H     1 <1>   0.0800 
 43 H        1.3080     8.9460     1.7920 H     1 <1>   0.1500 
 44 H        4.9610     6.6620    -0.4100 H     1 <1>   0.1500 
 45 H        1.7240    11.2790     1.4160 H     1 <1>   0.1500 
 46 H        5.5980    11.4230    -1.3910 H     1 <1>   0.1500 
 47 H        6.8190     7.3850    -1.7950 H     1 <1>   0.1500 
 48 H        7.1380     9.7510    -2.3000 H     1 <1>   0.1500 
 49 H        3.3980    14.2610     0.1620 H     1 <1>   0.0800 
 50 H        3.0330    13.2710     1.5710 H     1 <1>   0.0800 
 51 H        1.9550    13.2540     0.1620 H     1 <1>   0.0800 
@<TRIPOS>BOND
  1   1   2  1   
  2   1   3  1   
  3   2   4  2   
  4   3   5  2   
  5   3   6  1   
  6   4   5  1   
  7   4   7  1   
  8   5  27  1   
  9   6   8  1   
 10   6  28  1   
 11   6  29  1   
 12   7  30  1   
 13   7  31  1   
 14   7  32  1   
 15   8   9  1   
 16   8  10  1   
 17   8  33  1   
 18   9  11  1   
 19   9  12  1   
 20   9  34  1   
 21  10  13  1   
 22  10  35  1   
 23  10  36  1   
 24  11  37  1   
 25  12  13  1   
 26  12  38  1   
 27  12  39  1   
 28  13  14  1   
 29  13  40  1   
 30  14  15  1   
 31  14  41  1   
 32  14  42  1   
 33  15  16  ar  
 34  15  17  ar  
 35  16  18  ar  
 36  16  19  ar  
 37  17  20  ar  
 38  17  43  1   
 39  18  21  ar  
 40  18  22  ar  
 41  19  23  ar  
 42  19  44  1   
 43  20  21  ar  
 44  20  45  1   
 45  21  24  1   
 46  22  25  ar  
 47  22  46  1   
 48  23  25  ar  
 49  23  47  1   
 50  24  26  1   
 51  25  48  1   
 52  26  49  1   
 53  26  50  1   
 54  26  51  1   
@<TRIPOS>SUBSTRUCTURE
  1 ****  13 GROUP 4 **** **** 0

# MOE 2024.06 (io_trps.svl 2023.06)
