@<TRIPOS>MOLECULE
NONAME
49 52 1 0 0 
SMALL
USER_CHARGES


@<TRIPOS>ATOM
  1 O        3.0720    -1.5350     2.3420 O.2   1 <1>  -0.5700 
  2 C        2.2110    -1.7810     1.5140 C.2   1 <1>   0.5440 
  3 N        1.3480    -0.7520     1.1820 N.am  1 <1>  -0.6600 
  4 C        2.1620    -3.1170     0.9140 C.ar  1 <1>   0.3960 
  5 C        1.4060     0.5790     1.8260 C.3   1 <1>   0.1400 
  6 C        0.3440    -0.7700     0.0950 C.3   1 <1>   0.1400 
  7 N        1.0020    -3.6510     0.4930 N.ar  1 <1>  -0.6200 
  8 C        3.3670    -3.8200     0.8000 C.ar  1 <1>   0.1600 
  9 C        0.2240     1.3480     1.2460 C.3   1 <1>  -0.1600 
 10 C       -0.0350     0.6930    -0.1080 C.3   1 <1>  -0.1600 
 11 C        1.1230    -4.8610    -0.0240 C.ar  1 <1>   0.4100 
 12 N        3.5110    -5.0330     0.2810 N.ar  1 <1>  -0.6200 
 13 N       -0.0370    -5.4580    -0.4870 N.pl3 1 <1>  -0.8380 
 14 C        2.3570    -5.5230    -0.1180 C.ar  1 <1>   0.1600 
 15 C       -1.3200    -5.2050     0.2200 C.3   1 <1>   0.2090 
 16 C       -0.1810    -5.6850    -1.9470 C.3   1 <1>   0.2090 
 17 C       -2.2630    -6.4010     0.0260 C.3   1 <1>  -0.0800 
 18 C       -1.1120    -6.8780    -2.1810 C.3   1 <1>  -0.1600 
 19 C       -2.4650    -6.6960    -1.4760 C.3   1 <1>  -0.1600 
 20 C       -3.5930    -6.1330     0.7530 C.3   1 <1>   0.0960 
 21 N       -4.5130    -7.2840     0.6560 N.pl3 1 <1>   0.0480 
 22 C       -4.4000    -8.4920     1.2520 C.2   1 <1>   0.0360 
 23 C       -5.6550    -7.3610    -0.0520 C.2   1 <1>  -0.3020 
 24 N       -5.3640    -9.3090     0.9770 N.2   1 <1>  -0.5650 
 25 C       -6.1570    -8.5970     0.1550 C.2   1 <1>   0.0770 
 26 H        2.3360     1.0540     1.5640 H     1 <1>   0.0800 
 27 H        1.3370     0.4870     2.8970 H     1 <1>   0.0800 
 28 H       -0.5120    -1.3380     0.4180 H     1 <1>   0.0800 
 29 H        0.7500    -1.2020    -0.8040 H     1 <1>   0.0800 
 30 H        4.2620    -3.3450     1.1610 H     1 <1>   0.1500 
 31 H        0.4350     2.3990     1.1620 H     1 <1>   0.0800 
 32 H       -0.6290     1.2110     1.8880 H     1 <1>   0.0800 
 33 H       -1.0560     0.8010    -0.4290 H     1 <1>   0.0800 
 34 H        0.6140     1.1210    -0.8510 H     1 <1>   0.0800 
 35 H        2.3530    -6.5090    -0.5440 H     1 <1>   0.1500 
 36 H       -1.7650    -4.3050    -0.1710 H     1 <1>   0.0800 
 37 H       -1.1260    -5.0580     1.2700 H     1 <1>   0.0800 
 38 H        0.7800    -5.8770    -2.3920 H     1 <1>   0.0800 
 39 H       -0.5950    -4.8010    -2.4020 H     1 <1>   0.0800 
 40 H       -1.7940    -7.2520     0.4890 H     1 <1>   0.0800 
 41 H       -0.6300    -7.7680    -1.8140 H     1 <1>   0.0800 
 42 H       -1.2680    -7.0040    -3.2370 H     1 <1>   0.0800 
 43 H       -2.9990    -5.8830    -1.9380 H     1 <1>   0.0800 
 44 H       -3.0480    -7.5930    -1.6060 H     1 <1>   0.0800 
 45 H       -4.0770    -5.2710     0.3300 H     1 <1>   0.0800 
 46 H       -3.4080    -5.9390     1.7950 H     1 <1>   0.0800 
 47 H       -3.5720    -8.7360     1.8950 H     1 <1>   0.1500 
 48 H       -6.0420    -6.5570    -0.6510 H     1 <1>   0.1500 
 49 H       -7.0610    -9.0200    -0.2510 H     1 <1>   0.1500 
@<TRIPOS>BOND
  1   1   2  2   
  2   2   3  am  
  3   2   4  1   
  4   3   5  1   
  5   3   6  1   
  6   4   7  ar  
  7   4   8  ar  
  8   5   9  1   
  9   5  26  1   
 10   5  27  1   
 11   6  10  1   
 12   6  28  1   
 13   6  29  1   
 14   7  11  ar  
 15   8  12  ar  
 16   8  30  1   
 17   9  10  1   
 18   9  31  1   
 19   9  32  1   
 20  10  33  1   
 21  10  34  1   
 22  11  13  1   
 23  11  14  ar  
 24  12  14  ar  
 25  13  15  1   
 26  13  16  1   
 27  14  35  1   
 28  15  17  1   
 29  15  36  1   
 30  15  37  1   
 31  16  18  1   
 32  16  38  1   
 33  16  39  1   
 34  17  19  1   
 35  17  20  1   
 36  17  40  1   
 37  18  19  1   
 38  18  41  1   
 39  18  42  1   
 40  19  43  1   
 41  19  44  1   
 42  20  21  1   
 43  20  45  1   
 44  20  46  1   
 45  21  22  1   
 46  21  23  1   
 47  22  24  2   
 48  22  47  1   
 49  23  25  2   
 50  23  48  1   
 51  24  25  1   
 52  25  49  1   
@<TRIPOS>SUBSTRUCTURE
  1 ****  15 GROUP 4 **** **** 0

# MOE 2024.06 (io_trps.svl 2023.06)
