@<TRIPOS>MOLECULE
NONAME
42 43 1 0 0 
SMALL
USER_CHARGES


@<TRIPOS>ATOM
  1 O       -3.0620     0.9300     2.7030 O.2   1 <1>  -0.5700 
  2 C       -3.2310     1.5270     1.6610 C.2   1 <1>   0.5690 
  3 N       -4.0610     1.0020     0.6980 N.am  1 <1>  -0.6600 
  4 C       -2.4830     2.8570     1.4460 C.3   1 <1>   0.1250 
  5 C       -4.8660    -0.2220     0.9990 C.3   1 <1>   0.3200 
  6 C       -4.1490     1.4750    -0.7210 C.3   1 <1>   0.1400 
  7 C       -1.2940     2.6750     0.5050 C.ar  1 <1>  -0.1440 
  8 C       -2.0010     3.5150     2.7520 C.3   1 <1>  -0.2400 
  9 C       -4.0360    -1.4750     0.7870 C.2   1 <1>   0.0060 
 10 C       -3.1910     0.7050    -1.6400 C.3   1 <1>   0.1200 
 11 C       -0.3550     1.6810     0.7390 C.ar  1 <1>  -0.1500 
 12 C       -1.1420     3.4940    -0.6040 C.ar  1 <1>  -0.1500 
 13 N       -4.2970    -2.4100    -0.0720 N.2   1 <1>  -0.5650 
 14 N       -2.9200    -1.7000     1.5100 N.pl3 1 <1>   0.0330 
 15 O       -3.4610     1.0530    -2.9570 O.3   1 <1>  -0.6800 
 16 C        0.7080     1.4990    -0.1270 C.ar  1 <1>  -0.1500 
 17 C       -0.0790     3.3110    -1.4710 C.ar  1 <1>  -0.1500 
 18 C       -3.2930    -3.2920     0.1030 C.2   1 <1>   0.0770 
 19 C       -2.4410    -2.8750     1.0660 C.2   1 <1>  -0.3020 
 20 C        0.8500     2.3110    -1.2400 C.ar  1 <1>  -0.1430 
 21 C        2.0110     2.1120    -2.1960 C.3   1 <1>  -0.0970 
 22 H       -3.1800     3.5420     1.0020 H     1 <1>   0.0800 
 23 H       -5.7360    -0.2590     0.3670 H     1 <1>   0.0800 
 24 H       -5.2050    -0.1920     2.0200 H     1 <1>   0.0800 
 25 H       -3.9190     2.5220    -0.7850 H     1 <1>   0.0800 
 26 H       -5.1580     1.3400    -1.0710 H     1 <1>   0.0800 
 27 H       -1.2900     2.8810     3.2530 H     1 <1>   0.0800 
 28 H       -2.8330     3.6840     3.4120 H     1 <1>   0.0800 
 29 H       -1.5280     4.4580     2.5390 H     1 <1>   0.0800 
 30 H       -3.3140    -0.3590    -1.5460 H     1 <1>   0.0800 
 31 H       -2.1690     0.9680    -1.4320 H     1 <1>   0.0800 
 32 H       -0.4470     1.0400     1.5990 H     1 <1>   0.1500 
 33 H       -1.8500     4.2780    -0.8070 H     1 <1>   0.1500 
 34 H       -2.5500    -1.0600     2.2270 H     1 <1>   0.2700 
 35 H       -4.1740     0.4890    -3.3170 H     1 <1>   0.4000 
 36 H        1.4250     0.7220     0.0700 H     1 <1>   0.1500 
 37 H        0.0210     3.9510    -2.3300 H     1 <1>   0.1500 
 38 H       -3.2350    -4.1960    -0.4820 H     1 <1>   0.1500 
 39 H       -1.5480    -3.3350     1.4470 H     1 <1>   0.1500 
 40 H        2.3680     1.0990    -2.1520 H     1 <1>   0.0800 
 41 H        2.8140     2.7770    -1.9350 H     1 <1>   0.0800 
 42 H        1.7020     2.3180    -3.2050 H     1 <1>   0.0800 
@<TRIPOS>BOND
  1   1   2  2   
  2   2   3  am  
  3   2   4  1   
  4   3   5  1   
  5   3   6  1   
  6   4   7  1   
  7   4   8  1   
  8   4  22  1   
  9   5   9  1   
 10   5  23  1   
 11   5  24  1   
 12   6  10  1   
 13   6  25  1   
 14   6  26  1   
 15   7  11  ar  
 16   7  12  ar  
 17   8  27  1   
 18   8  28  1   
 19   8  29  1   
 20   9  13  2   
 21   9  14  1   
 22  10  15  1   
 23  10  30  1   
 24  10  31  1   
 25  11  16  ar  
 26  11  32  1   
 27  12  17  ar  
 28  12  33  1   
 29  13  18  1   
 30  14  19  1   
 31  14  34  1   
 32  15  35  1   
 33  16  20  ar  
 34  16  36  1   
 35  17  20  ar  
 36  17  37  1   
 37  18  19  2   
 38  18  38  1   
 39  19  39  1   
 40  20  21  1   
 41  21  40  1   
 42  21  41  1   
 43  21  42  1   
@<TRIPOS>SUBSTRUCTURE
  1 ****   2 GROUP 4 **** **** 0

# MOE 2024.06 (io_trps.svl 2023.06)
