@<TRIPOS>MOLECULE
NONAME
55 58 1 0 0 
SMALL
USER_CHARGES


@<TRIPOS>ATOM
  1 O       -2.6720     0.1940     2.2580 O.2   1 <1>  -0.5700 
  2 C       -2.6390     0.7380     1.1800 C.2   1 <1>   0.5690 
  3 N       -2.6410     0.0170     0.0120 N.am  1 <1>  -0.6600 
  4 C       -2.6170     2.2540     1.1950 C.3   1 <1>   0.1570 
  5 C       -2.6590    -1.4820     0.0300 C.3   1 <1>   0.3640 
  6 C       -2.6340     0.6400    -1.3510 C.3   1 <1>   0.1400 
  7 N       -1.4140     2.7800     0.5380 N.pl3 1 <1>   0.3140 
  8 C       -1.2300    -2.0130    -0.1840 C.ar  1 <1>  -0.1440 
  9 C       -3.7340    -2.0170    -0.9620 C.3   1 <1>   0.2000 
 10 C       -2.8340    -0.3730    -2.4890 C.3   1 <1>   0.1200 
 11 N       -1.5120     3.6490    -0.4970 N.2   1 <1>  -0.7070 
 12 C       -0.1120     2.4470     0.7940 C.ar  1 <1>  -0.1520 
 13 C       -0.2910    -1.7550     0.8080 C.ar  1 <1>  -0.1500 
 14 C       -0.8240    -2.7480    -1.2960 C.ar  1 <1>  -0.1500 
 15 O       -3.8280    -1.3130    -2.1870 O.3   1 <1>  -0.5600 
 16 C       -5.1340    -1.9700    -0.3350 C.3   1 <1>   0.1200 
 17 C       -0.2950     3.8620    -0.8750 C.2   1 <1>   0.1390 
 18 C        0.6460     3.1400    -0.1250 C.ar  1 <1>   0.0000 
 19 C        0.4950     1.5970     1.7280 C.ar  1 <1>  -0.1500 
 20 C        1.0170    -2.1900     0.6990 C.ar  1 <1>   0.0830 
 21 C        0.4880    -3.1740    -1.4240 C.ar  1 <1>  -0.1500 
 22 O       -5.2440    -2.9100     0.6850 O.3   1 <1>  -0.6800 
 23 C        2.0400     2.9960    -0.1370 C.ar  1 <1>  -0.1500 
 24 C        1.8610     1.4530     1.7050 C.ar  1 <1>  -0.1500 
 25 O        1.8550    -1.9270     1.7320 O.3   1 <1>  -0.3620 
 26 C        1.4210    -2.8820    -0.4460 C.ar  1 <1>   0.0830 
 27 C        2.6360     2.1550     0.7730 C.ar  1 <1>  -0.1500 
 28 C        2.2790    -3.0430     2.4800 C.3   1 <1>   0.0400 
 29 O        2.6980    -3.2860    -0.6560 O.3   1 <1>  -0.3630 
 30 C        3.6660    -2.2650    -0.7660 C.3   1 <1>   0.0400 
 31 H       -2.6270     2.6030     2.2100 H     1 <1>   0.0800 
 32 H       -3.4850     2.6310     0.6920 H     1 <1>   0.0800 
 33 H       -2.9480    -1.8190     1.0110 H     1 <1>   0.0800 
 34 H       -3.4110     1.3820    -1.4090 H     1 <1>   0.0800 
 35 H       -1.6910     1.1330    -1.5120 H     1 <1>   0.0800 
 36 H       -3.5230    -3.0420    -1.2050 H     1 <1>   0.0800 
 37 H       -1.9160    -0.8870    -2.7000 H     1 <1>   0.0800 
 38 H       -3.1330     0.1420    -3.3850 H     1 <1>   0.0800 
 39 H       -0.5730    -1.2120     1.6910 H     1 <1>   0.1500 
 40 H       -1.5110    -2.9970    -2.0840 H     1 <1>   0.1500 
 41 H       -5.8870    -2.1900    -1.0720 H     1 <1>   0.0800 
 42 H       -5.3190    -0.9980     0.0900 H     1 <1>   0.0800 
 43 H       -0.0240     4.5200    -1.6830 H     1 <1>   0.1500 
 44 H       -0.1000     1.0600     2.4460 H     1 <1>   0.1500 
 45 H        0.7970    -3.7310    -2.2900 H     1 <1>   0.1500 
 46 H       -5.3250    -3.8140     0.3210 H     1 <1>   0.4000 
 47 H        2.6210     3.5430    -0.8570 H     1 <1>   0.1500 
 48 H        2.3470     0.7920     2.4020 H     1 <1>   0.1500 
 49 H        3.7040     2.0240     0.7800 H     1 <1>   0.1500 
 50 H        2.8720    -2.6910     3.3040 H     1 <1>   0.0800 
 51 H        2.8680    -3.6890     1.8530 H     1 <1>   0.0800 
 52 H        1.4120    -3.5650     2.8440 H     1 <1>   0.0800 
 53 H        4.5900    -2.7110    -1.0860 H     1 <1>   0.0800 
 54 H        3.7990    -1.7950     0.1910 H     1 <1>   0.0800 
 55 H        3.3310    -1.5450    -1.4920 H     1 <1>   0.0800 
@<TRIPOS>BOND
  1   1   2  2   
  2   2   3  am  
  3   2   4  1   
  4   3   5  1   
  5   3   6  1   
  6   4   7  1   
  7   4  31  1   
  8   4  32  1   
  9   5   8  1   
 10   5   9  1   
 11   5  33  1   
 12   6  10  1   
 13   6  34  1   
 14   6  35  1   
 15   7  11  1   
 16   7  12  1   
 17   8  13  ar  
 18   8  14  ar  
 19   9  15  1   
 20   9  16  1   
 21   9  36  1   
 22  10  15  1   
 23  10  37  1   
 24  10  38  1   
 25  11  17  2   
 26  12  18  ar  
 27  12  19  ar  
 28  13  20  ar  
 29  13  39  1   
 30  14  21  ar  
 31  14  40  1   
 32  16  22  1   
 33  16  41  1   
 34  16  42  1   
 35  17  18  1   
 36  17  43  1   
 37  18  23  ar  
 38  19  24  ar  
 39  19  44  1   
 40  20  25  1   
 41  20  26  ar  
 42  21  26  ar  
 43  21  45  1   
 44  22  46  1   
 45  23  27  ar  
 46  23  47  1   
 47  24  27  ar  
 48  24  48  1   
 49  25  28  1   
 50  26  29  1   
 51  27  49  1   
 52  28  50  1   
 53  28  51  1   
 54  28  52  1   
 55  29  30  1   
 56  30  53  1   
 57  30  54  1   
 58  30  55  1   
@<TRIPOS>SUBSTRUCTURE
  1 ****  13 GROUP 4 **** **** 0

# MOE 2024.06 (io_trps.svl 2023.06)
