@<TRIPOS>MOLECULE
NONAME
52 54 1 0 0 
SMALL
USER_CHARGES


@<TRIPOS>ATOM
  1 S       -0.1540    -0.2900    -0.8310 S.o2  1 <1>   1.5760 
  2 O       -0.1100     0.7190    -1.8660 O.2   1 <1>  -0.6500 
  3 O       -0.7540    -1.5820    -1.0880 O.2   1 <1>  -0.6500 
  4 N       -0.8140     0.3660     0.5800 N.am  1 <1>  -0.8490 
  5 N        1.4230    -0.5610    -0.2930 N.am  1 <1>  -0.8490 
  6 C       -2.2000     0.0000     0.9100 C.3   1 <1>   0.1960 
  7 C       -0.4660     1.7590     0.8450 C.3   1 <1>   0.1960 
  8 C        2.3130    -0.8400    -1.4180 C.3   1 <1>   0.1960 
  9 C        1.4790    -1.6350     0.7020 C.3   1 <1>   0.1960 
 10 C       -3.2920     0.9470     0.3410 C.3   1 <1>   0.0000 
 11 C       -1.4750     2.7290     0.2170 C.3   1 <1>  -0.1600 
 12 C        3.7650    -0.9490    -0.9360 C.3   1 <1>  -0.1600 
 13 C        2.9000    -1.7650     1.2620 C.3   1 <1>  -0.1600 
 14 C       -4.6440     0.5250     0.9580 C.3   1 <1>   0.2000 
 15 C       -2.9100     2.4120     0.6590 C.3   1 <1>  -0.1600 
 16 C       -3.5430     0.7170    -1.1640 C.3   1 <1>  -0.1600 
 17 C        3.9520    -2.0080     0.1650 C.3   1 <1>   0.0000 
 18 O       -5.5860     1.5270     0.7990 O.3   1 <1>  -0.6800 
 19 C       -5.1120    -0.6680     0.1240 C.3   1 <1>  -0.1600 
 20 C       -4.4720    -0.4990    -1.2620 C.3   1 <1>  -0.1600 
 21 C        3.8180    -3.4280    -0.4160 C.3   1 <1>  -0.2400 
 22 C        5.3570    -1.8710     0.7690 C.3   1 <1>  -0.2400 
 23 H       -2.3910    -1.0160     0.6110 H     1 <1>   0.0800 
 24 H       -2.2780     0.0220     1.9830 H     1 <1>   0.0800 
 25 H       -0.4560     1.9100     1.9110 H     1 <1>   0.0800 
 26 H        0.5260     1.9670     0.4780 H     1 <1>   0.0800 
 27 H        2.0080    -1.7470    -1.9130 H     1 <1>   0.0800 
 28 H        2.2520    -0.0360    -2.1340 H     1 <1>   0.0800 
 29 H        0.8090    -1.4110     1.5140 H     1 <1>   0.0800 
 30 H        1.1640    -2.5660     0.2620 H     1 <1>   0.0800 
 31 H       -1.2230     3.7310     0.5140 H     1 <1>   0.0800 
 32 H       -1.4000     2.6870    -0.8550 H     1 <1>   0.0800 
 33 H        4.3990    -1.1720    -1.7740 H     1 <1>   0.0800 
 34 H        4.0560     0.0170    -0.5620 H     1 <1>   0.0800 
 35 H        3.1270    -0.8540     1.7870 H     1 <1>   0.0800 
 36 H        2.9240    -2.5650     1.9800 H     1 <1>   0.0800 
 37 H       -4.5790     0.2980     2.0090 H     1 <1>   0.0800 
 38 H       -3.5870     3.0960     0.1790 H     1 <1>   0.0800 
 39 H       -2.9900     2.5710     1.7200 H     1 <1>   0.0800 
 40 H       -4.0510     1.5710    -1.5770 H     1 <1>   0.0800 
 41 H       -2.6470     0.5720    -1.7340 H     1 <1>   0.0800 
 42 H       -5.6860     1.7140    -0.1530 H     1 <1>   0.4000 
 43 H       -4.7420    -1.5740     0.5690 H     1 <1>   0.0800 
 44 H       -6.1860    -0.7310     0.0760 H     1 <1>   0.0800 
 45 H       -3.9020    -1.3790    -1.5110 H     1 <1>   0.0800 
 46 H       -5.2190    -0.3450    -2.0220 H     1 <1>   0.0800 
 47 H        4.5640    -3.5940    -1.1730 H     1 <1>   0.0800 
 48 H        2.8530    -3.5890    -0.8600 H     1 <1>   0.0800 
 49 H        3.9560    -4.1630     0.3570 H     1 <1>   0.0800 
 50 H        6.1090    -2.0250     0.0150 H     1 <1>   0.0800 
 51 H        5.5050    -2.5960     1.5500 H     1 <1>   0.0800 
 52 H        5.4970    -0.8910     1.1890 H     1 <1>   0.0800 
@<TRIPOS>BOND
  1   1   2  2   
  2   1   3  2   
  3   1   4  am  
  4   1   5  am  
  5   4   6  1   
  6   4   7  1   
  7   5   8  1   
  8   5   9  1   
  9   6  10  1   
 10   6  23  1   
 11   6  24  1   
 12   7  11  1   
 13   7  25  1   
 14   7  26  1   
 15   8  12  1   
 16   8  27  1   
 17   8  28  1   
 18   9  13  1   
 19   9  29  1   
 20   9  30  1   
 21  10  14  1   
 22  10  15  1   
 23  10  16  1   
 24  11  15  1   
 25  11  31  1   
 26  11  32  1   
 27  12  17  1   
 28  12  33  1   
 29  12  34  1   
 30  13  17  1   
 31  13  35  1   
 32  13  36  1   
 33  14  18  1   
 34  14  19  1   
 35  14  37  1   
 36  15  38  1   
 37  15  39  1   
 38  16  20  1   
 39  16  40  1   
 40  16  41  1   
 41  17  21  1   
 42  17  22  1   
 43  18  42  1   
 44  19  20  1   
 45  19  43  1   
 46  19  44  1   
 47  20  45  1   
 48  20  46  1   
 49  21  47  1   
 50  21  48  1   
 51  21  49  1   
 52  22  50  1   
 53  22  51  1   
 54  22  52  1   
@<TRIPOS>SUBSTRUCTURE
  1 ****   1 GROUP 4 **** **** 0

# MOE 2024.06 (io_trps.svl 2023.06)
