@<TRIPOS>MOLECULE
NONAME
39 40 1 0 0 
SMALL
USER_CHARGES


@<TRIPOS>ATOM
  1 O       -0.3160    -0.2420    -0.4790 O.2   1 <1>  -0.5700 
  2 C       -0.2500    -1.4580    -0.4580 C.2   1 <1>   0.7800 
  3 O        0.9090    -2.0700    -0.2050 O.3   1 <1>  -0.4300 
  4 N       -1.3440    -2.2500    -0.6930 N.am  1 <1>  -0.6600 
  5 C        2.1540    -1.4790     0.0910 C.3   1 <1>   0.2800 
  6 C       -1.2870    -3.7550    -0.6550 C.3   1 <1>   0.1400 
  7 C       -2.6830    -1.6620    -0.9910 C.3   1 <1>   0.1400 
  8 C        2.6400    -0.6410    -1.0970 C.3   1 <1>  -0.2400 
  9 C        3.1090    -2.6540     0.3050 C.3   1 <1>  -0.2400 
 10 C        2.0580    -0.6630     1.3860 C.3   1 <1>  -0.2400 
 11 C       -2.3840    -4.3680     0.2330 C.3   1 <1>  -0.1860 
 12 C       -3.6660    -2.2340     0.0230 C.3   1 <1>  -0.0800 
 13 C       -2.3880    -5.8510    -0.0340 C.2   1 <1>   0.9060 
 14 C       -3.7280    -3.7370    -0.1160 C.3   1 <1>   0.2000 
 15 C       -5.1370    -1.8810    -0.0700 C.3   1 <1>  -0.1600 
 16 O       -1.9500    -6.6130     0.8330 O.co2 1 <1>  -0.9000 
 17 O       -2.7230    -6.2500    -1.1570 O.co2 1 <1>  -0.9000 
 18 O       -4.7880    -4.0680     0.7200 O.3   1 <1>  -0.5600 
 19 C       -5.7940    -3.1090     0.5740 C.3   1 <1>   0.1200 
 20 H       -0.3310    -4.1010    -0.3030 H     1 <1>   0.0800 
 21 H       -1.4070    -4.1190    -1.6620 H     1 <1>   0.0800 
 22 H       -2.9740    -1.9290    -1.9920 H     1 <1>   0.0800 
 23 H       -2.6590    -0.5890    -0.9110 H     1 <1>   0.0800 
 24 H        2.6210    -1.2280    -1.9980 H     1 <1>   0.0800 
 25 H        3.6470    -0.3100    -0.9250 H     1 <1>   0.0800 
 26 H        2.0280     0.2310    -1.2310 H     1 <1>   0.0800 
 27 H        3.1650    -3.2540    -0.5860 H     1 <1>   0.0800 
 28 H        2.7650    -3.2690     1.1170 H     1 <1>   0.0800 
 29 H        4.0960    -2.2990     0.5400 H     1 <1>   0.0800 
 30 H        1.4470     0.2100     1.2490 H     1 <1>   0.0800 
 31 H        3.0360    -0.3330     1.6850 H     1 <1>   0.0800 
 32 H        1.6430    -1.2650     2.1740 H     1 <1>   0.0800 
 33 H       -2.1500    -4.2000     1.2660 H     1 <1>   0.0800 
 34 H       -3.3140    -1.9910     1.0120 H     1 <1>   0.0800 
 35 H       -4.0070    -4.0180    -1.1190 H     1 <1>   0.0800 
 36 H       -5.4520    -1.7990    -1.0960 H     1 <1>   0.0800 
 37 H       -5.3740    -0.9730     0.4550 H     1 <1>   0.0800 
 38 H       -6.5690    -3.5210    -0.0500 H     1 <1>   0.0800 
 39 H       -6.1830    -2.8900     1.5530 H     1 <1>   0.0800 
@<TRIPOS>BOND
  1   1   2  2   
  2   2   3  1   
  3   2   4  am  
  4   3   5  1   
  5   4   6  1   
  6   4   7  1   
  7   5   8  1   
  8   5   9  1   
  9   5  10  1   
 10   6  11  1   
 11   6  20  1   
 12   6  21  1   
 13   7  12  1   
 14   7  22  1   
 15   7  23  1   
 16   8  24  1   
 17   8  25  1   
 18   8  26  1   
 19   9  27  1   
 20   9  28  1   
 21   9  29  1   
 22  10  30  1   
 23  10  31  1   
 24  10  32  1   
 25  11  13  1   
 26  11  14  1   
 27  11  33  1   
 28  12  14  1   
 29  12  15  1   
 30  12  34  1   
 31  13  16  ar  
 32  13  17  ar  
 33  14  18  1   
 34  14  35  1   
 35  15  19  1   
 36  15  36  1   
 37  15  37  1   
 38  18  19  1   
 39  19  38  1   
 40  19  39  1   
@<TRIPOS>SUBSTRUCTURE
  1 ****   4 GROUP 4 **** **** 0

# MOE 2024.06 (io_trps.svl 2023.06)
