@<TRIPOS>MOLECULE
NONAME
56 59 1 0 0 
SMALL
USER_CHARGES


@<TRIPOS>ATOM
  1 F       -0.1200     1.6270     0.3440 F     1 <1>  -0.1900 
  2 C        1.1320     1.9930     0.3530 C.ar  1 <1>   0.1900 
  3 C        1.8840     1.8250    -0.7930 C.ar  1 <1>  -0.1500 
  4 C        1.6610     2.5350     1.5080 C.ar  1 <1>  -0.1500 
  5 C        3.2110     2.2210    -0.7820 C.ar  1 <1>  -0.1500 
  6 C        2.9890     2.9270     1.5110 C.ar  1 <1>  -0.1500 
  7 C        3.7660     2.7780     0.3660 C.ar  1 <1>  -0.1430 
  8 C        5.2160     3.2270     0.3680 C.3   1 <1>   0.4870 
  9 N        5.2560     4.7150     0.3220 N.4   1 <1>  -0.9590 
 10 C        4.6640     5.2480    -0.9440 C.3   1 <1>   0.3430 
 11 C        6.6360     5.2280     0.5650 C.3   1 <1>   0.3430 
 12 C        4.6190     6.7710    -0.8930 C.3   1 <1>  -0.1600 
 13 C        6.6090     6.7470     0.6400 C.3   1 <1>  -0.1600 
 14 C        6.0120     7.3330    -0.6340 C.3   1 <1>   0.2890 
 15 N        5.9080     8.7810    -0.4700 N.pl3 1 <1>  -0.8690 
 16 C        6.8520     9.6670    -0.9400 C.ar  1 <1>   0.4100 
 17 N        8.0740     9.1680    -1.1220 N.ar  1 <1>  -0.6200 
 18 C        6.5000    11.0060    -1.1960 C.ar  1 <1>   0.0860 
 19 C        8.9830    10.0010    -1.5910 C.ar  1 <1>   0.1600 
 20 C        5.1580    11.4810    -0.9460 C.2   1 <1>   0.5440 
 21 C        7.4850    11.8450    -1.7020 C.ar  1 <1>  -0.1500 
 22 C        8.7450    11.3280    -1.8970 C.ar  1 <1>  -0.1500 
 23 O        4.1960    10.8330    -1.3290 O.2   1 <1>  -0.5700 
 24 N        4.9220    12.6540    -0.2640 N.am  1 <1>  -0.6600 
 25 C        3.5530    13.1720    -0.0370 C.3   1 <1>   0.1400 
 26 C        5.8850    13.2970     0.6600 C.3   1 <1>   0.1400 
 27 C        3.7230    14.3270     0.9430 C.3   1 <1>  -0.1600 
 28 C        5.0170    14.0120     1.6880 C.3   1 <1>  -0.1600 
 29 H        1.4330     1.3920    -1.6690 H     1 <1>   0.1500 
 30 H        1.0400     2.6400     2.3810 H     1 <1>   0.1500 
 31 H        3.7990     2.0850    -1.6750 H     1 <1>   0.1500 
 32 H        3.4010     3.3420     2.4160 H     1 <1>   0.1500 
 33 H        5.7320     2.8110    -0.4820 H     1 <1>   0.0800 
 34 H        5.6940     2.8700     1.2650 H     1 <1>   0.0800 
 35 H        4.6550     5.0460     1.0870 H     1 <1>   0.4500 
 36 H        3.6620     4.8690    -1.0740 H     1 <1>   0.0800 
 37 H        5.2570     4.9340    -1.7880 H     1 <1>   0.0800 
 38 H        7.2900     4.9210    -0.2370 H     1 <1>   0.0800 
 39 H        7.0240     4.8320     1.4900 H     1 <1>   0.0800 
 40 H        3.9380     7.0840    -0.1210 H     1 <1>   0.0800 
 41 H        4.2550     7.1440    -1.8340 H     1 <1>   0.0800 
 42 H        7.6160     7.1100     0.7540 H     1 <1>   0.0800 
 43 H        6.0430     7.0630     1.4980 H     1 <1>   0.0800 
 44 H        6.6490     7.1070    -1.4760 H     1 <1>   0.0800 
 45 H        4.9480     9.1520    -0.5680 H     1 <1>   0.4000 
 46 H        9.9740     9.6080    -1.7440 H     1 <1>   0.1500 
 47 H        7.2600    12.8700    -1.9370 H     1 <1>   0.1500 
 48 H        9.5380    11.9430    -2.2840 H     1 <1>   0.1500 
 49 H        2.9490    12.3930     0.3980 H     1 <1>   0.0800 
 50 H        3.1100    13.4950    -0.9640 H     1 <1>   0.0800 
 51 H        6.4750    14.0120     0.1130 H     1 <1>   0.0800 
 52 H        6.5280    12.5700     1.1260 H     1 <1>   0.0800 
 53 H        2.8790    14.4160     1.6040 H     1 <1>   0.0800 
 54 H        3.8320    15.2420     0.3890 H     1 <1>   0.0800 
 55 H        5.4960    14.8940     2.0730 H     1 <1>   0.0800 
 56 H        4.8140    13.3380     2.5030 H     1 <1>   0.0800 
@<TRIPOS>BOND
  1   1   2  1   
  2   2   3  ar  
  3   2   4  ar  
  4   3   5  ar  
  5   3  29  1   
  6   4   6  ar  
  7   4  30  1   
  8   5   7  ar  
  9   5  31  1   
 10   6   7  ar  
 11   6  32  1   
 12   7   8  1   
 13   8   9  1   
 14   8  33  1   
 15   8  34  1   
 16   9  10  1   
 17   9  11  1   
 18   9  35  1   
 19  10  12  1   
 20  10  36  1   
 21  10  37  1   
 22  11  13  1   
 23  11  38  1   
 24  11  39  1   
 25  12  14  1   
 26  12  40  1   
 27  12  41  1   
 28  13  14  1   
 29  13  42  1   
 30  13  43  1   
 31  14  15  1   
 32  14  44  1   
 33  15  16  1   
 34  15  45  1   
 35  16  17  ar  
 36  16  18  ar  
 37  17  19  ar  
 38  18  20  1   
 39  18  21  ar  
 40  19  22  ar  
 41  19  46  1   
 42  20  23  2   
 43  20  24  am  
 44  21  22  ar  
 45  21  47  1   
 46  22  48  1   
 47  24  25  1   
 48  24  26  1   
 49  25  27  1   
 50  25  49  1   
 51  25  50  1   
 52  26  28  1   
 53  26  51  1   
 54  26  52  1   
 55  27  28  1   
 56  27  53  1   
 57  27  54  1   
 58  28  55  1   
 59  28  56  1   
@<TRIPOS>SUBSTRUCTURE
  1 ****  14 GROUP 4 **** **** 0

# MOE 2024.06 (io_trps.svl 2023.06)
