@<TRIPOS>MOLECULE
NONAME
49 51 1 0 0 
SMALL
USER_CHARGES


@<TRIPOS>ATOM
  1 O        0.3610    -0.0070    -1.2160 O.3   1 <1>  -0.5600 
  2 C        1.6300    -0.6160    -1.2680 C.3   1 <1>   0.2000 
  3 C        0.3470     1.3770    -1.3980 C.3   1 <1>   0.1200 
  4 C        2.6010     0.0280    -0.2420 C.3   1 <1>   0.5660 
  5 C        1.4620    -2.1170    -0.9770 C.3   1 <1>   0.1200 
  6 C        1.1770     2.0600    -0.2970 C.3   1 <1>   0.3430 
  7 N        2.5830     1.5290    -0.2570 N.4   1 <1>  -0.9590 
  8 C        4.0370    -0.4180    -0.4840 C.ar  1 <1>  -0.1440 
  9 O        1.2360    -2.3200     0.3830 O.3   1 <1>  -0.6800 
 10 C        3.3810     2.0790     0.8780 C.3   1 <1>   0.4870 
 11 C        4.6690    -1.1990     0.4730 C.ar  1 <1>  -0.1500 
 12 C        4.7310    -0.0570    -1.6340 C.ar  1 <1>  -0.1500 
 13 C        3.5310     3.5670     0.6880 C.ar  1 <1>  -0.1440 
 14 C        5.9800    -1.6020     0.2930 C.ar  1 <1>  -0.1500 
 15 C        6.0430    -0.4600    -1.8110 C.ar  1 <1>  -0.1500 
 16 C        2.7510     4.4670     1.3760 C.ar  1 <1>   0.1600 
 17 C        4.4490     4.0890    -0.1920 C.ar  1 <1>   0.1600 
 18 C        6.6680    -1.2300    -0.8480 C.ar  1 <1>  -0.1500 
 19 N        2.8390     5.7550     1.1790 N.ar  1 <1>  -0.6200 
 20 N        4.5550     5.3730    -0.4050 N.ar  1 <1>  -0.6200 
 21 C        3.7400     6.1690     0.2880 C.ar  1 <1>   0.7200 
 22 N        3.8350     7.5270     0.0630 N.pl3 1 <1>  -0.8380 
 23 C        4.9190     8.1070    -0.7820 C.3   1 <1>   0.1290 
 24 C        3.0940     8.5150     0.9000 C.3   1 <1>   0.1290 
 25 H        2.0040    -0.4970    -2.2690 H     1 <1>   0.0800 
 26 H        0.7260     1.6070    -2.3790 H     1 <1>   0.0800 
 27 H       -0.6780     1.7020    -1.3430 H     1 <1>   0.0800 
 28 H        2.2990    -0.3100     0.7360 H     1 <1>   0.0800 
 29 H        2.3530    -2.6580    -1.2480 H     1 <1>   0.0800 
 30 H        0.6270    -2.5110    -1.5330 H     1 <1>   0.0800 
 31 H        0.6900     1.8860     0.6480 H     1 <1>   0.0800 
 32 H        1.1890     3.1240    -0.4740 H     1 <1>   0.0800 
 33 H        3.0550     1.8080    -1.1210 H     1 <1>   0.4500 
 34 H        0.8900    -3.2250     0.5420 H     1 <1>   0.4000 
 35 H        2.8900     1.8700     1.8150 H     1 <1>   0.0800 
 36 H        4.3600     1.6260     0.9000 H     1 <1>   0.0800 
 37 H        4.1500    -1.5100     1.3660 H     1 <1>   0.1500 
 38 H        4.2740     0.5320    -2.4100 H     1 <1>   0.1500 
 39 H        6.4680    -2.2090     1.0370 H     1 <1>   0.1500 
 40 H        6.5830    -0.1820    -2.7010 H     1 <1>   0.1500 
 41 H        2.0300     4.1330     2.1040 H     1 <1>   0.1500 
 42 H        5.1150     3.4450    -0.7440 H     1 <1>   0.1500 
 43 H        7.6890    -1.5460    -0.9870 H     1 <1>   0.1500 
 44 H        4.6480     9.0940    -1.1140 H     1 <1>   0.0800 
 45 H        5.0870     7.4970    -1.6520 H     1 <1>   0.0800 
 46 H        5.8300     8.1630    -0.2120 H     1 <1>   0.0800 
 47 H        3.0040     9.4530     0.3810 H     1 <1>   0.0800 
 48 H        3.6210     8.6730     1.8250 H     1 <1>   0.0800 
 49 H        2.1020     8.1590     1.1190 H     1 <1>   0.0800 
@<TRIPOS>BOND
  1   1   2  1   
  2   1   3  1   
  3   2   4  1   
  4   2   5  1   
  5   2  25  1   
  6   3   6  1   
  7   3  26  1   
  8   3  27  1   
  9   4   7  1   
 10   4   8  1   
 11   4  28  1   
 12   5   9  1   
 13   5  29  1   
 14   5  30  1   
 15   6   7  1   
 16   6  31  1   
 17   6  32  1   
 18   7  10  1   
 19   7  33  1   
 20   8  11  ar  
 21   8  12  ar  
 22   9  34  1   
 23  10  13  1   
 24  10  35  1   
 25  10  36  1   
 26  11  14  ar  
 27  11  37  1   
 28  12  15  ar  
 29  12  38  1   
 30  13  16  ar  
 31  13  17  ar  
 32  14  18  ar  
 33  14  39  1   
 34  15  18  ar  
 35  15  40  1   
 36  16  19  ar  
 37  16  41  1   
 38  17  20  ar  
 39  17  42  1   
 40  18  43  1   
 41  19  21  ar  
 42  20  21  ar  
 43  21  22  1   
 44  22  23  1   
 45  22  24  1   
 46  23  44  1   
 47  23  45  1   
 48  23  46  1   
 49  24  47  1   
 50  24  48  1   
 51  24  49  1   
@<TRIPOS>SUBSTRUCTURE
  1 ****   7 GROUP 4 **** **** 0

# MOE 2024.06 (io_trps.svl 2023.06)
