@<TRIPOS>MOLECULE
NONAME
48 51 1 0 0 
SMALL
USER_CHARGES


@<TRIPOS>ATOM
  1 O        0.1350    -0.1130    -0.4000 O.3   1 <1>  -0.5600 
  2 C        1.3790    -0.6900    -0.6880 C.3   1 <1>   0.3440 
  3 C       -0.0040     1.2250    -0.7740 C.3   1 <1>   0.2950 
  4 C        1.3880    -2.1430    -0.2370 C.ar  1 <1>  -0.1440 
  5 C        2.4960     0.0780     0.0570 C.3   1 <1>   0.3430 
  6 C       -1.4270     1.6570    -0.4180 C.3   1 <1>  -0.1950 
  7 C        1.0360     2.0900    -0.0260 C.3   1 <1>   0.3430 
  8 C        2.1000    -3.0850    -0.9680 C.ar  1 <1>  -0.1500 
  9 C        0.7120    -2.5480     0.9070 C.ar  1 <1>  -0.1500 
 10 N        2.4500     1.5720    -0.1700 N.4   1 <1>  -0.9590 
 11 C       -2.5710     1.3730    -1.3390 C.3   1 <1>  -0.2000 
 12 C       -2.0960     2.7850    -1.1400 C.3   1 <1>  -0.2000 
 13 C        2.1450    -4.4050    -0.5550 C.ar  1 <1>  -0.1500 
 14 C        0.7570    -3.8680     1.3190 C.ar  1 <1>  -0.1500 
 15 C        3.3990     2.2970     0.7180 C.3   1 <1>   0.5240 
 16 C        1.4760    -4.7970     0.5900 C.ar  1 <1>  -0.1500 
 17 C        3.3890     3.7510     0.3190 C.2   1 <1>  -0.1810 
 18 C        3.9730     4.3590    -0.7270 C.2   1 <1>  -0.0400 
 19 C        2.7340     4.7950     0.9770 C.2   1 <1>   0.1080 
 20 O        3.6530     5.6220    -0.6810 O.3   1 <1>  -0.0190 
 21 C        4.8630     3.8790    -1.8580 C.3   1 <1>  -0.0600 
 22 N        2.9010     5.8950     0.3420 N.2   1 <1>  -0.4100 
 23 C        1.9340     4.7120     2.2620 C.3   1 <1>  -0.0590 
 24 H        1.5300    -0.6460    -1.7530 H     1 <1>   0.0800 
 25 H        0.1380     1.2990    -1.8390 H     1 <1>   0.0800 
 26 H        3.4500    -0.3170    -0.2490 H     1 <1>   0.0800 
 27 H        2.3820    -0.1330     1.1080 H     1 <1>   0.0800 
 28 H       -1.6290     1.5650     0.6360 H     1 <1>   0.1000 
 29 H        0.7600     2.1050     1.0150 H     1 <1>   0.0800 
 30 H        0.9740     3.1030    -0.3920 H     1 <1>   0.0800 
 31 H        2.6250    -2.8100    -1.8660 H     1 <1>   0.1500 
 32 H        0.1380    -1.8430     1.4830 H     1 <1>   0.1500 
 33 H        2.7450     1.7750    -1.1330 H     1 <1>   0.4500 
 34 H       -2.3800     0.8840    -2.2790 H     1 <1>   0.1000 
 35 H       -3.5140     1.0760    -0.9110 H     1 <1>   0.1000 
 36 H       -2.7330     3.4580    -0.5910 H     1 <1>   0.1000 
 37 H       -1.6160     3.2680    -1.9750 H     1 <1>   0.1000 
 38 H        2.6980    -5.1330    -1.1250 H     1 <1>   0.1500 
 39 H        0.2290    -4.1750     2.2060 H     1 <1>   0.1500 
 40 H        3.1100     2.1920     1.7510 H     1 <1>   0.0800 
 41 H        4.3950     1.9030     0.5980 H     1 <1>   0.0800 
 42 H        1.5100    -5.8240     0.9100 H     1 <1>   0.1500 
 43 H        5.0730     2.8290    -1.7700 H     1 <1>   0.0800 
 44 H        5.7930     4.4190    -1.8340 H     1 <1>   0.0800 
 45 H        4.3870     4.0680    -2.8030 H     1 <1>   0.0800 
 46 H        2.4330     4.0900     2.9820 H     1 <1>   0.0800 
 47 H        0.9510     4.3270     2.0680 H     1 <1>   0.0800 
 48 H        1.8320     5.6970     2.6840 H     1 <1>   0.0800 
@<TRIPOS>BOND
  1   1   2  1   
  2   1   3  1   
  3   2   4  1   
  4   2   5  1   
  5   2  24  1   
  6   3   6  1   
  7   3   7  1   
  8   3  25  1   
  9   4   8  ar  
 10   4   9  ar  
 11   5  10  1   
 12   5  26  1   
 13   5  27  1   
 14   6  11  1   
 15   6  12  1   
 16   6  28  1   
 17   7  10  1   
 18   7  29  1   
 19   7  30  1   
 20   8  13  ar  
 21   8  31  1   
 22   9  14  ar  
 23   9  32  1   
 24  10  15  1   
 25  10  33  1   
 26  11  12  1   
 27  11  34  1   
 28  11  35  1   
 29  12  36  1   
 30  12  37  1   
 31  13  16  ar  
 32  13  38  1   
 33  14  16  ar  
 34  14  39  1   
 35  15  17  1   
 36  15  40  1   
 37  15  41  1   
 38  16  42  1   
 39  17  18  2   
 40  17  19  1   
 41  18  20  1   
 42  18  21  1   
 43  19  22  2   
 44  19  23  1   
 45  20  22  1   
 46  21  43  1   
 47  21  44  1   
 48  21  45  1   
 49  23  46  1   
 50  23  47  1   
 51  23  48  1   
@<TRIPOS>SUBSTRUCTURE
  1 ****  10 GROUP 4 **** **** 0

# MOE 2024.06 (io_trps.svl 2023.06)
