@<TRIPOS>MOLECULE
NONAME
26 26 1 0 0 
SMALL
USER_CHARGES


@<TRIPOS>ATOM
  1 O        7.2120    -3.9640    -0.3190 O.co2 1 <1>  -0.9000 
  2 C        6.4410    -3.5030     0.5260 C.2   1 <1>   0.9060 
  3 O        5.6900    -4.2030     1.2110 O.co2 1 <1>  -0.9000 
  4 C        6.3880    -2.0110     0.7070 C.3   1 <1>  -0.2660 
  5 C        5.3480    -1.4000    -0.2350 C.3   1 <1>  -0.0170 
  6 C        5.2850     0.1100    -0.0620 C.ar  1 <1>  -0.1440 
  7 C        6.1000     0.9320    -0.8200 C.ar  1 <1>  -0.1500 
  8 C        4.4220     0.6700     0.8640 C.ar  1 <1>  -0.1500 
  9 C        6.0480     2.3060    -0.6620 C.ar  1 <1>  -0.1500 
 10 C        4.3650     2.0420     1.0260 C.ar  1 <1>  -0.1500 
 11 C        5.1750     2.8670     0.2580 C.ar  1 <1>  -0.1440 
 12 C        5.0980     4.3630     0.4150 C.3   1 <1>   0.4860 
 13 N        4.0710     4.8160    -0.5390 N.4   1 <1>  -0.8530 
 14 H        7.3620    -1.6120     0.4990 H     1 <1>   0.0800 
 15 H        6.1370    -1.8040     1.7290 H     1 <1>   0.0800 
 16 H        4.3870    -1.8390    -0.0280 H     1 <1>   0.0800 
 17 H        5.6040    -1.6480    -1.2510 H     1 <1>   0.0800 
 18 H        6.7810     0.4910    -1.5290 H     1 <1>   0.1500 
 19 H        3.8000     0.0250     1.4620 H     1 <1>   0.1500 
 20 H        6.7030     2.9140    -1.2630 H     1 <1>   0.1500 
 21 H        3.6880     2.4420     1.7610 H     1 <1>   0.1500 
 22 H        6.0530     4.8100     0.1890 H     1 <1>   0.0800 
 23 H        4.8200     4.6170     1.4260 H     1 <1>   0.0800 
 24 H        4.3410     4.5250    -1.4840 H     1 <1>   0.4500 
 25 H        3.9360     5.8310    -0.5150 H     1 <1>   0.4500 
 26 H        3.1860     4.3440    -0.3260 H     1 <1>   0.4500 
@<TRIPOS>BOND
  1   1   2  ar  
  2   2   3  ar  
  3   2   4  1   
  4   4   5  1   
  5   4  14  1   
  6   4  15  1   
  7   5   6  1   
  8   5  16  1   
  9   5  17  1   
 10   6   7  ar  
 11   6   8  ar  
 12   7   9  ar  
 13   7  18  1   
 14   8  10  ar  
 15   8  19  1   
 16   9  11  ar  
 17   9  20  1   
 18  10  11  ar  
 19  10  21  1   
 20  11  12  1   
 21  12  13  1   
 22  12  22  1   
 23  12  23  1   
 24  13  24  1   
 25  13  25  1   
 26  13  26  1   
@<TRIPOS>SUBSTRUCTURE
  1 ****   6 GROUP 4 **** **** 0

# MOE 2024.06 (io_trps.svl 2023.06)
