@<TRIPOS>MOLECULE
NONAME
42 44 1 0 0 
SMALL
USER_CHARGES


@<TRIPOS>ATOM
  1 O        4.1040    -1.6110    -1.5450 O.2   1 <1>  -0.5700 
  2 C        3.1420    -1.4420    -0.8190 C.2   1 <1>   0.5440 
  3 N        3.0340    -0.2020    -0.2430 N.am  1 <1>  -0.6600 
  4 C        2.2120    -2.5120    -0.5180 C.ar  1 <1>   0.0860 
  5 C        3.5820    -0.0480     1.1510 C.3   1 <1>   0.2200 
  6 C        2.9930     0.9920    -1.1440 C.3   1 <1>   0.1400 
  7 C        2.5000    -3.8270    -0.8820 C.ar  1 <1>   0.1600 
  8 C        1.0080    -2.2950     0.1440 C.ar  1 <1>  -0.1500 
  9 C        3.0080     1.1710     1.8910 C.3   1 <1>   0.1200 
 10 C        5.1340    -0.0060     1.1430 C.3   1 <1>   0.3430 
 11 C        3.9730     2.1240    -0.7800 C.3   1 <1>  -0.0800 
 12 N        1.7440    -4.8830    -0.6360 N.ar  1 <1>  -0.6200 
 13 C        0.1960    -3.3780     0.4060 C.ar  1 <1>  -0.1440 
 14 O        3.7650     2.3120     1.6200 O.3   1 <1>  -0.5600 
 15 N        5.7060     0.3150    -0.2110 N.4   1 <1>  -0.9590 
 16 C        3.4870     2.9510     0.4200 C.3   1 <1>   0.1200 
 17 C        5.4590     1.7220    -0.6570 C.3   1 <1>   0.3430 
 18 C        0.6110    -4.6370     0.0000 C.ar  1 <1>   0.1600 
 19 C       -1.1300    -3.1980     1.1270 C.3   1 <1>  -0.0970 
 20 C        7.1470    -0.0500    -0.3030 C.3   1 <1>   0.2630 
 21 H        3.2820    -0.9130     1.7170 H     1 <1>   0.0800 
 22 H        3.1970     0.6750    -2.1550 H     1 <1>   0.0800 
 23 H        1.9880     1.3810    -1.1420 H     1 <1>   0.0800 
 24 H        3.4210    -4.0150    -1.4100 H     1 <1>   0.1500 
 25 H        0.7140    -1.3040     0.4400 H     1 <1>   0.1500 
 26 H        3.0800     1.0050     2.9520 H     1 <1>   0.0800 
 27 H        1.9730     1.3410     1.6480 H     1 <1>   0.0800 
 28 H        5.4880    -0.9770     1.4480 H     1 <1>   0.0800 
 29 H        5.4810     0.7070     1.8720 H     1 <1>   0.0800 
 30 H        3.9290     2.8120    -1.6060 H     1 <1>   0.0800 
 31 H        5.1720    -0.3020    -0.8660 H     1 <1>   0.4500 
 32 H        2.4300     3.1550     0.3660 H     1 <1>   0.0800 
 33 H        4.0050     3.8950     0.4460 H     1 <1>   0.0800 
 34 H        5.9480     2.4040     0.0190 H     1 <1>   0.0800 
 35 H        5.9130     1.8480    -1.6270 H     1 <1>   0.0800 
 36 H       -0.0190    -5.4850     0.2070 H     1 <1>   0.1500 
 37 H       -1.4860    -2.1880     1.0280 H     1 <1>   0.0800 
 38 H       -1.0130    -3.4240     2.1720 H     1 <1>   0.0800 
 39 H       -1.8720    -3.8580     0.7120 H     1 <1>   0.0800 
 40 H        7.7300     0.5500     0.3770 H     1 <1>   0.0800 
 41 H        7.5080     0.1100    -1.3060 H     1 <1>   0.0800 
 42 H        7.2830    -1.0900    -0.0550 H     1 <1>   0.0800 
@<TRIPOS>BOND
  1   1   2  2   
  2   2   3  am  
  3   2   4  1   
  4   3   5  1   
  5   3   6  1   
  6   4   7  ar  
  7   4   8  ar  
  8   5   9  1   
  9   5  10  1   
 10   5  21  1   
 11   6  11  1   
 12   6  22  1   
 13   6  23  1   
 14   7  12  ar  
 15   7  24  1   
 16   8  13  ar  
 17   8  25  1   
 18   9  14  1   
 19   9  26  1   
 20   9  27  1   
 21  10  15  1   
 22  10  28  1   
 23  10  29  1   
 24  11  16  1   
 25  11  17  1   
 26  11  30  1   
 27  12  18  ar  
 28  13  18  ar  
 29  13  19  1   
 30  14  16  1   
 31  15  17  1   
 32  15  20  1   
 33  15  31  1   
 34  16  32  1   
 35  16  33  1   
 36  17  34  1   
 37  17  35  1   
 38  18  36  1   
 39  19  37  1   
 40  19  38  1   
 41  19  39  1   
 42  20  40  1   
 43  20  41  1   
 44  20  42  1   
@<TRIPOS>SUBSTRUCTURE
  1 ****   3 GROUP 4 **** **** 0

# MOE 2024.06 (io_trps.svl 2023.06)
