@<TRIPOS>MOLECULE
NONAME
54 56 1 0 0 
SMALL
USER_CHARGES


@<TRIPOS>ATOM
  1 O        0.9520     1.3590    -0.5430 O.co2 1 <1>  -0.9020 
  2 C        1.4080     0.2140    -0.6800 C.2   1 <1>   0.9770 
  3 O        0.6850    -0.7040    -1.0870 O.co2 1 <1>  -0.9020 
  4 C        2.7940    -0.0350    -0.3610 C.ar  1 <1>  -0.1860 
  5 C        3.3390    -1.3180    -0.5370 C.ar  1 <1>   0.1530 
  6 C        3.6140     0.9760     0.1190 C.ar  1 <1>  -0.1160 
  7 N        4.5900    -1.6670    -0.2840 N.ar  1 <1>  -0.5830 
  8 C        4.9180     0.6270     0.3850 C.ar  1 <1>   0.3030 
  9 C        5.3350    -0.6710     0.1720 C.ar  1 <1>   0.6150 
 10 N        6.0120     1.3230     0.8520 N.pl3 1 <1>  -0.7040 
 11 N        6.6700    -0.7440     0.5120 N.pl3 1 <1>  -0.7670 
 12 C        7.0420     0.4810     0.9280 C.cat 1 <1>   1.0690 
 13 C        7.4480    -1.9680     0.2110 C.3   1 <1>   0.3480 
 14 N        8.2670     0.8700     1.3630 N.pl3 1 <1>  -0.5960 
 15 C        8.2220    -1.7620    -1.0870 C.3   1 <1>  -0.2460 
 16 C        8.7100     2.3030     1.4100 C.3   1 <1>   0.1610 
 17 C        9.2460    -0.0710     1.9900 C.3   1 <1>   0.0800 
 18 C        9.9260     2.5510     0.4940 C.3   1 <1>  -0.0870 
 19 C       10.3710     4.0170     0.5380 C.3   1 <1>   0.3370 
 20 C        9.6490     2.2540    -0.9920 C.3   1 <1>  -0.1670 
 21 N       10.0800     4.5500    -0.8100 N.4   1 <1>  -0.9610 
 22 C       10.2230     3.4350    -1.7610 C.3   1 <1>   0.3370 
 23 C       10.8190     5.7950    -1.1610 C.3   1 <1>   0.3370 
 24 C       10.1280     6.9940    -0.4890 C.3   1 <1>   0.1130 
 25 O        8.7520     6.7340    -0.3870 O.3   1 <1>  -0.5640 
 26 C        8.0120     7.8230     0.0740 C.3   1 <1>   0.0320 
 27 H        2.6760    -2.0860    -0.9120 H     1 <1>   0.1430 
 28 H        3.2360     1.9740     0.2690 H     1 <1>   0.1430 
 29 H        5.9790     2.2870     1.1680 H     1 <1>   0.4450 
 30 H        6.7870    -2.8120     0.0980 H     1 <1>   0.0730 
 31 H        8.1190    -2.2060     1.0150 H     1 <1>   0.0730 
 32 H        7.5410    -1.5690    -1.8980 H     1 <1>   0.0730 
 33 H        8.7710    -2.6570    -1.3200 H     1 <1>   0.0730 
 34 H        8.9190    -0.9510    -1.0000 H     1 <1>   0.0730 
 35 H        8.9650     2.5560     2.4260 H     1 <1>   0.0730 
 36 H        7.9120     2.9580     1.1060 H     1 <1>   0.0730 
 37 H        8.7280    -0.8520     2.5200 H     1 <1>   0.0730 
 38 H        9.8640     0.4460     2.7050 H     1 <1>   0.0730 
 39 H        9.8810    -0.5050     1.2370 H     1 <1>   0.0730 
 40 H       10.7570     1.9610     0.8400 H     1 <1>   0.0730 
 41 H       11.4310     4.0660     0.7260 H     1 <1>   0.0730 
 42 H        9.8480     4.5810     1.2940 H     1 <1>   0.0730 
 43 H        8.5930     2.2000    -1.1920 H     1 <1>   0.0730 
 44 H       10.1070     1.3340    -1.3110 H     1 <1>   0.0730 
 45 H        9.0960     4.8820    -0.8070 H     1 <1>   0.4450 
 46 H        9.6890     3.6210    -2.6800 H     1 <1>   0.0730 
 47 H       11.2660     3.2660    -1.9730 H     1 <1>   0.0730 
 48 H       10.7820     5.9420    -2.2280 H     1 <1>   0.0730 
 49 H       11.8540     5.7330    -0.8670 H     1 <1>   0.0730 
 50 H       10.2830     7.8860    -1.0730 H     1 <1>   0.0730 
 51 H       10.5200     7.1470     0.5020 H     1 <1>   0.0730 
 52 H        6.9770     7.5320     0.1290 H     1 <1>   0.0730 
 53 H        8.1180     8.6440    -0.6140 H     1 <1>   0.0730 
 54 H        8.3610     8.1060     1.0530 H     1 <1>   0.0730 
@<TRIPOS>BOND
  1   1   2  ar  
  2   2   3  ar  
  3   2   4  1   
  4   4   5  ar  
  5   4   6  ar  
  6   5   7  ar  
  7   5  27  1   
  8   6   8  ar  
  9   6  28  1   
 10   7   9  ar  
 11   8   9  ar  
 12   8  10  1   
 13   9  11  1   
 14  10  12  ar  
 15  10  29  1   
 16  11  12  ar  
 17  11  13  1   
 18  12  14  ar  
 19  13  15  1   
 20  13  30  1   
 21  13  31  1   
 22  14  16  1   
 23  14  17  1   
 24  15  32  1   
 25  15  33  1   
 26  15  34  1   
 27  16  18  1   
 28  16  35  1   
 29  16  36  1   
 30  17  37  1   
 31  17  38  1   
 32  17  39  1   
 33  18  19  1   
 34  18  20  1   
 35  18  40  1   
 36  19  21  1   
 37  19  41  1   
 38  19  42  1   
 39  20  22  1   
 40  20  43  1   
 41  20  44  1   
 42  21  22  1   
 43  21  23  1   
 44  21  45  1   
 45  22  46  1   
 46  22  47  1   
 47  23  24  1   
 48  23  48  1   
 49  23  49  1   
 50  24  25  1   
 51  24  50  1   
 52  24  51  1   
 53  25  26  1   
 54  26  52  1   
 55  26  53  1   
 56  26  54  1   
@<TRIPOS>SUBSTRUCTURE
  1 ****  10 GROUP 4 **** **** 0

# MOE 2024.06 (io_trps.svl 2023.06)
