@<TRIPOS>MOLECULE
NONAME
55 58 1 0 0 
SMALL
USER_CHARGES


@<TRIPOS>ATOM
  1 S        1.5090    -0.8700     2.3260 S.3   1 <1>  -0.0800 
  2 C        0.7950    -1.6210     0.8930 C.2   1 <1>   0.2930 
  3 C        1.9050     0.5290     1.3910 C.2   1 <1>  -0.1400 
  4 N        0.8680    -0.8520    -0.1510 N.2   1 <1>  -0.5650 
  5 C        0.2370    -2.9600     1.0430 C.2   1 <1>   0.7150 
  6 C        1.4840     0.3450     0.1390 C.2   1 <1>   0.0460 
  7 C        2.6160     1.7270     1.9760 C.3   1 <1>   0.0200 
  8 O        0.3350    -3.5650     2.0990 O.2   1 <1>  -0.5700 
  9 N       -0.4370    -3.5900     0.0160 N.am  1 <1>  -0.6600 
 10 C        1.6750     1.3990    -0.9340 C.3   1 <1>   0.0210 
 11 C        3.1030     2.6230     0.8200 C.3   1 <1>  -0.1600 
 12 C       -0.3550    -5.0850    -0.1000 C.3   1 <1>   0.3640 
 13 C       -1.5590    -2.8960    -0.6790 C.3   1 <1>   0.1400 
 14 C        2.0520     2.7590    -0.3040 C.3   1 <1>  -0.1600 
 15 C        1.1260    -5.4660    -0.2130 C.ar  1 <1>  -0.1430 
 16 C       -1.1250    -5.6940    -1.3140 C.3   1 <1>   0.2000 
 17 C       -1.9330    -3.5960    -1.9840 C.3   1 <1>   0.1200 
 18 C        1.6760    -6.3960     0.6590 C.ar  1 <1>  -0.1500 
 19 C        1.9390    -4.8910    -1.1830 C.ar  1 <1>  -0.1500 
 20 O       -2.2310    -4.9270    -1.7140 O.3   1 <1>  -0.5600 
 21 C       -1.6690    -7.1060    -1.0360 C.3   1 <1>   0.1200 
 22 C        3.0080    -6.7620     0.5600 C.ar  1 <1>   0.0830 
 23 C        3.2750    -5.2390    -1.2800 C.ar  1 <1>  -0.1500 
 24 O       -0.6710    -7.9770    -0.6120 O.3   1 <1>  -0.6800 
 25 O        3.4640    -7.7080     1.4170 O.3   1 <1>  -0.3630 
 26 C        3.8220    -6.1620    -0.4060 C.ar  1 <1>   0.0830 
 27 C        3.7900    -8.9550     0.8460 C.3   1 <1>   0.0400 
 28 O        5.1430    -6.4380    -0.5310 O.3   1 <1>  -0.3630 
 29 C        5.9630    -6.0510     0.5500 C.3   1 <1>   0.0400 
 30 H        1.9300     2.2680     2.6040 H     1 <1>   0.0800 
 31 H        3.4520     1.4090     2.5740 H     1 <1>   0.0800 
 32 H        2.4550     1.0700    -1.5970 H     1 <1>   0.0800 
 33 H        0.7690     1.5020    -1.5030 H     1 <1>   0.0800 
 34 H        3.3570     3.5960     1.2050 H     1 <1>   0.0800 
 35 H        3.9980     2.1930     0.4030 H     1 <1>   0.0800 
 36 H       -0.7600    -5.5100     0.8030 H     1 <1>   0.0800 
 37 H       -2.4180    -2.8850    -0.0310 H     1 <1>   0.0800 
 38 H       -1.2960    -1.8770    -0.8960 H     1 <1>   0.0800 
 39 H        2.4210     3.4160    -1.0720 H     1 <1>   0.0800 
 40 H        1.1630     3.2050     0.1090 H     1 <1>   0.0800 
 41 H       -0.4670    -5.7470    -2.1620 H     1 <1>   0.0800 
 42 H       -1.1290    -3.5440    -2.6990 H     1 <1>   0.0800 
 43 H       -2.8100    -3.1410    -2.4100 H     1 <1>   0.0800 
 44 H        1.0710    -6.8510     1.4240 H     1 <1>   0.1500 
 45 H        1.5360    -4.1590    -1.8620 H     1 <1>   0.1500 
 46 H       -2.1070    -7.5140    -1.9300 H     1 <1>   0.0800 
 47 H       -2.4140    -7.0680    -0.2610 H     1 <1>   0.0800 
 48 H        3.9030    -4.7880    -2.0270 H     1 <1>   0.1500 
 49 H        0.0780    -7.9960    -1.2420 H     1 <1>   0.4000 
 50 H        4.0750    -9.6220     1.6390 H     1 <1>   0.0800 
 51 H        4.6060    -8.8290     0.1580 H     1 <1>   0.0800 
 52 H        2.9240    -9.3370     0.3350 H     1 <1>   0.0800 
 53 H        6.9880    -6.2040     0.2670 H     1 <1>   0.0800 
 54 H        5.7270    -6.6510     1.4100 H     1 <1>   0.0800 
 55 H        5.7890    -5.0100     0.7620 H     1 <1>   0.0800 
@<TRIPOS>BOND
  1   1   2  1   
  2   1   3  1   
  3   2   4  2   
  4   2   5  1   
  5   3   6  2   
  6   3   7  1   
  7   4   6  1   
  8   5   8  2   
  9   5   9  am  
 10   6  10  1   
 11   7  11  1   
 12   7  30  1   
 13   7  31  1   
 14   9  12  1   
 15   9  13  1   
 16  10  14  1   
 17  10  32  1   
 18  10  33  1   
 19  11  14  1   
 20  11  34  1   
 21  11  35  1   
 22  12  15  1   
 23  12  16  1   
 24  12  36  1   
 25  13  17  1   
 26  13  37  1   
 27  13  38  1   
 28  14  39  1   
 29  14  40  1   
 30  15  18  ar  
 31  15  19  ar  
 32  16  20  1   
 33  16  21  1   
 34  16  41  1   
 35  17  20  1   
 36  17  42  1   
 37  17  43  1   
 38  18  22  ar  
 39  18  44  1   
 40  19  23  ar  
 41  19  45  1   
 42  21  24  1   
 43  21  46  1   
 44  21  47  1   
 45  22  25  1   
 46  22  26  ar  
 47  23  26  ar  
 48  23  48  1   
 49  24  49  1   
 50  25  27  1   
 51  26  28  1   
 52  27  50  1   
 53  27  51  1   
 54  27  52  1   
 55  28  29  1   
 56  29  53  1   
 57  29  54  1   
 58  29  55  1   
@<TRIPOS>SUBSTRUCTURE
  1 ****   5 GROUP 4 **** **** 0

# MOE 2024.06 (io_trps.svl 2023.06)
