@<TRIPOS>MOLECULE
NONAME
56 60 1 0 0 
SMALL
USER_CHARGES


@<TRIPOS>ATOM
  1 O        0.5740     0.7200     0.1730 O.3   1 <1>  -0.2800 
  2 C        0.0970    -0.3160    -0.4780 C.2   1 <1>   0.4250 
  3 C        0.4290     1.6510    -0.7280 C.2   1 <1>   0.2980 
  4 N       -0.3150    -0.0240    -1.6640 N.2   1 <1>  -0.3380 
  5 C        0.0750    -1.6190     0.1550 C.ar  1 <1>   0.0530 
  6 N       -0.0990     1.2610    -1.8210 N.2   1 <1>  -0.3380 
  7 C        0.8510     3.0830    -0.3970 C.3   1 <1>   0.2900 
  8 C        0.5490    -1.8150     1.4550 C.ar  1 <1>  -0.1500 
  9 C       -0.4250    -2.7380    -0.5150 C.ar  1 <1>  -0.1500 
 10 N        2.3060     3.3870    -0.5870 N.3   1 <1>  -0.8100 
 11 C        0.5270    -3.0610     2.0540 C.ar  1 <1>  -0.1500 
 12 C       -0.4510    -3.9870     0.0780 C.ar  1 <1>  -0.1500 
 13 C        2.6080     4.8340    -0.3780 C.3   1 <1>   0.1900 
 14 C        3.1330     2.4470     0.1900 C.3   1 <1>   0.1100 
 15 C        0.0260    -4.1510     1.3660 C.ar  1 <1>  -0.1500 
 16 C        4.1290     5.1520    -0.4470 C.3   1 <1>  -0.0800 
 17 C        1.8190     5.6650    -1.4250 C.3   1 <1>  -0.1600 
 18 C        4.6200     2.7290     0.0020 C.3   1 <1>  -0.1600 
 19 C        4.9800     4.1660     0.3780 C.3   1 <1>   0.4240 
 20 C        4.5750     5.3020    -1.9200 C.3   1 <1>  -0.1600 
 21 C        2.5670     6.9060    -1.9290 C.3   1 <1>  -0.1600 
 22 O        4.6090     4.3170     1.7050 O.3   1 <1>  -0.6800 
 23 C        6.4890     4.4830     0.2900 C.ar  1 <1>  -0.1430 
 24 C        3.8970     6.5110    -2.5920 C.3   1 <1>  -0.1600 
 25 C        6.9990     5.5840     0.9720 C.ar  1 <1>  -0.1500 
 26 C        7.3770     3.7210    -0.4670 C.ar  1 <1>  -0.1500 
 27 C        8.3410     5.9150     0.9050 C.ar  1 <1>  -0.1500 
 28 C        8.7200     4.0480    -0.5360 C.ar  1 <1>  -0.1500 
 29 C        9.2050     5.1460     0.1490 C.ar  1 <1>  -0.1500 
 30 H        0.5710     3.2940     0.6200 H     1 <1>   0.0800 
 31 H        0.2620     3.7180    -1.0320 H     1 <1>   0.0800 
 32 H        0.9430    -0.9820     2.0080 H     1 <1>   0.1500 
 33 H       -0.8000    -2.6280    -1.5180 H     1 <1>   0.1500 
 34 H        0.8990    -3.1860     3.0560 H     1 <1>   0.1500 
 35 H       -0.8420    -4.8320    -0.4620 H     1 <1>   0.1500 
 36 H        2.2670     5.1180     0.6030 H     1 <1>   0.0800 
 37 H        2.8680     2.4890     1.2330 H     1 <1>   0.0800 
 38 H        2.9560     1.4430    -0.1560 H     1 <1>   0.0800 
 39 H        0.0070    -5.1230     1.8300 H     1 <1>   0.1500 
 40 H        4.2860     6.1160     0.0060 H     1 <1>   0.0800 
 41 H        1.6170     5.0530    -2.2880 H     1 <1>   0.0800 
 42 H        0.8800     5.9730    -1.0030 H     1 <1>   0.0800 
 43 H        4.8580     2.5460    -1.0290 H     1 <1>   0.0800 
 44 H        5.1990     2.0470     0.5980 H     1 <1>   0.0800 
 45 H        5.6410     5.4250    -1.9970 H     1 <1>   0.0800 
 46 H        4.3100     4.4070    -2.4570 H     1 <1>   0.0800 
 47 H        1.9580     7.4420    -2.6370 H     1 <1>   0.0800 
 48 H        2.7580     7.5670    -1.1000 H     1 <1>   0.0800 
 49 H        3.6650     4.1010     1.7770 H     1 <1>   0.4000 
 50 H        4.5600     7.3580    -2.5620 H     1 <1>   0.0800 
 51 H        3.7250     6.2740    -3.6290 H     1 <1>   0.0800 
 52 H        6.3430     6.1940     1.5690 H     1 <1>   0.1500 
 53 H        7.0430     2.8640    -1.0210 H     1 <1>   0.1500 
 54 H        8.7100     6.7700     1.4440 H     1 <1>   0.1500 
 55 H        9.3890     3.4470    -1.1260 H     1 <1>   0.1500 
 56 H       10.2480     5.4000     0.0960 H     1 <1>   0.1500 
@<TRIPOS>BOND
  1   1   2  1   
  2   1   3  1   
  3   2   4  2   
  4   2   5  1   
  5   3   6  2   
  6   3   7  1   
  7   4   6  1   
  8   5   8  ar  
  9   5   9  ar  
 10   7  10  1   
 11   7  30  1   
 12   7  31  1   
 13   8  11  ar  
 14   8  32  1   
 15   9  12  ar  
 16   9  33  1   
 17  10  13  1   
 18  10  14  1   
 19  11  15  ar  
 20  11  34  1   
 21  12  15  ar  
 22  12  35  1   
 23  13  16  1   
 24  13  17  1   
 25  13  36  1   
 26  14  18  1   
 27  14  37  1   
 28  14  38  1   
 29  15  39  1   
 30  16  19  1   
 31  16  20  1   
 32  16  40  1   
 33  17  21  1   
 34  17  41  1   
 35  17  42  1   
 36  18  19  1   
 37  18  43  1   
 38  18  44  1   
 39  19  22  1   
 40  19  23  1   
 41  20  24  1   
 42  20  45  1   
 43  20  46  1   
 44  21  24  1   
 45  21  47  1   
 46  21  48  1   
 47  22  49  1   
 48  23  25  ar  
 49  23  26  ar  
 50  24  50  1   
 51  24  51  1   
 52  25  27  ar  
 53  25  52  1   
 54  26  28  ar  
 55  26  53  1   
 56  27  29  ar  
 57  27  54  1   
 58  28  29  ar  
 59  28  55  1   
 60  29  56  1   
@<TRIPOS>SUBSTRUCTURE
  1 ****  14 GROUP 4 **** **** 0

# MOE 2024.06 (io_trps.svl 2023.06)
