@<TRIPOS>MOLECULE
NONAME
60 63 1 0 0 
SMALL
USER_CHARGES


@<TRIPOS>ATOM
  1 O       -1.2420    -0.7050     1.4280 O.2   1 <1>  -0.5700 
  2 C       -2.1130    -1.2560     0.7820 C.2   1 <1>   0.5440 
  3 N       -2.1260    -2.6340     0.7800 N.am  1 <1>  -0.6600 
  4 C       -3.0880    -0.4670     0.0580 C.ar  1 <1>   0.0860 
  5 C       -2.7400    -3.4290    -0.3250 C.3   1 <1>   0.1400 
  6 C       -1.8640    -3.3650     2.0540 C.3   1 <1>   0.1400 
  7 C       -4.4690    -0.6680     0.2120 C.ar  1 <1>   0.0830 
  8 C       -2.6670     0.5460    -0.8030 C.ar  1 <1>  -0.1500 
  9 C       -2.0370    -4.7850    -0.5070 C.3   1 <1>   0.3430 
 10 C       -1.2070    -4.7310     1.8130 C.3   1 <1>   0.3430 
 11 O       -4.8630    -1.6480     1.0620 O.3   1 <1>  -0.3630 
 12 C       -5.3820     0.1180    -0.4850 C.ar  1 <1>  -0.1500 
 13 C       -3.5740     1.3210    -1.4960 C.ar  1 <1>  -0.1500 
 14 N       -1.9400    -5.5480     0.7890 N.4   1 <1>  -0.9590 
 15 C       -6.1880    -1.8510     1.4890 C.3   1 <1>   0.1200 
 16 C       -4.9350     1.1150    -1.3440 C.ar  1 <1>   0.0830 
 17 C       -1.3260    -6.9130     0.6630 C.3   1 <1>   0.3430 
 18 C       -6.2190    -3.0980     2.3780 C.3   1 <1>   0.0960 
 19 O       -5.7530     1.9200    -2.0600 O.3   1 <1>  -0.3630 
 20 C       -2.2570    -7.9910     0.0620 C.3   1 <1>   0.1400 
 21 N       -5.8510    -4.3160     1.6240 N.pl3 1 <1>   0.3140 
 22 C       -7.1580     1.8350    -1.9760 C.3   1 <1>   0.0400 
 23 N       -2.7290    -7.6430    -1.3060 N.am  1 <1>  -0.7300 
 24 N       -4.8160    -5.1160     1.9300 N.2   1 <1>  -0.4180 
 25 C       -6.5340    -4.8570     0.6140 C.2   1 <1>  -0.3020 
 26 C       -3.9870    -7.3750    -1.7280 C.2   1 <1>   0.5690 
 27 N       -4.8520    -6.1430     1.1540 N.2   1 <1>  -0.2270 
 28 C       -5.9000    -6.0040     0.3330 C.2   1 <1>   0.0460 
 29 O       -4.1270    -6.6030    -2.6390 O.2   1 <1>  -0.5700 
 30 C       -5.2100    -8.0260    -1.1070 C.3   1 <1>  -0.0990 
 31 C       -6.3070    -7.0210    -0.7230 C.3   1 <1>   0.0210 
 32 H       -2.6810    -2.8770    -1.2470 H     1 <1>   0.0800 
 33 H       -3.7800    -3.6020    -0.1160 H     1 <1>   0.0800 
 34 H       -2.7950    -3.5000     2.5750 H     1 <1>   0.0800 
 35 H       -1.2230    -2.7790     2.6900 H     1 <1>   0.0800 
 36 H       -1.6120     0.7250    -0.9180 H     1 <1>   0.1500 
 37 H       -1.0520    -4.6110    -0.9040 H     1 <1>   0.0800 
 38 H       -2.5950    -5.3440    -1.2350 H     1 <1>   0.0800 
 39 H       -1.1710    -5.2640     2.7490 H     1 <1>   0.0800 
 40 H       -0.1940    -4.5650     1.4870 H     1 <1>   0.0800 
 41 H       -6.4330    -0.0390    -0.3640 H     1 <1>   0.1500 
 42 H       -3.2350     2.0980    -2.1590 H     1 <1>   0.1500 
 43 H       -2.9220    -5.6500     1.1290 H     1 <1>   0.4500 
 44 H       -6.8210    -1.9830     0.6290 H     1 <1>   0.0800 
 45 H       -6.4960    -0.9810     2.0430 H     1 <1>   0.0800 
 46 H       -1.0390    -7.2530     1.6450 H     1 <1>   0.0800 
 47 H       -0.4280    -6.8520     0.0710 H     1 <1>   0.0800 
 48 H       -7.2080    -3.2360     2.7730 H     1 <1>   0.0800 
 49 H       -5.5400    -2.9750     3.2020 H     1 <1>   0.0800 
 50 H       -3.0900    -8.1340     0.7270 H     1 <1>   0.0800 
 51 H       -1.7230    -8.9240     0.0120 H     1 <1>   0.0800 
 52 H       -7.5760     2.5810    -2.6280 H     1 <1>   0.0800 
 53 H       -7.4600     2.0270    -0.9610 H     1 <1>   0.0800 
 54 H       -7.4690     0.8560    -2.2950 H     1 <1>   0.0800 
 55 H       -2.0040    -7.4000    -1.9870 H     1 <1>   0.3700 
 56 H       -7.4120    -4.4220     0.1760 H     1 <1>   0.1500 
 57 H       -4.9450    -8.6120    -0.2500 H     1 <1>   0.0800 
 58 H       -5.6130    -8.7030    -1.8380 H     1 <1>   0.0800 
 59 H       -6.6320    -6.4950    -1.6030 H     1 <1>   0.0800 
 60 H       -7.1520    -7.5700    -0.3460 H     1 <1>   0.0800 
@<TRIPOS>BOND
  1   1   2  2   
  2   2   3  am  
  3   2   4  1   
  4   3   5  1   
  5   3   6  1   
  6   4   7  ar  
  7   4   8  ar  
  8   5   9  1   
  9   5  32  1   
 10   5  33  1   
 11   6  10  1   
 12   6  34  1   
 13   6  35  1   
 14   7  11  1   
 15   7  12  ar  
 16   8  13  ar  
 17   8  36  1   
 18   9  14  1   
 19   9  37  1   
 20   9  38  1   
 21  10  14  1   
 22  10  39  1   
 23  10  40  1   
 24  11  15  1   
 25  12  16  ar  
 26  12  41  1   
 27  13  16  ar  
 28  13  42  1   
 29  14  17  1   
 30  14  43  1   
 31  15  18  1   
 32  15  44  1   
 33  15  45  1   
 34  16  19  1   
 35  17  20  1   
 36  17  46  1   
 37  17  47  1   
 38  18  21  1   
 39  18  48  1   
 40  18  49  1   
 41  19  22  1   
 42  20  23  1   
 43  20  50  1   
 44  20  51  1   
 45  21  24  1   
 46  21  25  1   
 47  22  52  1   
 48  22  53  1   
 49  22  54  1   
 50  23  26  am  
 51  23  55  1   
 52  24  27  2   
 53  25  28  2   
 54  25  56  1   
 55  26  29  2   
 56  26  30  1   
 57  27  28  1   
 58  28  31  1   
 59  30  31  1   
 60  30  57  1   
 61  30  58  1   
 62  31  59  1   
 63  31  60  1   
@<TRIPOS>SUBSTRUCTURE
  1 ****   5 GROUP 4 **** **** 0

# MOE 2024.06 (io_trps.svl 2023.06)
