@<TRIPOS>MOLECULE
NONAME
51 52 1 0 0 
SMALL
USER_CHARGES


@<TRIPOS>ATOM
  1 O       -2.2730     1.0540     0.5910 O.co2 1 <1>  -0.9000 
  2 C       -1.5540     1.4950    -0.3200 C.2   1 <1>   0.9060 
  3 O       -1.5780     0.9730    -1.4410 O.co2 1 <1>  -0.9000 
  4 C       -0.6260     2.6990    -0.0510 C.3   1 <1>  -0.1060 
  5 C       -1.2950     3.7620     0.8730 C.3   1 <1>   0.2000 
  6 C       -0.3210     3.3650    -1.4250 C.3   1 <1>   0.1400 
  7 C        0.6900     2.2420     0.6450 C.3   1 <1>  -0.1600 
  8 O       -2.0000     3.1940     1.9140 O.3   1 <1>  -0.6800 
  9 C       -2.2260     4.6900     0.0970 C.3   1 <1>  -0.1600 
 10 N       -0.1550     4.8500    -1.3090 N.am  1 <1>  -0.6600 
 11 C        1.4310     1.0770    -0.0360 C.3   1 <1>  -0.1600 
 12 C       -1.3960     5.5590    -0.8600 C.3   1 <1>   0.1400 
 13 C        1.0610     5.4560    -1.5210 C.2   1 <1>   0.5690 
 14 C        2.7050     0.7150     0.7330 C.3   1 <1>  -0.2400 
 15 O        2.0490     4.8280    -1.8290 O.2   1 <1>  -0.5700 
 16 C        1.2150     6.9700    -1.4190 C.3   1 <1>   0.1810 
 17 O        1.1220     7.4120    -0.0750 O.3   1 <1>  -0.3630 
 18 C        1.4670     8.6970     0.1340 C.ar  1 <1>   0.0820 
 19 C        2.7850     9.0470     0.4240 C.ar  1 <1>  -0.1430 
 20 C        0.4730     9.6580     0.0550 C.ar  1 <1>  -0.1500 
 21 C        3.0980    10.3930     0.6010 C.ar  1 <1>  -0.1430 
 22 C        3.8640     7.9710     0.5430 C.3   1 <1>  -0.0970 
 23 C        0.7890    10.9890     0.2420 C.ar  1 <1>  -0.1500 
 24 C        2.0970    11.3510     0.5090 C.ar  1 <1>  -0.1500 
 25 C        4.5190    10.8530     0.8990 C.3   1 <1>  -0.0970 
 26 H       -0.5310     4.3710     1.3270 H     1 <1>   0.0800 
 27 H       -1.1440     3.1990    -2.0990 H     1 <1>   0.0800 
 28 H        0.5390     2.9190    -1.8860 H     1 <1>   0.0800 
 29 H        1.3560     3.0850     0.7150 H     1 <1>   0.0800 
 30 H        0.4470     1.9350     1.6490 H     1 <1>   0.0800 
 31 H       -2.2750     2.2770     1.5920 H     1 <1>   0.4000 
 32 H       -2.9350     4.1040    -0.4620 H     1 <1>   0.0800 
 33 H       -2.7680     5.3250     0.7740 H     1 <1>   0.0800 
 34 H        0.7890     0.2120    -0.0780 H     1 <1>   0.0800 
 35 H        1.6970     1.3360    -1.0450 H     1 <1>   0.0800 
 36 H       -1.1310     6.4620    -0.3420 H     1 <1>   0.0800 
 37 H       -1.9900     5.8210    -1.7180 H     1 <1>   0.0800 
 38 H        2.4610     0.4230     1.7390 H     1 <1>   0.0800 
 39 H        3.3720     1.5580     0.7650 H     1 <1>   0.0800 
 40 H        3.2040    -0.1040     0.2480 H     1 <1>   0.0800 
 41 H        0.4500     7.4580    -1.9910 H     1 <1>   0.0800 
 42 H        2.1790     7.2530    -1.8020 H     1 <1>   0.0800 
 43 H       -0.5380     9.3600    -0.1490 H     1 <1>   0.1500 
 44 H        4.4870     8.1560     1.3990 H     1 <1>   0.0800 
 45 H        4.4740     7.9670    -0.3410 H     1 <1>   0.0800 
 46 H        3.4370     6.9920     0.6670 H     1 <1>   0.0800 
 47 H        0.0230    11.7410     0.1800 H     1 <1>   0.1500 
 48 H        2.3310    12.3920     0.6500 H     1 <1>   0.1500 
 49 H        4.5960    11.9240     0.8480 H     1 <1>   0.0800 
 50 H        5.2020    10.4350     0.1820 H     1 <1>   0.0800 
 51 H        4.8060    10.5380     1.8850 H     1 <1>   0.0800 
@<TRIPOS>BOND
  1   1   2  ar  
  2   2   3  ar  
  3   2   4  1   
  4   4   5  1   
  5   4   6  1   
  6   4   7  1   
  7   5   8  1   
  8   5   9  1   
  9   5  26  1   
 10   6  10  1   
 11   6  27  1   
 12   6  28  1   
 13   7  11  1   
 14   7  29  1   
 15   7  30  1   
 16   8  31  1   
 17   9  12  1   
 18   9  32  1   
 19   9  33  1   
 20  10  12  1   
 21  10  13  am  
 22  11  14  1   
 23  11  34  1   
 24  11  35  1   
 25  12  36  1   
 26  12  37  1   
 27  13  15  2   
 28  13  16  1   
 29  14  38  1   
 30  14  39  1   
 31  14  40  1   
 32  16  17  1   
 33  16  41  1   
 34  16  42  1   
 35  17  18  1   
 36  18  19  ar  
 37  18  20  ar  
 38  19  21  ar  
 39  19  22  1   
 40  20  23  ar  
 41  20  43  1   
 42  21  24  ar  
 43  21  25  1   
 44  22  44  1   
 45  22  45  1   
 46  22  46  1   
 47  23  24  ar  
 48  23  47  1   
 49  24  48  1   
 50  25  49  1   
 51  25  50  1   
 52  25  51  1   
@<TRIPOS>SUBSTRUCTURE
  1 ****  13 GROUP 4 **** **** 0

# MOE 2024.06 (io_trps.svl 2023.06)
