@<TRIPOS>MOLECULE
NONAME
50 52 1 0 0 
SMALL
USER_CHARGES


@<TRIPOS>ATOM
  1 O        0.5660     0.1460    -0.2020 O.2   1 <1>  -0.5700 
  2 C        1.5970    -0.4990    -0.1450 C.2   1 <1>   0.7030 
  3 N        2.7930     0.1780     0.0270 N.am  1 <1>  -0.6600 
  4 C        1.5100    -1.9520    -0.2440 C.2   1 <1>   0.2770 
  5 C        3.9790    -0.4490     0.7000 C.3   1 <1>   0.1400 
  6 C        2.7810     1.6760    -0.0620 C.3   1 <1>   0.1400 
  7 N        0.5710    -2.7810     0.3770 N.pl3 1 <1>  -0.7640 
  8 C        2.2990    -2.7840    -0.9720 C.2   1 <1>   0.2000 
  9 C        5.1450    -0.6750    -0.2740 C.3   1 <1>   0.1400 
 10 C        4.1440     2.3400    -0.3020 C.3   1 <1>  -0.1600 
 11 C        0.8200    -4.0330     0.0220 C.cat 1 <1>   0.6500 
 12 C       -0.5420    -2.2810     1.2370 C.3   1 <1>   0.2740 
 13 N        1.8670    -4.0690    -0.7880 N.pl3 1 <1>  -0.7000 
 14 N        5.8540     0.5950    -0.5970 N.am  1 <1>  -0.6600 
 15 C        5.0370     1.6140    -1.3110 C.3   1 <1>   0.1400 
 16 C        7.1540     0.7850    -0.1900 C.2   1 <1>   0.5690 
 17 O        7.7510    -0.0750     0.4140 O.2   1 <1>  -0.5700 
 18 C        7.8740     2.1000    -0.4830 C.3   1 <1>  -0.0990 
 19 C        9.2540     2.2330     0.1910 C.3   1 <1>  -0.1600 
 20 C        9.9220     3.5780    -0.1260 C.3   1 <1>   0.0210 
 21 C       11.2790     3.7170     0.5450 C.2   1 <1>  -0.1810 
 22 C       12.1110     4.8300     0.4570 C.2   1 <1>   0.1390 
 23 C       11.9560     2.8520     1.3310 C.2   1 <1>  -0.3020 
 24 N       13.2120     4.6810     1.1290 N.2   1 <1>  -0.7070 
 25 N       13.1130     3.4520     1.6700 N.pl3 1 <1>   0.3000 
 26 H        3.6980    -1.3950     1.1270 H     1 <1>   0.0800 
 27 H        4.3130     0.1720     1.5150 H     1 <1>   0.0800 
 28 H        2.3490     2.0750     0.8410 H     1 <1>   0.0800 
 29 H        2.1300     1.9600    -0.8730 H     1 <1>   0.0800 
 30 H        3.1270    -2.5270    -1.6120 H     1 <1>   0.1500 
 31 H        4.7950    -1.1220    -1.1850 H     1 <1>   0.0800 
 32 H        5.8280    -1.3720     0.1800 H     1 <1>   0.0800 
 33 H        4.6650     2.4630     0.6320 H     1 <1>   0.0800 
 34 H        3.9510     3.3300    -0.6750 H     1 <1>   0.0800 
 35 H        0.2510    -4.8970     0.3390 H     1 <1>   0.1500 
 36 H       -0.1460    -1.6880     2.0450 H     1 <1>   0.0800 
 37 H       -1.1010    -3.1030     1.6510 H     1 <1>   0.0800 
 38 H       -1.2080    -1.6660     0.6540 H     1 <1>   0.0800 
 39 H        2.2680    -4.9110    -1.2170 H     1 <1>   0.4500 
 40 H        5.6780     2.3260    -1.8010 H     1 <1>   0.0800 
 41 H        4.4420     1.1430    -2.0750 H     1 <1>   0.0800 
 42 H        7.2510     2.9080    -0.1480 H     1 <1>   0.0800 
 43 H        7.9970     2.1800    -1.5470 H     1 <1>   0.0800 
 44 H        9.8920     1.4340    -0.1460 H     1 <1>   0.0800 
 45 H        9.1380     2.1370     1.2570 H     1 <1>   0.0800 
 46 H        9.2900     4.3820     0.2090 H     1 <1>   0.0800 
 47 H       10.0530     3.6730    -1.1890 H     1 <1>   0.0800 
 48 H       11.8790     5.7220    -0.1010 H     1 <1>   0.1500 
 49 H       11.6880     1.8660     1.6640 H     1 <1>   0.1500 
 50 H       13.8510     3.0540     2.2630 H     1 <1>   0.2700 
@<TRIPOS>BOND
  1   1   2  2   
  2   2   3  am  
  3   2   4  1   
  4   3   5  1   
  5   3   6  1   
  6   4   7  1   
  7   4   8  2   
  8   5   9  1   
  9   5  26  1   
 10   5  27  1   
 11   6  10  1   
 12   6  28  1   
 13   6  29  1   
 14   7  11  ar  
 15   7  12  1   
 16   8  13  1   
 17   8  30  1   
 18   9  14  1   
 19   9  31  1   
 20   9  32  1   
 21  10  15  1   
 22  10  33  1   
 23  10  34  1   
 24  11  13  ar  
 25  11  35  1   
 26  12  36  1   
 27  12  37  1   
 28  12  38  1   
 29  13  39  1   
 30  14  15  1   
 31  14  16  am  
 32  15  40  1   
 33  15  41  1   
 34  16  17  2   
 35  16  18  1   
 36  18  19  1   
 37  18  42  1   
 38  18  43  1   
 39  19  20  1   
 40  19  44  1   
 41  19  45  1   
 42  20  21  1   
 43  20  46  1   
 44  20  47  1   
 45  21  22  1   
 46  21  23  2   
 47  22  24  2   
 48  22  48  1   
 49  23  25  1   
 50  23  49  1   
 51  24  25  1   
 52  25  50  1   
@<TRIPOS>SUBSTRUCTURE
  1 ****  14 GROUP 4 **** **** 0

# MOE 2024.06 (io_trps.svl 2023.06)
