@<TRIPOS>MOLECULE
NONAME
53 56 1 0 0 
SMALL
USER_CHARGES


@<TRIPOS>ATOM
  1 O        0.7580    -1.4200     1.1660 O.3   1 <1>  -0.5600 
  2 C       -0.5950    -1.4890     0.8160 C.3   1 <1>   0.1200 
  3 C        1.2720    -2.6240     1.6640 C.3   1 <1>   0.1200 
  4 C       -0.8320    -2.5480    -0.2790 C.3   1 <1>   0.2090 
  5 C        1.1580    -3.7420     0.6140 C.3   1 <1>   0.2090 
  6 N       -0.2560    -3.8730     0.1200 N.pl3 1 <1>  -0.8380 
  7 C       -0.9490    -5.0490     0.1300 C.ar  1 <1>   0.4100 
  8 N       -0.5610    -5.9740     1.0110 N.ar  1 <1>  -0.6200 
  9 C       -2.0100    -5.2780    -0.7370 C.ar  1 <1>  -0.1500 
 10 C       -1.2250    -7.0960     1.0390 C.ar  1 <1>   0.7710 
 11 C       -2.6800    -6.4700    -0.6870 C.ar  1 <1>   0.4610 
 12 N       -2.2610    -7.3580     0.2260 N.ar  1 <1>  -0.1790 
 13 N       -0.8390    -8.0100     1.9340 N.pl3 1 <1>  -0.9000 
 14 N       -3.7500    -6.7960    -1.4650 N.pl3 1 <1>  -0.8380 
 15 C       -3.8690    -8.1440    -2.0870 C.3   1 <1>   0.3530 
 16 C       -5.1000    -6.2720    -1.1130 C.3   1 <1>   0.2090 
 17 C       -4.3520    -9.0790    -0.9890 C.ar  1 <1>  -0.1430 
 18 C       -5.7390    -7.1620    -0.0280 C.3   1 <1>  -0.0170 
 19 C       -5.2280    -8.6080    -0.0140 C.ar  1 <1>  -0.1430 
 20 C       -3.8980   -10.3870    -0.9350 C.ar  1 <1>  -0.1500 
 21 C       -5.6250    -9.4520     1.0100 C.ar  1 <1>  -0.1500 
 22 C       -4.3000   -11.2290     0.0870 C.ar  1 <1>   0.0830 
 23 C       -5.1580   -10.7530     1.0860 C.ar  1 <1>   0.0830 
 24 O       -3.8340   -12.4970     0.0600 O.3   1 <1>  -0.3620 
 25 O       -5.5790   -11.4780     2.1560 O.3   1 <1>  -0.3620 
 26 C       -4.7450   -13.4640    -0.4170 C.3   1 <1>   0.0400 
 27 C       -4.6630   -12.2920     2.8580 C.3   1 <1>   0.0400 
 28 H       -0.8910    -0.5170     0.4630 H     1 <1>   0.0800 
 29 H       -1.1650    -1.7250     1.6970 H     1 <1>   0.0800 
 30 H        0.7310    -2.8890     2.5560 H     1 <1>   0.0800 
 31 H        2.3030    -2.4590     1.9200 H     1 <1>   0.0800 
 32 H       -0.3660    -2.2170    -1.1920 H     1 <1>   0.0800 
 33 H       -1.8890    -2.6260    -0.4500 H     1 <1>   0.0800 
 34 H        1.5130    -4.6630     1.0390 H     1 <1>   0.0800 
 35 H        1.7990    -3.5020    -0.2170 H     1 <1>   0.0800 
 36 H       -2.2990    -4.5410    -1.4590 H     1 <1>   0.1500 
 37 H       -2.7940    -8.2150     0.3320 H     1 <1>   0.4570 
 38 H       -1.2240    -8.9450     2.0820 H     1 <1>   0.4000 
 39 H       -0.0490    -7.7750     2.5420 H     1 <1>   0.4000 
 40 H       -2.9140    -8.4610    -2.4730 H     1 <1>   0.0800 
 41 H       -4.5760    -8.1230    -2.9010 H     1 <1>   0.0800 
 42 H       -5.7200    -6.2780    -1.9950 H     1 <1>   0.0800 
 43 H       -5.0330    -5.2540    -0.7660 H     1 <1>   0.0800 
 44 H       -6.8070    -7.1600    -0.1600 H     1 <1>   0.0800 
 45 H       -5.5420    -6.7190     0.9320 H     1 <1>   0.0800 
 46 H       -3.2320   -10.7770    -1.6860 H     1 <1>   0.1500 
 47 H       -6.3030    -9.1080     1.7720 H     1 <1>   0.1500 
 48 H       -4.2740   -14.4300    -0.3620 H     1 <1>   0.0800 
 49 H       -4.9950   -13.2340    -1.4380 H     1 <1>   0.0800 
 50 H       -5.6300   -13.4500     0.1950 H     1 <1>   0.0800 
 51 H       -5.0510   -12.4540     3.8480 H     1 <1>   0.0800 
 52 H       -3.7120   -11.7930     2.9130 H     1 <1>   0.0800 
 53 H       -4.5670   -13.2350     2.3520 H     1 <1>   0.0800 
@<TRIPOS>BOND
  1   1   2  1   
  2   1   3  1   
  3   2   4  1   
  4   2  28  1   
  5   2  29  1   
  6   3   5  1   
  7   3  30  1   
  8   3  31  1   
  9   4   6  1   
 10   4  32  1   
 11   4  33  1   
 12   5   6  1   
 13   5  34  1   
 14   5  35  1   
 15   6   7  1   
 16   7   8  ar  
 17   7   9  ar  
 18   8  10  ar  
 19   9  11  ar  
 20   9  36  1   
 21  10  12  ar  
 22  10  13  1   
 23  11  12  ar  
 24  11  14  1   
 25  12  37  1   
 26  13  38  1   
 27  13  39  1   
 28  14  15  1   
 29  14  16  1   
 30  15  17  1   
 31  15  40  1   
 32  15  41  1   
 33  16  18  1   
 34  16  42  1   
 35  16  43  1   
 36  17  19  ar  
 37  17  20  ar  
 38  18  19  1   
 39  18  44  1   
 40  18  45  1   
 41  19  21  ar  
 42  20  22  ar  
 43  20  46  1   
 44  21  23  ar  
 45  21  47  1   
 46  22  23  ar  
 47  22  24  1   
 48  23  25  1   
 49  24  26  1   
 50  25  27  1   
 51  26  48  1   
 52  26  49  1   
 53  26  50  1   
 54  27  51  1   
 55  27  52  1   
 56  27  53  1   
@<TRIPOS>SUBSTRUCTURE
  1 ****  12 GROUP 4 **** **** 0

# MOE 2024.06 (io_trps.svl 2023.06)
