@<TRIPOS>MOLECULE
NONAME
57 58 1 0 0 
SMALL
USER_CHARGES


@<TRIPOS>ATOM
  1 O       -1.4840    -1.6700    -1.2120 O.2   1 <1>  -0.5700 
  2 C       -0.7340    -2.4130    -0.6050 C.2   1 <1>   0.6900 
  3 N        0.4760    -1.9700    -0.1320 N.am  1 <1>  -0.6600 
  4 N       -1.1070    -3.6910    -0.3690 N.am  1 <1>  -0.7300 
  5 C        0.8510    -0.5310    -0.2010 C.3   1 <1>   0.0600 
  6 C        1.5430    -2.8680     0.3880 C.3   1 <1>   0.0600 
  7 C       -2.4360    -4.2840    -0.7140 C.3   1 <1>   0.2010 
  8 C       -3.2250    -4.7230     0.5230 C.2   1 <1>   0.5690 
  9 O       -3.0950    -5.8730     0.8820 O.2   1 <1>  -0.5700 
 10 N       -4.0490    -3.8580     1.2010 N.am  1 <1>  -0.6600 
 11 C       -4.9400    -4.3590     2.2830 C.3   1 <1>   0.1400 
 12 C       -4.2510    -2.4260     0.8510 C.3   1 <1>   0.1400 
 13 C       -6.2090    -5.0110     1.7100 C.3   1 <1>   0.1400 
 14 C       -5.5210    -2.2270     0.0150 C.3   1 <1>  -0.1600 
 15 N       -6.8260    -4.2750     0.5540 N.am  1 <1>  -0.6600 
 16 C       -6.8020    -2.7850     0.6520 C.3   1 <1>   0.1400 
 17 C       -7.3580    -4.8620    -0.5790 C.2   1 <1>   0.5690 
 18 O       -7.8230    -4.1750    -1.4610 O.2   1 <1>  -0.5700 
 19 C       -7.4110    -6.3800    -0.8270 C.3   1 <1>  -0.0190 
 20 C       -8.1960    -7.1500     0.2650 C.3   1 <1>  -0.1600 
 21 C       -6.0200    -6.9370    -1.2040 C.3   1 <1>  -0.1600 
 22 C       -8.6660    -8.5380    -0.1970 C.3   1 <1>  -0.1600 
 23 C       -5.9710    -8.4380    -1.5290 C.3   1 <1>  -0.1600 
 24 C       -7.6400    -9.6610     0.0170 C.3   1 <1>  -0.1600 
 25 C       -6.1740    -9.3120    -0.2850 C.3   1 <1>  -0.1600 
 26 H       -0.5560    -4.2230     0.3000 H     1 <1>   0.3700 
 27 H       -0.0080     0.0780    -0.4260 H     1 <1>   0.0800 
 28 H        1.5870    -0.3860    -0.9720 H     1 <1>   0.0800 
 29 H        1.2560    -0.2130     0.7440 H     1 <1>   0.0800 
 30 H        1.4460    -3.8560    -0.0270 H     1 <1>   0.0800 
 31 H        1.4770    -2.9230     1.4610 H     1 <1>   0.0800 
 32 H        2.5100    -2.4840     0.1150 H     1 <1>   0.0800 
 33 H       -2.2730    -5.1480    -1.3310 H     1 <1>   0.0800 
 34 H       -3.0200    -3.5880    -1.2870 H     1 <1>   0.0800 
 35 H       -5.2110    -3.5510     2.9390 H     1 <1>   0.0800 
 36 H       -4.4110    -5.0850     2.8770 H     1 <1>   0.0800 
 37 H       -3.4040    -2.0480     0.3100 H     1 <1>   0.0800 
 38 H       -4.3220    -1.8510     1.7580 H     1 <1>   0.0800 
 39 H       -6.9400    -5.1010     2.4940 H     1 <1>   0.0800 
 40 H       -5.9350    -6.0030     1.4160 H     1 <1>   0.0800 
 41 H       -5.3880    -2.6590    -0.9610 H     1 <1>   0.0800 
 42 H       -5.6520    -1.1710    -0.1290 H     1 <1>   0.0800 
 43 H       -7.6540    -2.3810     0.1310 H     1 <1>   0.0800 
 44 H       -6.8840    -2.4760     1.6790 H     1 <1>   0.0800 
 45 H       -8.0020    -6.4830    -1.7210 H     1 <1>   0.0800 
 46 H       -9.0730    -6.5700     0.4950 H     1 <1>   0.0800 
 47 H       -7.6350    -7.2510     1.1730 H     1 <1>   0.0800 
 48 H       -5.3050    -6.7310    -0.4300 H     1 <1>   0.0800 
 49 H       -5.6830    -6.3990    -2.0730 H     1 <1>   0.0800 
 50 H       -8.9460    -8.5000    -1.2360 H     1 <1>   0.0800 
 51 H       -9.5560    -8.7990     0.3500 H     1 <1>   0.0800 
 52 H       -4.9920    -8.6490    -1.9240 H     1 <1>   0.0800 
 53 H       -6.6840    -8.6880    -2.2960 H     1 <1>   0.0800 
 54 H       -7.9310   -10.4950    -0.5980 H     1 <1>   0.0800 
 55 H       -7.6970    -9.9920     1.0400 H     1 <1>   0.0800 
 56 H       -5.7340    -8.8270     0.5700 H     1 <1>   0.0800 
 57 H       -5.6400   -10.2370    -0.4230 H     1 <1>   0.0800 
@<TRIPOS>BOND
  1   1   2  2   
  2   2   3  am  
  3   2   4  am  
  4   3   5  1   
  5   3   6  1   
  6   4   7  1   
  7   4  26  1   
  8   5  27  1   
  9   5  28  1   
 10   5  29  1   
 11   6  30  1   
 12   6  31  1   
 13   6  32  1   
 14   7   8  1   
 15   7  33  1   
 16   7  34  1   
 17   8   9  2   
 18   8  10  am  
 19  10  11  1   
 20  10  12  1   
 21  11  13  1   
 22  11  35  1   
 23  11  36  1   
 24  12  14  1   
 25  12  37  1   
 26  12  38  1   
 27  13  15  1   
 28  13  39  1   
 29  13  40  1   
 30  14  16  1   
 31  14  41  1   
 32  14  42  1   
 33  15  16  1   
 34  15  17  am  
 35  16  43  1   
 36  16  44  1   
 37  17  18  2   
 38  17  19  1   
 39  19  20  1   
 40  19  21  1   
 41  19  45  1   
 42  20  22  1   
 43  20  46  1   
 44  20  47  1   
 45  21  23  1   
 46  21  48  1   
 47  21  49  1   
 48  22  24  1   
 49  22  50  1   
 50  22  51  1   
 51  23  25  1   
 52  23  52  1   
 53  23  53  1   
 54  24  25  1   
 55  24  54  1   
 56  24  55  1   
 57  25  56  1   
 58  25  57  1   
@<TRIPOS>SUBSTRUCTURE
  1 ****   8 GROUP 4 **** **** 0

# MOE 2024.06 (io_trps.svl 2023.06)
