@<TRIPOS>MOLECULE
NONAME
45 47 1 0 0 
SMALL
USER_CHARGES


@<TRIPOS>ATOM
  1 N        0.5380     0.7690    -1.1680 N.2   1 <1>  -0.3380 
  2 N        0.1450     1.6640    -2.0780 N.2   1 <1>  -0.3380 
  3 C        1.6820     1.1620    -0.7290 C.2   1 <1>   0.0360 
  4 C        1.0690     2.5570    -2.1470 C.2   1 <1>   0.0360 
  5 N        2.0750     2.2970    -1.3100 N.pl3 1 <1>   0.0480 
  6 C        3.3000     3.0790    -1.0710 C.3   1 <1>   0.0960 
  7 C        3.0590     4.0850     0.0620 C.3   1 <1>   0.1100 
  8 N        4.2570     4.9200     0.3060 N.3   1 <1>  -0.8100 
  9 C        3.8560     6.1750     1.0020 C.3   1 <1>   0.1100 
 10 C        5.2810     4.1840     1.0810 C.3   1 <1>   0.1100 
 11 C        5.0010     7.2000     1.1430 C.3   1 <1>   0.3430 
 12 C        6.6840     4.5390     0.5760 C.3   1 <1>  -0.1600 
 13 N        6.0770     6.8910     0.1600 N.4   1 <1>  -0.9590 
 14 C        7.1000     5.9990     0.7640 C.3   1 <1>   0.3430 
 15 C        6.5820     8.1010    -0.5470 C.3   1 <1>   0.4230 
 16 C        7.5090     7.7200    -1.7060 C.3   1 <1>  -0.1600 
 17 C        7.3980     9.0190     0.3760 C.3   1 <1>  -0.1600 
 18 C        8.9260     8.1080    -1.2800 C.3   1 <1>  -0.1600 
 19 C        8.7260     9.2890    -0.3370 C.3   1 <1>  -0.1600 
 20 H        2.2580     0.6450     0.0170 H     1 <1>   0.1500 
 21 H        1.0420     3.4130    -2.7960 H     1 <1>   0.1500 
 22 H        3.5580     3.6000    -1.9740 H     1 <1>   0.0800 
 23 H        4.0930     2.3990    -0.8190 H     1 <1>   0.0800 
 24 H        2.7780     3.5690     0.9670 H     1 <1>   0.0800 
 25 H        2.2360     4.7160    -0.2330 H     1 <1>   0.0800 
 26 H        3.4500     5.9530     1.9750 H     1 <1>   0.0800 
 27 H        3.0720     6.6500     0.4350 H     1 <1>   0.0800 
 28 H        5.1500     3.1210     0.9610 H     1 <1>   0.0800 
 29 H        5.1900     4.3940     2.1350 H     1 <1>   0.0800 
 30 H        5.3960     7.1680     2.1450 H     1 <1>   0.0800 
 31 H        4.6070     8.1890     0.9770 H     1 <1>   0.0800 
 32 H        6.7610     4.2770    -0.4650 H     1 <1>   0.0800 
 33 H        7.3940     3.9260     1.1010 H     1 <1>   0.0800 
 34 H        5.5840     6.2820    -0.5180 H     1 <1>   0.4500 
 35 H        8.0530     6.1490     0.2860 H     1 <1>   0.0800 
 36 H        7.2150     6.2230     1.8120 H     1 <1>   0.0800 
 37 H        5.7460     8.6500    -0.9500 H     1 <1>   0.0800 
 38 H        7.2400     8.3240    -2.5550 H     1 <1>   0.0800 
 39 H        7.4390     6.6860    -1.9940 H     1 <1>   0.0800 
 40 H        7.5950     8.5620     1.3280 H     1 <1>   0.0800 
 41 H        6.8770     9.9460     0.5410 H     1 <1>   0.0800 
 42 H        9.5410     8.3720    -2.1240 H     1 <1>   0.0800 
 43 H        9.3980     7.2970    -0.7530 H     1 <1>   0.0800 
 44 H        9.5460     9.3960     0.3540 H     1 <1>   0.0800 
 45 H        8.6460    10.1940    -0.9170 H     1 <1>   0.0800 
@<TRIPOS>BOND
  1   1   2  1   
  2   1   3  2   
  3   2   4  2   
  4   3   5  1   
  5   3  20  1   
  6   4   5  1   
  7   4  21  1   
  8   5   6  1   
  9   6   7  1   
 10   6  22  1   
 11   6  23  1   
 12   7   8  1   
 13   7  24  1   
 14   7  25  1   
 15   8   9  1   
 16   8  10  1   
 17   9  11  1   
 18   9  26  1   
 19   9  27  1   
 20  10  12  1   
 21  10  28  1   
 22  10  29  1   
 23  11  13  1   
 24  11  30  1   
 25  11  31  1   
 26  12  14  1   
 27  12  32  1   
 28  12  33  1   
 29  13  14  1   
 30  13  15  1   
 31  13  34  1   
 32  14  35  1   
 33  14  36  1   
 34  15  16  1   
 35  15  17  1   
 36  15  37  1   
 37  16  18  1   
 38  16  38  1   
 39  16  39  1   
 40  17  19  1   
 41  17  40  1   
 42  17  41  1   
 43  18  19  1   
 44  18  42  1   
 45  18  43  1   
 46  19  44  1   
 47  19  45  1   
@<TRIPOS>SUBSTRUCTURE
  1 ****   8 GROUP 4 **** **** 0

# MOE 2024.06 (io_trps.svl 2023.06)
