@<TRIPOS>MOLECULE
NONAME
53 54 1 0 0 
SMALL
USER_CHARGES


@<TRIPOS>ATOM
  1 O       -0.4900    -0.8390    -2.7480 O.2   1 <1>  -0.5700 
  2 C        0.2850    -1.5710    -2.1740 C.2   1 <1>   0.5690 
  3 N        1.1880    -1.0610    -1.2970 N.am  1 <1>  -0.7300 
  4 C        0.2700    -3.1030    -2.4430 C.3   1 <1>   0.3410 
  5 C        1.2750     0.3590    -0.8840 C.3   1 <1>   0.3210 
  6 O        0.5620    -3.8510    -1.2640 O.3   1 <1>  -0.3630 
  7 C        1.4100    -3.4460    -3.4130 C.3   1 <1>  -0.2400 
  8 C       -1.0400    -3.6490    -3.0450 C.3   1 <1>  -0.2400 
  9 C        2.5350     0.6400    -0.0640 C.2   1 <1>   0.3350 
 10 C        0.1090    -3.6040    -0.0020 C.ar  1 <1>   0.0830 
 11 N        3.3710    -0.2370     0.3380 N.2   1 <1>  -0.4100 
 12 N        2.8550     1.8760     0.3010 N.2   1 <1>  -0.5650 
 13 C        0.8520    -4.1020     1.0720 C.ar  1 <1>  -0.1430 
 14 C       -1.0480    -2.8660     0.2450 C.ar  1 <1>  -0.1500 
 15 O        4.2930     0.3880     1.0060 O.3   1 <1>  -0.0190 
 16 C        3.9290     1.6450     0.9500 C.2   1 <1>   0.2980 
 17 C        0.4080    -3.8480     2.3630 C.ar  1 <1>  -0.1500 
 18 C        2.1500    -4.9060     0.9170 C.3   1 <1>   0.0630 
 19 C       -1.4750    -2.6180     1.5360 C.ar  1 <1>  -0.1430 
 20 C        4.8080     2.6910     1.6200 C.3   1 <1>   0.3000 
 21 C       -0.7410    -3.1160     2.5960 C.ar  1 <1>  -0.1500 
 22 C        3.2710    -4.0660     0.2940 C.3   1 <1>  -0.2400 
 23 C        1.9400    -6.2200     0.1560 C.3   1 <1>  -0.2400 
 24 C       -2.7340    -1.8090     1.7890 C.3   1 <1>  -0.0970 
 25 O        4.9640     2.4120     2.9840 O.3   1 <1>  -0.5600 
 26 C        5.7420     3.3380     3.6720 C.3   1 <1>   0.0400 
 27 H        1.7390    -1.7050    -0.7170 H     1 <1>   0.3700 
 28 H        0.4130     0.6060    -0.2910 H     1 <1>   0.0800 
 29 H        1.2750     0.9840    -1.7590 H     1 <1>   0.0800 
 30 H        2.3510    -3.1150    -3.0130 H     1 <1>   0.0800 
 31 H        1.2530    -2.9490    -4.3530 H     1 <1>   0.0800 
 32 H        1.4530    -4.5060    -3.5860 H     1 <1>   0.0800 
 33 H       -1.8860    -3.4360    -2.4230 H     1 <1>   0.0800 
 34 H       -0.9710    -4.7120    -3.1860 H     1 <1>   0.0800 
 35 H       -1.2190    -3.1880    -4.0000 H     1 <1>   0.0800 
 36 H       -1.6320    -2.4670    -0.5580 H     1 <1>   0.1500 
 37 H        0.9590    -4.2170     3.2090 H     1 <1>   0.1500 
 38 H        2.4890    -5.1790     1.9020 H     1 <1>   0.0800 
 39 H        4.3530     3.6600     1.5180 H     1 <1>   0.0800 
 40 H        5.7780     2.6940     1.1570 H     1 <1>   0.0800 
 41 H       -1.0600    -2.9350     3.6080 H     1 <1>   0.1500 
 42 H        3.0510    -3.8230    -0.7280 H     1 <1>   0.0800 
 43 H        4.1990    -4.6070     0.3220 H     1 <1>   0.0800 
 44 H        3.3930    -3.1510     0.8460 H     1 <1>   0.0800 
 45 H        1.7040    -6.0400    -0.8760 H     1 <1>   0.0800 
 46 H        1.1320    -6.7730     0.6010 H     1 <1>   0.0800 
 47 H        2.8320    -6.8200     0.2000 H     1 <1>   0.0800 
 48 H       -2.9100    -1.1220     0.9800 H     1 <1>   0.0800 
 49 H       -2.6390    -1.2430     2.6980 H     1 <1>   0.0800 
 50 H       -3.5780    -2.4680     1.8740 H     1 <1>   0.0800 
 51 H        5.7970     3.0280     4.7010 H     1 <1>   0.0800 
 52 H        5.2800     4.3080     3.6120 H     1 <1>   0.0800 
 53 H        6.7310     3.3590     3.2480 H     1 <1>   0.0800 
@<TRIPOS>BOND
  1   1   2  2   
  2   2   3  am  
  3   2   4  1   
  4   3   5  1   
  5   3  27  1   
  6   4   6  1   
  7   4   7  1   
  8   4   8  1   
  9   5   9  1   
 10   5  28  1   
 11   5  29  1   
 12   6  10  1   
 13   7  30  1   
 14   7  31  1   
 15   7  32  1   
 16   8  33  1   
 17   8  34  1   
 18   8  35  1   
 19   9  11  2   
 20   9  12  1   
 21  10  13  ar  
 22  10  14  ar  
 23  11  15  1   
 24  12  16  2   
 25  13  17  ar  
 26  13  18  1   
 27  14  19  ar  
 28  14  36  1   
 29  15  16  1   
 30  16  20  1   
 31  17  21  ar  
 32  17  37  1   
 33  18  22  1   
 34  18  23  1   
 35  18  38  1   
 36  19  21  ar  
 37  19  24  1   
 38  20  25  1   
 39  20  39  1   
 40  20  40  1   
 41  21  41  1   
 42  22  42  1   
 43  22  43  1   
 44  22  44  1   
 45  23  45  1   
 46  23  46  1   
 47  23  47  1   
 48  24  48  1   
 49  24  49  1   
 50  24  50  1   
 51  25  26  1   
 52  26  51  1   
 53  26  52  1   
 54  26  53  1   
@<TRIPOS>SUBSTRUCTURE
  1 ****   3 GROUP 4 **** **** 0

# MOE 2024.06 (io_trps.svl 2023.06)
