@<TRIPOS>MOLECULE
NONAME
43 44 1 0 0 
SMALL
USER_CHARGES


@<TRIPOS>ATOM
  1 S        0.3020     0.2550     0.2590 S.o2  1 <1>   1.3330 
  2 O       -0.0220     1.1690     1.3310 O.2   1 <1>  -0.6500 
  3 O        0.6020    -1.1260     0.5640 O.2   1 <1>  -0.6500 
  4 N       -0.9970     0.2580    -0.8370 N.am  1 <1>  -0.8490 
  5 C        1.6240     0.9920    -0.7060 C.3   1 <1>  -0.0550 
  6 C       -0.9770    -0.8800    -1.7620 C.3   1 <1>   0.1160 
  7 C       -2.2940     0.3200    -0.1550 C.3   1 <1>   0.1160 
  8 C        2.9600     1.1170     0.0500 C.3   1 <1>  -0.0800 
  9 C        3.9520     1.9830    -0.7340 C.3   1 <1>   0.2200 
 10 C        3.6870    -0.2270     0.1260 C.3   1 <1>   0.1200 
 11 N        4.5240     3.0830     0.0850 N.am  1 <1>  -0.7300 
 12 C        5.0180     0.9920    -1.2130 C.3   1 <1>   0.1200 
 13 O        4.4590    -0.2680    -1.0270 O.3   1 <1>  -0.5600 
 14 C        5.1890     3.0010     1.2680 C.2   1 <1>   0.5690 
 15 O        5.3660     1.9540     1.8410 O.2   1 <1>  -0.5700 
 16 C        5.7240     4.2740     1.8950 C.3   1 <1>   0.0820 
 17 C        6.4340     5.1670     0.8890 C.2   1 <1>   0.0460 
 18 N        5.6630     5.8200    -0.0660 N.2   1 <1>  -0.5650 
 19 C        7.7560     5.3930     0.8410 C.2   1 <1>  -0.1100 
 20 C        6.3840     6.5390    -0.8290 C.2   1 <1>   0.1980 
 21 S        8.0950     6.4880    -0.4670 S.3   1 <1>  -0.0800 
 22 C        5.9480     7.4120    -1.9820 C.3   1 <1>  -0.0600 
 23 H        1.7800     0.4220    -1.6010 H     1 <1>   0.0800 
 24 H        1.3030     1.9740    -0.9970 H     1 <1>   0.0800 
 25 H       -1.7650    -0.7790    -2.4890 H     1 <1>   0.0800 
 26 H       -1.1110    -1.8050    -1.2260 H     1 <1>   0.0800 
 27 H       -0.0360    -0.9190    -2.2850 H     1 <1>   0.0800 
 28 H       -3.0940     0.3310    -0.8750 H     1 <1>   0.0800 
 29 H       -2.3590     1.2200     0.4330 H     1 <1>   0.0800 
 30 H       -2.4140    -0.5290     0.4980 H     1 <1>   0.0800 
 31 H        2.7810     1.5050     1.0390 H     1 <1>   0.0800 
 32 H        3.4750     2.4190    -1.5950 H     1 <1>   0.0800 
 33 H        3.0370    -1.0830     0.1470 H     1 <1>   0.0800 
 34 H        4.3520    -0.2600     0.9740 H     1 <1>   0.0800 
 35 H        4.5380     4.0120    -0.3600 H     1 <1>   0.3700 
 36 H        5.9110     1.0480    -0.6140 H     1 <1>   0.0800 
 37 H        5.2530     1.1160    -2.2540 H     1 <1>   0.0800 
 38 H        4.9070     4.8130     2.3360 H     1 <1>   0.0800 
 39 H        6.4080     4.0070     2.6790 H     1 <1>   0.0800 
 40 H        8.5830     5.0410     1.4310 H     1 <1>   0.1500 
 41 H        4.8800     7.3670    -2.0900 H     1 <1>   0.0800 
 42 H        6.4080     7.0720    -2.8910 H     1 <1>   0.0800 
 43 H        6.2380     8.4300    -1.7970 H     1 <1>   0.0800 
@<TRIPOS>BOND
  1   1   2  2   
  2   1   3  2   
  3   1   4  am  
  4   1   5  1   
  5   4   6  1   
  6   4   7  1   
  7   5   8  1   
  8   5  23  1   
  9   5  24  1   
 10   6  25  1   
 11   6  26  1   
 12   6  27  1   
 13   7  28  1   
 14   7  29  1   
 15   7  30  1   
 16   8   9  1   
 17   8  10  1   
 18   8  31  1   
 19   9  11  1   
 20   9  12  1   
 21   9  32  1   
 22  10  13  1   
 23  10  33  1   
 24  10  34  1   
 25  11  14  am  
 26  11  35  1   
 27  12  13  1   
 28  12  36  1   
 29  12  37  1   
 30  14  15  2   
 31  14  16  1   
 32  16  17  1   
 33  16  38  1   
 34  16  39  1   
 35  17  18  1   
 36  17  19  2   
 37  18  20  2   
 38  19  21  1   
 39  19  40  1   
 40  20  21  1   
 41  20  22  1   
 42  22  41  1   
 43  22  42  1   
 44  22  43  1   
@<TRIPOS>SUBSTRUCTURE
  1 ****   9 GROUP 4 **** **** 0

# MOE 2024.06 (io_trps.svl 2023.06)
