@<TRIPOS>MOLECULE
NONAME
52 54 1 0 0 
SMALL
USER_CHARGES


@<TRIPOS>ATOM
  1 F        1.5720     0.4240    -2.0580 F     1 <1>  -0.1900 
  2 C        2.3900     1.2280    -1.4140 C.ar  1 <1>   0.1900 
  3 C        2.4450     2.5790    -1.6920 C.ar  1 <1>   0.3920 
  4 C        3.2130     0.7260    -0.4440 C.ar  1 <1>   0.1600 
  5 O        1.6440     3.0970    -2.6510 O.3   1 <1>  -0.3630 
  6 N        3.2680     3.3760    -1.0380 N.ar  1 <1>  -0.6200 
  7 N        4.0450     1.5050     0.2160 N.ar  1 <1>  -0.6200 
  8 C        1.6990     4.4710    -2.9820 C.3   1 <1>   0.0400 
  9 C        4.0360     2.8000    -0.1140 C.ar  1 <1>   0.7200 
 10 N        4.9070     3.6190     0.5710 N.pl3 1 <1>  -0.8380 
 11 C        6.1990     3.1170     1.1150 C.3   1 <1>   0.2090 
 12 C        4.6970     5.0870     0.6940 C.3   1 <1>   0.2090 
 13 C        7.3560     3.8590     0.4400 C.3   1 <1>  -0.1600 
 14 C        5.8460     5.8250     0.0070 C.3   1 <1>  -0.1600 
 15 C        7.2120     5.3900     0.5700 C.3   1 <1>  -0.0190 
 16 C        8.3520     6.1540    -0.1180 C.2   1 <1>   0.5690 
 17 O        8.8240     5.6730    -1.1240 O.2   1 <1>  -0.5700 
 18 N        8.8140     7.3500     0.3790 N.am  1 <1>  -0.6600 
 19 C        9.8860     8.0920    -0.3460 C.3   1 <1>   0.2840 
 20 C        8.2500     8.0700     1.5530 C.3   1 <1>   0.1400 
 21 C        9.2950     9.2940    -1.0690 C.ar  1 <1>  -0.1430 
 22 C        9.0620     7.7270     2.8000 C.3   1 <1>  -0.2400 
 23 C        9.6090    10.5870    -0.6750 C.ar  1 <1>  -0.1500 
 24 C        8.4320     9.1010    -2.1370 C.ar  1 <1>  -0.1500 
 25 C        9.0640    11.6720    -1.3400 C.ar  1 <1>  -0.1500 
 26 C        7.8870    10.1850    -2.8030 C.ar  1 <1>  -0.1500 
 27 C        8.2020    11.4720    -2.4040 C.ar  1 <1>  -0.1500 
 28 H        3.1890    -0.3230    -0.2070 H     1 <1>   0.1500 
 29 H        0.9910     4.6580    -3.7680 H     1 <1>   0.0800 
 30 H        2.6940     4.7090    -3.3140 H     1 <1>   0.0800 
 31 H        1.4460     5.0490    -2.1100 H     1 <1>   0.0800 
 32 H        6.3130     2.0610     0.9400 H     1 <1>   0.0800 
 33 H        6.2200     3.2820     2.1780 H     1 <1>   0.0800 
 34 H        4.6690     5.3460     1.7390 H     1 <1>   0.0800 
 35 H        3.7590     5.3870     0.2600 H     1 <1>   0.0800 
 36 H        7.3750     3.5800    -0.5990 H     1 <1>   0.0800 
 37 H        8.2850     3.5440     0.8790 H     1 <1>   0.0800 
 38 H        5.7140     6.8840     0.1340 H     1 <1>   0.0800 
 39 H        5.8070     5.6170    -1.0490 H     1 <1>   0.0800 
 40 H        7.2370     5.6090     1.6200 H     1 <1>   0.0800 
 41 H       10.3740     7.4560    -1.0650 H     1 <1>   0.0800 
 42 H       10.6350     8.4110     0.3560 H     1 <1>   0.0800 
 43 H        7.2190     7.8040     1.7000 H     1 <1>   0.0800 
 44 H        8.2790     9.1320     1.3800 H     1 <1>   0.0800 
 45 H        9.0460     6.6680     2.9810 H     1 <1>   0.0800 
 46 H        8.6400     8.2260     3.6530 H     1 <1>   0.0800 
 47 H       10.0800     8.0530     2.6870 H     1 <1>   0.0800 
 48 H       10.2780    10.7570     0.1500 H     1 <1>   0.1500 
 49 H        8.1850     8.0990    -2.4490 H     1 <1>   0.1500 
 50 H        9.3100    12.6730    -1.0310 H     1 <1>   0.1500 
 51 H        7.2190    10.0250    -3.6310 H     1 <1>   0.1500 
 52 H        7.7790    12.3150    -2.9220 H     1 <1>   0.1500 
@<TRIPOS>BOND
  1   1   2  1   
  2   2   3  ar  
  3   2   4  ar  
  4   3   5  1   
  5   3   6  ar  
  6   4   7  ar  
  7   4  28  1   
  8   5   8  1   
  9   6   9  ar  
 10   7   9  ar  
 11   8  29  1   
 12   8  30  1   
 13   8  31  1   
 14   9  10  1   
 15  10  11  1   
 16  10  12  1   
 17  11  13  1   
 18  11  32  1   
 19  11  33  1   
 20  12  14  1   
 21  12  34  1   
 22  12  35  1   
 23  13  15  1   
 24  13  36  1   
 25  13  37  1   
 26  14  15  1   
 27  14  38  1   
 28  14  39  1   
 29  15  16  1   
 30  15  40  1   
 31  16  17  2   
 32  16  18  am  
 33  18  19  1   
 34  18  20  1   
 35  19  21  1   
 36  19  41  1   
 37  19  42  1   
 38  20  22  1   
 39  20  43  1   
 40  20  44  1   
 41  21  23  ar  
 42  21  24  ar  
 43  22  45  1   
 44  22  46  1   
 45  22  47  1   
 46  23  25  ar  
 47  23  48  1   
 48  24  26  ar  
 49  24  49  1   
 50  25  27  ar  
 51  25  50  1   
 52  26  27  ar  
 53  26  51  1   
 54  27  52  1   
@<TRIPOS>SUBSTRUCTURE
  1 ****  14 GROUP 4 **** **** 0

# MOE 2024.06 (io_trps.svl 2023.06)
