@<TRIPOS>MOLECULE
NONAME
41 43 1 0 0 
SMALL
USER_CHARGES


@<TRIPOS>ATOM
  1 F        2.4140     0.7630     1.8420 F     1 <1>  -0.1900 
  2 C        2.4310    -0.1450     0.9030 C.ar  1 <1>   0.1900 
  3 C        3.5900    -0.3350     0.1430 C.ar  1 <1>   0.0860 
  4 C        1.2740    -0.8790     0.7280 C.ar  1 <1>  -0.1500 
  5 C        4.7970     0.4490     0.3200 C.2   1 <1>   0.5440 
  6 C        3.5320    -1.3470    -0.8200 C.ar  1 <1>  -0.1500 
  7 C        1.2580    -1.8610    -0.2460 C.ar  1 <1>   0.0830 
  8 O        5.8950    -0.0330     0.1080 O.2   1 <1>  -0.5700 
  9 N        4.7830     1.7840     0.6330 N.am  1 <1>  -0.6600 
 10 C        2.3850    -2.0970    -1.0150 C.ar  1 <1>  -0.1500 
 11 O        0.1610    -2.5960    -0.4540 O.3   1 <1>  -0.5330 
 12 C        5.7990     2.3180     1.6130 C.3   1 <1>   0.2200 
 13 C        4.0640     2.7310    -0.2630 C.3   1 <1>   0.1400 
 14 C        5.3220     3.5890     2.3350 C.3   1 <1>   0.1200 
 15 C        7.1660     2.5680     0.9320 C.3   1 <1>   0.3430 
 16 C        4.8680     4.0040    -0.5890 C.3   1 <1>  -0.0800 
 17 O        5.6470     4.7260     1.5890 O.3   1 <1>  -0.5600 
 18 N        7.0500     2.6000    -0.5650 N.4   1 <1>  -0.9590 
 19 C        4.7840     5.0370     0.5480 C.3   1 <1>   0.1200 
 20 C        6.3150     3.7950    -1.1000 C.3   1 <1>   0.3430 
 21 C        8.3770     2.4150    -1.2130 C.3   1 <1>   0.2630 
 22 H        0.4140    -0.6850     1.3420 H     1 <1>   0.1500 
 23 H        4.4020    -1.5510    -1.4220 H     1 <1>   0.1500 
 24 H        2.3560    -2.8710    -1.7620 H     1 <1>   0.1500 
 25 H       -0.5860    -2.3890     0.1370 H     1 <1>   0.4500 
 26 H        5.9400     1.5680     2.3720 H     1 <1>   0.0800 
 27 H        3.8290     2.2250    -1.1850 H     1 <1>   0.0800 
 28 H        3.1280     3.0000     0.1980 H     1 <1>   0.0800 
 29 H        5.8450     3.6790     3.2710 H     1 <1>   0.0800 
 30 H        4.2650     3.5630     2.5410 H     1 <1>   0.0800 
 31 H        7.8200     1.7590     1.2140 H     1 <1>   0.0800 
 32 H        7.6010     3.4830     1.2980 H     1 <1>   0.0800 
 33 H        4.3410     4.4710    -1.4010 H     1 <1>   0.0800 
 34 H        6.4710     1.7560    -0.7480 H     1 <1>   0.4500 
 35 H        3.7830     5.1220     0.9370 H     1 <1>   0.0800 
 36 H        5.0790     6.0060     0.1820 H     1 <1>   0.0800 
 37 H        6.8840     4.6860    -0.8840 H     1 <1>   0.0800 
 38 H        6.2690     3.7000    -2.1730 H     1 <1>   0.0800 
 39 H        9.0240     3.2460    -0.9860 H     1 <1>   0.0800 
 40 H        8.2640     2.3430    -2.2820 H     1 <1>   0.0800 
 41 H        8.8390     1.5080    -0.8570 H     1 <1>   0.0800 
@<TRIPOS>BOND
  1   1   2  1   
  2   2   3  ar  
  3   2   4  ar  
  4   3   5  1   
  5   3   6  ar  
  6   4   7  ar  
  7   4  22  1   
  8   5   8  2   
  9   5   9  am  
 10   6  10  ar  
 11   6  23  1   
 12   7  10  ar  
 13   7  11  1   
 14   9  12  1   
 15   9  13  1   
 16  10  24  1   
 17  11  25  1   
 18  12  14  1   
 19  12  15  1   
 20  12  26  1   
 21  13  16  1   
 22  13  27  1   
 23  13  28  1   
 24  14  17  1   
 25  14  29  1   
 26  14  30  1   
 27  15  18  1   
 28  15  31  1   
 29  15  32  1   
 30  16  19  1   
 31  16  20  1   
 32  16  33  1   
 33  17  19  1   
 34  18  20  1   
 35  18  21  1   
 36  18  34  1   
 37  19  35  1   
 38  19  36  1   
 39  20  37  1   
 40  20  38  1   
 41  21  39  1   
 42  21  40  1   
 43  21  41  1   
@<TRIPOS>SUBSTRUCTURE
  1 ****   9 GROUP 4 **** **** 0

# MOE 2024.06 (io_trps.svl 2023.06)
