@<TRIPOS>MOLECULE
NONAME
35 36 1 0 0 
SMALL
USER_CHARGES


@<TRIPOS>ATOM
  1 CL       0.1450     0.5130    -0.2460 Cl    1 <1>  -0.1770 
  2 C        1.6470     1.3750     0.0200 C.ar  1 <1>   0.1770 
  3 C        2.8830     0.8150    -0.2920 C.ar  1 <1>   0.1660 
  4 C        1.5740     2.6470     0.5490 C.ar  1 <1>  -0.1500 
  5 N        4.0360     1.4480    -0.1190 N.ar  1 <1>  -0.6200 
  6 C        3.0010    -0.5850    -0.8690 C.3   1 <1>  -0.0960 
  7 C        2.7710     3.2990     0.7340 C.ar  1 <1>  -0.1500 
  8 C        3.9620     2.6670     0.3830 C.ar  1 <1>   0.4100 
  9 N        5.1770     3.2660     0.5350 N.pl3 1 <1>  -0.8690 
 10 C        5.4280     4.5950    -0.0720 C.3   1 <1>   0.2090 
 11 C        5.7700     5.5970     1.0280 C.3   1 <1>   0.0960 
 12 N        5.9530     6.9340     0.4380 N.pl3 1 <1>   0.0480 
 13 C        7.0720     7.4870    -0.0760 C.2   1 <1>  -0.3320 
 14 C        4.9940     7.8680     0.2610 C.2   1 <1>   0.0360 
 15 C        6.7140     8.7130    -0.5280 C.2   1 <1>   0.0460 
 16 C        8.4250     6.7890    -0.0920 C.3   1 <1>  -0.0600 
 17 N        5.4080     8.9450    -0.3150 N.2   1 <1>  -0.5650 
 18 C        7.5490     9.7830    -1.1960 C.3   1 <1>  -0.0590 
 19 H        0.6280     3.0910     0.7990 H     1 <1>   0.1500 
 20 H        2.1470    -1.1890    -0.6280 H     1 <1>   0.0800 
 21 H        3.8740    -1.0690    -0.4700 H     1 <1>   0.0800 
 22 H        3.0990    -0.5250    -1.9370 H     1 <1>   0.0800 
 23 H        2.8000     4.2870     1.1500 H     1 <1>   0.1500 
 24 H        5.8980     2.5810     0.2850 H     1 <1>   0.4000 
 25 H        4.5560     4.9240    -0.6120 H     1 <1>   0.0800 
 26 H        6.2490     4.5180    -0.7640 H     1 <1>   0.0800 
 27 H        6.6730     5.3040     1.5300 H     1 <1>   0.0800 
 28 H        4.9700     5.6410     1.7440 H     1 <1>   0.0800 
 29 H        3.9780     7.7110     0.5760 H     1 <1>   0.1500 
 30 H        8.3660     5.8740    -0.6530 H     1 <1>   0.0800 
 31 H        8.7370     6.5660     0.9130 H     1 <1>   0.0800 
 32 H        9.1730     7.4120    -0.5450 H     1 <1>   0.0800 
 33 H        8.5690     9.4700    -1.3050 H     1 <1>   0.0800 
 34 H        7.5180    10.6790    -0.6050 H     1 <1>   0.0800 
 35 H        7.1420     9.9950    -2.1680 H     1 <1>   0.0800 
@<TRIPOS>BOND
  1   1   2  1   
  2   2   3  ar  
  3   2   4  ar  
  4   3   5  ar  
  5   3   6  1   
  6   4   7  ar  
  7   4  19  1   
  8   5   8  ar  
  9   6  20  1   
 10   6  21  1   
 11   6  22  1   
 12   7   8  ar  
 13   7  23  1   
 14   8   9  1   
 15   9  10  1   
 16   9  24  1   
 17  10  11  1   
 18  10  25  1   
 19  10  26  1   
 20  11  12  1   
 21  11  27  1   
 22  11  28  1   
 23  12  13  1   
 24  12  14  1   
 25  13  15  2   
 26  13  16  1   
 27  14  17  2   
 28  14  29  1   
 29  15  17  1   
 30  15  18  1   
 31  16  30  1   
 32  16  31  1   
 33  16  32  1   
 34  18  33  1   
 35  18  34  1   
 36  18  35  1   
@<TRIPOS>SUBSTRUCTURE
  1 ****  10 GROUP 4 **** **** 0

# MOE 2024.06 (io_trps.svl 2023.06)
