@<TRIPOS>MOLECULE
NONAME
54 57 1 0 0 
SMALL
USER_CHARGES


@<TRIPOS>ATOM
  1 O       -3.1340     2.2730    -2.5620 O.2   1 <1>  -0.5700 
  2 C       -3.2230     2.2380    -1.3480 C.2   1 <1>   0.7160 
  3 N       -4.2000     1.4490    -0.7750 N.am  1 <1>  -0.6600 
  4 C       -2.3040     3.0100    -0.5490 C.2   1 <1>  -0.0860 
  5 C       -4.0610     0.8140     0.5650 C.3   1 <1>   0.1400 
  6 C       -5.3670     0.9600    -1.5590 C.3   1 <1>   0.1400 
  7 C       -2.5950     3.6840     0.6390 C.2   1 <1>   0.1390 
  8 C       -0.9850     3.2880    -0.7410 C.2   1 <1>  -0.3020 
  9 C       -3.9450    -0.7030     0.3950 C.3   1 <1>  -0.1600 
 10 C       -5.2530    -0.5530    -1.7490 C.3   1 <1>  -0.1600 
 11 N       -1.5690     4.2940     1.1430 N.2   1 <1>  -0.7070 
 12 N       -0.5640     4.0530     0.2790 N.pl3 1 <1>   0.3140 
 13 C       -5.1190    -1.2880    -0.4040 C.3   1 <1>   0.4240 
 14 C        0.8020     4.6040     0.4980 C.3   1 <1>   0.1760 
 15 O       -6.2630    -1.0050     0.3660 O.3   1 <1>  -0.5600 
 16 C       -4.9260    -2.8060    -0.6120 C.ar  1 <1>  -0.1430 
 17 C        1.2010     5.5400    -0.6510 C.3   1 <1>  -0.2400 
 18 C        1.8230     3.4700     0.6640 C.3   1 <1>  -0.2400 
 19 C       -7.3970    -1.7840     0.1430 C.3   1 <1>   0.1200 
 20 C       -5.8640    -3.7210    -0.1440 C.ar  1 <1>  -0.1430 
 21 C       -3.8060    -3.2890    -1.2810 C.ar  1 <1>  -0.1500 
 22 C       -7.1010    -3.2180     0.5720 C.3   1 <1>  -0.0170 
 23 C       -5.6790    -5.0820    -0.3290 C.ar  1 <1>  -0.1500 
 24 C       -3.6220    -4.6460    -1.4690 C.ar  1 <1>  -0.1500 
 25 C       -4.5520    -5.5530    -0.9940 C.ar  1 <1>   0.0830 
 26 O       -4.2950    -6.8660    -1.2170 O.3   1 <1>  -0.3620 
 27 C       -5.1680    -7.8720    -0.7550 C.3   1 <1>   0.0400 
 28 H       -4.9250     1.0530     1.1620 H     1 <1>   0.0800 
 29 H       -3.1860     1.1730     1.0770 H     1 <1>   0.0800 
 30 H       -5.4110     1.4470    -2.5180 H     1 <1>   0.0800 
 31 H       -6.2720     1.1970    -1.0250 H     1 <1>   0.0800 
 32 H       -3.5720     3.6990     1.0920 H     1 <1>   0.1500 
 33 H       -0.3530     2.9770    -1.5520 H     1 <1>   0.1500 
 34 H       -3.9080    -1.1770     1.3590 H     1 <1>   0.0800 
 35 H       -3.0180    -0.9130    -0.1030 H     1 <1>   0.0800 
 36 H       -4.3870    -0.7460    -2.3550 H     1 <1>   0.0800 
 37 H       -6.1020    -0.9220    -2.2900 H     1 <1>   0.0800 
 38 H        0.7700     5.1740     1.4100 H     1 <1>   0.0800 
 39 H        1.2590     5.0030    -1.5810 H     1 <1>   0.0800 
 40 H        2.1600     5.9810    -0.4500 H     1 <1>   0.0800 
 41 H        0.4780     6.3320    -0.7450 H     1 <1>   0.0800 
 42 H        1.8950     2.8850    -0.2360 H     1 <1>   0.0800 
 43 H        1.5310     2.8320     1.4790 H     1 <1>   0.0800 
 44 H        2.7920     3.8780     0.8850 H     1 <1>   0.0800 
 45 H       -7.6610    -1.7370    -0.8990 H     1 <1>   0.0800 
 46 H       -8.2000    -1.3730     0.7290 H     1 <1>   0.0800 
 47 H       -3.0640    -2.6120    -1.6650 H     1 <1>   0.1500 
 48 H       -7.9470    -3.8380     0.3360 H     1 <1>   0.0800 
 49 H       -6.9440    -3.2480     1.6350 H     1 <1>   0.0800 
 50 H       -6.4170    -5.7630     0.0480 H     1 <1>   0.1500 
 51 H       -2.7530    -5.0110    -1.9860 H     1 <1>   0.1500 
 52 H       -4.7570    -8.8250    -1.0370 H     1 <1>   0.0800 
 53 H       -6.1300    -7.7380    -1.2160 H     1 <1>   0.0800 
 54 H       -5.2390    -7.8070     0.3170 H     1 <1>   0.0800 
@<TRIPOS>BOND
  1   1   2  2   
  2   2   3  am  
  3   2   4  1   
  4   3   5  1   
  5   3   6  1   
  6   4   7  1   
  7   4   8  2   
  8   5   9  1   
  9   5  28  1   
 10   5  29  1   
 11   6  10  1   
 12   6  30  1   
 13   6  31  1   
 14   7  11  2   
 15   7  32  1   
 16   8  12  1   
 17   8  33  1   
 18   9  13  1   
 19   9  34  1   
 20   9  35  1   
 21  10  13  1   
 22  10  36  1   
 23  10  37  1   
 24  11  12  1   
 25  12  14  1   
 26  13  15  1   
 27  13  16  1   
 28  14  17  1   
 29  14  18  1   
 30  14  38  1   
 31  15  19  1   
 32  16  20  ar  
 33  16  21  ar  
 34  17  39  1   
 35  17  40  1   
 36  17  41  1   
 37  18  42  1   
 38  18  43  1   
 39  18  44  1   
 40  19  22  1   
 41  19  45  1   
 42  19  46  1   
 43  20  22  1   
 44  20  23  ar  
 45  21  24  ar  
 46  21  47  1   
 47  22  48  1   
 48  22  49  1   
 49  23  25  ar  
 50  23  50  1   
 51  24  25  ar  
 52  24  51  1   
 53  25  26  1   
 54  26  27  1   
 55  27  52  1   
 56  27  53  1   
 57  27  54  1   
@<TRIPOS>SUBSTRUCTURE
  1 ****   9 GROUP 4 **** **** 0

# MOE 2024.06 (io_trps.svl 2023.06)
