@<TRIPOS>MOLECULE
NONAME
52 55 1 0 0 
SMALL
USER_CHARGES


@<TRIPOS>ATOM
  1 O        1.0340     0.2970     0.2260 O.2   1 <1>  -0.5700 
  2 C        2.0760    -0.3430     0.2800 C.2   1 <1>   0.5440 
  3 N        3.2830     0.3030     0.5310 N.am  1 <1>  -0.2980 
  4 C        2.1040    -1.7660     0.0750 C.ar  1 <1>   0.0860 
  5 N        4.5050    -0.3290     0.5560 N.2   1 <1>  -0.5120 
  6 C        3.2960     1.7660     0.7920 C.3   1 <1>   0.1400 
  7 C        3.3520    -2.4020     0.1150 C.ar  1 <1>   0.0860 
  8 C        0.9600    -2.5340    -0.1620 C.ar  1 <1>  -0.1500 
  9 C        4.5100    -1.5990     0.3580 C.2   1 <1>   0.3040 
 10 C        3.2010     2.5430    -0.5250 C.3   1 <1>   0.2090 
 11 C        3.4180    -3.7850    -0.0820 C.ar  1 <1>  -0.1500 
 12 C        1.0430    -3.8960    -0.3540 C.ar  1 <1>  -0.1500 
 13 N        3.4780     3.9980    -0.3150 N.pl3 1 <1>  -0.8690 
 14 C        2.2800    -4.5250    -0.3140 C.ar  1 <1>  -0.1500 
 15 C        4.7050     4.5460    -0.1690 C.ar  1 <1>   0.4100 
 16 N        5.7110     3.7040    -0.1050 N.ar  1 <1>  -0.6200 
 17 C        4.8860     5.9490    -0.0870 C.ar  1 <1>  -0.1430 
 18 C        6.9280     4.1840     0.0480 C.ar  1 <1>   0.7710 
 19 C        6.1630     6.4180     0.0320 C.ar  1 <1>   0.2180 
 20 C        3.6450     6.8490    -0.1310 C.3   1 <1>  -0.0970 
 21 N        7.1610     5.5030     0.1020 N.ar  1 <1>  -0.1790 
 22 N        7.9630     3.3170     0.1550 N.pl3 1 <1>  -0.8380 
 23 C        6.5820     7.8820     0.0970 C.3   1 <1>  -0.0970 
 24 C        9.4050     3.6010     0.3890 C.3   1 <1>   0.2090 
 25 C        7.7340     1.8420     0.1110 C.3   1 <1>   0.2090 
 26 C       10.0070     2.2620     0.7930 C.3   1 <1>  -0.1600 
 27 C        9.1240     1.2220     0.1150 C.3   1 <1>  -0.1600 
 28 H        4.2120     2.0140     1.2960 H     1 <1>   0.0800 
 29 H        2.4710     2.0240     1.4320 H     1 <1>   0.0800 
 30 H        0.0010    -2.0440    -0.1920 H     1 <1>   0.1500 
 31 H        5.4530    -2.1160     0.3740 H     1 <1>   0.0600 
 32 H        2.2190     2.4220    -0.9470 H     1 <1>   0.0800 
 33 H        3.9220     2.1450    -1.2180 H     1 <1>   0.0800 
 34 H        4.3760    -4.2770    -0.0520 H     1 <1>   0.1500 
 35 H        0.1530    -4.4760    -0.5350 H     1 <1>   0.1500 
 36 H        2.6430     4.5890    -0.3370 H     1 <1>   0.4000 
 37 H        2.3400    -5.5910    -0.4640 H     1 <1>   0.1500 
 38 H        2.9100     6.4960     0.5710 H     1 <1>   0.0800 
 39 H        3.2130     6.8280    -1.1170 H     1 <1>   0.0800 
 40 H        3.8560     7.8690     0.1260 H     1 <1>   0.0800 
 41 H        8.1320     5.7630     0.1990 H     1 <1>   0.4570 
 42 H        5.8640     8.5210    -0.3840 H     1 <1>   0.0800 
 43 H        7.5210     8.0330    -0.4060 H     1 <1>   0.0800 
 44 H        6.6850     8.1920     1.1220 H     1 <1>   0.0800 
 45 H        9.5510     4.3300     1.1670 H     1 <1>   0.0800 
 46 H        9.8570     3.9380    -0.5300 H     1 <1>   0.0800 
 47 H        7.1800     1.5550    -0.7690 H     1 <1>   0.0800 
 48 H        7.1840     1.5370     0.9870 H     1 <1>   0.0800 
 49 H        9.9430     2.1540     1.8620 H     1 <1>   0.0800 
 50 H       11.0380     2.1790     0.4960 H     1 <1>   0.0800 
 51 H        9.4430     1.0710    -0.9020 H     1 <1>   0.0800 
 52 H        9.1350     0.2760     0.6280 H     1 <1>   0.0800 
@<TRIPOS>BOND
  1   1   2  2   
  2   2   3  am  
  3   2   4  1   
  4   3   5  1   
  5   3   6  1   
  6   4   7  ar  
  7   4   8  ar  
  8   5   9  2   
  9   6  10  1   
 10   6  28  1   
 11   6  29  1   
 12   7   9  1   
 13   7  11  ar  
 14   8  12  ar  
 15   8  30  1   
 16   9  31  1   
 17  10  13  1   
 18  10  32  1   
 19  10  33  1   
 20  11  14  ar  
 21  11  34  1   
 22  12  14  ar  
 23  12  35  1   
 24  13  15  1   
 25  13  36  1   
 26  14  37  1   
 27  15  16  ar  
 28  15  17  ar  
 29  16  18  ar  
 30  17  19  ar  
 31  17  20  1   
 32  18  21  ar  
 33  18  22  1   
 34  19  21  ar  
 35  19  23  1   
 36  20  38  1   
 37  20  39  1   
 38  20  40  1   
 39  21  41  1   
 40  22  24  1   
 41  22  25  1   
 42  23  42  1   
 43  23  43  1   
 44  23  44  1   
 45  24  26  1   
 46  24  45  1   
 47  24  46  1   
 48  25  27  1   
 49  25  47  1   
 50  25  48  1   
 51  26  27  1   
 52  26  49  1   
 53  26  50  1   
 54  27  51  1   
 55  27  52  1   
@<TRIPOS>SUBSTRUCTURE
  1 ****   6 GROUP 4 **** **** 0

# MOE 2024.06 (io_trps.svl 2023.06)
