@<TRIPOS>MOLECULE
NONAME
43 45 1 0 0 
SMALL
USER_CHARGES


@<TRIPOS>ATOM
  1 O       -1.0450     0.7740    -0.0200 O.co2 1 <1>  -0.9000 
  2 C       -1.0310     1.7240     0.7810 C.2   1 <1>   0.9060 
  3 O       -1.0800     1.5260     2.0030 O.co2 1 <1>  -0.9000 
  4 C       -0.8280     3.1580     0.2640 C.3   1 <1>   0.0940 
  5 O       -2.0300     3.8530    -0.0710 O.3   1 <1>  -0.5600 
  6 C        0.1240     3.1190    -0.9430 C.3   1 <1>   0.2090 
  7 C       -1.8010     5.1730    -0.4760 C.3   1 <1>   0.1200 
  8 N        0.3630     4.4900    -1.5160 N.pl3 1 <1>  -0.8380 
  9 C       -0.9280     5.2080    -1.7410 C.3   1 <1>   0.2090 
 10 C        1.4950     5.1930    -1.1420 C.ar  1 <1>   0.4100 
 11 N        1.3600     6.4060    -0.6960 N.ar  1 <1>  -0.6200 
 12 C        2.7520     4.5820    -1.2580 C.ar  1 <1>  -0.1500 
 13 C        2.4670     7.0890    -0.2980 C.ar  1 <1>   0.3100 
 14 C        3.8920     5.2140    -0.8690 C.ar  1 <1>  -0.1440 
 15 C        3.7770     6.5320    -0.3400 C.ar  1 <1>   0.0000 
 16 C        2.2860     8.4170     0.1790 C.ar  1 <1>   0.0820 
 17 C        5.2050     4.4580    -1.0370 C.3   1 <1>  -0.0970 
 18 C        4.8540     7.3330     0.1420 C.ar  1 <1>   0.0820 
 19 O        1.0170     8.9320     0.1820 O.3   1 <1>  -0.3630 
 20 C        3.3570     9.1550     0.6220 C.ar  1 <1>  -0.1500 
 21 O        6.1110     6.8100     0.1390 O.3   1 <1>  -0.3630 
 22 C        4.6350     8.6110     0.6060 C.ar  1 <1>  -0.1500 
 23 C        0.7330    10.2500     0.5970 C.3   1 <1>   0.0400 
 24 C        7.2480     7.5180     0.5830 C.3   1 <1>   0.0400 
 25 H       -0.3540     3.7020     1.0590 H     1 <1>   0.0800 
 26 H       -0.3020     2.4870    -1.7040 H     1 <1>   0.0800 
 27 H        1.0470     2.6680    -0.6300 H     1 <1>   0.0800 
 28 H       -1.3150     5.7030     0.3250 H     1 <1>   0.0800 
 29 H       -2.7550     5.6270    -0.6680 H     1 <1>   0.0800 
 30 H       -0.7440     6.2290    -2.0270 H     1 <1>   0.0800 
 31 H       -1.4590     4.7340    -2.5470 H     1 <1>   0.0800 
 32 H        2.7720     3.5950    -1.6740 H     1 <1>   0.1500 
 33 H        5.0460     3.4940    -1.4860 H     1 <1>   0.0800 
 34 H        5.6670     4.3060    -0.0790 H     1 <1>   0.0800 
 35 H        5.8710     5.0140    -1.6720 H     1 <1>   0.0800 
 36 H        3.2480    10.1560     0.9910 H     1 <1>   0.1500 
 37 H        5.4310     9.2320     0.9690 H     1 <1>   0.1500 
 38 H       -0.3240    10.4100     0.4870 H     1 <1>   0.0800 
 39 H        1.2730    10.9370    -0.0300 H     1 <1>   0.0800 
 40 H        1.0130    10.3590     1.6290 H     1 <1>   0.0800 
 41 H        8.1040     6.8770     0.4680 H     1 <1>   0.0800 
 42 H        7.1190     7.7710     1.6200 H     1 <1>   0.0800 
 43 H        7.3690     8.4000    -0.0210 H     1 <1>   0.0800 
@<TRIPOS>BOND
  1   1   2  ar  
  2   2   3  ar  
  3   2   4  1   
  4   4   5  1   
  5   4   6  1   
  6   4  25  1   
  7   5   7  1   
  8   6   8  1   
  9   6  26  1   
 10   6  27  1   
 11   7   9  1   
 12   7  28  1   
 13   7  29  1   
 14   8   9  1   
 15   8  10  1   
 16   9  30  1   
 17   9  31  1   
 18  10  11  ar  
 19  10  12  ar  
 20  11  13  ar  
 21  12  14  ar  
 22  12  32  1   
 23  13  15  ar  
 24  13  16  ar  
 25  14  15  ar  
 26  14  17  1   
 27  15  18  ar  
 28  16  19  1   
 29  16  20  ar  
 30  17  33  1   
 31  17  34  1   
 32  17  35  1   
 33  18  21  1   
 34  18  22  ar  
 35  19  23  1   
 36  20  22  ar  
 37  20  36  1   
 38  21  24  1   
 39  22  37  1   
 40  23  38  1   
 41  23  39  1   
 42  23  40  1   
 43  24  41  1   
 44  24  42  1   
 45  24  43  1   
@<TRIPOS>SUBSTRUCTURE
  1 ****  11 GROUP 4 **** **** 0

# MOE 2024.06 (io_trps.svl 2023.06)
