@<TRIPOS>MOLECULE
NONAME
48 51 1 0 0 
SMALL
USER_CHARGES


@<TRIPOS>ATOM
  1 O        0.8720    -3.7210    -3.4080 O.3   1 <1>  -0.5600 
  2 C       -0.4820    -4.0270    -3.3060 C.3   1 <1>   0.2580 
  3 C        1.2240    -2.5690    -2.7060 C.3   1 <1>   0.1200 
  4 C       -0.8090    -4.2330    -1.8350 C.2   1 <1>  -0.2880 
  5 C        1.1200    -2.8340    -1.1950 C.3   1 <1>  -0.0220 
  6 C       -0.0620    -3.7490    -0.8300 C.2   1 <1>  -0.2760 
  7 C       -0.3460    -4.0510     0.6710 C.3   1 <1>   0.1380 
  8 C       -0.3490    -5.5750     0.9900 C.3   1 <1>   0.4230 
  9 C       -1.7380    -3.4710     1.0190 C.3   1 <1>   0.1200 
 10 C        0.7180    -3.4850     1.6580 C.3   1 <1>  -0.1600 
 11 N        0.8960    -6.2680     0.5190 N.4   1 <1>  -0.9590 
 12 C       -1.6540    -6.3170     0.6720 C.3   1 <1>  -0.1600 
 13 O       -2.4370    -4.3570     1.8470 O.3   1 <1>  -0.5600 
 14 C        1.9460    -4.4110     1.8740 C.3   1 <1>  -0.1600 
 15 C        2.1460    -5.4970     0.8020 C.3   1 <1>   0.3430 
 16 C        0.9050    -6.6850    -0.9130 C.3   1 <1>   0.5240 
 17 C       -2.8600    -5.5280     1.2120 C.3   1 <1>   0.1200 
 18 C        1.9160    -7.8150    -1.0450 C.2   1 <1>   0.0460 
 19 N        2.0060    -8.7570    -0.0800 N.2   1 <1>  -0.5650 
 20 C        2.8130    -8.0470    -2.0290 C.2   1 <1>  -0.3020 
 21 C        2.9440    -9.5430    -0.5040 C.2   1 <1>   0.0360 
 22 N        3.4780    -9.1670    -1.6860 N.pl3 1 <1>   0.0330 
 23 H       -1.0650    -3.2310    -3.7390 H     1 <1>   0.0800 
 24 H       -0.6480    -4.9320    -3.8660 H     1 <1>   0.0800 
 25 H        2.2300    -2.3040    -2.9780 H     1 <1>   0.0800 
 26 H        0.5630    -1.7720    -3.0030 H     1 <1>   0.0800 
 27 H       -1.7050    -4.8110    -1.7150 H     1 <1>   0.1500 
 28 H        2.0510    -3.2540    -0.8720 H     1 <1>   0.0800 
 29 H        1.0100    -1.8770    -0.7180 H     1 <1>   0.0800 
 30 H       -0.3120    -5.6060     2.0670 H     1 <1>   0.0800 
 31 H       -2.3320    -3.3010     0.1380 H     1 <1>   0.0800 
 32 H       -1.6470    -2.5330     1.5390 H     1 <1>   0.0800 
 33 H        1.0310    -2.4970     1.3820 H     1 <1>   0.0800 
 34 H        0.2520    -3.3700     2.6240 H     1 <1>   0.0800 
 35 H        0.9870    -7.1760     1.0050 H     1 <1>   0.4500 
 36 H       -1.6380    -7.2800     1.1500 H     1 <1>   0.0800 
 37 H       -1.7960    -6.4810    -0.3760 H     1 <1>   0.0800 
 38 H        1.8500    -4.9050     2.8260 H     1 <1>   0.0800 
 39 H        2.8380    -3.8110     1.9310 H     1 <1>   0.0800 
 40 H        2.9250    -6.1760     1.1100 H     1 <1>   0.0800 
 41 H        2.4780    -5.0230    -0.1050 H     1 <1>   0.0800 
 42 H       -0.0580    -7.0640    -1.2000 H     1 <1>   0.0800 
 43 H        1.1650    -5.8620    -1.5580 H     1 <1>   0.0800 
 44 H       -3.3990    -6.1120     1.9400 H     1 <1>   0.0800 
 45 H       -3.5400    -5.2600     0.4200 H     1 <1>   0.0800 
 46 H        3.0140    -7.5010    -2.9350 H     1 <1>   0.1500 
 47 H        3.2840   -10.4220     0.0190 H     1 <1>   0.1500 
 48 H        4.2240    -9.6420    -2.2060 H     1 <1>   0.2700 
@<TRIPOS>BOND
  1   1   2  1   
  2   1   3  1   
  3   2   4  1   
  4   2  23  1   
  5   2  24  1   
  6   3   5  1   
  7   3  25  1   
  8   3  26  1   
  9   4   6  2   
 10   4  27  1   
 11   5   6  1   
 12   5  28  1   
 13   5  29  1   
 14   6   7  1   
 15   7   8  1   
 16   7   9  1   
 17   7  10  1   
 18   8  11  1   
 19   8  12  1   
 20   8  30  1   
 21   9  13  1   
 22   9  31  1   
 23   9  32  1   
 24  10  14  1   
 25  10  33  1   
 26  10  34  1   
 27  11  15  1   
 28  11  16  1   
 29  11  35  1   
 30  12  17  1   
 31  12  36  1   
 32  12  37  1   
 33  13  17  1   
 34  14  15  1   
 35  14  38  1   
 36  14  39  1   
 37  15  40  1   
 38  15  41  1   
 39  16  18  1   
 40  16  42  1   
 41  16  43  1   
 42  17  44  1   
 43  17  45  1   
 44  18  19  1   
 45  18  20  2   
 46  19  21  2   
 47  20  22  1   
 48  20  46  1   
 49  21  22  1   
 50  21  47  1   
 51  22  48  1   
@<TRIPOS>SUBSTRUCTURE
  1 ****  11 GROUP 4 **** **** 0

# MOE 2024.06 (io_trps.svl 2023.06)
