@<TRIPOS>MOLECULE
NONAME
52 54 1 0 0 
SMALL
USER_CHARGES


@<TRIPOS>ATOM
  1 O        3.1490     0.0760    -2.3890 O.2   1 <1>  -0.5700 
  2 C        2.7750     0.0680    -1.2370 C.2   1 <1>   0.5690 
  3 N        2.1710     1.1490    -0.6610 N.am  1 <1>  -0.4940 
  4 C        3.0400    -1.2020    -0.3970 C.3   1 <1>   0.2810 
  5 C        2.0460     2.4950    -1.0780 C.2   1 <1>  -0.0880 
  6 N        1.8750    -2.0940    -0.0430 N.am  1 <1>  -0.6600 
  7 C        3.8200    -0.9370     0.9010 C.3   1 <1>  -0.1600 
  8 N        2.9550     3.2440    -1.7710 N.pl3 1 <1>   0.3140 
  9 C        0.9970     3.3110    -0.8170 C.2   1 <1>  -0.1810 
 10 C        0.6350    -1.6350     0.3120 C.2   1 <1>   0.5690 
 11 C        2.3470    -3.4390     0.3850 C.3   1 <1>   0.1400 
 12 C        4.3100    -2.2580     1.5220 C.3   1 <1>  -0.1600 
 13 N        2.5020     4.5130    -1.9490 N.2   1 <1>  -0.7070 
 14 C        4.2960     2.8680    -2.2800 C.3   1 <1>   0.2390 
 15 C        1.3390     4.5340    -1.3790 C.2   1 <1>   0.1390 
 16 C       -0.2910     3.0020    -0.0770 C.3   1 <1>  -0.0590 
 17 O        0.4280    -0.4870     0.6200 O.2   1 <1>  -0.5700 
 18 C       -0.5370    -2.5850     0.3690 C.3   1 <1>  -0.1790 
 19 C        3.1620    -3.2730     1.6760 C.3   1 <1>  -0.1600 
 20 C        5.2360     2.3290    -1.2000 C.ar  1 <1>  -0.1440 
 21 C        5.2950     2.9110     0.0590 C.ar  1 <1>  -0.1500 
 22 C        6.0600     1.2500    -1.4840 C.ar  1 <1>  -0.1500 
 23 C        6.1600     2.4240     1.0250 C.ar  1 <1>  -0.1440 
 24 C        6.9340     0.7650    -0.5270 C.ar  1 <1>  -0.1500 
 25 C        6.9840     1.3510     0.7250 C.ar  1 <1>  -0.1500 
 26 C        6.2060     3.0690     2.3970 C.3   1 <1>  -0.0970 
 27 H        1.5640     0.8790     0.1270 H     1 <1>   0.3700 
 28 H        3.6900    -1.7870    -1.0230 H     1 <1>   0.0800 
 29 H        3.1890    -0.4100     1.5960 H     1 <1>   0.0800 
 30 H        4.6630    -0.3070     0.6880 H     1 <1>   0.0800 
 31 H        2.9610    -3.8670    -0.3900 H     1 <1>   0.0800 
 32 H        1.5230    -4.1080     0.5590 H     1 <1>   0.0800 
 33 H        4.7570    -2.0630     2.4820 H     1 <1>   0.0800 
 34 H        5.0700    -2.6810     0.8870 H     1 <1>   0.0800 
 35 H        4.7400     3.7450    -2.7110 H     1 <1>   0.0800 
 36 H        4.1670     2.1520    -3.0670 H     1 <1>   0.0800 
 37 H        0.7140     5.4100    -1.3500 H     1 <1>   0.1500 
 38 H       -0.4470     1.9400    -0.0180 H     1 <1>   0.0800 
 39 H       -1.1250     3.4390    -0.5940 H     1 <1>   0.0800 
 40 H       -0.2460     3.4020     0.9200 H     1 <1>   0.0800 
 41 H       -0.4870    -3.2830    -0.4440 H     1 <1>   0.0800 
 42 H       -1.4540    -2.0300     0.2890 H     1 <1>   0.0800 
 43 H       -0.5320    -3.1110     1.3050 H     1 <1>   0.0800 
 44 H        3.5630    -4.2270     1.9700 H     1 <1>   0.0800 
 45 H        2.5010    -2.9450     2.4600 H     1 <1>   0.0800 
 46 H        4.6620     3.7520     0.2880 H     1 <1>   0.1500 
 47 H        6.0230     0.7830    -2.4540 H     1 <1>   0.1500 
 48 H        7.5740    -0.0680    -0.7580 H     1 <1>   0.1500 
 49 H        7.6660     0.9690     1.4640 H     1 <1>   0.1500 
 50 H        5.2260     3.4110     2.6800 H     1 <1>   0.0800 
 51 H        6.8760     3.9100     2.3800 H     1 <1>   0.0800 
 52 H        6.5460     2.3660     3.1360 H     1 <1>   0.0800 
@<TRIPOS>BOND
  1   1   2  2   
  2   2   3  am  
  3   2   4  1   
  4   3   5  1   
  5   3  27  1   
  6   4   6  1   
  7   4   7  1   
  8   4  28  1   
  9   5   8  1   
 10   5   9  2   
 11   6  10  am  
 12   6  11  1   
 13   7  12  1   
 14   7  29  1   
 15   7  30  1   
 16   8  13  1   
 17   8  14  1   
 18   9  15  1   
 19   9  16  1   
 20  10  17  2   
 21  10  18  1   
 22  11  19  1   
 23  11  31  1   
 24  11  32  1   
 25  12  19  1   
 26  12  33  1   
 27  12  34  1   
 28  13  15  2   
 29  14  20  1   
 30  14  35  1   
 31  14  36  1   
 32  15  37  1   
 33  16  38  1   
 34  16  39  1   
 35  16  40  1   
 36  18  41  1   
 37  18  42  1   
 38  18  43  1   
 39  19  44  1   
 40  19  45  1   
 41  20  21  ar  
 42  20  22  ar  
 43  21  23  ar  
 44  21  46  1   
 45  22  24  ar  
 46  22  47  1   
 47  23  25  ar  
 48  23  26  1   
 49  24  25  ar  
 50  24  48  1   
 51  25  49  1   
 52  26  50  1   
 53  26  51  1   
 54  26  52  1   
@<TRIPOS>SUBSTRUCTURE
  1 ****   3 GROUP 4 **** **** 0

# MOE 2024.06 (io_trps.svl 2023.06)
