@<TRIPOS>MOLECULE
NONAME
53 56 1 0 0 
SMALL
USER_CHARGES


@<TRIPOS>ATOM
  1 CL       1.0810    -0.8180     0.0850 Cl    1 <1>  -0.1230 
  2 C       -0.6200    -0.7660    -0.3510 C.2   1 <1>   0.1230 
  3 C       -1.6150    -1.6950    -0.0230 C.2   1 <1>   0.2030 
  4 C       -1.1930     0.2020    -1.0830 C.2   1 <1>  -0.3020 
  5 N       -2.7650    -1.2830    -0.5490 N.2   1 <1>  -0.7070 
  6 C       -1.3830    -2.8910     0.7790 C.2   1 <1>   0.7160 
  7 N       -2.4900    -0.1360    -1.1870 N.pl3 1 <1>   0.3140 
  8 O       -0.5210    -2.8920     1.6450 O.2   1 <1>  -0.5700 
  9 N       -2.1140    -4.0520     0.6290 N.am  1 <1>  -0.6600 
 10 C       -3.5240     0.6250    -1.8990 C.3   1 <1>   0.0160 
 11 C       -2.0580    -5.2310     1.4850 C.3   1 <1>   0.2200 
 12 C       -3.4080    -4.2700     0.0120 C.3   1 <1>   0.2200 
 13 C       -2.2550    -6.3730     0.4540 C.3   1 <1>   0.0610 
 14 C       -3.3400    -4.9760     2.3040 C.3   1 <1>  -0.1600 
 15 C       -3.2280    -5.6850    -0.5550 C.3   1 <1>  -0.1600 
 16 C       -4.2840    -4.3310     1.2680 C.3   1 <1>  -0.1600 
 17 C       -2.7640    -7.6480     1.1570 C.2   1 <1>   0.5690 
 18 C       -0.9210    -6.8070    -0.2250 C.3   1 <1>  -0.0170 
 19 O       -2.1990    -7.9980     2.1690 O.2   1 <1>  -0.5700 
 20 N       -3.7440    -8.4430     0.6200 N.am  1 <1>  -0.6600 
 21 C       -0.1430    -5.7830    -1.0510 C.ar  1 <1>  -0.1440 
 22 C       -3.5070    -9.9090     0.5470 C.3   1 <1>   0.0600 
 23 C       -5.1820    -8.0950     0.7670 C.3   1 <1>   0.0600 
 24 C       -0.3180    -5.6960    -2.4250 C.ar  1 <1>  -0.1500 
 25 C        0.7770    -4.9470    -0.4380 C.ar  1 <1>  -0.1500 
 26 C        0.3970    -4.7730    -3.1690 C.ar  1 <1>  -0.1500 
 27 C        1.4950    -4.0260    -1.1790 C.ar  1 <1>  -0.1500 
 28 C        1.3030    -3.9350    -2.5450 C.ar  1 <1>  -0.1500 
 29 H       -0.7620     1.0820    -1.5190 H     1 <1>   0.1500 
 30 H       -3.2640     0.6870    -2.9380 H     1 <1>   0.0800 
 31 H       -3.5900     1.6100    -1.4770 H     1 <1>   0.0800 
 32 H       -4.4680     0.1230    -1.7920 H     1 <1>   0.0800 
 33 H       -1.1620    -5.3090     2.0780 H     1 <1>   0.0800 
 34 H       -3.7080    -3.5390    -0.7180 H     1 <1>   0.0800 
 35 H       -3.7490    -5.8630     2.7510 H     1 <1>   0.0800 
 36 H       -3.1180    -4.2760     3.0910 H     1 <1>   0.0800 
 37 H       -4.1750    -6.1700    -0.6630 H     1 <1>   0.0800 
 38 H       -2.8000    -5.6070    -1.5340 H     1 <1>   0.0800 
 39 H       -4.5480    -3.3320     1.5700 H     1 <1>   0.0800 
 40 H       -5.1830    -4.8950     1.1050 H     1 <1>   0.0800 
 41 H       -0.2580    -7.1750     0.5390 H     1 <1>   0.0800 
 42 H       -1.1320    -7.6460    -0.8630 H     1 <1>   0.0800 
 43 H       -4.0010   -10.3200    -0.3150 H     1 <1>   0.0800 
 44 H       -3.8800   -10.3850     1.4380 H     1 <1>   0.0800 
 45 H       -2.4510   -10.1070     0.4710 H     1 <1>   0.0800 
 46 H       -5.6550    -8.0870    -0.2000 H     1 <1>   0.0800 
 47 H       -5.2880    -7.1280     1.2230 H     1 <1>   0.0800 
 48 H       -5.6750    -8.8170     1.3950 H     1 <1>   0.0800 
 49 H       -1.0130    -6.3470    -2.9240 H     1 <1>   0.1500 
 50 H        0.9340    -5.0000     0.6260 H     1 <1>   0.1500 
 51 H        0.2490    -4.7090    -4.2320 H     1 <1>   0.1500 
 52 H        2.1990    -3.3790    -0.6860 H     1 <1>   0.1500 
 53 H        1.8590    -3.2150    -3.1190 H     1 <1>   0.1500 
@<TRIPOS>BOND
  1   1   2  1   
  2   2   3  1   
  3   2   4  2   
  4   3   5  2   
  5   3   6  1   
  6   4   7  1   
  7   4  29  1   
  8   5   7  1   
  9   6   8  2   
 10   6   9  am  
 11   7  10  1   
 12   9  11  1   
 13   9  12  1   
 14  10  30  1   
 15  10  31  1   
 16  10  32  1   
 17  11  13  1   
 18  11  14  1   
 19  11  33  1   
 20  12  15  1   
 21  12  16  1   
 22  12  34  1   
 23  13  15  1   
 24  13  17  1   
 25  13  18  1   
 26  14  16  1   
 27  14  35  1   
 28  14  36  1   
 29  15  37  1   
 30  15  38  1   
 31  16  39  1   
 32  16  40  1   
 33  17  19  2   
 34  17  20  am  
 35  18  21  1   
 36  18  41  1   
 37  18  42  1   
 38  20  22  1   
 39  20  23  1   
 40  21  24  ar  
 41  21  25  ar  
 42  22  43  1   
 43  22  44  1   
 44  22  45  1   
 45  23  46  1   
 46  23  47  1   
 47  23  48  1   
 48  24  26  ar  
 49  24  49  1   
 50  25  27  ar  
 51  25  50  1   
 52  26  28  ar  
 53  26  51  1   
 54  27  28  ar  
 55  27  52  1   
 56  28  53  1   
@<TRIPOS>SUBSTRUCTURE
  1 ****   9 GROUP 4 **** **** 0

# MOE 2024.06 (io_trps.svl 2023.06)
