@<TRIPOS>MOLECULE
NONAME
53 56 1 0 0 
SMALL
USER_CHARGES


@<TRIPOS>ATOM
  1 N        0.0850     2.2840    -0.8340 N.2   1 <1>  -0.6210 
  2 C       -1.2080     2.2190    -0.8450 C.2   1 <1>   0.9190 
  3 C        0.7680     1.5930     0.0930 C.2   1 <1>   0.2710 
  4 N       -1.9200     1.5060     0.0520 N.pl3 1 <1>  -0.6690 
  5 N       -1.8580     2.8930    -1.7890 N.pl3 1 <1>  -0.8500 
  6 N        2.1420     1.6660     0.0410 N.pl3 1 <1>  -0.8380 
  7 C        0.1030     0.8550     1.0470 C.2   1 <1>  -0.1410 
  8 C       -1.2690     0.8300     0.9940 C.cat 1 <1>   0.7910 
  9 C       -3.2540     1.2820     0.2860 C.2   1 <1>   0.5030 
 10 C        2.8510     2.5910    -0.9030 C.3   1 <1>   0.2090 
 11 C        3.0330     0.6300     0.6540 C.3   1 <1>   0.1290 
 12 N       -2.2070     0.2290     1.7450 N.pl3 1 <1>  -0.3930 
 13 N       -3.4570     0.5190     1.2930 N.2   1 <1>  -0.2600 
 14 C        2.8460     4.0360    -0.3700 C.3   1 <1>  -0.0800 
 15 C        3.4960     4.9880    -1.3870 C.3   1 <1>  -0.1600 
 16 C        3.5590     4.1660     0.9880 C.3   1 <1>  -0.1600 
 17 C        3.5360     6.4270    -0.8710 C.3   1 <1>   0.3430 
 18 C        3.6000     5.6160     1.4690 C.3   1 <1>   0.3430 
 19 N        4.2490     6.4730     0.4390 N.4   1 <1>  -0.9590 
 20 C        4.4100     7.8720     0.9210 C.3   1 <1>   0.4860 
 21 C        5.2870     8.6230    -0.0600 C.ar  1 <1>  -0.1430 
 22 C        4.7280     9.5480    -0.9310 C.ar  1 <1>  -0.1500 
 23 C        6.6550     8.3870    -0.1000 C.ar  1 <1>  -0.1500 
 24 C        5.5260    10.2190    -1.8400 C.ar  1 <1>  -0.1500 
 25 C        7.4510     9.0590    -1.0110 C.ar  1 <1>  -0.1500 
 26 C        6.8860     9.9730    -1.8820 C.ar  1 <1>  -0.1500 
 27 H       -1.2990     3.3730    -2.4960 H     1 <1>   0.4000 
 28 H       -2.8540     2.8480    -1.9770 H     1 <1>   0.4000 
 29 H        0.6220     0.3190     1.8140 H     1 <1>   0.1500 
 30 H       -4.0330     1.7130    -0.3250 H     1 <1>   0.1500 
 31 H        2.3700     2.5550    -1.8660 H     1 <1>   0.0800 
 32 H        3.8680     2.2680    -1.0480 H     1 <1>   0.0800 
 33 H        2.4960    -0.2850     0.8310 H     1 <1>   0.0800 
 34 H        3.4310     0.9930     1.5850 H     1 <1>   0.0800 
 35 H        3.8510     0.3960    -0.0060 H     1 <1>   0.0800 
 36 H       -2.0330    -0.3740     2.5570 H     1 <1>   0.4500 
 37 H        1.8180     4.3350    -0.2490 H     1 <1>   0.0800 
 38 H        2.9350     4.9690    -2.3060 H     1 <1>   0.0800 
 39 H        4.4980     4.6670    -1.6160 H     1 <1>   0.0800 
 40 H        4.5600     3.7790     0.9230 H     1 <1>   0.0800 
 41 H        3.0350     3.5810     1.7230 H     1 <1>   0.0800 
 42 H        2.5300     6.7950    -0.7540 H     1 <1>   0.0800 
 43 H        4.0440     7.0490    -1.5930 H     1 <1>   0.0800 
 44 H        4.1480     5.6700     2.3970 H     1 <1>   0.0800 
 45 H        2.5940     5.9610     1.6490 H     1 <1>   0.0800 
 46 H        5.1970     6.1170     0.2680 H     1 <1>   0.4500 
 47 H        4.8800     7.8800     1.8910 H     1 <1>   0.0800 
 48 H        3.4490     8.3540     1.0020 H     1 <1>   0.0800 
 49 H        3.6730     9.7610    -0.9130 H     1 <1>   0.1500 
 50 H        7.1200     7.6870     0.5720 H     1 <1>   0.1500 
 51 H        5.0930    10.9380    -2.5160 H     1 <1>   0.1500 
 52 H        8.5120     8.8780    -1.0430 H     1 <1>   0.1500 
 53 H        7.5070    10.4970    -2.5900 H     1 <1>   0.1500 
@<TRIPOS>BOND
  1   1   2  2   
  2   1   3  1   
  3   2   4  1   
  4   2   5  1   
  5   3   6  1   
  6   3   7  2   
  7   4   8  ar  
  8   4   9  1   
  9   5  27  1   
 10   5  28  1   
 11   6  10  1   
 12   6  11  1   
 13   7   8  1   
 14   7  29  1   
 15   8  12  ar  
 16   9  13  2   
 17   9  30  1   
 18  10  14  1   
 19  10  31  1   
 20  10  32  1   
 21  11  33  1   
 22  11  34  1   
 23  11  35  1   
 24  12  13  1   
 25  12  36  1   
 26  14  15  1   
 27  14  16  1   
 28  14  37  1   
 29  15  17  1   
 30  15  38  1   
 31  15  39  1   
 32  16  18  1   
 33  16  40  1   
 34  16  41  1   
 35  17  19  1   
 36  17  42  1   
 37  17  43  1   
 38  18  19  1   
 39  18  44  1   
 40  18  45  1   
 41  19  20  1   
 42  19  46  1   
 43  20  21  1   
 44  20  47  1   
 45  20  48  1   
 46  21  22  ar  
 47  21  23  ar  
 48  22  24  ar  
 49  22  49  1   
 50  23  25  ar  
 51  23  50  1   
 52  24  26  ar  
 53  24  51  1   
 54  25  26  ar  
 55  25  52  1   
 56  26  53  1   
@<TRIPOS>SUBSTRUCTURE
  1 ****  14 GROUP 4 **** **** 0

# MOE 2024.06 (io_trps.svl 2023.06)
