@<TRIPOS>MOLECULE
NONAME
47 50 1 0 0 
SMALL
USER_CHARGES


@<TRIPOS>ATOM
  1 O        1.5770    -1.0670     2.7970 O.2   1 <1>  -0.5700 
  2 C        1.5090    -1.6190     1.7110 C.2   1 <1>   0.5440 
  3 N        1.4060    -0.8030     0.5980 N.am  1 <1>  -0.6600 
  4 C        1.5650    -3.0810     1.6550 C.ar  1 <1>   0.3960 
  5 C        1.4580    -1.2390    -0.8160 C.3   1 <1>   0.1400 
  6 C        1.3230     0.6710     0.6930 C.3   1 <1>   0.1400 
  7 N        0.9410    -3.7670     0.6800 N.ar  1 <1>  -0.6200 
  8 C        2.2830    -3.7410     2.6600 C.ar  1 <1>   0.1600 
  9 C        1.6930     0.0410    -1.6090 C.3   1 <1>  -0.1600 
 10 C        1.0990     1.1450    -0.7390 C.3   1 <1>  -0.1600 
 11 C        1.0800    -5.0700     0.7780 C.ar  1 <1>   0.4100 
 12 N        2.4440    -5.0540     2.7640 N.ar  1 <1>  -0.6200 
 13 N        0.4260    -5.7550    -0.2090 N.pl3 1 <1>  -0.8690 
 14 C        1.8250    -5.6910     1.7930 C.ar  1 <1>   0.1600 
 15 C       -0.4790    -6.8820     0.1230 C.3   1 <1>   0.2090 
 16 C        0.0090    -8.1560    -0.5600 C.3   1 <1>   0.0210 
 17 C       -0.8820    -9.3130    -0.1700 C.2   1 <1>   0.3350 
 18 N       -0.4990   -10.3190     0.5150 N.2   1 <1>  -0.4100 
 19 N       -2.1690    -9.3390    -0.5260 N.2   1 <1>  -0.5650 
 20 O       -1.5590   -11.0340     0.6100 O.3   1 <1>  -0.0190 
 21 C       -2.5540   -10.4560    -0.0080 C.2   1 <1>   0.4250 
 22 C       -3.8680   -11.0610    -0.0470 C.ar  1 <1>   0.0530 
 23 C       -4.1340   -12.2880     0.5660 C.ar  1 <1>  -0.1500 
 24 C       -4.9270   -10.4330    -0.7050 C.ar  1 <1>  -0.1500 
 25 C       -5.3940   -12.8580     0.5250 C.ar  1 <1>  -0.1500 
 26 C       -6.1890   -10.9980    -0.7500 C.ar  1 <1>  -0.1500 
 27 C       -6.4250   -12.2130    -0.1340 C.ar  1 <1>  -0.1500 
 28 H        0.5100    -1.6760    -1.0820 H     1 <1>   0.0800 
 29 H        2.2470    -1.9550    -0.9750 H     1 <1>   0.0800 
 30 H        2.2540     1.0500     1.0780 H     1 <1>   0.0800 
 31 H        0.5170     0.9660     1.3430 H     1 <1>   0.0800 
 32 H        2.7520    -3.1400     3.4200 H     1 <1>   0.1500 
 33 H        1.2410    -0.0040    -2.5830 H     1 <1>   0.0800 
 34 H        2.7530     0.1930    -1.7190 H     1 <1>   0.0800 
 35 H        1.5560     2.1020    -0.9180 H     1 <1>   0.0800 
 36 H        0.0410     1.2220    -0.9180 H     1 <1>   0.0800 
 37 H       -0.0020    -5.0930    -0.8650 H     1 <1>   0.4000 
 38 H        1.8970    -6.7630     1.7770 H     1 <1>   0.1500 
 39 H       -1.4760    -6.6490    -0.2130 H     1 <1>   0.0800 
 40 H       -0.5150    -7.0320     1.1900 H     1 <1>   0.0800 
 41 H        1.0180    -8.3670    -0.2590 H     1 <1>   0.0800 
 42 H       -0.0210    -8.0340    -1.6260 H     1 <1>   0.0800 
 43 H       -3.3470   -12.8080     1.0840 H     1 <1>   0.1500 
 44 H       -4.7580    -9.4870    -1.1890 H     1 <1>   0.1500 
 45 H       -5.5740   -13.8040     1.0050 H     1 <1>   0.1500 
 46 H       -6.9880   -10.4920    -1.2640 H     1 <1>   0.1500 
 47 H       -7.4060   -12.6550    -0.1670 H     1 <1>   0.1500 
@<TRIPOS>BOND
  1   1   2  2   
  2   2   3  am  
  3   2   4  1   
  4   3   5  1   
  5   3   6  1   
  6   4   7  ar  
  7   4   8  ar  
  8   5   9  1   
  9   5  28  1   
 10   5  29  1   
 11   6  10  1   
 12   6  30  1   
 13   6  31  1   
 14   7  11  ar  
 15   8  12  ar  
 16   8  32  1   
 17   9  10  1   
 18   9  33  1   
 19   9  34  1   
 20  10  35  1   
 21  10  36  1   
 22  11  13  1   
 23  11  14  ar  
 24  12  14  ar  
 25  13  15  1   
 26  13  37  1   
 27  14  38  1   
 28  15  16  1   
 29  15  39  1   
 30  15  40  1   
 31  16  17  1   
 32  16  41  1   
 33  16  42  1   
 34  17  18  2   
 35  17  19  1   
 36  18  20  1   
 37  19  21  2   
 38  20  21  1   
 39  21  22  1   
 40  22  23  ar  
 41  22  24  ar  
 42  23  25  ar  
 43  23  43  1   
 44  24  26  ar  
 45  24  44  1   
 46  25  27  ar  
 47  25  45  1   
 48  26  27  ar  
 49  26  46  1   
 50  27  47  1   
@<TRIPOS>SUBSTRUCTURE
  1 ****  15 GROUP 4 **** **** 0

# MOE 2024.06 (io_trps.svl 2023.06)
