@<TRIPOS>MOLECULE
NONAME
56 59 1 0 0 
SMALL
USER_CHARGES


@<TRIPOS>ATOM
  1 O       -3.0010     1.0660    -2.1090 O.2   1 <1>  -0.5700 
  2 C       -2.5380     0.9670    -1.0010 C.2   1 <1>   0.5690 
  3 N       -2.1610    -0.2260    -0.4850 N.am  1 <1>  -0.7300 
  4 C       -2.3770     2.2160    -0.1650 C.3   1 <1>  -0.0990 
  5 C       -2.2070    -1.5190    -1.2120 C.3   1 <1>   0.2200 
  6 C       -1.2180     3.0770    -0.6860 C.3   1 <1>  -0.0220 
  7 C       -3.3750    -2.3820    -0.7490 C.3   1 <1>  -0.0800 
  8 C       -1.0360    -2.3730    -0.7490 C.3   1 <1>   0.1200 
  9 C       -1.1310     4.4030     0.0770 C.2   1 <1>  -0.1240 
 10 C       -2.8220    -3.0350     0.5260 C.3   1 <1>   0.1200 
 11 C       -4.7120    -1.6340    -0.5630 C.3   1 <1>  -0.0160 
 12 O       -1.4320    -2.8780     0.4900 O.3   1 <1>  -0.5600 
 13 C       -1.8530     5.4950    -0.3070 C.2   1 <1>  -0.0290 
 14 C       -0.2820     4.5330     1.2220 C.2   1 <1>   0.3750 
 15 C       -5.9360    -2.4880    -0.2110 C.ar  1 <1>  -0.1440 
 16 N       -1.6950     6.6320     0.4260 N.am  1 <1>  -0.5390 
 17 C       -2.8330     5.6060    -1.4670 C.3   1 <1>  -0.1020 
 18 N       -0.1560     5.6170     1.8990 N.2   1 <1>  -0.6610 
 19 C        0.5450     3.3570     1.7130 C.3   1 <1>  -0.1790 
 20 C       -7.1520    -1.8530     0.1440 C.ar  1 <1>   0.0000 
 21 C       -5.9350    -3.8560    -0.2240 C.ar  1 <1>  -0.1500 
 22 C       -0.8700     6.7090     1.5030 C.2   1 <1>   0.8410 
 23 C       -8.2550    -2.6710     0.4910 C.ar  1 <1>   0.3100 
 24 C       -7.3420    -0.4500     0.1670 C.ar  1 <1>  -0.1500 
 25 C       -7.0860    -4.5710     0.1280 C.ar  1 <1>   0.1600 
 26 O       -0.7870     7.7630     2.1010 O.2   1 <1>  -0.5700 
 27 N       -8.2050    -4.0260     0.4790 N.ar  1 <1>  -0.6200 
 28 C       -9.4650    -2.0640     0.8630 C.ar  1 <1>  -0.1500 
 29 C       -8.5360     0.1100     0.5300 C.ar  1 <1>  -0.1500 
 30 C       -9.6130    -0.7040     0.8870 C.ar  1 <1>  -0.1500 
 31 H       -1.8150    -0.3110     0.4730 H     1 <1>   0.3700 
 32 H       -3.2940     2.7730    -0.2180 H     1 <1>   0.0800 
 33 H       -2.2120     1.9510     0.8630 H     1 <1>   0.0800 
 34 H       -2.2030    -1.3580    -2.2780 H     1 <1>   0.0800 
 35 H       -1.3640     3.2710    -1.7340 H     1 <1>   0.0800 
 36 H       -0.2980     2.5270    -0.6220 H     1 <1>   0.0800 
 37 H       -3.5120    -3.1500    -1.4900 H     1 <1>   0.0800 
 38 H       -0.1240    -1.8130    -0.6410 H     1 <1>   0.0800 
 39 H       -0.8810    -3.2060    -1.4130 H     1 <1>   0.0800 
 40 H       -3.0480    -4.0850     0.5760 H     1 <1>   0.0800 
 41 H       -3.1830    -2.5440     1.4130 H     1 <1>   0.0800 
 42 H       -4.9270    -1.0960    -1.4700 H     1 <1>   0.0800 
 43 H       -4.5840    -0.9090     0.2210 H     1 <1>   0.0800 
 44 H       -2.1760     7.5040     0.2190 H     1 <1>   0.3700 
 45 H       -3.7590     6.0290    -1.1210 H     1 <1>   0.0800 
 46 H       -3.0570     4.6550    -1.9120 H     1 <1>   0.0800 
 47 H       -2.4250     6.2490    -2.2260 H     1 <1>   0.0800 
 48 H       -0.0800     2.5030     1.8920 H     1 <1>   0.0800 
 49 H        1.0370     3.6090     2.6370 H     1 <1>   0.0800 
 50 H        1.3010     3.1120     0.9900 H     1 <1>   0.0800 
 51 H       -5.0770    -4.4360    -0.4980 H     1 <1>   0.1500 
 52 H       -6.5340     0.1990    -0.1120 H     1 <1>   0.1500 
 53 H       -7.0350    -5.6460     0.1060 H     1 <1>   0.1500 
 54 H      -10.2800    -2.7120     1.1290 H     1 <1>   0.1500 
 55 H       -8.6630     1.1790     0.5440 H     1 <1>   0.1500 
 56 H      -10.5470    -0.2530     1.1730 H     1 <1>   0.1500 
@<TRIPOS>BOND
  1   1   2  2   
  2   2   3  am  
  3   2   4  1   
  4   3   5  1   
  5   3  31  1   
  6   4   6  1   
  7   4  32  1   
  8   4  33  1   
  9   5   7  1   
 10   5   8  1   
 11   5  34  1   
 12   6   9  1   
 13   6  35  1   
 14   6  36  1   
 15   7  10  1   
 16   7  11  1   
 17   7  37  1   
 18   8  12  1   
 19   8  38  1   
 20   8  39  1   
 21   9  13  2   
 22   9  14  1   
 23  10  12  1   
 24  10  40  1   
 25  10  41  1   
 26  11  15  1   
 27  11  42  1   
 28  11  43  1   
 29  13  16  1   
 30  13  17  1   
 31  14  18  2   
 32  14  19  1   
 33  15  20  ar  
 34  15  21  ar  
 35  16  22  am  
 36  16  44  1   
 37  17  45  1   
 38  17  46  1   
 39  17  47  1   
 40  18  22  1   
 41  19  48  1   
 42  19  49  1   
 43  19  50  1   
 44  20  23  ar  
 45  20  24  ar  
 46  21  25  ar  
 47  21  51  1   
 48  22  26  2   
 49  23  27  ar  
 50  23  28  ar  
 51  24  29  ar  
 52  24  52  1   
 53  25  27  ar  
 54  25  53  1   
 55  28  30  ar  
 56  28  54  1   
 57  29  30  ar  
 58  29  55  1   
 59  30  56  1   
@<TRIPOS>SUBSTRUCTURE
  1 ****   2 GROUP 4 **** **** 0

# MOE 2024.06 (io_trps.svl 2023.06)
