@<TRIPOS>MOLECULE
NONAME
43 44 1 0 0 
SMALL
USER_CHARGES


@<TRIPOS>ATOM
  1 S       -0.1650     0.0640    -0.2210 S.3   1 <1>  -0.4600 
  2 C        0.0400    -1.7330    -0.0490 C.3   1 <1>   0.2140 
  3 C        1.5390     0.6740    -0.2590 C.3   1 <1>   0.0700 
  4 C       -1.3230    -2.3700     0.1820 C.ar  1 <1>  -0.1440 
  5 C        1.4870     2.1930    -0.4180 C.3   1 <1>  -0.1600 
  6 C       -1.5650    -3.1850     1.2780 C.ar  1 <1>   0.1900 
  7 C       -2.3670    -2.1610    -0.7090 C.ar  1 <1>  -0.1500 
  8 C        2.8950     2.7800    -0.4280 C.3   1 <1>   0.2090 
  9 F       -0.6060    -3.4150     2.1360 F     1 <1>  -0.1900 
 10 C       -2.7910    -3.7820     1.5080 C.ar  1 <1>  -0.1500 
 11 C       -3.6040    -2.7520    -0.4970 C.ar  1 <1>  -0.1500 
 12 N        2.8050     4.2370    -0.6250 N.pl3 1 <1>  -0.8690 
 13 C       -3.8190    -3.5610     0.6080 C.ar  1 <1>  -0.1500 
 14 C        3.9090     5.0400    -0.3700 C.ar  1 <1>   0.4100 
 15 N        5.0940     4.5110    -0.6170 N.ar  1 <1>  -0.6200 
 16 C        3.7230     6.3660     0.1450 C.ar  1 <1>   0.4100 
 17 C        6.0830     5.3510    -0.3390 C.ar  1 <1>   0.1600 
 18 N        4.7290     7.1800     0.4200 N.ar  1 <1>  -0.6200 
 19 N        2.4330     6.8720     0.3770 N.pl3 1 <1>  -0.8380 
 20 C        5.9080     6.6290     0.1580 C.ar  1 <1>   0.1600 
 21 C        1.7150     7.3400    -0.8370 C.3   1 <1>   0.1290 
 22 C        2.2430     7.7620     1.5550 C.3   1 <1>   0.1290 
 23 H        0.7100    -1.8930     0.7770 H     1 <1>   0.0800 
 24 H        0.4850    -2.0940    -0.9580 H     1 <1>   0.0800 
 25 H        2.0340     0.2040    -1.0910 H     1 <1>   0.0800 
 26 H        2.0040     0.3870     0.6680 H     1 <1>   0.0800 
 27 H        0.9290     2.6140     0.3990 H     1 <1>   0.0800 
 28 H        0.9950     2.4340    -1.3440 H     1 <1>   0.0800 
 29 H       -2.2210    -1.5320    -1.5710 H     1 <1>   0.1500 
 30 H        3.4730     2.3550    -1.2320 H     1 <1>   0.0800 
 31 H        3.3950     2.5740     0.5040 H     1 <1>   0.0800 
 32 H       -2.9330    -4.4050     2.3720 H     1 <1>   0.1500 
 33 H       -4.4040    -2.5780    -1.1960 H     1 <1>   0.1500 
 34 H        1.9790     4.6630    -0.1880 H     1 <1>   0.4000 
 35 H       -4.7830    -4.0140     0.7660 H     1 <1>   0.1500 
 36 H        7.0820     4.9960    -0.5190 H     1 <1>   0.1500 
 37 H        6.7760     7.2340     0.3530 H     1 <1>   0.1500 
 38 H        1.9430     6.7010    -1.6740 H     1 <1>   0.0800 
 39 H        2.0180     8.3440    -1.0760 H     1 <1>   0.0800 
 40 H        0.6530     7.3190    -0.6640 H     1 <1>   0.0800 
 41 H        2.8040     7.3820     2.3920 H     1 <1>   0.0800 
 42 H        1.2020     7.7990     1.8240 H     1 <1>   0.0800 
 43 H        2.5920     8.7540     1.3260 H     1 <1>   0.0800 
@<TRIPOS>BOND
  1   1   2  1   
  2   1   3  1   
  3   2   4  1   
  4   2  23  1   
  5   2  24  1   
  6   3   5  1   
  7   3  25  1   
  8   3  26  1   
  9   4   6  ar  
 10   4   7  ar  
 11   5   8  1   
 12   5  27  1   
 13   5  28  1   
 14   6   9  1   
 15   6  10  ar  
 16   7  11  ar  
 17   7  29  1   
 18   8  12  1   
 19   8  30  1   
 20   8  31  1   
 21  10  13  ar  
 22  10  32  1   
 23  11  13  ar  
 24  11  33  1   
 25  12  14  1   
 26  12  34  1   
 27  13  35  1   
 28  14  15  ar  
 29  14  16  ar  
 30  15  17  ar  
 31  16  18  ar  
 32  16  19  1   
 33  17  20  ar  
 34  17  36  1   
 35  18  20  ar  
 36  19  21  1   
 37  19  22  1   
 38  20  37  1   
 39  21  38  1   
 40  21  39  1   
 41  21  40  1   
 42  22  41  1   
 43  22  42  1   
 44  22  43  1   
@<TRIPOS>SUBSTRUCTURE
  1 ****   5 GROUP 4 **** **** 0

# MOE 2024.06 (io_trps.svl 2023.06)
