@<TRIPOS>MOLECULE
NONAME
56 59 1 0 0 
SMALL
USER_CHARGES


@<TRIPOS>ATOM
  1 O       -3.5050     0.9570     0.7610 O.2   1 <1>  -0.5700 
  2 C       -3.4460     1.6260    -0.2550 C.2   1 <1>   0.5440 
  3 N       -4.2170     1.1950    -1.3060 N.am  1 <1>  -0.6600 
  4 C       -2.6170     2.8030    -0.3420 C.ar  1 <1>   0.0860 
  5 C       -5.7010     1.3810    -1.1910 C.3   1 <1>   0.1400 
  6 C       -3.8540    -0.1210    -1.9290 C.3   1 <1>   0.1400 
  7 C       -2.4960     3.5610    -1.4940 C.ar  1 <1>   0.1600 
  8 C       -1.8760     3.2650     0.7320 C.ar  1 <1>   0.1600 
  9 C       -6.3750     0.2420    -0.3740 C.3   1 <1>   0.4230 
 10 C       -4.6840    -1.2990    -1.3580 C.3   1 <1>   0.3430 
 11 N       -1.7480     4.6340    -1.5810 N.ar  1 <1>  -0.6200 
 12 N       -1.1170     4.3320     0.6790 N.ar  1 <1>  -0.6200 
 13 N       -5.4250    -0.9040    -0.1100 N.4   1 <1>  -0.9590 
 14 C       -7.6670    -0.2590    -1.0590 C.3   1 <1>   0.1200 
 15 C       -1.0810     4.9770    -0.4840 C.ar  1 <1>   0.7200 
 16 C       -6.1260    -2.0050     0.6270 C.3   1 <1>   0.4230 
 17 O       -8.2460    -1.2990    -0.3230 O.3   1 <1>  -0.5600 
 18 N       -0.3310     6.1020    -0.6200 N.pl3 1 <1>  -0.6000 
 19 C       -7.4260    -2.4160    -0.1050 C.3   1 <1>   0.1200 
 20 C       -5.1730    -3.1860     0.8720 C.3   1 <1>  -0.1600 
 21 C        0.5250     6.7940     0.2470 C.ar  1 <1>   0.1000 
 22 C       -5.7190    -4.1730     1.9160 C.3   1 <1>  -0.1600 
 23 C        0.6230     8.1750     0.1280 C.ar  1 <1>  -0.1500 
 24 C        1.3010     6.1560     1.2090 C.ar  1 <1>  -0.1500 
 25 C       -4.7070    -5.2880     2.1930 C.3   1 <1>  -0.2400 
 26 C        1.4660     8.9020     0.9490 C.ar  1 <1>  -0.1500 
 27 C        2.1450     6.8790     2.0340 C.ar  1 <1>  -0.1500 
 28 C        2.2280     8.2540     1.9060 C.ar  1 <1>  -0.1500 
 29 H       -5.9130     2.3230    -0.7150 H     1 <1>   0.0800 
 30 H       -6.1220     1.4270    -2.1820 H     1 <1>   0.0800 
 31 H       -3.9900    -0.0670    -2.9950 H     1 <1>   0.0800 
 32 H       -2.8090    -0.3200    -1.7520 H     1 <1>   0.0800 
 33 H       -3.0400     3.2690    -2.3760 H     1 <1>   0.1500 
 34 H       -1.9150     2.7290     1.6670 H     1 <1>   0.1500 
 35 H       -6.6690     0.6620     0.5740 H     1 <1>   0.0800 
 36 H       -4.0140    -2.1180    -1.1520 H     1 <1>   0.0800 
 37 H       -5.3840    -1.6330    -2.1050 H     1 <1>   0.0800 
 38 H       -4.7000    -0.4880     0.5130 H     1 <1>   0.4500 
 39 H       -7.4730    -0.6140    -2.0570 H     1 <1>   0.0800 
 40 H       -8.3900     0.5360    -1.1150 H     1 <1>   0.0800 
 41 H       -6.4180    -1.6260     1.5930 H     1 <1>   0.0800 
 42 H       -0.4990     6.5360    -1.5220 H     1 <1>   0.4000 
 43 H       -7.9890    -3.1090     0.4950 H     1 <1>   0.0800 
 44 H       -7.2140    -2.8810    -1.0520 H     1 <1>   0.0800 
 45 H       -4.9970    -3.7210    -0.0440 H     1 <1>   0.0800 
 46 H       -4.2340    -2.8050     1.2360 H     1 <1>   0.0800 
 47 H       -5.9270    -3.6570     2.8390 H     1 <1>   0.0800 
 48 H       -6.6350    -4.6230     1.5720 H     1 <1>   0.0800 
 49 H        0.0330     8.6860    -0.6100 H     1 <1>   0.1500 
 50 H        1.2510     5.0890     1.3130 H     1 <1>   0.1500 
 51 H       -3.7860    -4.8820     2.5760 H     1 <1>   0.0800 
 52 H       -4.4940    -5.8430     1.2960 H     1 <1>   0.0800 
 53 H       -5.1030    -5.9700     2.9250 H     1 <1>   0.0800 
 54 H        1.5290     9.9720     0.8470 H     1 <1>   0.1500 
 55 H        2.7360     6.3700     2.7750 H     1 <1>   0.1500 
 56 H        2.8830     8.8170     2.5470 H     1 <1>   0.1500 
@<TRIPOS>BOND
  1   1   2  2   
  2   2   3  am  
  3   2   4  1   
  4   3   5  1   
  5   3   6  1   
  6   4   7  ar  
  7   4   8  ar  
  8   5   9  1   
  9   5  29  1   
 10   5  30  1   
 11   6  10  1   
 12   6  31  1   
 13   6  32  1   
 14   7  11  ar  
 15   7  33  1   
 16   8  12  ar  
 17   8  34  1   
 18   9  13  1   
 19   9  14  1   
 20   9  35  1   
 21  10  13  1   
 22  10  36  1   
 23  10  37  1   
 24  11  15  ar  
 25  12  15  ar  
 26  13  16  1   
 27  13  38  1   
 28  14  17  1   
 29  14  39  1   
 30  14  40  1   
 31  15  18  1   
 32  16  19  1   
 33  16  20  1   
 34  16  41  1   
 35  17  19  1   
 36  18  21  1   
 37  18  42  1   
 38  19  43  1   
 39  19  44  1   
 40  20  22  1   
 41  20  45  1   
 42  20  46  1   
 43  21  23  ar  
 44  21  24  ar  
 45  22  25  1   
 46  22  47  1   
 47  22  48  1   
 48  23  26  ar  
 49  23  49  1   
 50  24  27  ar  
 51  24  50  1   
 52  25  51  1   
 53  25  52  1   
 54  25  53  1   
 55  26  28  ar  
 56  26  54  1   
 57  27  28  ar  
 58  27  55  1   
 59  28  56  1   
@<TRIPOS>SUBSTRUCTURE
  1 ****   2 GROUP 4 **** **** 0

# MOE 2024.06 (io_trps.svl 2023.06)
