@<TRIPOS>MOLECULE
NONAME
45 47 1 0 0 
SMALL
USER_CHARGES


@<TRIPOS>ATOM
  1 S        1.2000    -0.3370     0.9480 S.3   1 <1>  -0.0800 
  2 C       -0.3530    -0.6880     0.2790 C.2   1 <1>   0.1980 
  3 C        1.8300    -0.5030    -0.6540 C.2   1 <1>   0.1980 
  4 N       -0.3210    -0.8920    -0.9760 N.2   1 <1>  -0.3380 
  5 C       -1.5560    -0.7200     1.2090 C.3   1 <1>   0.5230 
  6 N        0.9310    -0.7830    -1.5100 N.2   1 <1>  -0.3380 
  7 C        3.3150    -0.3090    -0.8650 C.3   1 <1>  -0.0600 
  8 N       -2.8360    -0.7720     0.4310 N.4   1 <1>  -0.9590 
  9 C       -3.1090     0.5370    -0.2360 C.3   1 <1>   0.3430 
 10 C       -3.9820    -1.2050     1.2780 C.3   1 <1>   0.3430 
 11 C       -4.3700     0.4400    -1.0860 C.3   1 <1>  -0.1600 
 12 C       -5.2390    -1.3230     0.4250 C.3   1 <1>  -0.1600 
 13 C       -5.5880     0.0180    -0.2410 C.3   1 <1>   0.2800 
 14 O       -5.6810     0.9430     0.8180 O.3   1 <1>  -0.5600 
 15 C       -6.9250    -0.0960    -1.0630 C.3   1 <1>   0.2000 
 16 C       -6.5100     2.0470     0.6120 C.3   1 <1>   0.1200 
 17 O       -6.8860     0.7310    -2.1980 O.3   1 <1>  -0.6800 
 18 C       -8.1710     0.2580    -0.2020 C.3   1 <1>   0.2800 
 19 C       -7.9780     1.6010     0.5300 C.3   1 <1>  -0.1600 
 20 O       -8.3280    -0.7250     0.7540 O.3   1 <1>  -0.6800 
 21 C       -9.4840     0.2390    -0.9960 C.3   1 <1>  -0.2400 
 22 H       -1.5460     0.1520     1.8420 H     1 <1>   0.0800 
 23 H       -1.4740    -1.5930     1.8340 H     1 <1>   0.0800 
 24 H        3.5550    -0.4430    -1.9050 H     1 <1>   0.0800 
 25 H        3.8650    -1.0270    -0.2860 H     1 <1>   0.0800 
 26 H        3.6020     0.6820    -0.5670 H     1 <1>   0.0800 
 27 H       -2.6860    -1.4590    -0.3230 H     1 <1>   0.4500 
 28 H       -3.2500     1.3040     0.5090 H     1 <1>   0.0800 
 29 H       -2.2770     0.8170    -0.8630 H     1 <1>   0.0800 
 30 H       -3.7700    -2.1570     1.7370 H     1 <1>   0.0800 
 31 H       -4.1580    -0.4790     2.0570 H     1 <1>   0.0800 
 32 H       -4.2160    -0.2570    -1.8900 H     1 <1>   0.0800 
 33 H       -4.5470     1.4010    -1.5340 H     1 <1>   0.0800 
 34 H       -6.0430    -1.6380     1.0620 H     1 <1>   0.0800 
 35 H       -5.1060    -2.0870    -0.3190 H     1 <1>   0.0800 
 36 H       -7.0300    -1.0990    -1.4380 H     1 <1>   0.0800 
 37 H       -6.3710     2.7290     1.4330 H     1 <1>   0.0800 
 38 H       -6.2080     2.5380    -0.2980 H     1 <1>   0.0800 
 39 H       -7.6940     0.6060    -2.7340 H     1 <1>   0.4000 
 40 H       -8.5020     2.3780     0.0030 H     1 <1>   0.0800 
 41 H       -8.3970     1.5610     1.5200 H     1 <1>   0.0800 
 42 H       -9.1090    -0.5230     1.3040 H     1 <1>   0.4000 
 43 H       -9.4840     1.0070    -1.7480 H     1 <1>   0.0800 
 44 H      -10.3220     0.4180    -0.3470 H     1 <1>   0.0800 
 45 H       -9.6130    -0.7120    -1.4830 H     1 <1>   0.0800 
@<TRIPOS>BOND
  1   1   2  1   
  2   1   3  1   
  3   2   4  2   
  4   2   5  1   
  5   3   6  2   
  6   3   7  1   
  7   4   6  1   
  8   5   8  1   
  9   5  22  1   
 10   5  23  1   
 11   7  24  1   
 12   7  25  1   
 13   7  26  1   
 14   8   9  1   
 15   8  10  1   
 16   8  27  1   
 17   9  11  1   
 18   9  28  1   
 19   9  29  1   
 20  10  12  1   
 21  10  30  1   
 22  10  31  1   
 23  11  13  1   
 24  11  32  1   
 25  11  33  1   
 26  12  13  1   
 27  12  34  1   
 28  12  35  1   
 29  13  14  1   
 30  13  15  1   
 31  14  16  1   
 32  15  17  1   
 33  15  18  1   
 34  15  36  1   
 35  16  19  1   
 36  16  37  1   
 37  16  38  1   
 38  17  39  1   
 39  18  19  1   
 40  18  20  1   
 41  18  21  1   
 42  19  40  1   
 43  19  41  1   
 44  20  42  1   
 45  21  43  1   
 46  21  44  1   
 47  21  45  1   
@<TRIPOS>SUBSTRUCTURE
  1 ****   9 GROUP 4 **** **** 0

# MOE 2024.06 (io_trps.svl 2023.06)
