@<TRIPOS>MOLECULE
NONAME
50 53 1 0 0 
SMALL
USER_CHARGES


@<TRIPOS>ATOM
  1 O        0.0440     1.3010     1.5330 O.2   1 <1>  -0.5700 
  2 C        0.0570     2.2840     0.8280 C.2   1 <1>   0.5690 
  3 N       -1.1020     2.9170     0.4570 N.am  1 <1>  -0.6600 
  4 C        1.4000     2.8200     0.3500 C.3   1 <1>  -0.0990 
  5 C       -2.4300     2.3450     0.8550 C.3   1 <1>   0.1400 
  6 C       -1.1340     4.1590    -0.3740 C.3   1 <1>   0.1400 
  7 C        2.5750     1.8700     0.6250 C.3   1 <1>   0.0210 
  8 C       -3.4830     2.4970    -0.2720 C.3   1 <1>   0.0000 
  9 C       -2.4770     4.8840    -0.2390 C.3   1 <1>  -0.1600 
 10 C        3.8970     2.4120     0.1040 C.2   1 <1>  -0.1810 
 11 C       -4.8230     1.8250     0.0970 C.3   1 <1>   0.2000 
 12 C       -3.6800     3.9970    -0.6150 C.3   1 <1>  -0.1600 
 13 C       -3.0670     1.6600    -1.4990 C.3   1 <1>  -0.1600 
 14 C        5.1100     1.6920     0.1990 C.ar  1 <1>   0.0000 
 15 C        4.1740     3.5910    -0.5070 C.2   1 <1>  -0.3020 
 16 O       -5.1680     1.9990     1.4260 O.3   1 <1>  -0.6800 
 17 C       -4.6770     0.3350    -0.2200 C.3   1 <1>  -0.1600 
 18 C       -3.4820     0.2230    -1.1750 C.3   1 <1>  -0.1600 
 19 C        6.0930     2.4910    -0.3750 C.ar  1 <1>  -0.1520 
 20 C        5.4580     0.4400     0.7190 C.ar  1 <1>  -0.1500 
 21 N        5.5060     3.6520    -0.8030 N.pl3 1 <1>   0.0330 
 22 C        7.4220     2.0620    -0.4410 C.ar  1 <1>  -0.1500 
 23 C        6.7660     0.0180     0.6550 C.ar  1 <1>  -0.1500 
 24 C        7.7490     0.8290     0.0740 C.ar  1 <1>  -0.1500 
 25 H        1.3450     2.9910    -0.7080 H     1 <1>   0.0800 
 26 H        1.5860     3.7540     0.8450 H     1 <1>   0.0800 
 27 H       -2.3200     1.3060     1.1110 H     1 <1>   0.0800 
 28 H       -2.7660     2.8650     1.7350 H     1 <1>   0.0800 
 29 H       -0.3470     4.8250    -0.0650 H     1 <1>   0.0800 
 30 H       -0.9720     3.8950    -1.4050 H     1 <1>   0.0800 
 31 H        2.3810     0.9210     0.1570 H     1 <1>   0.0800 
 32 H        2.6630     1.7050     1.6850 H     1 <1>   0.0800 
 33 H       -2.5800     5.2100     0.7820 H     1 <1>   0.0800 
 34 H       -2.4750     5.7650    -0.8560 H     1 <1>   0.0800 
 35 H       -5.6140     2.2410    -0.5060 H     1 <1>   0.0800 
 36 H       -3.8920     4.1090    -1.6630 H     1 <1>   0.0800 
 37 H       -4.5370     4.3750    -0.0820 H     1 <1>   0.0800 
 38 H       -3.6170     1.9820    -2.3670 H     1 <1>   0.0800 
 39 H       -2.0170     1.7230    -1.7230 H     1 <1>   0.0800 
 40 H        3.5080     4.3990    -0.7520 H     1 <1>   0.1500 
 41 H       -4.5650     1.4880     1.9970 H     1 <1>   0.4000 
 42 H       -4.4890    -0.2440     0.6670 H     1 <1>   0.0800 
 43 H       -5.5740    -0.0230    -0.6950 H     1 <1>   0.0800 
 44 H       -2.6700    -0.2840    -0.6800 H     1 <1>   0.0800 
 45 H       -3.7350    -0.3220    -2.0690 H     1 <1>   0.0800 
 46 H        4.6950    -0.1730     1.1620 H     1 <1>   0.1500 
 47 H        5.9960     4.4250    -1.2630 H     1 <1>   0.2700 
 48 H        8.1700     2.6920    -0.8880 H     1 <1>   0.1500 
 49 H        7.0460    -0.9420     1.0510 H     1 <1>   0.1500 
 50 H        8.7640     0.4760     0.0360 H     1 <1>   0.1500 
@<TRIPOS>BOND
  1   1   2  2   
  2   2   3  am  
  3   2   4  1   
  4   3   5  1   
  5   3   6  1   
  6   4   7  1   
  7   4  25  1   
  8   4  26  1   
  9   5   8  1   
 10   5  27  1   
 11   5  28  1   
 12   6   9  1   
 13   6  29  1   
 14   6  30  1   
 15   7  10  1   
 16   7  31  1   
 17   7  32  1   
 18   8  11  1   
 19   8  12  1   
 20   8  13  1   
 21   9  12  1   
 22   9  33  1   
 23   9  34  1   
 24  10  14  1   
 25  10  15  2   
 26  11  16  1   
 27  11  17  1   
 28  11  35  1   
 29  12  36  1   
 30  12  37  1   
 31  13  18  1   
 32  13  38  1   
 33  13  39  1   
 34  14  19  ar  
 35  14  20  ar  
 36  15  21  1   
 37  15  40  1   
 38  16  41  1   
 39  17  18  1   
 40  17  42  1   
 41  17  43  1   
 42  18  44  1   
 43  18  45  1   
 44  19  21  1   
 45  19  22  ar  
 46  20  23  ar  
 47  20  46  1   
 48  21  47  1   
 49  22  24  ar  
 50  22  48  1   
 51  23  24  ar  
 52  23  49  1   
 53  24  50  1   
@<TRIPOS>SUBSTRUCTURE
  1 ****   4 GROUP 4 **** **** 0

# MOE 2024.06 (io_trps.svl 2023.06)
