@<TRIPOS>MOLECULE
NONAME
49 51 1 0 0 
SMALL
USER_CHARGES


@<TRIPOS>ATOM
  1 O        1.1040    -0.5310     2.6310 O.2   1 <1>  -0.5700 
  2 C        0.2190    -0.8180     1.8610 C.2   1 <1>   0.5690 
  3 N        0.3910    -1.0440     0.5250 N.am  1 <1>  -0.5470 
  4 C       -1.2130    -0.9480     2.3840 C.3   1 <1>   0.1710 
  5 C        1.5020    -1.0220    -0.3300 C.ar  1 <1>   0.1170 
  6 N       -2.2540    -0.8300     1.3160 N.3   1 <1>  -0.8100 
  7 C        2.8060    -0.8250     0.1140 C.ar  1 <1>  -0.1500 
  8 C        1.2900    -1.2080    -1.6920 C.ar  1 <1>  -0.1500 
  9 C       -2.4230     0.5780     0.9170 C.3   1 <1>   0.1100 
 10 C       -3.5360    -1.3660     1.7920 C.3   1 <1>   0.1100 
 11 C        3.8640    -0.8120    -0.7760 C.ar  1 <1>  -0.1500 
 12 C        2.3460    -1.1960    -2.5860 C.ar  1 <1>  -0.1500 
 13 C       -3.3930     0.6630    -0.2610 C.3   1 <1>  -0.1600 
 14 C       -4.5550    -1.3560     0.6500 C.3   1 <1>  -0.1600 
 15 C        3.6370    -0.9970    -2.1280 C.ar  1 <1>  -0.1500 
 16 C       -4.7640     0.0550     0.0720 C.3   1 <1>   0.2800 
 17 O       -5.3160     0.8460     1.0980 O.3   1 <1>  -0.5600 
 18 C       -5.6490     0.0390    -1.1950 C.3   1 <1>  -0.1600 
 19 C       -6.6180     1.3430     0.9890 C.3   1 <1>   0.1200 
 20 C       -7.1440    -0.2040    -0.9200 C.3   1 <1>   0.2800 
 21 C       -7.5520     0.2440     0.4880 C.3   1 <1>  -0.1600 
 22 O       -7.8410     0.5790    -1.8110 O.3   1 <1>  -0.6800 
 23 C       -7.5840    -1.6390    -1.2070 C.3   1 <1>  -0.2400 
 24 H       -0.5180    -1.2140     0.0800 H     1 <1>   0.3700 
 25 H       -1.3770    -0.2060     3.1450 H     1 <1>   0.0800 
 26 H       -1.2850    -1.9160     2.8470 H     1 <1>   0.0800 
 27 H        3.0030    -0.6810     1.1600 H     1 <1>   0.1500 
 28 H        0.2920    -1.3630    -2.0560 H     1 <1>   0.1500 
 29 H       -1.4760     0.9990     0.6230 H     1 <1>   0.0800 
 30 H       -2.8040     1.1550     1.7450 H     1 <1>   0.0800 
 31 H       -3.9020    -0.7750     2.6160 H     1 <1>   0.0800 
 32 H       -3.4020    -2.3800     2.1320 H     1 <1>   0.0800 
 33 H        4.8660    -0.6570    -0.4140 H     1 <1>   0.1500 
 34 H        2.1660    -1.3410    -3.6370 H     1 <1>   0.1500 
 35 H       -2.9590     0.1430    -1.0950 H     1 <1>   0.0800 
 36 H       -3.5170     1.6920    -0.5460 H     1 <1>   0.0800 
 37 H       -5.4830    -1.7500     1.0140 H     1 <1>   0.0800 
 38 H       -4.2010    -2.0140    -0.1220 H     1 <1>   0.0800 
 39 H        4.4600    -0.9870    -2.8200 H     1 <1>   0.1500 
 40 H       -5.2770    -0.7030    -1.8780 H     1 <1>   0.0800 
 41 H       -5.5250     0.9900    -1.6820 H     1 <1>   0.0800 
 42 H       -6.6050     2.1850     0.3180 H     1 <1>   0.0800 
 43 H       -6.9190     1.6810     1.9660 H     1 <1>   0.0800 
 44 H       -8.5730     0.5830     0.4940 H     1 <1>   0.0800 
 45 H       -7.4900    -0.5790     1.1760 H     1 <1>   0.0800 
 46 H       -7.6170     1.5160    -1.6730 H     1 <1>   0.4000 
 47 H       -7.0740    -2.3310    -0.5660 H     1 <1>   0.0800 
 48 H       -7.3670    -1.8990    -2.2280 H     1 <1>   0.0800 
 49 H       -8.6420    -1.7420    -1.0410 H     1 <1>   0.0800 
@<TRIPOS>BOND
  1   1   2  2   
  2   2   3  am  
  3   2   4  1   
  4   3   5  1   
  5   3  24  1   
  6   4   6  1   
  7   4  25  1   
  8   4  26  1   
  9   5   7  ar  
 10   5   8  ar  
 11   6   9  1   
 12   6  10  1   
 13   7  11  ar  
 14   7  27  1   
 15   8  12  ar  
 16   8  28  1   
 17   9  13  1   
 18   9  29  1   
 19   9  30  1   
 20  10  14  1   
 21  10  31  1   
 22  10  32  1   
 23  11  15  ar  
 24  11  33  1   
 25  12  15  ar  
 26  12  34  1   
 27  13  16  1   
 28  13  35  1   
 29  13  36  1   
 30  14  16  1   
 31  14  37  1   
 32  14  38  1   
 33  15  39  1   
 34  16  17  1   
 35  16  18  1   
 36  17  19  1   
 37  18  20  1   
 38  18  40  1   
 39  18  41  1   
 40  19  21  1   
 41  19  42  1   
 42  19  43  1   
 43  20  21  1   
 44  20  22  1   
 45  20  23  1   
 46  21  44  1   
 47  21  45  1   
 48  22  46  1   
 49  23  47  1   
 50  23  48  1   
 51  23  49  1   
@<TRIPOS>SUBSTRUCTURE
  1 ****   6 GROUP 4 **** **** 0

# MOE 2024.06 (io_trps.svl 2023.06)
