@<TRIPOS>MOLECULE
NONAME
43 44 1 0 0 
SMALL
USER_CHARGES


@<TRIPOS>ATOM
  1 O       -1.5390    -0.5330     1.3260 O.2   1 <1>  -0.5700 
  2 C       -1.8370     0.3080     0.4940 C.2   1 <1>   0.5440 
  3 N       -2.3380    -0.1080    -0.7240 N.am  1 <1>  -0.6600 
  4 C       -1.7220     1.7020     0.8340 C.ar  1 <1>   0.0860 
  5 C       -2.3870    -1.5480    -1.0810 C.3   1 <1>   0.3200 
  6 C       -2.9610     0.8400    -1.7050 C.3   1 <1>   0.1400 
  7 C       -0.6280     2.4660     0.4150 C.ar  1 <1>   0.3920 
  8 C       -2.7050     2.3390     1.5800 C.ar  1 <1>  -0.1500 
  9 C       -3.6240    -2.1570    -0.4590 C.2   1 <1>  -0.3320 
 10 C       -4.4990     0.8000    -1.6900 C.3   1 <1>   0.1200 
 11 O        0.3170     1.8480    -0.3240 O.3   1 <1>  -0.3630 
 12 N       -0.4510     3.7590     0.6790 N.ar  1 <1>  -0.6200 
 13 C       -2.5340     3.6730     1.8620 C.ar  1 <1>  -0.1500 
 14 N       -3.7840    -2.2180     0.8740 N.pl3 1 <1>   0.0330 
 15 C       -4.7300    -2.7130    -1.0000 C.2   1 <1>   0.0770 
 16 O       -4.9790     0.7290    -0.3910 O.3   1 <1>  -0.6800 
 17 C        1.4940     2.5110    -0.7440 C.3   1 <1>   0.0400 
 18 C       -1.4070     4.3330     1.3990 C.ar  1 <1>   0.3930 
 19 C       -4.9890    -2.7950     1.0630 C.2   1 <1>   0.0060 
 20 N       -5.5880    -3.1070    -0.0400 N.2   1 <1>  -0.5650 
 21 O       -1.2950     5.6380     1.7090 O.3   1 <1>  -0.3630 
 22 C       -5.5690    -3.0420     2.4380 C.3   1 <1>  -0.0600 
 23 C       -0.1770     6.4000     1.2960 C.3   1 <1>   0.0400 
 24 H       -1.5070    -2.0450    -0.7080 H     1 <1>   0.0800 
 25 H       -2.4080    -1.6640    -2.1510 H     1 <1>   0.0800 
 26 H       -2.6100     0.6100    -2.6960 H     1 <1>   0.0800 
 27 H       -2.6510     1.8490    -1.4990 H     1 <1>   0.0800 
 28 H       -3.5720     1.7960     1.9170 H     1 <1>   0.1500 
 29 H       -4.8620    -0.0600    -2.2250 H     1 <1>   0.0800 
 30 H       -4.9010     1.6870    -2.1480 H     1 <1>   0.0800 
 31 H       -3.2620     4.2170     2.4360 H     1 <1>   0.1500 
 32 H       -3.1110    -1.8620     1.5690 H     1 <1>   0.2700 
 33 H       -4.9650    -2.8520    -2.0420 H     1 <1>   0.1500 
 34 H       -4.7690    -0.1640    -0.0330 H     1 <1>   0.4000 
 35 H        2.0960     1.8140    -1.2970 H     1 <1>   0.0800 
 36 H        2.0280     2.8530     0.1250 H     1 <1>   0.0800 
 37 H        1.2210     3.3430    -1.3690 H     1 <1>   0.0800 
 38 H       -4.9200    -3.6890     3.0000 H     1 <1>   0.0800 
 39 H       -6.5320    -3.5110     2.3470 H     1 <1>   0.0800 
 40 H       -5.6850    -2.1110     2.9610 H     1 <1>   0.0800 
 41 H       -0.3020     7.4050     1.6560 H     1 <1>   0.0800 
 42 H       -0.1310     6.3950     0.2210 H     1 <1>   0.0800 
 43 H        0.7130     5.9640     1.7140 H     1 <1>   0.0800 
@<TRIPOS>BOND
  1   1   2  2   
  2   2   3  am  
  3   2   4  1   
  4   3   5  1   
  5   3   6  1   
  6   4   7  ar  
  7   4   8  ar  
  8   5   9  1   
  9   5  24  1   
 10   5  25  1   
 11   6  10  1   
 12   6  26  1   
 13   6  27  1   
 14   7  11  1   
 15   7  12  ar  
 16   8  13  ar  
 17   8  28  1   
 18   9  14  1   
 19   9  15  2   
 20  10  16  1   
 21  10  29  1   
 22  10  30  1   
 23  11  17  1   
 24  12  18  ar  
 25  13  18  ar  
 26  13  31  1   
 27  14  19  1   
 28  14  32  1   
 29  15  20  1   
 30  15  33  1   
 31  16  34  1   
 32  17  35  1   
 33  17  36  1   
 34  17  37  1   
 35  18  21  1   
 36  19  20  2   
 37  19  22  1   
 38  21  23  1   
 39  22  38  1   
 40  22  39  1   
 41  22  40  1   
 42  23  41  1   
 43  23  42  1   
 44  23  43  1   
@<TRIPOS>SUBSTRUCTURE
  1 ****   2 GROUP 4 **** **** 0

# MOE 2024.06 (io_trps.svl 2023.06)
