@<TRIPOS>MOLECULE
NONAME
8 7 1 0 0 
SMALL
USER_CHARGES


@<TRIPOS>ATOM
  1 S       -0.0280    -0.0800     1.2140 S.3   1 <1>  -0.4100 
  2 C        0.6350    -1.3600     0.0760 C.3   1 <1>  -0.0360 
  3 C       -0.1700    -2.6490     0.0570 C.2   1 <1>   0.9060 
  4 O        0.1550    -3.5650     0.8220 O.co2 1 <1>  -0.9000 
  5 O       -1.0720    -2.7750    -0.7800 O.co2 1 <1>  -0.9000 
  6 H        0.8570     0.9420     1.0400 H     1 <1>   0.1800 
  7 H        1.6360    -1.5780     0.3920 H     1 <1>   0.0800 
  8 H        0.6400    -0.9370    -0.9090 H     1 <1>   0.0800 
@<TRIPOS>BOND
  1   1   2  1   
  2   1   6  1   
  3   2   3  1   
  4   2   7  1   
  5   2   8  1   
  6   3   4  ar  
  7   3   5  ar  
@<TRIPOS>SUBSTRUCTURE
  1 ****   3 GROUP 4 **** **** 0

# MOE 2024.06 (io_trps.svl 2023.06)
