@<TRIPOS>MOLECULE
NONAME
52 55 1 0 0 
SMALL
USER_CHARGES


@<TRIPOS>ATOM
  1 O       -1.2370     0.2750    -0.4990 O.2   1 <1>  -0.5700 
  2 C       -1.8220     1.0700     0.2140 C.2   1 <1>   0.5440 
  3 N       -2.1660     0.6880     1.4960 N.am  1 <1>  -0.6600 
  4 C       -2.1220     2.3910    -0.2970 C.ar  1 <1>   0.0860 
  5 C       -2.1450    -0.7480     1.8990 C.3   1 <1>   0.1400 
  6 C       -2.4450     1.6460     2.5990 C.3   1 <1>   0.1400 
  7 C       -1.1240     3.2060    -0.8110 C.ar  1 <1>  -0.1500 
  8 C       -3.4450     2.8810    -0.2890 C.ar  1 <1>  -0.1500 
  9 C       -3.5170    -1.4090     1.6950 C.3   1 <1>   0.1400 
 10 C       -3.9110     1.6160     3.0560 C.3   1 <1>  -0.1600 
 11 C       -1.4290     4.4780    -1.2800 C.ar  1 <1>   0.2270 
 12 C       -3.7640     4.1360    -0.7520 C.ar  1 <1>  -0.1500 
 13 N       -4.6840    -0.5700     2.1490 N.am  1 <1>  -0.6600 
 14 C       -4.4730     0.2280     3.3910 C.3   1 <1>   0.1400 
 15 N       -0.6070     5.4310    -1.8030 N.2   1 <1>  -0.5650 
 16 C       -2.7340     4.9360    -1.2470 C.ar  1 <1>  -0.1520 
 17 C       -5.8550    -0.4280     1.4340 C.2   1 <1>   0.5690 
 18 C       -1.3900     6.4140    -2.0740 C.2   1 <1>   0.0360 
 19 N       -2.6920     6.1870    -1.7650 N.pl3 1 <1>   0.0330 
 20 O       -6.6820     0.3960     1.7640 O.2   1 <1>  -0.5700 
 21 C       -6.1740    -1.3090     0.2240 C.3   1 <1>   0.2370 
 22 N       -5.5220    -0.7210    -0.9660 N.pl3 1 <1>   0.3140 
 23 C       -7.6890    -1.5270    -0.0120 C.3   1 <1>  -0.1600 
 24 N       -4.6050    -1.4100    -1.6780 N.2   1 <1>  -0.7070 
 25 C       -5.6860     0.5220    -1.4660 C.2   1 <1>  -0.3020 
 26 C       -7.9900    -2.5080    -1.1570 C.3   1 <1>  -0.2400 
 27 C       -4.1940    -0.5800    -2.5870 C.2   1 <1>   0.1390 
 28 C       -4.8400     0.6470    -2.5100 C.2   1 <1>  -0.1500 
 29 H       -1.8500    -0.8320     2.9290 H     1 <1>   0.0800 
 30 H       -1.4120    -1.2840     1.3210 H     1 <1>   0.0800 
 31 H       -2.1900     2.6450     2.2930 H     1 <1>   0.0800 
 32 H       -1.8090     1.4000     3.4330 H     1 <1>   0.0800 
 33 H       -0.1060     2.8670    -0.8550 H     1 <1>   0.1500 
 34 H       -4.2150     2.2330     0.0890 H     1 <1>   0.1500 
 35 H       -3.5330    -2.3470     2.2210 H     1 <1>   0.0800 
 36 H       -3.5980    -1.6290     0.6480 H     1 <1>   0.0800 
 37 H       -4.5370     2.0820     2.3180 H     1 <1>   0.0800 
 38 H       -3.9840     2.2230     3.9400 H     1 <1>   0.0800 
 39 H       -4.7780     4.4950    -0.7380 H     1 <1>   0.1500 
 40 H       -5.4190     0.3490     3.8930 H     1 <1>   0.0800 
 41 H       -3.8170    -0.2950     4.0650 H     1 <1>   0.0800 
 42 H       -1.0670     7.3450    -2.5080 H     1 <1>   0.1500 
 43 H       -3.4810     6.8230    -1.8960 H     1 <1>   0.2700 
 44 H       -5.7320    -2.2720     0.3910 H     1 <1>   0.0800 
 45 H       -8.1630    -0.5810    -0.2140 H     1 <1>   0.0800 
 46 H       -8.1210    -1.9130     0.8940 H     1 <1>   0.0800 
 47 H       -6.3770     1.2330    -1.0490 H     1 <1>   0.1500 
 48 H       -7.6200    -2.1260    -2.0930 H     1 <1>   0.0800 
 49 H       -9.0520    -2.6540    -1.2470 H     1 <1>   0.0800 
 50 H       -7.5280    -3.4620    -0.9690 H     1 <1>   0.0800 
 51 H       -3.4350    -0.8240    -3.3120 H     1 <1>   0.1500 
 52 H       -4.6720     1.4910    -3.1530 H     1 <1>   0.1500 
@<TRIPOS>BOND
  1   1   2  2   
  2   2   3  am  
  3   2   4  1   
  4   3   5  1   
  5   3   6  1   
  6   4   7  ar  
  7   4   8  ar  
  8   5   9  1   
  9   5  29  1   
 10   5  30  1   
 11   6  10  1   
 12   6  31  1   
 13   6  32  1   
 14   7  11  ar  
 15   7  33  1   
 16   8  12  ar  
 17   8  34  1   
 18   9  13  1   
 19   9  35  1   
 20   9  36  1   
 21  10  14  1   
 22  10  37  1   
 23  10  38  1   
 24  11  15  1   
 25  11  16  ar  
 26  12  16  ar  
 27  12  39  1   
 28  13  14  1   
 29  13  17  am  
 30  14  40  1   
 31  14  41  1   
 32  15  18  2   
 33  16  19  1   
 34  17  20  2   
 35  17  21  1   
 36  18  19  1   
 37  18  42  1   
 38  19  43  1   
 39  21  22  1   
 40  21  23  1   
 41  21  44  1   
 42  22  24  1   
 43  22  25  1   
 44  23  26  1   
 45  23  45  1   
 46  23  46  1   
 47  24  27  2   
 48  25  28  2   
 49  25  47  1   
 50  26  48  1   
 51  26  49  1   
 52  26  50  1   
 53  27  28  1   
 54  27  51  1   
 55  28  52  1   
@<TRIPOS>SUBSTRUCTURE
  1 ****   8 GROUP 4 **** **** 0

# MOE 2024.06 (io_trps.svl 2023.06)
