@<TRIPOS>MOLECULE
NONAME
36 37 1 0 0 
SMALL
USER_CHARGES


@<TRIPOS>ATOM
  1 O        0.6470    -0.4100     1.6200 O.2   1 <1>  -0.5700 
  2 C        1.4380    -0.8940     0.8400 C.2   1 <1>   0.5690 
  3 N        1.1590    -2.0180     0.1060 N.am  1 <1>  -0.6600 
  4 C        2.8100    -0.2150     0.7030 C.3   1 <1>   0.1710 
  5 C        2.0740    -2.4850    -0.9770 C.3   1 <1>   0.1400 
  6 C       -0.1560    -2.7690     0.2360 C.3   1 <1>   0.0340 
  7 N        3.5770    -0.5370    -0.5410 N.3   1 <1>  -0.8100 
  8 C        3.5180    -1.9890    -0.7880 C.3   1 <1>   0.1100 
  9 C       -0.1240    -4.2910     0.0420 C.2   1 <1>   0.9060 
 10 C        4.9680    -0.0660    -0.4520 C.3   1 <1>   0.2910 
 11 O       -0.1380    -5.0340     1.0310 O.co2 1 <1>  -0.9000 
 12 O       -0.0880    -4.7460    -1.1110 O.co2 1 <1>  -0.9000 
 13 C        5.0450     1.4510    -0.3730 C.2   1 <1>  -0.1810 
 14 C        6.0290     2.2050     0.2600 C.2   1 <1>   0.1080 
 15 C        4.2050     2.3720    -0.8940 C.2   1 <1>  -0.3020 
 16 N        5.8190     3.4790     0.1500 N.2   1 <1>  -0.7070 
 17 C        7.2250     1.6560     1.0050 C.3   1 <1>  -0.0590 
 18 N        4.6870     3.5820    -0.5640 N.pl3 1 <1>   0.3140 
 19 C        4.1060     4.8830    -0.9050 C.3   1 <1>   0.0160 
 20 H        3.3870    -0.5010     1.5630 H     1 <1>   0.0800 
 21 H        2.6530     0.8470     0.7540 H     1 <1>   0.0800 
 22 H        1.6940    -2.1420    -1.9230 H     1 <1>   0.0800 
 23 H        2.0960    -3.5600    -1.0030 H     1 <1>   0.0800 
 24 H       -0.8410    -2.3770    -0.4900 H     1 <1>   0.0800 
 25 H       -0.5700    -2.5870     1.2090 H     1 <1>   0.0800 
 26 H        4.0760    -2.2270    -1.6770 H     1 <1>   0.0800 
 27 H        3.9590    -2.5210     0.0380 H     1 <1>   0.0800 
 28 H        5.5060    -0.3830    -1.3280 H     1 <1>   0.0800 
 29 H        5.4410    -0.5010     0.4110 H     1 <1>   0.0800 
 30 H        3.3080     2.2170    -1.4650 H     1 <1>   0.1500 
 31 H        7.7050     0.8930     0.4230 H     1 <1>   0.0800 
 32 H        6.9070     1.2480     1.9460 H     1 <1>   0.0800 
 33 H        7.9300     2.4460     1.1890 H     1 <1>   0.0800 
 34 H        3.0660     4.7600    -1.1420 H     1 <1>   0.0800 
 35 H        4.6310     5.2870    -1.7490 H     1 <1>   0.0800 
 36 H        4.2120     5.5420    -0.0640 H     1 <1>   0.0800 
@<TRIPOS>BOND
  1   1   2  2   
  2   2   3  am  
  3   2   4  1   
  4   3   5  1   
  5   3   6  1   
  6   4   7  1   
  7   4  20  1   
  8   4  21  1   
  9   5   8  1   
 10   5  22  1   
 11   5  23  1   
 12   6   9  1   
 13   6  24  1   
 14   6  25  1   
 15   7   8  1   
 16   7  10  1   
 17   8  26  1   
 18   8  27  1   
 19   9  11  ar  
 20   9  12  ar  
 21  10  13  1   
 22  10  28  1   
 23  10  29  1   
 24  13  14  1   
 25  13  15  2   
 26  14  16  2   
 27  14  17  1   
 28  15  18  1   
 29  15  30  1   
 30  16  18  1   
 31  17  31  1   
 32  17  32  1   
 33  17  33  1   
 34  18  19  1   
 35  19  34  1   
 36  19  35  1   
 37  19  36  1   
@<TRIPOS>SUBSTRUCTURE
  1 ****   4 GROUP 4 **** **** 0

# MOE 2024.06 (io_trps.svl 2023.06)
