@<TRIPOS>MOLECULE
NONAME
57 60 1 0 0 
SMALL
USER_CHARGES


@<TRIPOS>ATOM
  1 O       -2.4820     0.2670     1.6050 O.co2 1 <1>  -0.9000 
  2 C       -2.7860     0.0800     0.4240 C.2   1 <1>   0.9060 
  3 O       -2.0590     0.3660    -0.5290 O.co2 1 <1>  -0.9000 
  4 C       -4.0330    -0.7610     0.1470 C.3   1 <1>   0.2370 
  5 N       -3.7660    -2.2560     0.0720 N.4   1 <1>  -0.9590 
  6 C       -3.1220    -2.7450     1.3490 C.3   1 <1>   0.4230 
  7 C       -3.0170    -2.5790    -1.1730 C.3   1 <1>   0.3430 
  8 C       -1.5720    -2.7570     1.3700 C.3   1 <1>   0.1200 
  9 C       -3.6940    -4.1560     1.6420 C.3   1 <1>   0.2090 
 10 C       -2.4000    -3.9870    -1.1990 C.3   1 <1>  -0.0800 
 11 O       -1.0520    -3.9320     0.8100 O.3   1 <1>  -0.5600 
 12 N       -4.2510    -4.8320     0.4040 N.pl3 1 <1>  -0.8380 
 13 C       -0.9960    -3.9640    -0.5730 C.3   1 <1>   0.1200 
 14 C       -3.2800    -5.1600    -0.6940 C.3   1 <1>   0.2090 
 15 C       -5.5830    -5.0270     0.2680 C.ar  1 <1>   0.4100 
 16 N       -6.3170    -3.9320     0.2640 N.ar  1 <1>  -0.6200 
 17 C       -6.1420    -6.3210     0.1410 C.ar  1 <1>  -0.1430 
 18 C       -7.6310    -4.0700     0.1330 C.ar  1 <1>   0.7710 
 19 C       -7.4890    -6.4230    -0.0170 C.ar  1 <1>   0.2180 
 20 C       -5.2540    -7.5680     0.2030 C.3   1 <1>  -0.0170 
 21 N       -8.2050    -5.2760    -0.0180 N.ar  1 <1>  -0.1790 
 22 N       -8.4250    -2.9620     0.1460 N.pl3 1 <1>  -0.8380 
 23 C       -8.2360    -7.7450    -0.1710 C.3   1 <1>  -0.0170 
 24 C       -6.0570    -8.8490     0.4650 C.3   1 <1>  -0.1600 
 25 C       -7.8460    -1.5790     0.1440 C.3   1 <1>   0.1290 
 26 C       -9.9210    -2.9350     0.2380 C.3   1 <1>   0.1290 
 27 C       -7.2860    -8.9190    -0.4460 C.3   1 <1>  -0.1600 
 28 H       -4.4550    -0.4150    -0.7780 H     1 <1>   0.0800 
 29 H       -4.7280    -0.5560     0.9410 H     1 <1>   0.0800 
 30 H       -4.6410    -2.8150     0.0330 H     1 <1>   0.4500 
 31 H       -3.4270    -2.0900     2.1480 H     1 <1>   0.0800 
 32 H       -3.6900    -2.4790    -2.0090 H     1 <1>   0.0800 
 33 H       -2.2290    -1.8540    -1.3110 H     1 <1>   0.0800 
 34 H       -1.2490    -2.7400     2.3960 H     1 <1>   0.0800 
 35 H       -1.1440    -1.8960     0.8850 H     1 <1>   0.0800 
 36 H       -4.4830    -4.0460     2.3650 H     1 <1>   0.0800 
 37 H       -2.9480    -4.7840     2.0970 H     1 <1>   0.0800 
 38 H       -2.2110    -4.1890    -2.2370 H     1 <1>   0.0800 
 39 H       -0.4230    -3.1160    -0.9140 H     1 <1>   0.0800 
 40 H       -0.4600    -4.8580    -0.8420 H     1 <1>   0.0800 
 41 H       -2.6410    -5.9620    -0.3620 H     1 <1>   0.0800 
 42 H       -3.8410    -5.5320    -1.5340 H     1 <1>   0.0800 
 43 H       -4.7310    -7.6700    -0.7310 H     1 <1>   0.0800 
 44 H       -4.5190    -7.4580     0.9820 H     1 <1>   0.0800 
 45 H       -9.2090    -5.2690    -0.1420 H     1 <1>   0.4570 
 46 H       -8.7770    -7.9430     0.7380 H     1 <1>   0.0800 
 47 H       -8.9470    -7.6830    -0.9770 H     1 <1>   0.0800 
 48 H       -5.4270    -9.7060     0.2940 H     1 <1>   0.0800 
 49 H       -6.3690    -8.8750     1.4960 H     1 <1>   0.0800 
 50 H       -8.4850    -0.9070    -0.4050 H     1 <1>   0.0800 
 51 H       -6.8760    -1.5620    -0.3220 H     1 <1>   0.0800 
 52 H       -7.7540    -1.2200     1.1560 H     1 <1>   0.0800 
 53 H      -10.2300    -2.1610     0.9240 H     1 <1>   0.0800 
 54 H      -10.3220    -3.8650     0.6020 H     1 <1>   0.0800 
 55 H      -10.3450    -2.7170    -0.7290 H     1 <1>   0.0800 
 56 H       -7.8060    -9.8500    -0.2880 H     1 <1>   0.0800 
 57 H       -6.9670    -8.8950    -1.4750 H     1 <1>   0.0800 
@<TRIPOS>BOND
  1   1   2  ar  
  2   2   3  ar  
  3   2   4  1   
  4   4   5  1   
  5   4  28  1   
  6   4  29  1   
  7   5   6  1   
  8   5   7  1   
  9   5  30  1   
 10   6   8  1   
 11   6   9  1   
 12   6  31  1   
 13   7  10  1   
 14   7  32  1   
 15   7  33  1   
 16   8  11  1   
 17   8  34  1   
 18   8  35  1   
 19   9  12  1   
 20   9  36  1   
 21   9  37  1   
 22  10  13  1   
 23  10  14  1   
 24  10  38  1   
 25  11  13  1   
 26  12  14  1   
 27  12  15  1   
 28  13  39  1   
 29  13  40  1   
 30  14  41  1   
 31  14  42  1   
 32  15  16  ar  
 33  15  17  ar  
 34  16  18  ar  
 35  17  19  ar  
 36  17  20  1   
 37  18  21  ar  
 38  18  22  1   
 39  19  21  ar  
 40  19  23  1   
 41  20  24  1   
 42  20  43  1   
 43  20  44  1   
 44  21  45  1   
 45  22  25  1   
 46  22  26  1   
 47  23  27  1   
 48  23  46  1   
 49  23  47  1   
 50  24  27  1   
 51  24  48  1   
 52  24  49  1   
 53  25  50  1   
 54  25  51  1   
 55  25  52  1   
 56  26  53  1   
 57  26  54  1   
 58  26  55  1   
 59  27  56  1   
 60  27  57  1   
@<TRIPOS>SUBSTRUCTURE
  1 ****  12 GROUP 4 **** **** 0

# MOE 2024.06 (io_trps.svl 2023.06)
