@<TRIPOS>MOLECULE
NONAME
60 63 1 0 0 
SMALL
USER_CHARGES


@<TRIPOS>ATOM
  1 N       -0.1690    -0.2940    -0.3290 N.ar  1 <1>  -0.1790 
  2 C        0.9270     0.3100     0.2640 C.ar  1 <1>   0.3610 
  3 C       -0.4100    -1.6050    -0.3320 C.ar  1 <1>   0.4610 
  4 C        1.8640    -0.5140     0.9160 C.ar  1 <1>   0.0000 
  5 C        1.0960     1.7080     0.2160 C.ar  1 <1>  -0.1440 
  6 N       -1.5110    -2.0700    -0.9380 N.pl3 1 <1>  -0.8690 
  7 C        0.5320    -2.4360     0.3210 C.ar  1 <1>  -0.1500 
  8 C        1.6370    -1.9260     0.9300 C.ar  1 <1>  -0.1430 
  9 C        2.9690     0.1050     1.5140 C.ar  1 <1>  -0.1500 
 10 C        2.2020     2.2810     0.8190 C.ar  1 <1>  -0.1430 
 11 C        0.0480     2.5660    -0.5060 C.3   1 <1>  -0.0970 
 12 C       -1.9400    -3.4850    -1.0450 C.3   1 <1>   0.3040 
 13 C        2.6270    -2.8570     1.6210 C.3   1 <1>  -0.0970 
 14 C        3.1300     1.4650     1.4650 C.ar  1 <1>  -0.1500 
 15 C        2.4770     3.7810     0.8230 C.3   1 <1>  -0.0970 
 16 C       -3.2360    -3.6050    -1.8720 C.3   1 <1>  -0.1900 
 17 C       -4.3030    -2.5490    -1.8300 C.3   1 <1>  -0.2000 
 18 C       -3.4540    -2.7190    -3.0630 C.3   1 <1>  -0.2000 
 19 C       -3.6470    -5.0790    -2.0270 C.3   1 <1>   0.2050 
 20 N       -3.8320    -5.7340    -0.7160 N.3   1 <1>  -0.8100 
 21 C       -5.0430    -5.2270    -0.0130 C.3   1 <1>   0.1100 
 22 C       -3.9270    -7.2050    -0.8880 C.3   1 <1>   0.1100 
 23 C       -5.4010    -6.0340     1.2600 C.3   1 <1>   0.3430 
 24 C       -4.0900    -7.9580     0.4570 C.3   1 <1>   0.3430 
 25 N       -4.3190    -7.0130     1.6000 N.4   1 <1>  -0.9590 
 26 C       -4.5410    -7.7100     2.9000 C.3   1 <1>   0.2630 
 27 H       -0.8340     0.3130    -0.7910 H     1 <1>   0.4570 
 28 H       -2.1910    -1.4780    -1.4260 H     1 <1>   0.4000 
 29 H        0.3510    -3.4940     0.3220 H     1 <1>   0.1500 
 30 H        3.7110    -0.4850     2.0230 H     1 <1>   0.1500 
 31 H       -0.0150     2.2880    -1.5440 H     1 <1>   0.0800 
 32 H        0.2800     3.6140    -0.4790 H     1 <1>   0.0800 
 33 H       -0.9160     2.4480    -0.0440 H     1 <1>   0.0800 
 34 H       -2.1050    -3.8800    -0.0570 H     1 <1>   0.0800 
 35 H       -1.1620    -4.0620    -1.5170 H     1 <1>   0.0800 
 36 H        2.7030    -2.6100     2.6660 H     1 <1>   0.0800 
 37 H        3.6000    -2.7670     1.1690 H     1 <1>   0.0800 
 38 H        2.3180    -3.8840     1.5430 H     1 <1>   0.0800 
 39 H        3.9930     1.9080     1.9360 H     1 <1>   0.1500 
 40 H        1.6760     4.3060     1.3130 H     1 <1>   0.0800 
 41 H        2.5760     4.1450    -0.1840 H     1 <1>   0.0800 
 42 H        3.3890     4.0120     1.3460 H     1 <1>   0.0800 
 43 H       -4.1750    -1.6710    -1.2220 H     1 <1>   0.1000 
 44 H       -5.3390    -2.8330    -1.9020 H     1 <1>   0.1000 
 45 H       -3.9220    -3.1260    -3.9450 H     1 <1>   0.1000 
 46 H       -2.7360    -1.9590    -3.3170 H     1 <1>   0.1000 
 47 H       -2.8680    -5.5870    -2.5720 H     1 <1>   0.0800 
 48 H       -4.5520    -5.1550    -2.6090 H     1 <1>   0.0800 
 49 H       -5.8910    -5.2410    -0.6780 H     1 <1>   0.0800 
 50 H       -4.8810    -4.2020     0.2750 H     1 <1>   0.0800 
 51 H       -3.0410    -7.5710    -1.3790 H     1 <1>   0.0800 
 52 H       -4.7650    -7.4430    -1.5230 H     1 <1>   0.0800 
 53 H       -6.3270    -6.5590     1.0950 H     1 <1>   0.0800 
 54 H       -5.5550    -5.3500     2.0780 H     1 <1>   0.0800 
 55 H       -3.2000    -8.5380     0.6400 H     1 <1>   0.0800 
 56 H       -4.9140    -8.6470     0.3740 H     1 <1>   0.0800 
 57 H       -3.4590    -6.4430     1.6360 H     1 <1>   0.4500 
 58 H       -5.4410    -8.3020     2.8590 H     1 <1>   0.0800 
 59 H       -4.6380    -6.9910     3.6980 H     1 <1>   0.0800 
 60 H       -3.7100    -8.3590     3.1240 H     1 <1>   0.0800 
@<TRIPOS>BOND
  1   1   2  ar  
  2   1   3  ar  
  3   1  27  1   
  4   2   4  ar  
  5   2   5  ar  
  6   3   6  1   
  7   3   7  ar  
  8   4   8  ar  
  9   4   9  ar  
 10   5  10  ar  
 11   5  11  1   
 12   6  12  1   
 13   6  28  1   
 14   7   8  ar  
 15   7  29  1   
 16   8  13  1   
 17   9  14  ar  
 18   9  30  1   
 19  10  14  ar  
 20  10  15  1   
 21  11  31  1   
 22  11  32  1   
 23  11  33  1   
 24  12  16  1   
 25  12  34  1   
 26  12  35  1   
 27  13  36  1   
 28  13  37  1   
 29  13  38  1   
 30  14  39  1   
 31  15  40  1   
 32  15  41  1   
 33  15  42  1   
 34  16  17  1   
 35  16  18  1   
 36  16  19  1   
 37  17  18  1   
 38  17  43  1   
 39  17  44  1   
 40  18  45  1   
 41  18  46  1   
 42  19  20  1   
 43  19  47  1   
 44  19  48  1   
 45  20  21  1   
 46  20  22  1   
 47  21  23  1   
 48  21  49  1   
 49  21  50  1   
 50  22  24  1   
 51  22  51  1   
 52  22  52  1   
 53  23  25  1   
 54  23  53  1   
 55  23  54  1   
 56  24  25  1   
 57  24  55  1   
 58  24  56  1   
 59  25  26  1   
 60  25  57  1   
 61  26  58  1   
 62  26  59  1   
 63  26  60  1   
@<TRIPOS>SUBSTRUCTURE
  1 ****   6 GROUP 4 **** **** 0

# MOE 2024.06 (io_trps.svl 2023.06)
