@<TRIPOS>MOLECULE
NONAME
41 43 1 0 0 
SMALL
USER_CHARGES


@<TRIPOS>ATOM
  1 O        1.0090     2.0270    -1.3090 O.2   1 <1>  -0.5700 
  2 C        0.6030     3.1430    -1.1120 C.2   1 <1>   0.5690 
  3 N       -0.1450     3.4240    -0.0240 N.am  1 <1>  -0.7300 
  4 C        0.8940     4.2590    -2.1140 C.3   1 <1>   0.1810 
  5 C       -0.7710     4.7450     0.2370 C.3   1 <1>   0.3640 
  6 O        0.7720     5.5400    -1.5360 O.3   1 <1>  -0.5600 
  7 C       -2.2730     4.5200     0.3930 C.ar  1 <1>  -0.1440 
  8 C       -0.4660     5.7900    -0.8760 C.3   1 <1>   0.2610 
  9 C       -2.9630     5.1180     1.4400 C.ar  1 <1>   0.1600 
 10 C       -2.9830     3.7250    -0.4910 C.ar  1 <1>  -0.1500 
 11 C       -0.4590     7.2050    -0.2830 C.2   1 <1>   0.5690 
 12 N       -4.2580     4.9780     1.6770 N.ar  1 <1>  -0.6200 
 13 C       -4.3340     3.5760    -0.2620 C.ar  1 <1>  -0.1500 
 14 O       -1.3230     7.5400     0.4900 O.2   1 <1>  -0.5700 
 15 N        0.5350     8.0620    -0.6270 N.am  1 <1>  -0.7300 
 16 C       -4.9130     4.2130     0.8210 C.ar  1 <1>   0.1600 
 17 C        0.7420     9.4190    -0.0580 C.3   1 <1>   0.3200 
 18 C        2.0900     9.5220     0.6370 C.2   1 <1>   0.2980 
 19 O        2.2520     8.9110     1.7840 O.3   1 <1>  -0.0190 
 20 N        3.1080    10.1550     0.2040 N.2   1 <1>  -0.5650 
 21 N        3.4810     9.1750     2.1090 N.2   1 <1>  -0.4100 
 22 C        3.9680     9.8970     1.1800 C.2   1 <1>   0.3350 
 23 C        5.3880    10.4330     1.1480 C.3   1 <1>   0.0210 
 24 C        6.2460     9.7170     0.0970 C.3   1 <1>  -0.2400 
 25 H       -0.3650     2.6650     0.6230 H     1 <1>   0.3700 
 26 H        0.2140     4.1900    -2.9420 H     1 <1>   0.0800 
 27 H        1.9000     4.1570    -2.4780 H     1 <1>   0.0800 
 28 H       -0.3730     5.1140     1.1680 H     1 <1>   0.0800 
 29 H       -1.2400     5.7510    -1.6220 H     1 <1>   0.0800 
 30 H       -2.4240     5.7510     2.1260 H     1 <1>   0.1500 
 31 H       -2.5110     3.2320    -1.3230 H     1 <1>   0.1500 
 32 H       -4.9360     2.9690    -0.9140 H     1 <1>   0.1500 
 33 H        1.2910     7.6990    -1.2190 H     1 <1>   0.3700 
 34 H       -5.9680     4.0870     0.9920 H     1 <1>   0.1500 
 35 H        0.7030    10.1410    -0.8540 H     1 <1>   0.0800 
 36 H       -0.0370     9.6530     0.6470 H     1 <1>   0.0800 
 37 H        5.3540    11.4860     0.9330 H     1 <1>   0.0800 
 38 H        5.8300    10.3050     2.1190 H     1 <1>   0.0800 
 39 H        5.8270     9.8590    -0.8830 H     1 <1>   0.0800 
 40 H        6.2830     8.6620     0.3070 H     1 <1>   0.0800 
 41 H        7.2480    10.1090     0.1060 H     1 <1>   0.0800 
@<TRIPOS>BOND
  1   1   2  2   
  2   2   3  am  
  3   2   4  1   
  4   3   5  1   
  5   3  25  1   
  6   4   6  1   
  7   4  26  1   
  8   4  27  1   
  9   5   7  1   
 10   5   8  1   
 11   5  28  1   
 12   6   8  1   
 13   7   9  ar  
 14   7  10  ar  
 15   8  11  1   
 16   8  29  1   
 17   9  12  ar  
 18   9  30  1   
 19  10  13  ar  
 20  10  31  1   
 21  11  14  2   
 22  11  15  am  
 23  12  16  ar  
 24  13  16  ar  
 25  13  32  1   
 26  15  17  1   
 27  15  33  1   
 28  16  34  1   
 29  17  18  1   
 30  17  35  1   
 31  17  36  1   
 32  18  19  1   
 33  18  20  2   
 34  19  21  1   
 35  20  22  1   
 36  21  22  2   
 37  22  23  1   
 38  23  24  1   
 39  23  37  1   
 40  23  38  1   
 41  24  39  1   
 42  24  40  1   
 43  24  41  1   
@<TRIPOS>SUBSTRUCTURE
  1 ****  11 GROUP 4 **** **** 0

# MOE 2024.06 (io_trps.svl 2023.06)
