@<TRIPOS>MOLECULE
NONAME
51 54 1 0 0 
SMALL
USER_CHARGES


@<TRIPOS>ATOM
  1 F        0.9480     0.8540    -1.5760 F     1 <1>  -0.1900 
  2 C        1.9800     1.3110    -0.8950 C.ar  1 <1>   0.1900 
  3 C        2.9030     0.4620    -0.2860 C.ar  1 <1>   0.4100 
  4 C        2.1370     2.6620    -0.7790 C.ar  1 <1>   0.1600 
  5 N        3.9020     0.9860     0.3980 N.ar  1 <1>  -0.6200 
  6 N        2.8440    -0.9310    -0.3380 N.pl3 1 <1>  -0.8380 
  7 N        3.1390     3.1850    -0.1030 N.ar  1 <1>  -0.6200 
  8 C        3.9790     2.3130     0.4550 C.ar  1 <1>   0.7200 
  9 C        2.3320    -1.6730    -1.5130 C.3   1 <1>   0.2090 
 10 C        3.7640    -1.7830     0.4530 C.3   1 <1>   0.2090 
 11 N        5.0420     2.8420     1.1620 N.pl3 1 <1>  -0.8380 
 12 C        3.1210    -2.9770    -1.5350 C.3   1 <1>  -0.1600 
 13 C        3.5510    -3.1900    -0.0870 C.3   1 <1>  -0.1600 
 14 C        6.3190     2.1010     1.3370 C.3   1 <1>   0.2090 
 15 C        5.0090     4.2070     1.7520 C.3   1 <1>   0.2090 
 16 C        7.4660     2.9280     0.7540 C.3   1 <1>  -0.1600 
 17 C        6.1430     5.0380     1.1530 C.3   1 <1>  -0.1600 
 18 C        7.5060     4.3470     1.3460 C.3   1 <1>   0.1000 
 19 C        8.6580     5.1500     0.7470 C.2   1 <1>   0.2980 
 20 O        9.8800     4.7660     1.0260 O.3   1 <1>  -0.0190 
 21 N        8.5700     6.1760    -0.0040 N.2   1 <1>  -0.5650 
 22 N       10.6310     5.6180     0.3980 N.2   1 <1>  -0.4100 
 23 C        9.8560     6.4350    -0.2000 C.2   1 <1>   0.3350 
 24 C       10.2890     7.6190    -1.0670 C.3   1 <1>   0.1010 
 25 C       11.6820     7.4210    -1.6860 C.3   1 <1>  -0.2400 
 26 C       10.2560     8.9220    -0.2550 C.3   1 <1>  -0.2400 
 27 H        1.4310     3.3270    -1.2430 H     1 <1>   0.1500 
 28 H        2.4770    -1.1150    -2.4230 H     1 <1>   0.0800 
 29 H        1.2830    -1.8720    -1.3710 H     1 <1>   0.0800 
 30 H        3.5350    -1.7180     1.5030 H     1 <1>   0.0800 
 31 H        4.7800    -1.4690     0.2840 H     1 <1>   0.0800 
 32 H        3.9880    -2.8470    -2.1580 H     1 <1>   0.0800 
 33 H        2.5320    -3.7930    -1.9140 H     1 <1>   0.0800 
 34 H        2.7560    -3.6580     0.4670 H     1 <1>   0.0800 
 35 H        4.4400    -3.7890    -0.0040 H     1 <1>   0.0800 
 36 H        6.2900     1.1460     0.8400 H     1 <1>   0.0800 
 37 H        6.4810     1.9250     2.3870 H     1 <1>   0.0800 
 38 H        5.1340     4.1280     2.8180 H     1 <1>   0.0800 
 39 H        4.0660     4.6930     1.5700 H     1 <1>   0.0800 
 40 H        7.3400     2.9860    -0.3130 H     1 <1>   0.0800 
 41 H        8.3950     2.4240     0.9470 H     1 <1>   0.0800 
 42 H        6.1570     6.0070     1.6180 H     1 <1>   0.0800 
 43 H        5.9470     5.1790     0.1040 H     1 <1>   0.0800 
 44 H        7.6900     4.2680     2.4020 H     1 <1>   0.0800 
 45 H        9.5780     7.7040    -1.8710 H     1 <1>   0.0800 
 46 H       12.4290     7.3530    -0.9150 H     1 <1>   0.0800 
 47 H       11.9260     8.2430    -2.3350 H     1 <1>   0.0800 
 48 H       11.7010     6.5120    -2.2600 H     1 <1>   0.0800 
 49 H       10.9470     8.8650     0.5670 H     1 <1>   0.0800 
 50 H        9.2670     9.0820     0.1390 H     1 <1>   0.0800 
 51 H       10.5180     9.7600    -0.8750 H     1 <1>   0.0800 
@<TRIPOS>BOND
  1   1   2  1   
  2   2   3  ar  
  3   2   4  ar  
  4   3   5  ar  
  5   3   6  1   
  6   4   7  ar  
  7   4  27  1   
  8   5   8  ar  
  9   6   9  1   
 10   6  10  1   
 11   7   8  ar  
 12   8  11  1   
 13   9  12  1   
 14   9  28  1   
 15   9  29  1   
 16  10  13  1   
 17  10  30  1   
 18  10  31  1   
 19  11  14  1   
 20  11  15  1   
 21  12  13  1   
 22  12  32  1   
 23  12  33  1   
 24  13  34  1   
 25  13  35  1   
 26  14  16  1   
 27  14  36  1   
 28  14  37  1   
 29  15  17  1   
 30  15  38  1   
 31  15  39  1   
 32  16  18  1   
 33  16  40  1   
 34  16  41  1   
 35  17  18  1   
 36  17  42  1   
 37  17  43  1   
 38  18  19  1   
 39  18  44  1   
 40  19  20  1   
 41  19  21  2   
 42  20  22  1   
 43  21  23  1   
 44  22  23  2   
 45  23  24  1   
 46  24  25  1   
 47  24  26  1   
 48  24  45  1   
 49  25  46  1   
 50  25  47  1   
 51  25  48  1   
 52  26  49  1   
 53  26  50  1   
 54  26  51  1   
@<TRIPOS>SUBSTRUCTURE
  1 ****  11 GROUP 4 **** **** 0

# MOE 2024.06 (io_trps.svl 2023.06)
