@<TRIPOS>MOLECULE
NONAME
33 34 1 0 0 
SMALL
USER_CHARGES


@<TRIPOS>ATOM
  1 F        0.4220     0.1220     1.0160 F     1 <1>  -0.1900 
  2 C        1.4480     0.8950     0.7230 C.ar  1 <1>   0.1900 
  3 C        2.6550     0.3750     0.2660 C.ar  1 <1>   0.4100 
  4 C        1.3290     2.2470     0.8730 C.ar  1 <1>   0.1600 
  5 N        3.6580     1.1750    -0.0100 N.ar  1 <1>  -0.6200 
  6 N        2.9410    -0.9550     0.0610 N.pl3 1 <1>  -0.8690 
  7 N        2.3290     3.0600     0.5950 N.ar  1 <1>  -0.6200 
  8 C        3.4520     2.4790     0.1680 C.ar  1 <1>   0.7200 
  9 C        1.9510    -1.9310    -0.4560 C.3   1 <1>   0.1290 
 10 N        4.5070     3.3160    -0.1260 N.pl3 1 <1>  -0.8380 
 11 C        4.5250     4.7240     0.3620 C.3   1 <1>   0.3900 
 12 C        5.5880     2.9170    -1.0770 C.3   1 <1>   0.1290 
 13 C        5.9440     5.1920     0.6460 C.2   1 <1>  -0.1810 
 14 C        6.6770     6.1900     0.1000 C.2   1 <1>  -0.3320 
 15 C        6.7800     4.6180     1.5970 C.2   1 <1>   0.1390 
 16 N        7.8730     6.1730     0.7280 N.pl3 1 <1>   0.3000 
 17 C        6.3280     7.1840    -0.9950 C.3   1 <1>  -0.0600 
 18 N        7.9390     5.2000     1.6540 N.2   1 <1>  -0.7070 
 19 H        0.4050     2.6690     1.2250 H     1 <1>   0.1500 
 20 H        3.8920    -1.0770    -0.2990 H     1 <1>   0.4000 
 21 H        1.2760    -1.4480    -1.1420 H     1 <1>   0.0800 
 22 H        1.3860    -2.3430     0.3630 H     1 <1>   0.0800 
 23 H        2.4580    -2.7300    -0.9680 H     1 <1>   0.0800 
 24 H        3.9560     4.8100     1.2710 H     1 <1>   0.0800 
 25 H        4.0670     5.3540    -0.3790 H     1 <1>   0.0800 
 26 H        5.2630     2.1110    -1.7110 H     1 <1>   0.0800 
 27 H        6.4540     2.5980    -0.5230 H     1 <1>   0.0800 
 28 H        5.8580     3.7510    -1.7020 H     1 <1>   0.0800 
 29 H        6.5020     3.7800     2.2160 H     1 <1>   0.1500 
 30 H        8.6610     6.8070     0.5490 H     1 <1>   0.2700 
 31 H        5.3390     7.0020    -1.3740 H     1 <1>   0.0800 
 32 H        7.0240     7.0960    -1.8110 H     1 <1>   0.0800 
 33 H        6.3660     8.1880    -0.6110 H     1 <1>   0.0800 
@<TRIPOS>BOND
  1   1   2  1   
  2   2   3  ar  
  3   2   4  ar  
  4   3   5  ar  
  5   3   6  1   
  6   4   7  ar  
  7   4  19  1   
  8   5   8  ar  
  9   6   9  1   
 10   6  20  1   
 11   7   8  ar  
 12   8  10  1   
 13   9  21  1   
 14   9  22  1   
 15   9  23  1   
 16  10  11  1   
 17  10  12  1   
 18  11  13  1   
 19  11  24  1   
 20  11  25  1   
 21  12  26  1   
 22  12  27  1   
 23  12  28  1   
 24  13  14  2   
 25  13  15  1   
 26  14  16  1   
 27  14  17  1   
 28  15  18  2   
 29  15  29  1   
 30  16  18  1   
 31  16  30  1   
 32  17  31  1   
 33  17  32  1   
 34  17  33  1   
@<TRIPOS>SUBSTRUCTURE
  1 ****  10 GROUP 4 **** **** 0

# MOE 2024.06 (io_trps.svl 2023.06)
