@<TRIPOS>MOLECULE
NONAME
57 61 1 0 0 
SMALL
USER_CHARGES


@<TRIPOS>ATOM
  1 O        1.4900    -1.5890     2.2800 O.2   1 <1>  -0.5700 
  2 C        1.5040    -1.5150     1.0670 C.2   1 <1>   0.5440 
  3 N        2.2290    -0.5070     0.4670 N.am  1 <1>  -0.6600 
  4 C        0.7640    -2.4920     0.2940 C.ar  1 <1>   0.0860 
  5 C        2.7760     0.6460     1.2450 C.3   1 <1>   0.1400 
  6 C        2.7730    -0.5850    -0.9230 C.3   1 <1>   0.1400 
  7 C        0.8340    -3.8460     0.5620 C.ar  1 <1>  -0.1500 
  8 C       -0.0760    -2.1440    -0.7560 C.ar  1 <1>  -0.1500 
  9 C        4.3070     0.7040     1.1270 C.3   1 <1>   0.1200 
 10 C        4.3050    -0.4450    -0.9170 C.3   1 <1>   0.1200 
 11 C        0.1150    -4.7620    -0.1910 C.ar  1 <1>   0.4100 
 12 C       -0.7520    -3.1240    -1.4540 C.ar  1 <1>   0.1600 
 13 O        4.6960     0.7030    -0.2180 O.3   1 <1>  -0.5600 
 14 N       -0.6720    -4.4170    -1.2000 N.ar  1 <1>  -0.6200 
 15 N        0.2050    -6.0990     0.1140 N.pl3 1 <1>  -0.8690 
 16 C       -0.7570    -7.1030    -0.4040 C.3   1 <1>   0.2890 
 17 C       -2.0500    -7.0340     0.3960 C.3   1 <1>  -0.0800 
 18 C       -0.2580    -8.5070    -0.0750 C.3   1 <1>   0.1200 
 19 C       -1.7350    -7.9300     1.5990 C.3   1 <1>   0.1200 
 20 C       -3.2490    -7.5610    -0.4210 C.3   1 <1>  -0.0170 
 21 O       -0.7100    -8.7990     1.2160 O.3   1 <1>  -0.5600 
 22 C       -4.6160    -7.5170     0.2760 C.ar  1 <1>  -0.1440 
 23 C       -5.7200    -8.2040    -0.2860 C.ar  1 <1>   0.0000 
 24 C       -4.8430    -6.8270     1.4340 C.ar  1 <1>  -0.1500 
 25 C       -6.9570    -8.1560     0.4040 C.ar  1 <1>   0.3100 
 26 C       -5.6740    -8.9330    -1.4990 C.ar  1 <1>  -0.1500 
 27 C       -6.1100    -6.8350     2.0310 C.ar  1 <1>   0.1600 
 28 N       -7.1340    -7.4690     1.5590 N.ar  1 <1>  -0.6200 
 29 C       -8.0610    -8.8440    -0.1230 C.ar  1 <1>  -0.1500 
 30 C       -6.7710    -9.5900    -1.9880 C.ar  1 <1>  -0.1500 
 31 C       -7.9810    -9.5500    -1.2920 C.ar  1 <1>  -0.1500 
 32 H        2.3580     1.5600     0.8610 H     1 <1>   0.0800 
 33 H        2.5020     0.5730     2.2830 H     1 <1>   0.0800 
 34 H        2.5150    -1.5220    -1.3830 H     1 <1>   0.0800 
 35 H        2.3490     0.2080    -1.5150 H     1 <1>   0.0800 
 36 H        1.4530    -4.1930     1.3680 H     1 <1>   0.1500 
 37 H       -0.2000    -1.1090    -1.0170 H     1 <1>   0.1500 
 38 H        4.7550    -0.1420     1.6200 H     1 <1>   0.0800 
 39 H        4.6800     1.6060     1.5770 H     1 <1>   0.0800 
 40 H        4.6750    -0.3580    -1.9230 H     1 <1>   0.0800 
 41 H        4.7620    -1.3020    -0.4530 H     1 <1>   0.0800 
 42 H       -1.3970    -2.8300    -2.2650 H     1 <1>   0.1500 
 43 H        0.5580    -6.3390     1.0430 H     1 <1>   0.4000 
 44 H       -0.8990    -6.9680    -1.4630 H     1 <1>   0.0800 
 45 H       -2.2500    -6.0200     0.6930 H     1 <1>   0.0800 
 46 H        0.8150    -8.5790    -0.1080 H     1 <1>   0.0800 
 47 H       -0.6920    -9.2290    -0.7420 H     1 <1>   0.0800 
 48 H       -2.5810    -8.5120     1.9200 H     1 <1>   0.0800 
 49 H       -1.3690    -7.3420     2.4230 H     1 <1>   0.0800 
 50 H       -3.0400    -8.5810    -0.6930 H     1 <1>   0.0800 
 51 H       -3.3230    -6.9870    -1.3280 H     1 <1>   0.0800 
 52 H       -4.0820    -6.2580     1.9320 H     1 <1>   0.1500 
 53 H       -4.7600    -8.9750    -2.0590 H     1 <1>   0.1500 
 54 H       -6.2380    -6.2790     2.9440 H     1 <1>   0.1500 
 55 H       -8.9820    -8.7950     0.4280 H     1 <1>   0.1500 
 56 H       -6.7170   -10.1420    -2.9110 H     1 <1>   0.1500 
 57 H       -8.8360   -10.0720    -1.6850 H     1 <1>   0.1500 
@<TRIPOS>BOND
  1   1   2  2   
  2   2   3  am  
  3   2   4  1   
  4   3   5  1   
  5   3   6  1   
  6   4   7  ar  
  7   4   8  ar  
  8   5   9  1   
  9   5  32  1   
 10   5  33  1   
 11   6  10  1   
 12   6  34  1   
 13   6  35  1   
 14   7  11  ar  
 15   7  36  1   
 16   8  12  ar  
 17   8  37  1   
 18   9  13  1   
 19   9  38  1   
 20   9  39  1   
 21  10  13  1   
 22  10  40  1   
 23  10  41  1   
 24  11  14  ar  
 25  11  15  1   
 26  12  14  ar  
 27  12  42  1   
 28  15  16  1   
 29  15  43  1   
 30  16  17  1   
 31  16  18  1   
 32  16  44  1   
 33  17  19  1   
 34  17  20  1   
 35  17  45  1   
 36  18  21  1   
 37  18  46  1   
 38  18  47  1   
 39  19  21  1   
 40  19  48  1   
 41  19  49  1   
 42  20  22  1   
 43  20  50  1   
 44  20  51  1   
 45  22  23  ar  
 46  22  24  ar  
 47  23  25  ar  
 48  23  26  ar  
 49  24  27  ar  
 50  24  52  1   
 51  25  28  ar  
 52  25  29  ar  
 53  26  30  ar  
 54  26  53  1   
 55  27  28  ar  
 56  27  54  1   
 57  29  31  ar  
 58  29  55  1   
 59  30  31  ar  
 60  30  56  1   
 61  31  57  1   
@<TRIPOS>SUBSTRUCTURE
  1 ****  11 GROUP 4 **** **** 0

# MOE 2024.06 (io_trps.svl 2023.06)
