@<TRIPOS>MOLECULE
NONAME
45 47 1 0 0 
SMALL
USER_CHARGES


@<TRIPOS>ATOM
  1 O        3.4350    -1.9480     2.0970 O.2   1 <1>  -0.5700 
  2 C        2.8890    -1.6680     1.0480 C.2   1 <1>   0.5440 
  3 N        3.1910    -0.4530     0.4750 N.am  1 <1>  -0.6600 
  4 C        2.0180    -2.6250     0.3890 C.ar  1 <1>   0.0860 
  5 C        3.7540     0.6500     1.3440 C.3   1 <1>   0.2200 
  6 C        3.2970    -0.3360    -1.0110 C.3   1 <1>   0.1400 
  7 C        0.6760    -2.3540     0.0910 C.ar  1 <1>  -0.1440 
  8 C        2.5340    -3.8660     0.0180 C.ar  1 <1>  -0.1500 
  9 C        3.3070     2.0470     0.8860 C.3   1 <1>   0.1200 
 10 C        5.2940     0.5570     1.4560 C.3   1 <1>   0.3430 
 11 C        4.4110     0.6070    -1.5030 C.3   1 <1>  -0.0800 
 12 C       -0.0890    -3.2890    -0.5880 C.ar  1 <1>  -0.1500 
 13 C        0.0170    -1.0470     0.5170 C.3   1 <1>  -0.0970 
 14 C        1.7660    -4.7970    -0.6550 C.ar  1 <1>  -0.1500 
 15 O        4.1630     2.5620    -0.0870 O.3   1 <1>  -0.5600 
 16 N        5.8790    -0.3200     0.3890 N.4   1 <1>  -0.9590 
 17 C        4.0070     2.0850    -1.3800 C.3   1 <1>   0.1200 
 18 C        5.8310     0.3380    -0.9560 C.3   1 <1>   0.3430 
 19 C        0.4520    -4.5050    -0.9650 C.ar  1 <1>  -0.1500 
 20 C        7.3270    -0.6190     0.7490 C.3   1 <1>   0.2370 
 21 C        8.2440     0.6080     0.7650 C.2   1 <1>   0.9060 
 22 O        8.7480     0.9620    -0.3050 O.co2 1 <1>  -0.9000 
 23 O        8.3310     1.2520     1.8140 O.co2 1 <1>  -0.9000 
 24 H        3.3530     0.5230     2.3350 H     1 <1>   0.0800 
 25 H        3.4780    -1.3140    -1.4250 H     1 <1>   0.0800 
 26 H        2.3490    -0.0010    -1.3990 H     1 <1>   0.0800 
 27 H        3.5530    -4.1040     0.2670 H     1 <1>   0.1500 
 28 H        3.3640     2.7210     1.7230 H     1 <1>   0.0800 
 29 H        2.2940     2.0440     0.5230 H     1 <1>   0.0800 
 30 H        5.5340     0.1430     2.4210 H     1 <1>   0.0800 
 31 H        5.7340     1.5410     1.4140 H     1 <1>   0.0800 
 32 H        4.4780     0.4430    -2.5630 H     1 <1>   0.0800 
 33 H       -1.1190    -3.0820    -0.8260 H     1 <1>   0.1500 
 34 H       -1.0540    -1.1250     0.4710 H     1 <1>   0.0800 
 35 H        0.3270    -0.2440    -0.1260 H     1 <1>   0.0800 
 36 H        0.2860    -0.8060     1.5310 H     1 <1>   0.0800 
 37 H        2.1840    -5.7490    -0.9340 H     1 <1>   0.1500 
 38 H        5.3070    -1.1740     0.3950 H     1 <1>   0.4500 
 39 H        2.9880     2.2490    -1.6900 H     1 <1>   0.0800 
 40 H        4.6460     2.6860    -2.0050 H     1 <1>   0.0800 
 41 H        6.3750     1.2700    -0.9150 H     1 <1>   0.0800 
 42 H        6.3520    -0.2930    -1.6570 H     1 <1>   0.0800 
 43 H       -0.1530    -5.2250    -1.4900 H     1 <1>   0.1500 
 44 H        7.3750    -1.0640     1.7260 H     1 <1>   0.0800 
 45 H        7.7420    -1.3110     0.0400 H     1 <1>   0.0800 
@<TRIPOS>BOND
  1   1   2  2   
  2   2   3  am  
  3   2   4  1   
  4   3   5  1   
  5   3   6  1   
  6   4   7  ar  
  7   4   8  ar  
  8   5   9  1   
  9   5  10  1   
 10   5  24  1   
 11   6  11  1   
 12   6  25  1   
 13   6  26  1   
 14   7  12  ar  
 15   7  13  1   
 16   8  14  ar  
 17   8  27  1   
 18   9  15  1   
 19   9  28  1   
 20   9  29  1   
 21  10  16  1   
 22  10  30  1   
 23  10  31  1   
 24  11  17  1   
 25  11  18  1   
 26  11  32  1   
 27  12  19  ar  
 28  12  33  1   
 29  13  34  1   
 30  13  35  1   
 31  13  36  1   
 32  14  19  ar  
 33  14  37  1   
 34  15  17  1   
 35  16  18  1   
 36  16  20  1   
 37  16  38  1   
 38  17  39  1   
 39  17  40  1   
 40  18  41  1   
 41  18  42  1   
 42  19  43  1   
 43  20  21  1   
 44  20  44  1   
 45  20  45  1   
 46  21  22  ar  
 47  21  23  ar  
@<TRIPOS>SUBSTRUCTURE
  1 ****   3 GROUP 4 **** **** 0

# MOE 2024.06 (io_trps.svl 2023.06)
