@<TRIPOS>MOLECULE
NONAME
42 43 1 0 0 
SMALL
USER_CHARGES


@<TRIPOS>ATOM
  1 S        0.0450     0.9180     1.3070 S.o2  1 <1>   1.4470 
  2 O       -0.7320     2.0680     1.7180 O.2   1 <1>  -0.6500 
  3 O        0.9180     0.2890     2.2760 O.2   1 <1>  -0.6500 
  4 N       -1.0500    -0.2590     0.7730 N.am  1 <1>  -0.8490 
  5 C        0.9790     1.3510    -0.1910 C.ar  1 <1>  -0.0090 
  6 C       -0.3710    -1.4880     0.2820 C.3   1 <1>   0.1960 
  7 C       -2.0940    -0.5340     1.7520 C.3   1 <1>   0.1960 
  8 C        0.5590     2.3850    -1.0190 C.ar  1 <1>  -0.1500 
  9 C        2.1190     0.6400    -0.5640 C.ar  1 <1>  -0.1500 
 10 C       -1.2590    -2.7580     0.1810 C.3   1 <1>  -0.1060 
 11 C       -3.2110    -1.3750     1.1200 C.3   1 <1>  -0.1600 
 12 C        1.2740     2.6820    -2.1620 C.ar  1 <1>   0.1900 
 13 C        2.8270     0.9440    -1.7180 C.ar  1 <1>  -0.1500 
 14 C       -0.8220    -3.5470    -1.0610 C.2   1 <1>   0.9060 
 15 C       -2.7090    -2.2650    -0.0240 C.3   1 <1>   0.2000 
 16 C       -1.1420    -3.6790     1.4440 C.3   1 <1>  -0.1600 
 17 F        0.8670     3.6610    -2.9230 F     1 <1>  -0.1900 
 18 C        2.4040     1.9800    -2.5310 C.ar  1 <1>  -0.1500 
 19 O        0.3340    -3.4270    -1.4870 O.co2 1 <1>  -0.9000 
 20 O       -1.6320    -4.3100    -1.6100 O.co2 1 <1>  -0.9000 
 21 O       -3.5750    -3.3320    -0.1550 O.3   1 <1>  -0.6800 
 22 C        0.2560    -4.2690     1.7100 C.3   1 <1>  -0.1600 
 23 C        0.2280    -5.2120     2.9160 C.3   1 <1>  -0.2400 
 24 H        0.0020    -1.2470    -0.6990 H     1 <1>   0.0800 
 25 H        0.4890    -1.7070     0.8870 H     1 <1>   0.0800 
 26 H       -1.6620    -1.0410     2.5980 H     1 <1>   0.0800 
 27 H       -2.5210     0.3880     2.1090 H     1 <1>   0.0800 
 28 H       -0.3210     2.9550    -0.7750 H     1 <1>   0.1500 
 29 H        2.4580    -0.1730     0.0580 H     1 <1>   0.1500 
 30 H       -3.9650    -0.7180     0.7310 H     1 <1>   0.0800 
 31 H       -3.6590    -1.9760     1.8900 H     1 <1>   0.0800 
 32 H        3.6990     0.3700    -1.9800 H     1 <1>   0.1500 
 33 H       -2.7490    -1.7100    -0.9470 H     1 <1>   0.0800 
 34 H       -1.4640    -3.1610     2.3250 H     1 <1>   0.0800 
 35 H       -1.8170    -4.5080     1.3080 H     1 <1>   0.0800 
 36 H        2.9330     2.2360    -3.4320 H     1 <1>   0.1500 
 37 H       -3.1120    -3.9570    -0.7880 H     1 <1>   0.4000 
 38 H        0.5910    -4.8190     0.8470 H     1 <1>   0.0800 
 39 H        0.9700    -3.4890     1.9020 H     1 <1>   0.0800 
 40 H       -0.4540    -6.0250     2.7370 H     1 <1>   0.0800 
 41 H       -0.0820    -4.6840     3.8000 H     1 <1>   0.0800 
 42 H        1.2090    -5.6200     3.0840 H     1 <1>   0.0800 
@<TRIPOS>BOND
  1   1   2  2   
  2   1   3  2   
  3   1   4  am  
  4   1   5  1   
  5   4   6  1   
  6   4   7  1   
  7   5   8  ar  
  8   5   9  ar  
  9   6  10  1   
 10   6  24  1   
 11   6  25  1   
 12   7  11  1   
 13   7  26  1   
 14   7  27  1   
 15   8  12  ar  
 16   8  28  1   
 17   9  13  ar  
 18   9  29  1   
 19  10  14  1   
 20  10  15  1   
 21  10  16  1   
 22  11  15  1   
 23  11  30  1   
 24  11  31  1   
 25  12  17  1   
 26  12  18  ar  
 27  13  18  ar  
 28  13  32  1   
 29  14  19  ar  
 30  14  20  ar  
 31  15  21  1   
 32  15  33  1   
 33  16  22  1   
 34  16  34  1   
 35  16  35  1   
 36  18  36  1   
 37  21  37  1   
 38  22  23  1   
 39  22  38  1   
 40  22  39  1   
 41  23  40  1   
 42  23  41  1   
 43  23  42  1   
@<TRIPOS>SUBSTRUCTURE
  1 ****   6 GROUP 4 **** **** 0

# MOE 2024.06 (io_trps.svl 2023.06)
