@<TRIPOS>MOLECULE
NONAME
40 41 1 0 0 
SMALL
USER_CHARGES


@<TRIPOS>ATOM
  1 S       -0.7980    -0.3130     1.1410 S.3   1 <1>  -0.0800 
  2 C       -1.2500     0.9910     0.0440 C.2   1 <1>  -0.1400 
  3 C       -1.0470    -1.5210    -0.1050 C.2   1 <1>  -0.1100 
  4 C       -1.5590     0.4830    -1.1670 C.2   1 <1>  -0.1500 
  5 C       -1.2310     2.4170     0.5900 C.3   1 <1>   0.4600 
  6 C       -1.4430    -0.9410    -1.2520 C.2   1 <1>  -0.1500 
  7 O       -2.0450     2.4180     1.7010 O.3   1 <1>  -0.6800 
  8 C       -1.8140     3.4270    -0.4080 C.3   1 <1>  -0.1600 
  9 C        0.1800     2.8280     1.0330 C.3   1 <1>  -0.1600 
 10 C       -1.7360     4.8630     0.1140 C.3   1 <1>   0.1400 
 11 C        0.2330     4.2770     1.5250 C.3   1 <1>   0.1400 
 12 N       -0.3280     5.1670     0.4760 N.am  1 <1>  -0.6600 
 13 C        0.3780     6.1740    -0.1290 C.2   1 <1>   0.7800 
 14 O       -0.1090     6.8740    -0.9960 O.2   1 <1>  -0.5700 
 15 O        1.6410     6.3560     0.2680 O.3   1 <1>  -0.4300 
 16 C        2.5630     7.3100    -0.2100 C.3   1 <1>   0.2800 
 17 C        2.8470     7.0740    -1.6980 C.3   1 <1>  -0.2400 
 18 C        3.8420     7.0630     0.5910 C.3   1 <1>  -0.2400 
 19 C        2.0560     8.7280     0.0740 C.3   1 <1>  -0.2400 
 20 H       -0.8690    -2.5490     0.1570 H     1 <1>   0.1500 
 21 H       -1.8700     1.0500    -2.0270 H     1 <1>   0.1500 
 22 H       -1.6630    -1.4590    -2.1700 H     1 <1>   0.1500 
 23 H       -1.9770     1.5360     2.1110 H     1 <1>   0.4000 
 24 H       -2.8350     3.1730    -0.6240 H     1 <1>   0.0800 
 25 H       -1.2610     3.3760    -1.3280 H     1 <1>   0.0800 
 26 H        0.8500     2.7280     0.1990 H     1 <1>   0.0800 
 27 H        0.5320     2.1750     1.8090 H     1 <1>   0.0800 
 28 H       -2.3570     4.9740     0.9870 H     1 <1>   0.0800 
 29 H       -2.0930     5.5440    -0.6400 H     1 <1>   0.0800 
 30 H        1.2480     4.5440     1.7590 H     1 <1>   0.0800 
 31 H       -0.3540     4.3820     2.4220 H     1 <1>   0.0800 
 32 H        3.1280     6.0510    -1.8680 H     1 <1>   0.0800 
 33 H        3.6510     7.7080    -2.0230 H     1 <1>   0.0800 
 34 H        1.9880     7.3090    -2.2990 H     1 <1>   0.0800 
 35 H        4.1990     6.0620     0.4240 H     1 <1>   0.0800 
 36 H        3.6560     7.1990     1.6410 H     1 <1>   0.0800 
 37 H        4.6110     7.7520     0.2910 H     1 <1>   0.0800 
 38 H        1.1970     8.9610    -0.5280 H     1 <1>   0.0800 
 39 H        2.8200     9.4460    -0.1620 H     1 <1>   0.0800 
 40 H        1.7980     8.8330     1.1120 H     1 <1>   0.0800 
@<TRIPOS>BOND
  1   1   2  1   
  2   1   3  1   
  3   2   4  2   
  4   2   5  1   
  5   3   6  2   
  6   3  20  1   
  7   4   6  1   
  8   4  21  1   
  9   5   7  1   
 10   5   8  1   
 11   5   9  1   
 12   6  22  1   
 13   7  23  1   
 14   8  10  1   
 15   8  24  1   
 16   8  25  1   
 17   9  11  1   
 18   9  26  1   
 19   9  27  1   
 20  10  12  1   
 21  10  28  1   
 22  10  29  1   
 23  11  12  1   
 24  11  30  1   
 25  11  31  1   
 26  12  13  am  
 27  13  14  2   
 28  13  15  1   
 29  15  16  1   
 30  16  17  1   
 31  16  18  1   
 32  16  19  1   
 33  17  32  1   
 34  17  33  1   
 35  17  34  1   
 36  18  35  1   
 37  18  36  1   
 38  18  37  1   
 39  19  38  1   
 40  19  39  1   
 41  19  40  1   
@<TRIPOS>SUBSTRUCTURE
  1 ****  12 GROUP 4 **** **** 0

# MOE 2024.06 (io_trps.svl 2023.06)
