@<TRIPOS>MOLECULE
NONAME
49 51 1 0 0 
SMALL
USER_CHARGES


@<TRIPOS>ATOM
  1 F       -0.0630    -1.7410     1.8600 F     1 <1>  -0.1900 
  2 C       -0.7900    -2.5990     1.1890 C.ar  1 <1>   0.1900 
  3 C       -0.4260    -3.0400    -0.0890 C.ar  1 <1>   0.0820 
  4 C       -1.9420    -3.0440     1.8060 C.ar  1 <1>  -0.1500 
  5 O        0.6810    -2.6750    -0.7990 O.3   1 <1>  -0.3630 
  6 C       -1.2650    -3.9460    -0.7170 C.ar  1 <1>  -0.1500 
  7 C       -2.7560    -3.9470     1.1490 C.ar  1 <1>  -0.1500 
  8 C        1.6720    -1.8120    -0.2880 C.3   1 <1>   0.0400 
  9 C       -2.4380    -4.4230    -0.1260 C.ar  1 <1>   0.0530 
 10 C       -3.2840    -5.3670    -0.8180 C.2   1 <1>   0.0870 
 11 O       -3.2120    -5.4960    -2.1230 O.3   1 <1>  -0.0190 
 12 C       -4.2350    -6.2380    -0.3970 C.2   1 <1>  -0.2330 
 13 N       -4.0510    -6.3830    -2.5940 N.2   1 <1>  -0.4100 
 14 C       -4.6780    -6.8450    -1.5700 C.2   1 <1>   0.3720 
 15 C       -4.7070    -6.5220     0.9150 C.2   1 <1>   1.0330 
 16 N       -5.6800    -7.8120    -1.6830 N.pl3 1 <1>  -0.8210 
 17 O       -5.7060    -5.9390     1.3710 O.co2 1 <1>  -0.9000 
 18 O       -4.1130    -7.3410     1.6350 O.co2 1 <1>  -0.9000 
 19 C       -5.4270    -9.0750    -0.9110 C.3   1 <1>   0.2090 
 20 C       -7.0410    -7.2330    -1.5440 C.3   1 <1>   0.2090 
 21 C       -6.5270    -9.3850     0.1270 C.3   1 <1>  -0.0800 
 22 C       -8.0810    -8.3480    -1.6510 C.3   1 <1>  -0.1600 
 23 C       -6.2120   -10.6520     0.9730 C.3   1 <1>   0.2800 
 24 C       -7.9270    -9.4050    -0.5420 C.3   1 <1>  -0.1600 
 25 O       -7.2840   -10.8890     1.7990 O.3   1 <1>  -0.6800 
 26 C       -6.0160   -11.9330     0.1550 C.3   1 <1>  -0.2400 
 27 C       -5.0200   -10.4490     1.9090 C.3   1 <1>  -0.2400 
 28 H       -2.2010    -2.6920     2.7880 H     1 <1>   0.1500 
 29 H       -0.9940    -4.2950    -1.6970 H     1 <1>   0.1500 
 30 H       -3.6550    -4.2840     1.6370 H     1 <1>   0.1500 
 31 H        2.4450    -1.7150    -1.0290 H     1 <1>   0.0800 
 32 H        2.0800    -2.2410     0.6100 H     1 <1>   0.0800 
 33 H        1.2320    -0.8500    -0.0930 H     1 <1>   0.0800 
 34 H       -4.4710    -9.0070    -0.4200 H     1 <1>   0.0800 
 35 H       -5.3700    -9.8800    -1.6210 H     1 <1>   0.0800 
 36 H       -7.1940    -6.5110    -2.3280 H     1 <1>   0.0800 
 37 H       -7.1340    -6.7260    -0.5970 H     1 <1>   0.0800 
 38 H       -6.5180    -8.5600     0.8170 H     1 <1>   0.0800 
 39 H       -7.9650    -8.8150    -2.6140 H     1 <1>   0.0800 
 40 H       -9.0670    -7.9230    -1.6110 H     1 <1>   0.0800 
 41 H       -8.6660    -9.2230     0.2190 H     1 <1>   0.0800 
 42 H       -8.1350   -10.3690    -0.9650 H     1 <1>   0.0800 
 43 H       -7.3950   -10.1050     2.3700 H     1 <1>   0.4000 
 44 H       -6.8680   -12.1280    -0.4680 H     1 <1>   0.0800 
 45 H       -5.8750   -12.7700     0.8140 H     1 <1>   0.0800 
 46 H       -5.1460   -11.8520    -0.4680 H     1 <1>   0.0800 
 47 H       -5.1590    -9.5720     2.5170 H     1 <1>   0.0800 
 48 H       -4.1140   -10.3120     1.3490 H     1 <1>   0.0800 
 49 H       -4.8900   -11.3020     2.5500 H     1 <1>   0.0800 
@<TRIPOS>BOND
  1   1   2  1   
  2   2   3  ar  
  3   2   4  ar  
  4   3   5  1   
  5   3   6  ar  
  6   4   7  ar  
  7   4  28  1   
  8   5   8  1   
  9   6   9  ar  
 10   6  29  1   
 11   7   9  ar  
 12   7  30  1   
 13   8  31  1   
 14   8  32  1   
 15   8  33  1   
 16   9  10  1   
 17  10  11  1   
 18  10  12  2   
 19  11  13  1   
 20  12  14  1   
 21  12  15  1   
 22  13  14  2   
 23  14  16  1   
 24  15  17  ar  
 25  15  18  ar  
 26  16  19  1   
 27  16  20  1   
 28  19  21  1   
 29  19  34  1   
 30  19  35  1   
 31  20  22  1   
 32  20  36  1   
 33  20  37  1   
 34  21  23  1   
 35  21  24  1   
 36  21  38  1   
 37  22  24  1   
 38  22  39  1   
 39  22  40  1   
 40  23  25  1   
 41  23  26  1   
 42  23  27  1   
 43  24  41  1   
 44  24  42  1   
 45  25  43  1   
 46  26  44  1   
 47  26  45  1   
 48  26  46  1   
 49  27  47  1   
 50  27  48  1   
 51  27  49  1   
@<TRIPOS>SUBSTRUCTURE
  1 ****  12 GROUP 4 **** **** 0

# MOE 2024.06 (io_trps.svl 2023.06)
