@<TRIPOS>MOLECULE
NONAME
57 62 1 0 0 
SMALL
USER_CHARGES


@<TRIPOS>ATOM
  1 O       -3.3270    -2.0320    -0.2190 O.2   1 <1>  -0.5700 
  2 C       -2.8230    -1.0510     0.2700 C.2   1 <1>   0.5950 
  3 C       -3.0990     0.3080    -0.0990 C.2   1 <1>  -0.0860 
  4 C       -1.8300    -1.2360     1.4130 C.3   1 <1>  -0.0990 
  5 C       -3.7920     0.8830    -1.1940 C.2   1 <1>  -0.0860 
  6 C       -2.6780     1.3640     0.6360 C.2   1 <1>  -0.0400 
  7 C       -1.9550    -0.1370     2.4970 C.3   1 <1>  -0.1600 
  8 C       -3.7070     2.2250    -0.9930 C.2   1 <1>  -0.0400 
  9 C       -4.4200     0.1700    -2.2760 C.2   1 <1>   0.7160 
 10 O       -3.0410     2.4990     0.1030 O.3   1 <1>  -0.2800 
 11 C       -1.8760     1.2910     1.9180 C.3   1 <1>   0.0200 
 12 C       -4.2380     3.3740    -1.8230 C.3   1 <1>  -0.0600 
 13 O       -3.7550    -0.1440    -3.2450 O.2   1 <1>  -0.5700 
 14 N       -5.7590    -0.1590    -2.2340 N.am  1 <1>  -0.6600 
 15 C       -6.3010    -1.2420    -3.0880 C.3   1 <1>   0.1400 
 16 C       -6.6310     0.1240    -1.0670 C.3   1 <1>   0.1400 
 17 C       -6.2550    -2.5300    -2.2710 C.3   1 <1>  -0.1600 
 18 C       -6.6430    -1.1110    -0.1690 C.3   1 <1>  -0.1600 
 19 C       -7.0020    -2.3940    -0.9330 C.3   1 <1>   0.4600 
 20 O       -8.3880    -2.3080    -1.1900 O.3   1 <1>  -0.5600 
 21 C       -6.7110    -3.5960    -0.0490 C.2   1 <1>  -0.3320 
 22 C       -9.1110    -3.5080    -1.3420 C.3   1 <1>   0.1200 
 23 N       -5.4800    -3.9400     0.4370 N.pl3 1 <1>   0.0330 
 24 C       -7.6290    -4.4870     0.3670 C.2   1 <1>  -0.1810 
 25 C       -9.0690    -4.3600    -0.0600 C.3   1 <1>   0.0210 
 26 C       -5.6340    -5.0760     1.1960 C.ar  1 <1>  -0.1520 
 27 C       -6.9780    -5.4430     1.1760 C.ar  1 <1>   0.0000 
 28 C       -4.6960    -5.8260     1.9080 C.ar  1 <1>  -0.1500 
 29 C       -7.3950    -6.5760     1.8820 C.ar  1 <1>  -0.1500 
 30 C       -5.1200    -6.9390     2.5980 C.ar  1 <1>  -0.1500 
 31 C       -6.4690    -7.3130     2.5850 C.ar  1 <1>  -0.1500 
 32 H       -0.8390    -1.2230     0.9970 H     1 <1>   0.0800 
 33 H       -1.9870    -2.2000     1.8620 H     1 <1>   0.0800 
 34 H       -1.1910    -0.2670     3.2440 H     1 <1>   0.0800 
 35 H       -2.9090    -0.2510     2.9840 H     1 <1>   0.0800 
 36 H       -2.2630     1.9980     2.6300 H     1 <1>   0.0800 
 37 H       -0.8550     1.5520     1.7010 H     1 <1>   0.0800 
 38 H       -4.7560     3.0050    -2.6900 H     1 <1>   0.0800 
 39 H       -3.4220     3.9950    -2.1430 H     1 <1>   0.0800 
 40 H       -4.9160     3.9650    -1.2340 H     1 <1>   0.0800 
 41 H       -5.7170    -1.3500    -3.9870 H     1 <1>   0.0800 
 42 H       -7.3150    -1.0110    -3.3680 H     1 <1>   0.0800 
 43 H       -7.6290     0.3330    -1.4120 H     1 <1>   0.0800 
 44 H       -6.2790     0.9820    -0.5200 H     1 <1>   0.0800 
 45 H       -5.2230    -2.7600    -2.0790 H     1 <1>   0.0800 
 46 H       -6.6570    -3.3460    -2.8390 H     1 <1>   0.0800 
 47 H       -7.3420    -0.9750     0.6360 H     1 <1>   0.0800 
 48 H       -5.6750    -1.2120     0.2750 H     1 <1>   0.0800 
 49 H       -8.6890    -4.0560    -2.1660 H     1 <1>   0.0800 
 50 H      -10.1270    -3.2500    -1.5830 H     1 <1>   0.0800 
 51 H       -4.5960    -3.4440     0.2460 H     1 <1>   0.2700 
 52 H       -9.4830    -5.3310    -0.2570 H     1 <1>   0.0800 
 53 H       -9.6410    -3.8880     0.7170 H     1 <1>   0.0800 
 54 H       -3.6620    -5.5300     1.9080 H     1 <1>   0.1500 
 55 H       -8.4320    -6.8510     1.8640 H     1 <1>   0.1500 
 56 H       -4.4170    -7.5330     3.1540 H     1 <1>   0.1500 
 57 H       -6.7750    -8.1870     3.1340 H     1 <1>   0.1500 
@<TRIPOS>BOND
  1   1   2  2   
  2   2   3  1   
  3   2   4  1   
  4   3   5  1   
  5   3   6  2   
  6   4   7  1   
  7   4  32  1   
  8   4  33  1   
  9   5   8  2   
 10   5   9  1   
 11   6  10  1   
 12   6  11  1   
 13   7  11  1   
 14   7  34  1   
 15   7  35  1   
 16   8  10  1   
 17   8  12  1   
 18   9  13  2   
 19   9  14  am  
 20  11  36  1   
 21  11  37  1   
 22  12  38  1   
 23  12  39  1   
 24  12  40  1   
 25  14  15  1   
 26  14  16  1   
 27  15  17  1   
 28  15  41  1   
 29  15  42  1   
 30  16  18  1   
 31  16  43  1   
 32  16  44  1   
 33  17  19  1   
 34  17  45  1   
 35  17  46  1   
 36  18  19  1   
 37  18  47  1   
 38  18  48  1   
 39  19  20  1   
 40  19  21  1   
 41  20  22  1   
 42  21  23  1   
 43  21  24  2   
 44  22  25  1   
 45  22  49  1   
 46  22  50  1   
 47  23  26  1   
 48  23  51  1   
 49  24  25  1   
 50  24  27  1   
 51  25  52  1   
 52  25  53  1   
 53  26  27  ar  
 54  26  28  ar  
 55  27  29  ar  
 56  28  30  ar  
 57  28  54  1   
 58  29  31  ar  
 59  29  55  1   
 60  30  31  ar  
 61  30  56  1   
 62  31  57  1   
@<TRIPOS>SUBSTRUCTURE
  1 ****  18 GROUP 4 **** **** 0

# MOE 2024.06 (io_trps.svl 2023.06)
