@<TRIPOS>MOLECULE
NONAME
45 47 1 0 0 
SMALL
USER_CHARGES


@<TRIPOS>ATOM
  1 F       -0.6000    -0.4330    -0.0750 F     1 <1>  -0.1900 
  2 C       -1.7760    -0.9630     0.1350 C.ar  1 <1>   0.1900 
  3 C       -2.0940    -2.2010    -0.4130 C.ar  1 <1>   0.0830 
  4 C       -2.6790    -0.2630     0.9110 C.ar  1 <1>  -0.1500 
  5 O       -1.2090    -2.8910    -1.1610 O.3   1 <1>  -0.5330 
  6 C       -3.3500    -2.7340    -0.1760 C.ar  1 <1>  -0.1500 
  7 C       -3.9300    -0.8130     1.1380 C.ar  1 <1>  -0.1500 
  8 C       -4.2950    -2.0490     0.5920 C.ar  1 <1>   0.0860 
  9 C       -5.6080    -2.6240     0.8180 C.2   1 <1>   0.5440 
 10 O       -5.6920    -3.7920     1.1490 O.2   1 <1>  -0.5700 
 11 N       -6.7670    -1.8950     0.6540 N.am  1 <1>  -0.6600 
 12 C       -8.0680    -2.4410     1.1430 C.3   1 <1>   0.1400 
 13 C       -6.8240    -0.6430    -0.1580 C.3   1 <1>   0.1400 
 14 C       -9.0670    -1.3080     1.3930 C.3   1 <1>  -0.1600 
 15 C       -8.1730    -0.5490    -0.8690 C.3   1 <1>  -0.1600 
 16 C       -9.3330    -0.4320     0.1430 C.3   1 <1>   0.2800 
 17 O       -9.3610     0.8900     0.6280 O.3   1 <1>  -0.5600 
 18 C      -10.6880    -0.7910    -0.5210 C.3   1 <1>  -0.1600 
 19 C      -10.0030     1.8670    -0.1430 C.3   1 <1>   0.1200 
 20 C      -11.8410     0.0900    -0.0300 C.3   1 <1>   0.2800 
 21 C      -11.5040     1.5630    -0.2810 C.3   1 <1>  -0.1600 
 22 O      -11.9510    -0.0690     1.3250 O.3   1 <1>  -0.6800 
 23 C      -13.1850    -0.3110    -0.6310 C.3   1 <1>  -0.2400 
 24 H       -2.4020     0.6890     1.3290 H     1 <1>   0.1500 
 25 H       -1.5320    -3.7650    -1.4440 H     1 <1>   0.4500 
 26 H       -3.6190    -3.6930    -0.5820 H     1 <1>   0.1500 
 27 H       -4.6390    -0.2850     1.7520 H     1 <1>   0.1500 
 28 H       -7.9070    -2.9870     2.0570 H     1 <1>   0.0800 
 29 H       -8.4580    -3.1260     0.4100 H     1 <1>   0.0800 
 30 H       -6.0340    -0.6420    -0.8880 H     1 <1>   0.0800 
 31 H       -6.6990     0.2090     0.4900 H     1 <1>   0.0800 
 32 H       -8.6680    -0.7020     2.1870 H     1 <1>   0.0800 
 33 H       -9.9800    -1.7420     1.7560 H     1 <1>   0.0800 
 34 H       -8.2940    -1.4370    -1.4640 H     1 <1>   0.0800 
 35 H       -8.1690     0.2840    -1.5450 H     1 <1>   0.0800 
 36 H      -10.9200    -1.8300    -0.3700 H     1 <1>   0.0800 
 37 H      -10.6050    -0.6560    -1.5840 H     1 <1>   0.0800 
 38 H       -9.5340     1.9070    -1.1090 H     1 <1>   0.0800 
 39 H       -9.8590     2.8160     0.3440 H     1 <1>   0.0800 
 40 H      -11.7940     1.8310    -1.2800 H     1 <1>   0.0800 
 41 H      -12.0720     2.1890     0.3840 H     1 <1>   0.0800 
 42 H      -11.1140     0.2620     1.7150 H     1 <1>   0.4000 
 43 H      -13.1600    -0.2150    -1.7010 H     1 <1>   0.0800 
 44 H      -13.9650     0.3230    -0.2490 H     1 <1>   0.0800 
 45 H      -13.4110    -1.3330    -0.3850 H     1 <1>   0.0800 
@<TRIPOS>BOND
  1   1   2  1   
  2   2   3  ar  
  3   2   4  ar  
  4   3   5  1   
  5   3   6  ar  
  6   4   7  ar  
  7   4  24  1   
  8   5  25  1   
  9   6   8  ar  
 10   6  26  1   
 11   7   8  ar  
 12   7  27  1   
 13   8   9  1   
 14   9  10  2   
 15   9  11  am  
 16  11  12  1   
 17  11  13  1   
 18  12  14  1   
 19  12  28  1   
 20  12  29  1   
 21  13  15  1   
 22  13  30  1   
 23  13  31  1   
 24  14  16  1   
 25  14  32  1   
 26  14  33  1   
 27  15  16  1   
 28  15  34  1   
 29  15  35  1   
 30  16  17  1   
 31  16  18  1   
 32  17  19  1   
 33  18  20  1   
 34  18  36  1   
 35  18  37  1   
 36  19  21  1   
 37  19  38  1   
 38  19  39  1   
 39  20  21  1   
 40  20  22  1   
 41  20  23  1   
 42  21  40  1   
 43  21  41  1   
 44  22  42  1   
 45  23  43  1   
 46  23  44  1   
 47  23  45  1   
@<TRIPOS>SUBSTRUCTURE
  1 ****  13 GROUP 4 **** **** 0

# MOE 2024.06 (io_trps.svl 2023.06)
