@<TRIPOS>MOLECULE
NONAME
50 53 1 0 0 
SMALL
USER_CHARGES


@<TRIPOS>ATOM
  1 O       -0.3640     0.1210    -0.9200 O.2   1 <1>  -0.5700 
  2 C       -1.3090     0.7170    -0.4610 C.2   1 <1>   0.5690 
  3 N       -2.4110     0.0560     0.0140 N.am  1 <1>  -0.6600 
  4 C       -1.2560     2.2330    -0.4320 C.3   1 <1>  -0.0990 
  5 C       -2.4570    -1.4400     0.0860 C.3   1 <1>   0.1400 
  6 C       -3.6910     0.6920     0.4600 C.3   1 <1>   0.1400 
  7 C        0.1640     2.7770    -0.6440 C.3   1 <1>   0.0960 
  8 C       -3.7390    -1.9930    -0.5620 C.3   1 <1>   0.3440 
  9 C       -4.9110     0.0250    -0.2170 C.3   1 <1>   0.2950 
 10 N        0.1590     4.2520    -0.6650 N.pl3 1 <1>   0.3140 
 11 O       -4.8690    -1.3590    -0.0210 O.3   1 <1>  -0.5600 
 12 C       -3.8450    -3.5000    -0.3410 C.ar  1 <1>  -0.1440 
 13 C       -6.2780     0.5050     0.3020 C.3   1 <1>  -0.1950 
 14 N       -0.3930     4.9840     0.3220 N.2   1 <1>  -0.7070 
 15 C        0.6700     5.0430    -1.6290 C.2   1 <1>  -0.3020 
 16 C       -3.3110    -4.3700    -1.2810 C.ar  1 <1>  -0.1500 
 17 C       -4.4530    -4.0240     0.7920 C.ar  1 <1>  -0.1500 
 18 C       -6.5360     1.8930     0.8070 C.3   1 <1>  -0.2000 
 19 C       -6.5920     0.7230     1.7500 C.3   1 <1>  -0.2000 
 20 C       -0.2170     6.2160    -0.0370 C.2   1 <1>   0.1080 
 21 C        0.4450     6.3190    -1.2540 C.2   1 <1>  -0.1500 
 22 C       -3.3820    -5.7400    -1.0920 C.ar  1 <1>  -0.1500 
 23 C       -4.5250    -5.3930     0.9820 C.ar  1 <1>  -0.1500 
 24 C       -0.6910     7.3790     0.8020 C.3   1 <1>  -0.0590 
 25 C       -3.9890    -6.2520     0.0400 C.ar  1 <1>  -0.1500 
 26 H       -1.9010     2.6120    -1.2020 H     1 <1>   0.0800 
 27 H       -1.6090     2.5720     0.5250 H     1 <1>   0.0800 
 28 H       -1.6040    -1.8730    -0.4060 H     1 <1>   0.0800 
 29 H       -2.4270    -1.7450     1.1170 H     1 <1>   0.0800 
 30 H       -3.7740     0.5910     1.5270 H     1 <1>   0.0800 
 31 H       -3.7010     1.7390     0.2240 H     1 <1>   0.0800 
 32 H        0.5640     2.4210    -1.5750 H     1 <1>   0.0800 
 33 H        0.8060     2.4520     0.1540 H     1 <1>   0.0800 
 34 H       -3.7230    -1.7930    -1.6200 H     1 <1>   0.0800 
 35 H       -4.8670     0.2130    -1.2760 H     1 <1>   0.0800 
 36 H       -7.0660     0.0700    -0.2890 H     1 <1>   0.1000 
 37 H        1.1570     4.6630    -2.5080 H     1 <1>   0.1500 
 38 H       -2.8340    -3.9880    -2.1670 H     1 <1>   0.1500 
 39 H       -4.8770    -3.3650     1.5300 H     1 <1>   0.1500 
 40 H       -5.7350     2.6000     0.9340 H     1 <1>   0.1000 
 41 H       -7.4600     2.3750     0.5350 H     1 <1>   0.1000 
 42 H       -7.5490     0.3920     2.1150 H     1 <1>   0.1000 
 43 H       -5.8170     0.6060     2.4870 H     1 <1>   0.1000 
 44 H        0.7080     7.2290    -1.7630 H     1 <1>   0.1500 
 45 H       -2.9650    -6.4060    -1.8260 H     1 <1>   0.1500 
 46 H       -5.0010    -5.7880     1.8630 H     1 <1>   0.1500 
 47 H       -0.4590     8.3100     0.3200 H     1 <1>   0.0800 
 48 H       -0.2090     7.3470     1.7620 H     1 <1>   0.0800 
 49 H       -1.7540     7.3080     0.9430 H     1 <1>   0.0800 
 50 H       -4.0450    -7.3170     0.1870 H     1 <1>   0.1500 
@<TRIPOS>BOND
  1   1   2  2   
  2   2   3  am  
  3   2   4  1   
  4   3   5  1   
  5   3   6  1   
  6   4   7  1   
  7   4  26  1   
  8   4  27  1   
  9   5   8  1   
 10   5  28  1   
 11   5  29  1   
 12   6   9  1   
 13   6  30  1   
 14   6  31  1   
 15   7  10  1   
 16   7  32  1   
 17   7  33  1   
 18   8  11  1   
 19   8  12  1   
 20   8  34  1   
 21   9  11  1   
 22   9  13  1   
 23   9  35  1   
 24  10  14  1   
 25  10  15  1   
 26  12  16  ar  
 27  12  17  ar  
 28  13  18  1   
 29  13  19  1   
 30  13  36  1   
 31  14  20  2   
 32  15  21  2   
 33  15  37  1   
 34  16  22  ar  
 35  16  38  1   
 36  17  23  ar  
 37  17  39  1   
 38  18  19  1   
 39  18  40  1   
 40  18  41  1   
 41  19  42  1   
 42  19  43  1   
 43  20  21  1   
 44  20  24  1   
 45  21  44  1   
 46  22  25  ar  
 47  22  45  1   
 48  23  25  ar  
 49  23  46  1   
 50  24  47  1   
 51  24  48  1   
 52  24  49  1   
 53  25  50  1   
@<TRIPOS>SUBSTRUCTURE
  1 ****   3 GROUP 4 **** **** 0

# MOE 2024.06 (io_trps.svl 2023.06)
