@<TRIPOS>MOLECULE
NONAME
46 48 1 0 0 
SMALL
USER_CHARGES


@<TRIPOS>ATOM
  1 F        0.3760     1.4160     0.6900 F     1 <1>  -0.1900 
  2 C        1.6040     1.5370     0.2530 C.ar  1 <1>   0.1900 
  3 C        2.5260     0.4890     0.3550 C.ar  1 <1>   0.0820 
  4 C        1.9370     2.7550    -0.3040 C.ar  1 <1>  -0.1500 
  5 O        2.3120    -0.7460     0.8800 O.3   1 <1>  -0.3630 
  6 C        3.8040     0.7180    -0.1320 C.ar  1 <1>  -0.1500 
  7 C        3.2250     2.9840    -0.7820 C.ar  1 <1>   0.0860 
  8 C        1.0470    -1.2010     1.3100 C.3   1 <1>   0.0400 
  9 C        4.1450     1.9370    -0.6930 C.ar  1 <1>  -0.1500 
 10 C        3.5830     4.2650    -1.3530 C.2   1 <1>   0.5440 
 11 O        3.1110     4.5800    -2.4270 O.2   1 <1>  -0.5700 
 12 N        4.4440     5.1510    -0.7310 N.am  1 <1>  -0.6600 
 13 C        5.0710     4.8720     0.6190 C.3   1 <1>   0.2200 
 14 C        4.6960     6.4800    -1.3890 C.3   1 <1>   0.1400 
 15 C        4.7360     5.9610     1.6510 C.3   1 <1>   0.1200 
 16 C        6.5990     4.6470     0.5040 C.3   1 <1>   0.3430 
 17 C        5.8390     7.3270    -0.7950 C.3   1 <1>  -0.0800 
 18 O        5.6420     7.0190     1.5940 O.3   1 <1>  -0.5600 
 19 N        7.1590     5.1620    -0.7940 N.4   1 <1>  -0.9590 
 20 C        5.4660     7.9330     0.5660 C.3   1 <1>   0.1200 
 21 C        7.2260     6.6540    -0.7770 C.3   1 <1>   0.3430 
 22 C        8.5660     4.6080    -0.9780 C.3   1 <1>   0.2370 
 23 C        9.5290     4.9400     0.1650 C.2   1 <1>   0.9060 
 24 O       10.1700     5.9900     0.0920 O.co2 1 <1>  -0.9000 
 25 O        9.5050     4.2090     1.1590 O.co2 1 <1>  -0.9000 
 26 H        1.1950     3.5310    -0.3740 H     1 <1>   0.1500 
 27 H        4.5290    -0.0760    -0.0720 H     1 <1>   0.1500 
 28 H        1.1470    -2.2260     1.6190 H     1 <1>   0.0800 
 29 H        0.3520    -1.1330     0.4920 H     1 <1>   0.0800 
 30 H        0.7230    -0.6010     2.1420 H     1 <1>   0.0800 
 31 H        5.1400     2.0790    -1.0770 H     1 <1>   0.1500 
 32 H        4.6530     3.9690     1.0220 H     1 <1>   0.0800 
 33 H        4.9110     6.3070    -2.4310 H     1 <1>   0.0800 
 34 H        3.7820     7.0490    -1.3540 H     1 <1>   0.0800 
 35 H        4.8270     5.5440     2.6390 H     1 <1>   0.0800 
 36 H        3.7320     6.3290     1.5310 H     1 <1>   0.0800 
 37 H        6.7960     3.5910     0.5780 H     1 <1>   0.0800 
 38 H        7.1040     5.1140     1.3360 H     1 <1>   0.0800 
 39 H        5.9370     8.1760    -1.4470 H     1 <1>   0.0800 
 40 H        6.5240     4.8650    -1.5440 H     1 <1>   0.4500 
 41 H        4.4490     8.2900     0.5820 H     1 <1>   0.0800 
 42 H        6.1170     8.7630     0.7810 H     1 <1>   0.0800 
 43 H        7.7800     6.9830     0.0900 H     1 <1>   0.0800 
 44 H        7.7760     6.9810    -1.6440 H     1 <1>   0.0800 
 45 H        8.5280     3.5370    -1.0540 H     1 <1>   0.0800 
 46 H        8.9980     4.9980    -1.8810 H     1 <1>   0.0800 
@<TRIPOS>BOND
  1   1   2  1   
  2   2   3  ar  
  3   2   4  ar  
  4   3   5  1   
  5   3   6  ar  
  6   4   7  ar  
  7   4  26  1   
  8   5   8  1   
  9   6   9  ar  
 10   6  27  1   
 11   7   9  ar  
 12   7  10  1   
 13   8  28  1   
 14   8  29  1   
 15   8  30  1   
 16   9  31  1   
 17  10  11  2   
 18  10  12  am  
 19  12  13  1   
 20  12  14  1   
 21  13  15  1   
 22  13  16  1   
 23  13  32  1   
 24  14  17  1   
 25  14  33  1   
 26  14  34  1   
 27  15  18  1   
 28  15  35  1   
 29  15  36  1   
 30  16  19  1   
 31  16  37  1   
 32  16  38  1   
 33  17  20  1   
 34  17  21  1   
 35  17  39  1   
 36  18  20  1   
 37  19  21  1   
 38  19  22  1   
 39  19  40  1   
 40  20  41  1   
 41  20  42  1   
 42  21  43  1   
 43  21  44  1   
 44  22  23  1   
 45  22  45  1   
 46  22  46  1   
 47  23  24  ar  
 48  23  25  ar  
@<TRIPOS>SUBSTRUCTURE
  1 ****  13 GROUP 4 **** **** 0

# MOE 2024.06 (io_trps.svl 2023.06)
