@<TRIPOS>MOLECULE
NONAME
49 51 1 0 0 
SMALL
USER_CHARGES


@<TRIPOS>ATOM
  1 O       -4.1000    -0.9040    -1.5240 O.co2 1 <1>  -0.9000 
  2 C       -4.0500    -0.9160    -0.2920 C.2   1 <1>   0.9060 
  3 O       -4.6790    -1.7750     0.3420 O.co2 1 <1>  -0.9000 
  4 C       -3.5230     0.3000     0.4450 C.3   1 <1>   0.0140 
  5 O       -4.5350     0.8590     1.2900 O.3   1 <1>  -0.3630 
  6 C       -5.1880     1.9850     0.9390 C.ar  1 <1>   0.0830 
  7 C       -6.1360     2.0450    -0.0830 C.ar  1 <1>  -0.1440 
  8 C       -4.9190     3.1140     1.6930 C.ar  1 <1>  -0.1500 
  9 C       -6.7940     3.2440    -0.3110 C.ar  1 <1>  -0.1500 
 10 C       -6.4890     0.8700    -0.9840 C.3   1 <1>   0.4870 
 11 C       -5.5790     4.3010     1.4450 C.ar  1 <1>  -0.1500 
 12 C       -6.5430     4.3920     0.4420 C.ar  1 <1>   0.0000 
 13 N       -6.9300    -0.3130    -0.2070 N.4   1 <1>  -0.9590 
 14 C       -7.2620     5.6260     0.1800 C.ar  1 <1>   0.3100 
 15 C       -7.2600    -1.5010    -1.0300 C.3   1 <1>   0.3430 
 16 C       -7.9510    -0.1440     0.8440 C.3   1 <1>   0.3430 
 17 N       -7.5210     5.9440    -1.0910 N.ar  1 <1>  -0.6200 
 18 C       -7.6770     6.4470     1.2380 C.ar  1 <1>   0.1600 
 19 C       -8.0320    -2.4070    -0.0690 C.3   1 <1>   0.2200 
 20 C       -8.8180    -1.4010     0.7720 C.3   1 <1>  -0.1600 
 21 C       -8.1680     7.0880    -1.2190 C.ar  1 <1>   0.1600 
 22 N       -8.3270     7.5900     1.1140 N.ar  1 <1>  -0.6200 
 23 N       -7.1030    -3.1470     0.8190 N.am  1 <1>  -0.7300 
 24 C       -8.5580     7.8870    -0.1520 C.ar  1 <1>   0.1600 
 25 C       -7.3310    -4.2880     1.5100 C.2   1 <1>   0.5690 
 26 O       -6.4720    -4.7940     2.1810 O.2   1 <1>  -0.5700 
 27 C       -8.6850    -4.9550     1.4570 C.3   1 <1>  -0.1790 
 28 H       -3.1930     1.0430    -0.2560 H     1 <1>   0.0800 
 29 H       -2.7040    -0.0020     1.0680 H     1 <1>   0.0800 
 30 H       -4.1850     3.0520     2.4770 H     1 <1>   0.1500 
 31 H       -7.5250     3.3130    -1.0990 H     1 <1>   0.1500 
 32 H       -5.6350     0.6190    -1.5900 H     1 <1>   0.0800 
 33 H       -7.2790     1.1670    -1.6520 H     1 <1>   0.0800 
 34 H       -5.3320     5.1640     2.0370 H     1 <1>   0.1500 
 35 H       -6.0660    -0.6480     0.2870 H     1 <1>   0.4500 
 36 H       -6.3680    -1.9840    -1.4010 H     1 <1>   0.0800 
 37 H       -7.8910    -1.2160    -1.8530 H     1 <1>   0.0800 
 38 H       -8.5400     0.7410     0.6740 H     1 <1>   0.0800 
 39 H       -7.4630    -0.0720     1.8040 H     1 <1>   0.0800 
 40 H       -7.4570     6.1280     2.2400 H     1 <1>   0.1500 
 41 H       -8.6670    -3.0950    -0.6000 H     1 <1>   0.0800 
 42 H       -9.7360    -1.1530     0.2700 H     1 <1>   0.0800 
 43 H       -9.0540    -1.7740     1.7520 H     1 <1>   0.0800 
 44 H       -8.4030     7.4130    -2.2170 H     1 <1>   0.1500 
 45 H       -6.1130    -2.8070     0.8150 H     1 <1>   0.3700 
 46 H       -9.0810     8.8050    -0.3550 H     1 <1>   0.1500 
 47 H       -9.4470    -4.2720     1.7760 H     1 <1>   0.0800 
 48 H       -8.6890    -5.8070     2.1120 H     1 <1>   0.0800 
 49 H       -8.8850    -5.2900     0.4570 H     1 <1>   0.0800 
@<TRIPOS>BOND
  1   1   2  ar  
  2   2   3  ar  
  3   2   4  1   
  4   4   5  1   
  5   4  28  1   
  6   4  29  1   
  7   5   6  1   
  8   6   7  ar  
  9   6   8  ar  
 10   7   9  ar  
 11   7  10  1   
 12   8  11  ar  
 13   8  30  1   
 14   9  12  ar  
 15   9  31  1   
 16  10  13  1   
 17  10  32  1   
 18  10  33  1   
 19  11  12  ar  
 20  11  34  1   
 21  12  14  1   
 22  13  15  1   
 23  13  16  1   
 24  13  35  1   
 25  14  17  ar  
 26  14  18  ar  
 27  15  19  1   
 28  15  36  1   
 29  15  37  1   
 30  16  20  1   
 31  16  38  1   
 32  16  39  1   
 33  17  21  ar  
 34  18  22  ar  
 35  18  40  1   
 36  19  20  1   
 37  19  23  1   
 38  19  41  1   
 39  20  42  1   
 40  20  43  1   
 41  21  24  ar  
 42  21  44  1   
 43  22  24  ar  
 44  23  25  am  
 45  23  45  1   
 46  24  46  1   
 47  25  26  2   
 48  25  27  1   
 49  27  47  1   
 50  27  48  1   
 51  27  49  1   
@<TRIPOS>SUBSTRUCTURE
  1 ****   7 GROUP 4 **** **** 0

# MOE 2024.06 (io_trps.svl 2023.06)
