@<TRIPOS>MOLECULE
NONAME
47 50 1 0 0 
SMALL
USER_CHARGES


@<TRIPOS>ATOM
  1 O       -0.9420     0.5270    -2.2100 O.2   1 <1>  -0.5700 
  2 C       -1.8580     1.0070    -1.5620 C.2   1 <1>   0.5440 
  3 N       -3.0900     0.3760    -1.6330 N.am  1 <1>  -0.6600 
  4 C       -1.6100     2.2180    -0.7720 C.ar  1 <1>   0.3960 
  5 C       -4.3590     0.9250    -1.0700 C.3   1 <1>   0.1400 
  6 C       -3.2210    -1.0650    -2.0030 C.3   1 <1>   0.1400 
  7 N       -2.1260     2.3340     0.4660 N.ar  1 <1>  -0.6200 
  8 C       -0.8240     3.2260    -1.3320 C.ar  1 <1>  -0.1500 
  9 C       -4.7830     0.0960     0.1550 C.3   1 <1>   0.1900 
 10 C       -3.7270    -1.8830    -0.7990 C.3   1 <1>   0.1100 
 11 C       -1.8730     3.4500     1.1110 C.ar  1 <1>   0.4100 
 12 C       -0.5610     4.3910    -0.6420 C.ar  1 <1>  -0.1500 
 13 N       -4.9810    -1.3260    -0.2340 N.3   1 <1>  -0.8100 
 14 C       -6.0620     0.6740     0.7880 C.3   1 <1>   0.1200 
 15 N       -2.4250     3.5130     2.3480 N.pl3 1 <1>  -0.9000 
 16 C       -1.1080     4.4960     0.6120 C.ar  1 <1>  -0.1500 
 17 C       -5.4530    -2.1030     0.9360 C.3   1 <1>   0.3330 
 18 O       -6.4580    -0.0950     1.8880 O.3   1 <1>  -0.5600 
 19 C       -5.7920    -3.5400     0.5430 C.ar  1 <1>  -0.1440 
 20 C       -6.6980    -1.4400     1.5640 C.3   1 <1>   0.1200 
 21 C       -6.5630    -3.8090    -0.5790 C.ar  1 <1>  -0.1500 
 22 C       -5.3330    -4.5990     1.3140 C.ar  1 <1>  -0.1500 
 23 C       -6.8740    -5.1130    -0.9250 C.ar  1 <1>  -0.1500 
 24 C       -5.6430    -5.9040     0.9700 C.ar  1 <1>  -0.1500 
 25 C       -6.4130    -6.1620    -0.1490 C.ar  1 <1>  -0.1500 
 26 H       -4.2480     1.9590    -0.8000 H     1 <1>   0.0800 
 27 H       -5.1300     0.8660    -1.8190 H     1 <1>   0.0800 
 28 H       -3.9180    -1.1600    -2.8160 H     1 <1>   0.0800 
 29 H       -2.2760    -1.4620    -2.3290 H     1 <1>   0.0800 
 30 H       -0.4200     3.0830    -2.3190 H     1 <1>   0.1500 
 31 H       -3.9960     0.1650     0.8870 H     1 <1>   0.0800 
 32 H       -2.9590    -1.8980    -0.0440 H     1 <1>   0.0800 
 33 H       -3.8920    -2.8960    -1.1240 H     1 <1>   0.0800 
 34 H        0.0420     5.1740    -1.0690 H     1 <1>   0.1500 
 35 H       -6.8660     0.6920     0.0720 H     1 <1>   0.0800 
 36 H       -5.8830     1.6760     1.1380 H     1 <1>   0.0800 
 37 H       -2.8000     2.6160     2.6610 H     1 <1>   0.4000 
 38 H       -1.8940     3.9960     3.0720 H     1 <1>   0.4000 
 39 H       -0.9560     5.3750     1.2090 H     1 <1>   0.1500 
 40 H       -4.6760    -2.1170     1.6810 H     1 <1>   0.0800 
 41 H       -6.9690    -1.9530     2.4690 H     1 <1>   0.0800 
 42 H       -7.5280    -1.4850     0.8820 H     1 <1>   0.0800 
 43 H       -6.9180    -2.9950    -1.1880 H     1 <1>   0.1500 
 44 H       -4.7330    -4.4140     2.1880 H     1 <1>   0.1500 
 45 H       -7.4720    -5.3090    -1.7970 H     1 <1>   0.1500 
 46 H       -5.2840    -6.7200     1.5740 H     1 <1>   0.1500 
 47 H       -6.6540    -7.1750    -0.4170 H     1 <1>   0.1500 
@<TRIPOS>BOND
  1   1   2  2   
  2   2   3  am  
  3   2   4  1   
  4   3   5  1   
  5   3   6  1   
  6   4   7  ar  
  7   4   8  ar  
  8   5   9  1   
  9   5  26  1   
 10   5  27  1   
 11   6  10  1   
 12   6  28  1   
 13   6  29  1   
 14   7  11  ar  
 15   8  12  ar  
 16   8  30  1   
 17   9  13  1   
 18   9  14  1   
 19   9  31  1   
 20  10  13  1   
 21  10  32  1   
 22  10  33  1   
 23  11  15  1   
 24  11  16  ar  
 25  12  16  ar  
 26  12  34  1   
 27  13  17  1   
 28  14  18  1   
 29  14  35  1   
 30  14  36  1   
 31  15  37  1   
 32  15  38  1   
 33  16  39  1   
 34  17  19  1   
 35  17  20  1   
 36  17  40  1   
 37  18  20  1   
 38  19  21  ar  
 39  19  22  ar  
 40  20  41  1   
 41  20  42  1   
 42  21  23  ar  
 43  21  43  1   
 44  22  24  ar  
 45  22  44  1   
 46  23  25  ar  
 47  23  45  1   
 48  24  25  ar  
 49  24  46  1   
 50  25  47  1   
@<TRIPOS>SUBSTRUCTURE
  1 ****   9 GROUP 4 **** **** 0

# MOE 2024.06 (io_trps.svl 2023.06)
