@<TRIPOS>MOLECULE
NONAME
51 55 1 0 0 
SMALL
USER_CHARGES


@<TRIPOS>ATOM
  1 O       -0.4360     0.1890    -0.2920 O.2   1 <1>  -0.5700 
  2 C       -1.4760     0.8270    -0.3470 C.2   1 <1>   0.7150 
  3 N       -2.6430     0.0990    -0.4990 N.am  1 <1>  -0.6600 
  4 C       -1.4360     2.2790    -0.2450 C.2   1 <1>   0.1020 
  5 C       -4.0240     0.6470    -0.5540 C.3   1 <1>   0.1400 
  6 C       -2.6750    -1.3830    -0.5530 C.3   1 <1>   0.1400 
  7 N       -2.4260     3.1120    -0.4550 N.2   1 <1>  -0.3380 
  8 N       -0.3320     2.9860     0.0820 N.pl3 1 <1>   0.0480 
  9 C       -4.9430    -0.5750    -0.6320 C.3   1 <1>   0.2000 
 10 C       -4.1030    -1.7580    -0.1560 C.3   1 <1>  -0.0800 
 11 N       -1.9810     4.3470    -0.2770 N.2   1 <1>  -0.3380 
 12 C       -0.7370     4.2510     0.0370 C.2   1 <1>   0.0070 
 13 C        1.0570     2.5450     0.3760 C.3   1 <1>   0.0960 
 14 O       -6.0560    -0.4320     0.1820 O.3   1 <1>  -0.6800 
 15 C       -4.5780    -3.0990    -0.7390 C.3   1 <1>  -0.0170 
 16 C        0.1790     5.4260     0.3320 C.3   1 <1>   0.0200 
 17 C        1.9010     3.6880     0.9670 C.3   1 <1>  -0.1600 
 18 C       -3.7030    -4.2460    -0.2640 C.ar  1 <1>   0.1670 
 19 C        1.6570     5.0160     0.2310 C.3   1 <1>  -0.1600 
 20 N       -2.6580    -4.5340    -0.9770 N.ar  1 <1>  -0.6200 
 21 C       -4.0530    -4.9240     0.9140 C.ar  1 <1>  -0.1500 
 22 C       -1.8600    -5.5470    -0.5490 C.ar  1 <1>   0.3100 
 23 C       -3.2720    -5.9440     1.3660 C.ar  1 <1>  -0.1500 
 24 C       -2.1280    -6.2840     0.6250 C.ar  1 <1>   0.0000 
 25 C       -0.7190    -5.8750    -1.2990 C.ar  1 <1>  -0.1500 
 26 C       -1.2470    -7.3170     1.0010 C.ar  1 <1>  -0.1500 
 27 C        0.1260    -6.8830    -0.9160 C.ar  1 <1>  -0.1500 
 28 C       -0.1420    -7.6110     0.2480 C.ar  1 <1>  -0.1500 
 29 H       -4.2180     1.2230     0.3340 H     1 <1>   0.0800 
 30 H       -4.1440     1.2650    -1.4270 H     1 <1>   0.0800 
 31 H       -2.4580    -1.7030    -1.5580 H     1 <1>   0.0800 
 32 H       -1.9530    -1.8180     0.1190 H     1 <1>   0.0800 
 33 H       -5.2780    -0.7140    -1.6460 H     1 <1>   0.0800 
 34 H       -4.1280    -1.8080     0.9190 H     1 <1>   0.0800 
 35 H        1.0310     1.7200     1.0640 H     1 <1>   0.0800 
 36 H        1.4970     2.2050    -0.5450 H     1 <1>   0.0800 
 37 H       -5.7810    -0.2220     1.0960 H     1 <1>   0.4000 
 38 H       -4.5520    -3.0610    -1.8140 H     1 <1>   0.0800 
 39 H       -5.5970    -3.2770    -0.4460 H     1 <1>   0.0800 
 40 H       -0.0310     6.2280    -0.3530 H     1 <1>   0.0800 
 41 H       -0.0330     5.7750     1.3280 H     1 <1>   0.0800 
 42 H        1.6540     3.8050     2.0090 H     1 <1>   0.0800 
 43 H        2.9430     3.4240     0.9100 H     1 <1>   0.0800 
 44 H        1.9210     4.9020    -0.8070 H     1 <1>   0.0800 
 45 H        2.2750     5.7920     0.6490 H     1 <1>   0.0800 
 46 H       -4.9360    -4.6270     1.4500 H     1 <1>   0.1500 
 47 H       -3.5070    -6.4870     2.2640 H     1 <1>   0.1500 
 48 H       -0.5310    -5.3030    -2.1890 H     1 <1>   0.1500 
 49 H       -1.4580    -7.8720     1.8970 H     1 <1>   0.1500 
 50 H        0.9980    -7.1240    -1.5000 H     1 <1>   0.1500 
 51 H        0.5310    -8.4000     0.5380 H     1 <1>   0.1500 
@<TRIPOS>BOND
  1   1   2  2   
  2   2   3  am  
  3   2   4  1   
  4   3   5  1   
  5   3   6  1   
  6   4   7  2   
  7   4   8  1   
  8   5   9  1   
  9   5  29  1   
 10   5  30  1   
 11   6  10  1   
 12   6  31  1   
 13   6  32  1   
 14   7  11  1   
 15   8  12  1   
 16   8  13  1   
 17   9  10  1   
 18   9  14  1   
 19   9  33  1   
 20  10  15  1   
 21  10  34  1   
 22  11  12  2   
 23  12  16  1   
 24  13  17  1   
 25  13  35  1   
 26  13  36  1   
 27  14  37  1   
 28  15  18  1   
 29  15  38  1   
 30  15  39  1   
 31  16  19  1   
 32  16  40  1   
 33  16  41  1   
 34  17  19  1   
 35  17  42  1   
 36  17  43  1   
 37  18  20  ar  
 38  18  21  ar  
 39  19  44  1   
 40  19  45  1   
 41  20  22  ar  
 42  21  23  ar  
 43  21  46  1   
 44  22  24  ar  
 45  22  25  ar  
 46  23  24  ar  
 47  23  47  1   
 48  24  26  ar  
 49  25  27  ar  
 50  25  48  1   
 51  26  28  ar  
 52  26  49  1   
 53  27  28  ar  
 54  27  50  1   
 55  28  51  1   
@<TRIPOS>SUBSTRUCTURE
  1 ****   6 GROUP 4 **** **** 0

# MOE 2024.06 (io_trps.svl 2023.06)
