@<TRIPOS>MOLECULE
NONAME
63 67 1 0 0 
SMALL
USER_CHARGES


@<TRIPOS>ATOM
  1 O        0.9570     0.6640     0.0960 O.3   1 <1>  -0.5600 
  2 C        1.7820    -0.1320     0.9170 C.3   1 <1>   0.2000 
  3 C        0.1010     1.5490     0.7560 C.3   1 <1>   0.1200 
  4 C        3.1760     0.5150     1.1160 C.3   1 <1>   0.2090 
  5 C        1.9140    -1.5190     0.2460 C.3   1 <1>   0.3430 
  6 C        0.8480     2.8030     1.2210 C.3   1 <1>  -0.1600 
  7 N        3.1950     2.0070     1.3450 N.pl3 1 <1>  -0.8380 
  8 N        0.6580    -1.8900    -0.4760 N.4   1 <1>  -0.9590 
  9 C        2.0370     2.5210     2.1430 C.3   1 <1>   0.2090 
 10 C        4.2000     2.7920     0.8800 C.ar  1 <1>   0.4610 
 11 C       -0.4060    -2.4080     0.4310 C.3   1 <1>   0.3430 
 12 C        0.9110    -2.8000    -1.6300 C.3   1 <1>   0.3430 
 13 N        4.0430     4.1180     0.8290 N.ar  1 <1>  -0.1790 
 14 C        5.4490     2.2930     0.4220 C.ar  1 <1>  -0.1500 
 15 C       -1.7130    -2.5600    -0.3480 C.3   1 <1>  -0.1600 
 16 C       -0.3740    -2.9640    -2.4450 C.3   1 <1>  -0.1600 
 17 C        4.9810     5.0120     0.3490 C.ar  1 <1>   0.3610 
 18 C        6.4260     3.1050    -0.0680 C.ar  1 <1>  -0.1440 
 19 C       -1.5400    -3.4590    -1.5790 C.3   1 <1>  -0.1600 
 20 C        6.2120     4.5160    -0.1250 C.ar  1 <1>   0.0000 
 21 C        4.7100     6.3860     0.3290 C.ar  1 <1>  -0.1500 
 22 C        7.7490     2.5160    -0.5460 C.3   1 <1>  -0.0970 
 23 C        7.1510     5.4400    -0.6180 C.ar  1 <1>  -0.1500 
 24 C        5.6540     7.2530    -0.1590 C.ar  1 <1>  -0.1440 
 25 C        6.8620     6.7800    -0.6280 C.ar  1 <1>  -0.1440 
 26 C        5.5770     8.7570    -0.2780 C.3   1 <1>  -0.0170 
 27 C        7.7340     7.9120    -1.1160 C.3   1 <1>  -0.0170 
 28 C        6.7650     9.1030    -1.1910 C.3   1 <1>  -0.1600 
 29 H        1.3070    -0.2650     1.8740 H     1 <1>   0.0800 
 30 H       -0.3740     1.0450     1.5810 H     1 <1>   0.0800 
 31 H       -0.6650     1.8340     0.0540 H     1 <1>   0.0800 
 32 H        3.7480     0.2950     0.2310 H     1 <1>   0.0800 
 33 H        3.6680     0.0320     1.9440 H     1 <1>   0.0800 
 34 H        2.1720    -2.2690     0.9750 H     1 <1>   0.0800 
 35 H        2.7200    -1.4650    -0.4670 H     1 <1>   0.0800 
 36 H        0.1420     3.4100     1.7600 H     1 <1>   0.0800 
 37 H        1.1590     3.3680     0.3610 H     1 <1>   0.0800 
 38 H        0.3120    -0.9890    -0.8560 H     1 <1>   0.4500 
 39 H        1.7620     1.8100     2.9050 H     1 <1>   0.0800 
 40 H        2.3160     3.4250     2.6580 H     1 <1>   0.0800 
 41 H       -0.5590    -1.7270     1.2520 H     1 <1>   0.0800 
 42 H       -0.1120    -3.3660     0.8300 H     1 <1>   0.0800 
 43 H        1.2350    -3.7640    -1.2720 H     1 <1>   0.0800 
 44 H        1.6830    -2.3920    -2.2620 H     1 <1>   0.0800 
 45 H        3.1470     4.4870     1.1200 H     1 <1>   0.4570 
 46 H        5.6280     1.2370     0.4830 H     1 <1>   0.1500 
 47 H       -2.0640    -1.5880    -0.6500 H     1 <1>   0.0800 
 48 H       -2.4620    -2.9840     0.2990 H     1 <1>   0.0800 
 49 H       -0.1980    -3.6670    -3.2410 H     1 <1>   0.0800 
 50 H       -0.6290    -2.0230    -2.9000 H     1 <1>   0.0800 
 51 H       -2.4490    -3.4650    -2.1580 H     1 <1>   0.0800 
 52 H       -1.3480    -4.4710    -1.2620 H     1 <1>   0.0800 
 53 H        3.7740     6.7710     0.6890 H     1 <1>   0.1500 
 54 H        7.7670     1.4470    -0.4310 H     1 <1>   0.0800 
 55 H        8.5660     2.9260     0.0230 H     1 <1>   0.0800 
 56 H        7.9030     2.7430    -1.5870 H     1 <1>   0.0800 
 57 H        8.1030     5.1060    -0.9920 H     1 <1>   0.1500 
 58 H        5.7100     9.2040     0.6930 H     1 <1>   0.0800 
 59 H        4.6450     9.0820    -0.7060 H     1 <1>   0.0800 
 60 H        8.1710     7.6970    -2.0750 H     1 <1>   0.0800 
 61 H        8.5110     8.1030    -0.3960 H     1 <1>   0.0800 
 62 H        7.2390    10.0250    -0.9030 H     1 <1>   0.0800 
 63 H        6.4090     9.1960    -2.2030 H     1 <1>   0.0800 
@<TRIPOS>BOND
  1   1   2  1   
  2   1   3  1   
  3   2   4  1   
  4   2   5  1   
  5   2  29  1   
  6   3   6  1   
  7   3  30  1   
  8   3  31  1   
  9   4   7  1   
 10   4  32  1   
 11   4  33  1   
 12   5   8  1   
 13   5  34  1   
 14   5  35  1   
 15   6   9  1   
 16   6  36  1   
 17   6  37  1   
 18   7   9  1   
 19   7  10  1   
 20   8  11  1   
 21   8  12  1   
 22   8  38  1   
 23   9  39  1   
 24   9  40  1   
 25  10  13  ar  
 26  10  14  ar  
 27  11  15  1   
 28  11  41  1   
 29  11  42  1   
 30  12  16  1   
 31  12  43  1   
 32  12  44  1   
 33  13  17  ar  
 34  13  45  1   
 35  14  18  ar  
 36  14  46  1   
 37  15  19  1   
 38  15  47  1   
 39  15  48  1   
 40  16  19  1   
 41  16  49  1   
 42  16  50  1   
 43  17  20  ar  
 44  17  21  ar  
 45  18  20  ar  
 46  18  22  1   
 47  19  51  1   
 48  19  52  1   
 49  20  23  ar  
 50  21  24  ar  
 51  21  53  1   
 52  22  54  1   
 53  22  55  1   
 54  22  56  1   
 55  23  25  ar  
 56  23  57  1   
 57  24  25  ar  
 58  24  26  1   
 59  25  27  1   
 60  26  28  1   
 61  26  58  1   
 62  26  59  1   
 63  27  28  1   
 64  27  60  1   
 65  27  61  1   
 66  28  62  1   
 67  28  63  1   
@<TRIPOS>SUBSTRUCTURE
  1 ****  10 GROUP 4 **** **** 0

# MOE 2024.06 (io_trps.svl 2023.06)
