@<TRIPOS>MOLECULE
NONAME
42 43 1 0 0 
SMALL
USER_CHARGES


@<TRIPOS>ATOM
  1 O        0.5160    -0.4130    -1.4710 O.2   1 <1>  -0.5700 
  2 C        0.2110    -1.3130    -0.7140 C.2   1 <1>   0.5440 
  3 N       -1.0890    -1.3550    -0.3510 N.am  1 <1>  -0.8000 
  4 C        1.1930    -2.2600    -0.2230 C.ar  1 <1>   0.0860 
  5 C        0.8590    -3.5250     0.3170 C.ar  1 <1>   0.4100 
  6 C        2.5410    -1.9230    -0.2620 C.ar  1 <1>  -0.1500 
  7 N        1.7570    -4.3750     0.8150 N.ar  1 <1>  -0.6200 
  8 N       -0.4400    -4.0000     0.3490 N.pl3 1 <1>  -0.8380 
  9 C        3.4630    -2.8110     0.2390 C.ar  1 <1>  -0.1500 
 10 C        3.0200    -4.0090     0.7650 C.ar  1 <1>   0.1600 
 11 C       -0.9710    -4.6460    -0.9040 C.3   1 <1>   0.2090 
 12 C       -0.9670    -4.5640     1.6290 C.3   1 <1>   0.2090 
 13 C       -1.9200    -5.8190    -0.6060 C.3   1 <1>   0.2000 
 14 C       -2.4950    -4.5780     1.5530 C.3   1 <1>  -0.1600 
 15 O       -2.4720    -6.3190    -1.7760 O.3   1 <1>  -0.6800 
 16 C       -3.0430    -5.5200     0.4270 C.3   1 <1>  -0.1060 
 17 C       -3.4030    -6.9220     0.9600 C.2   1 <1>   0.9060 
 18 C       -4.3440    -4.8820    -0.1630 C.3   1 <1>  -0.1600 
 19 O       -3.2540    -7.2050     2.1540 O.co2 1 <1>  -0.9000 
 20 O       -3.8070    -7.7650     0.1440 O.co2 1 <1>  -0.9000 
 21 C       -4.1790    -3.6150    -1.0240 C.3   1 <1>  -0.1600 
 22 C       -5.5430    -3.0260    -1.3940 C.3   1 <1>  -0.2400 
 23 H       -1.7680    -0.7520    -0.8100 H     1 <1>   0.3700 
 24 H       -1.4320    -2.2150     0.1000 H     1 <1>   0.3700 
 25 H        2.8530    -0.9780    -0.6740 H     1 <1>   0.1500 
 26 H        4.5140    -2.5800     0.2270 H     1 <1>   0.1500 
 27 H        3.7430    -4.7000     1.1630 H     1 <1>   0.1500 
 28 H       -1.4860    -3.9050    -1.4840 H     1 <1>   0.0800 
 29 H       -0.1460    -5.0170    -1.4870 H     1 <1>   0.0800 
 30 H       -0.5900    -5.5620     1.7820 H     1 <1>   0.0800 
 31 H       -0.6440    -3.9510     2.4530 H     1 <1>   0.0800 
 32 H       -1.3030    -6.6110    -0.2140 H     1 <1>   0.0800 
 33 H       -2.8890    -4.8660     2.5100 H     1 <1>   0.0800 
 34 H       -2.8130    -3.5650     1.4040 H     1 <1>   0.0800 
 35 H       -3.0950    -7.0350    -1.4740 H     1 <1>   0.4000 
 36 H       -4.8460    -5.6190    -0.7680 H     1 <1>   0.0800 
 37 H       -5.0060    -4.6680     0.6580 H     1 <1>   0.0800 
 38 H       -3.6080    -2.8680    -0.5070 H     1 <1>   0.0800 
 39 H       -3.6610    -3.8680    -1.9330 H     1 <1>   0.0800 
 40 H       -6.0820    -2.7420    -0.5080 H     1 <1>   0.0800 
 41 H       -6.1250    -3.7510    -1.9360 H     1 <1>   0.0800 
 42 H       -5.4140    -2.1570    -2.0140 H     1 <1>   0.0800 
@<TRIPOS>BOND
  1   1   2  2   
  2   2   3  am  
  3   2   4  1   
  4   3  23  1   
  5   3  24  1   
  6   4   5  ar  
  7   4   6  ar  
  8   5   7  ar  
  9   5   8  1   
 10   6   9  ar  
 11   6  25  1   
 12   7  10  ar  
 13   8  11  1   
 14   8  12  1   
 15   9  10  ar  
 16   9  26  1   
 17  10  27  1   
 18  11  13  1   
 19  11  28  1   
 20  11  29  1   
 21  12  14  1   
 22  12  30  1   
 23  12  31  1   
 24  13  15  1   
 25  13  16  1   
 26  13  32  1   
 27  14  16  1   
 28  14  33  1   
 29  14  34  1   
 30  15  35  1   
 31  16  17  1   
 32  16  18  1   
 33  17  19  ar  
 34  17  20  ar  
 35  18  21  1   
 36  18  36  1   
 37  18  37  1   
 38  21  22  1   
 39  21  38  1   
 40  21  39  1   
 41  22  40  1   
 42  22  41  1   
 43  22  42  1   
@<TRIPOS>SUBSTRUCTURE
  1 ****   8 GROUP 4 **** **** 0

# MOE 2024.06 (io_trps.svl 2023.06)
