@<TRIPOS>MOLECULE
NONAME
48 49 1 0 0 
SMALL
USER_CHARGES


@<TRIPOS>ATOM
  1 CL      -0.2200    -0.9730     1.7070 Cl    1 <1>  -0.1770 
  2 C       -1.7800    -1.2280     0.9630 C.ar  1 <1>   0.1770 
  3 C       -2.2740    -2.5090     0.7900 C.ar  1 <1>  -0.1440 
  4 C       -2.5010    -0.1260     0.5530 C.ar  1 <1>  -0.1500 
  5 C       -3.5180    -2.6570     0.1980 C.ar  1 <1>  -0.1500 
  6 C       -1.4810    -3.7300     1.2320 C.3   1 <1>  -0.0960 
  7 C       -3.7460    -0.2870    -0.0390 C.ar  1 <1>  -0.1430 
  8 C       -4.2860    -1.5660    -0.2130 C.ar  1 <1>  -0.0090 
  9 C       -4.4910     0.9630    -0.4910 C.3   1 <1>  -0.0960 
 10 S       -5.9200    -1.8410    -0.9840 S.o2  1 <1>   1.4470 
 11 O       -5.7370    -1.8880    -2.4200 O.2   1 <1>  -0.6500 
 12 O       -6.8990    -0.9210    -0.4440 O.2   1 <1>  -0.6500 
 13 N       -6.3720    -3.3960    -0.4840 N.am  1 <1>  -0.8490 
 14 C       -7.3300    -4.0270    -1.4260 C.3   1 <1>   0.1960 
 15 C       -6.7710    -3.4880     0.9410 C.3   1 <1>   0.1960 
 16 C       -8.0560    -5.2080    -0.7700 C.3   1 <1>   0.2000 
 17 C       -8.2950    -3.5110     1.1030 C.3   1 <1>  -0.1600 
 18 O       -8.8050    -5.9290    -1.6850 O.3   1 <1>  -0.6800 
 19 C       -8.9290    -4.7740     0.4370 C.3   1 <1>  -0.1060 
 20 C       -8.8600    -6.0030     1.3590 C.2   1 <1>   0.9060 
 21 C      -10.4300    -4.4700     0.1180 C.3   1 <1>  -0.1600 
 22 O       -8.2680    -5.9380     2.4440 O.co2 1 <1>  -0.9000 
 23 O       -9.3480    -7.0650     0.9470 O.co2 1 <1>  -0.9000 
 24 C      -10.7220    -3.4300    -0.9830 C.3   1 <1>  -0.1600 
 25 C      -12.2300    -3.2280    -1.1510 C.3   1 <1>  -0.2400 
 26 H       -2.0780     0.8520     0.6990 H     1 <1>   0.1500 
 27 H       -3.9040    -3.6510     0.0500 H     1 <1>   0.1500 
 28 H       -2.0120    -4.6380     1.0120 H     1 <1>   0.0800 
 29 H       -1.3030    -3.6870     2.2920 H     1 <1>   0.0800 
 30 H       -0.5330    -3.7570     0.7230 H     1 <1>   0.0800 
 31 H       -3.8540     1.8290    -0.4530 H     1 <1>   0.0800 
 32 H       -5.3380     1.1410     0.1470 H     1 <1>   0.0800 
 33 H       -4.8350     0.8530    -1.5050 H     1 <1>   0.0800 
 34 H       -8.0580    -3.3010    -1.7410 H     1 <1>   0.0800 
 35 H       -6.7930    -4.3720    -2.2930 H     1 <1>   0.0800 
 36 H       -6.3720    -4.3990     1.3580 H     1 <1>   0.0800 
 37 H       -6.3570    -2.6690     1.5050 H     1 <1>   0.0800 
 38 H       -7.2870    -5.8840    -0.4290 H     1 <1>   0.0800 
 39 H       -8.5400    -3.4920     2.1510 H     1 <1>   0.0800 
 40 H       -8.6780    -2.6010     0.6870 H     1 <1>   0.0800 
 41 H       -9.2560    -6.6320    -1.1530 H     1 <1>   0.4000 
 42 H      -10.9130    -5.3890    -0.1670 H     1 <1>   0.0800 
 43 H      -10.9030    -4.1530     1.0310 H     1 <1>   0.0800 
 44 H      -10.2740    -2.4820    -0.7500 H     1 <1>   0.0800 
 45 H      -10.3170    -3.7700    -1.9190 H     1 <1>   0.0800 
 46 H      -12.6650    -2.8690    -0.2350 H     1 <1>   0.0800 
 47 H      -12.7020    -4.1570    -1.4190 H     1 <1>   0.0800 
 48 H      -12.4210    -2.5090    -1.9280 H     1 <1>   0.0800 
@<TRIPOS>BOND
  1   1   2  1   
  2   2   3  ar  
  3   2   4  ar  
  4   3   5  ar  
  5   3   6  1   
  6   4   7  ar  
  7   4  26  1   
  8   5   8  ar  
  9   5  27  1   
 10   6  28  1   
 11   6  29  1   
 12   6  30  1   
 13   7   8  ar  
 14   7   9  1   
 15   8  10  1   
 16   9  31  1   
 17   9  32  1   
 18   9  33  1   
 19  10  11  2   
 20  10  12  2   
 21  10  13  am  
 22  13  14  1   
 23  13  15  1   
 24  14  16  1   
 25  14  34  1   
 26  14  35  1   
 27  15  17  1   
 28  15  36  1   
 29  15  37  1   
 30  16  18  1   
 31  16  19  1   
 32  16  38  1   
 33  17  19  1   
 34  17  39  1   
 35  17  40  1   
 36  18  41  1   
 37  19  20  1   
 38  19  21  1   
 39  20  22  ar  
 40  20  23  ar  
 41  21  24  1   
 42  21  42  1   
 43  21  43  1   
 44  24  25  1   
 45  24  44  1   
 46  24  45  1   
 47  25  46  1   
 48  25  47  1   
 49  25  48  1   
@<TRIPOS>SUBSTRUCTURE
  1 ****  13 GROUP 4 **** **** 0

# MOE 2024.06 (io_trps.svl 2023.06)
