@<TRIPOS>MOLECULE
NONAME
54 56 1 0 0 
SMALL
USER_CHARGES


@<TRIPOS>ATOM
  1 O        0.5070    -0.8900    -0.6000 O.3   1 <1>  -0.5600 
  2 C        1.0150    -1.2650     0.6520 C.3   1 <1>   0.1200 
  3 C       -0.8930    -0.8910    -0.6750 C.3   1 <1>   0.1200 
  4 C        0.5110    -2.6700     1.0610 C.3   1 <1>   0.3430 
  5 C       -1.4650    -2.2940    -0.3610 C.3   1 <1>   0.3430 
  6 N       -0.3720    -3.2660    -0.0020 N.4   1 <1>  -0.9590 
  7 C       -0.8340    -4.6500     0.3550 C.3   1 <1>   0.3430 
  8 C       -1.5510    -5.3790    -0.8000 C.3   1 <1>   0.2090 
  9 N       -1.6870    -6.8370    -0.5000 N.pl3 1 <1>  -0.8380 
 10 C       -2.8710    -7.4790    -0.2550 C.ar  1 <1>   0.4100 
 11 C       -0.4520    -7.6330    -0.8190 C.3   1 <1>   0.1290 
 12 N       -2.9320    -8.7650    -0.5400 N.ar  1 <1>  -0.6200 
 13 C       -3.9890    -6.8090     0.2840 C.ar  1 <1>  -0.1500 
 14 C       -4.0660    -9.4240    -0.3410 C.ar  1 <1>   0.7710 
 15 C       -5.1400    -7.4950     0.4930 C.ar  1 <1>   0.2180 
 16 N       -5.1460    -8.8080     0.1660 N.ar  1 <1>  -0.1790 
 17 N       -4.1420   -10.7490    -0.6450 N.pl3 1 <1>  -0.8380 
 18 C       -6.4020    -6.8800     1.0720 C.3   1 <1>  -0.0970 
 19 C       -5.3580   -11.6210    -0.6040 C.3   1 <1>   0.2090 
 20 C       -2.9310   -11.5350    -1.0540 C.3   1 <1>   0.2090 
 21 C       -5.1590   -12.7090     0.4550 C.3   1 <1>  -0.1600 
 22 C       -2.6760   -12.6350    -0.0180 C.3   1 <1>  -0.1600 
 23 C       -3.9020   -13.5420     0.1680 C.3   1 <1>  -0.1600 
 24 H        0.7230    -0.5260     1.3790 H     1 <1>   0.0800 
 25 H        2.0890    -1.2610     0.5840 H     1 <1>   0.0800 
 26 H       -1.1690    -0.5910    -1.6720 H     1 <1>   0.0800 
 27 H       -1.2770    -0.1580     0.0140 H     1 <1>   0.0800 
 28 H       -0.0300    -2.5890     1.9900 H     1 <1>   0.0800 
 29 H        1.3630    -3.3070     1.2380 H     1 <1>   0.0800 
 30 H       -2.0060    -2.6470    -1.2240 H     1 <1>   0.0800 
 31 H       -2.1670    -2.2090     0.4520 H     1 <1>   0.0800 
 32 H        0.2360    -3.3000    -0.8370 H     1 <1>   0.4500 
 33 H       -1.4940    -4.6070     1.2050 H     1 <1>   0.0800 
 34 H        0.0240    -5.2410     0.6330 H     1 <1>   0.0800 
 35 H       -0.9770    -5.2730    -1.7040 H     1 <1>   0.0800 
 36 H       -2.5190    -4.9440    -0.9730 H     1 <1>   0.0800 
 37 H        0.4390    -7.0650    -0.6190 H     1 <1>   0.0800 
 38 H       -0.4620    -7.9160    -1.8580 H     1 <1>   0.0800 
 39 H       -0.4170    -8.5290    -0.2210 H     1 <1>   0.0800 
 40 H       -3.9110    -5.7710     0.5330 H     1 <1>   0.1500 
 41 H       -5.9520    -9.4000     0.3100 H     1 <1>   0.4570 
 42 H       -6.2520    -5.8360     1.2840 H     1 <1>   0.0800 
 43 H       -6.6730    -7.3720     1.9900 H     1 <1>   0.0800 
 44 H       -7.2170    -6.9660     0.3750 H     1 <1>   0.0800 
 45 H       -5.4900   -12.0850    -1.5690 H     1 <1>   0.0800 
 46 H       -6.2520   -11.0650    -0.3910 H     1 <1>   0.0800 
 47 H       -2.0510   -10.9200    -1.1360 H     1 <1>   0.0800 
 48 H       -3.1040   -11.9800    -2.0200 H     1 <1>   0.0800 
 49 H       -6.0180   -13.3580     0.4670 H     1 <1>   0.0800 
 50 H       -5.0770   -12.2540     1.4260 H     1 <1>   0.0800 
 51 H       -2.4160   -12.1750     0.9200 H     1 <1>   0.0800 
 52 H       -1.8360   -13.2290    -0.3310 H     1 <1>   0.0800 
 53 H       -4.0530   -14.1190    -0.7290 H     1 <1>   0.0800 
 54 H       -3.7250   -14.2310     0.9760 H     1 <1>   0.0800 
@<TRIPOS>BOND
  1   1   2  1   
  2   1   3  1   
  3   2   4  1   
  4   2  24  1   
  5   2  25  1   
  6   3   5  1   
  7   3  26  1   
  8   3  27  1   
  9   4   6  1   
 10   4  28  1   
 11   4  29  1   
 12   5   6  1   
 13   5  30  1   
 14   5  31  1   
 15   6   7  1   
 16   6  32  1   
 17   7   8  1   
 18   7  33  1   
 19   7  34  1   
 20   8   9  1   
 21   8  35  1   
 22   8  36  1   
 23   9  10  1   
 24   9  11  1   
 25  10  12  ar  
 26  10  13  ar  
 27  11  37  1   
 28  11  38  1   
 29  11  39  1   
 30  12  14  ar  
 31  13  15  ar  
 32  13  40  1   
 33  14  16  ar  
 34  14  17  1   
 35  15  16  ar  
 36  15  18  1   
 37  16  41  1   
 38  17  19  1   
 39  17  20  1   
 40  18  42  1   
 41  18  43  1   
 42  18  44  1   
 43  19  21  1   
 44  19  45  1   
 45  19  46  1   
 46  20  22  1   
 47  20  47  1   
 48  20  48  1   
 49  21  23  1   
 50  21  49  1   
 51  21  50  1   
 52  22  23  1   
 53  22  51  1   
 54  22  52  1   
 55  23  53  1   
 56  23  54  1   
@<TRIPOS>SUBSTRUCTURE
  1 ****  10 GROUP 4 **** **** 0

# MOE 2024.06 (io_trps.svl 2023.06)
