@<TRIPOS>MOLECULE
NONAME
44 45 1 0 0 
SMALL
USER_CHARGES


@<TRIPOS>ATOM
  1 O        0.6680     0.5180     1.6350 O.co2 1 <1>  -0.9000 
  2 C        1.1940    -0.2530     0.8170 C.2   1 <1>   0.9060 
  3 O        0.7370    -1.3480     0.4970 O.co2 1 <1>  -0.9000 
  4 C        2.4590     0.2730     0.1380 C.3   1 <1>   0.2370 
  5 N        2.5380     1.7830     0.2600 N.4   1 <1>  -0.9590 
  6 C        1.6500     2.4340    -0.7380 C.3   1 <1>   0.3430 
  7 C        3.9190     2.3150     0.3320 C.3   1 <1>   0.3430 
  8 C        1.6010     3.9350    -0.4770 C.3   1 <1>  -0.1600 
  9 C        3.8720     3.8150     0.5960 C.3   1 <1>  -0.1600 
 10 C        3.0130     4.5100    -0.4560 C.3   1 <1>   0.2890 
 11 N        2.9390     5.9430    -0.1440 N.pl3 1 <1>  -0.8690 
 12 C        3.8650     6.8690    -0.5640 C.ar  1 <1>   0.4100 
 13 N        4.8390     6.4610    -1.3560 N.ar  1 <1>  -0.6200 
 14 C        3.7760     8.1780    -0.1590 C.ar  1 <1>  -0.1500 
 15 C        5.6970     7.3980    -1.7150 C.ar  1 <1>   0.4700 
 16 C        4.7280     9.0650    -0.5970 C.ar  1 <1>   0.4100 
 17 N        5.7110     8.6730    -1.3880 N.ar  1 <1>  -0.6200 
 18 N        4.6750    10.3950    -0.2310 N.pl3 1 <1>  -0.8380 
 19 C        5.9420    11.1480    -0.0320 C.3   1 <1>   0.2090 
 20 C        3.5170    11.2020    -0.7030 C.3   1 <1>   0.1290 
 21 C        5.8270    12.0140     1.2190 C.3   1 <1>  -0.2400 
 22 H        2.4510    -0.0350    -0.8910 H     1 <1>   0.0800 
 23 H        3.2940    -0.1860     0.6340 H     1 <1>   0.0800 
 24 H        2.0410     1.9110     1.1730 H     1 <1>   0.4500 
 25 H        0.6550     2.0210    -0.6600 H     1 <1>   0.0800 
 26 H        2.0210     2.2470    -1.7320 H     1 <1>   0.0800 
 27 H        4.4280     2.1280    -0.5990 H     1 <1>   0.0800 
 28 H        4.4610     1.8230     1.1240 H     1 <1>   0.0800 
 29 H        1.1050     4.1110     0.4610 H     1 <1>   0.0800 
 30 H        1.0330     4.4070    -1.2580 H     1 <1>   0.0800 
 31 H        4.8720     4.2080     0.5550 H     1 <1>   0.0800 
 32 H        3.4780     3.9930     1.5810 H     1 <1>   0.0800 
 33 H        3.4570     4.3760    -1.4300 H     1 <1>   0.0800 
 34 H        2.3440     6.2010     0.6450 H     1 <1>   0.4000 
 35 H        2.9900     8.5100     0.4850 H     1 <1>   0.1500 
 36 H        6.4940     7.0780    -2.3640 H     1 <1>   0.1500 
 37 H        6.1460    11.7540    -0.8980 H     1 <1>   0.0800 
 38 H        6.7600    10.4590     0.0950 H     1 <1>   0.0800 
 39 H        2.7760    10.5680    -1.1580 H     1 <1>   0.0800 
 40 H        3.8430    11.9230    -1.4320 H     1 <1>   0.0800 
 41 H        3.0710    11.7170     0.1300 H     1 <1>   0.0800 
 42 H        5.0680    12.7630     1.0940 H     1 <1>   0.0800 
 43 H        6.7650    12.5050     1.4020 H     1 <1>   0.0800 
 44 H        5.5900    11.3980     2.0670 H     1 <1>   0.0800 
@<TRIPOS>BOND
  1   1   2  ar  
  2   2   3  ar  
  3   2   4  1   
  4   4   5  1   
  5   4  22  1   
  6   4  23  1   
  7   5   6  1   
  8   5   7  1   
  9   5  24  1   
 10   6   8  1   
 11   6  25  1   
 12   6  26  1   
 13   7   9  1   
 14   7  27  1   
 15   7  28  1   
 16   8  10  1   
 17   8  29  1   
 18   8  30  1   
 19   9  10  1   
 20   9  31  1   
 21   9  32  1   
 22  10  11  1   
 23  10  33  1   
 24  11  12  1   
 25  11  34  1   
 26  12  13  ar  
 27  12  14  ar  
 28  13  15  ar  
 29  14  16  ar  
 30  14  35  1   
 31  15  17  ar  
 32  15  36  1   
 33  16  17  ar  
 34  16  18  1   
 35  18  19  1   
 36  18  20  1   
 37  19  21  1   
 38  19  37  1   
 39  19  38  1   
 40  20  39  1   
 41  20  40  1   
 42  20  41  1   
 43  21  42  1   
 44  21  43  1   
 45  21  44  1   
@<TRIPOS>SUBSTRUCTURE
  1 ****  11 GROUP 4 **** **** 0

# MOE 2024.06 (io_trps.svl 2023.06)
