@<TRIPOS>MOLECULE
NONAME
34 36 1 0 0 
SMALL
USER_CHARGES


@<TRIPOS>ATOM
  1 O       -0.0050    -0.3000     0.0290 O.2   1 <1>  -0.5700 
  2 C        1.0950    -0.8150     0.0560 C.2   1 <1>   0.5440 
  3 N        2.2300    -0.0460     0.0130 N.am  1 <1>  -0.4930 
  4 C        1.1980    -2.2520     0.1100 C.ar  1 <1>   0.0860 
  5 C        2.3620     1.3680     0.0470 C.2   1 <1>   0.0630 
  6 C        0.2750    -3.0720    -0.5100 C.ar  1 <1>   0.1600 
  7 C        2.2120    -2.9130     0.7790 C.ar  1 <1>   0.1600 
  8 C        3.5370     2.1030    -0.1280 C.2   1 <1>   0.1080 
  9 C        1.4140     2.3040     0.2570 C.2   1 <1>  -0.3020 
 10 N        0.3550    -4.3860    -0.5000 N.ar  1 <1>  -0.6200 
 11 N        2.3260    -4.2220     0.8060 N.ar  1 <1>  -0.6200 
 12 N        3.3390     3.3800    -0.0330 N.2   1 <1>  -0.7070 
 13 C        4.9090     1.5250    -0.3990 C.3   1 <1>  -0.0590 
 14 N        2.0220     3.5060     0.2030 N.pl3 1 <1>   0.3140 
 15 C        1.3820    -4.8940     0.1630 C.ar  1 <1>   0.5880 
 16 C        1.3850     4.8150     0.3740 C.3   1 <1>   0.0160 
 17 C        1.4950    -6.4120     0.1830 C.3   1 <1>  -0.0680 
 18 C        0.3610    -7.2680     0.6720 C.3   1 <1>  -0.2000 
 19 C        1.6190    -7.1690     1.4750 C.3   1 <1>  -0.2000 
 20 H        3.1120    -0.5340    -0.1280 H     1 <1>   0.3700 
 21 H       -0.5540    -2.6220    -1.0330 H     1 <1>   0.1500 
 22 H        2.9530    -2.3450     1.3140 H     1 <1>   0.1500 
 23 H        0.3630     2.1780     0.4370 H     1 <1>   0.1500 
 24 H        4.8800     0.9090    -1.2780 H     1 <1>   0.0800 
 25 H        5.2330     0.9430     0.4430 H     1 <1>   0.0800 
 26 H        5.6120     2.3220    -0.5590 H     1 <1>   0.0800 
 27 H        0.4140     4.8010    -0.0830 H     1 <1>   0.0800 
 28 H        1.9960     5.5650    -0.0950 H     1 <1>   0.0800 
 29 H        1.2960     5.0260     1.4220 H     1 <1>   0.0800 
 30 H        2.0570    -6.7730    -0.6580 H     1 <1>   0.1000 
 31 H        0.1450    -8.1810     0.1440 H     1 <1>   0.1000 
 32 H       -0.5290    -6.7810     1.0330 H     1 <1>   0.1000 
 33 H        1.6030    -6.6140     2.3980 H     1 <1>   0.1000 
 34 H        2.2850    -8.0130     1.5120 H     1 <1>   0.1000 
@<TRIPOS>BOND
  1   1   2  2   
  2   2   3  am  
  3   2   4  1   
  4   3   5  1   
  5   3  20  1   
  6   4   6  ar  
  7   4   7  ar  
  8   5   8  1   
  9   5   9  2   
 10   6  10  ar  
 11   6  21  1   
 12   7  11  ar  
 13   7  22  1   
 14   8  12  2   
 15   8  13  1   
 16   9  14  1   
 17   9  23  1   
 18  10  15  ar  
 19  11  15  ar  
 20  12  14  1   
 21  13  24  1   
 22  13  25  1   
 23  13  26  1   
 24  14  16  1   
 25  15  17  1   
 26  16  27  1   
 27  16  28  1   
 28  16  29  1   
 29  17  18  1   
 30  17  19  1   
 31  17  30  1   
 32  18  19  1   
 33  18  31  1   
 34  18  32  1   
 35  19  33  1   
 36  19  34  1   
@<TRIPOS>SUBSTRUCTURE
  1 ****   2 GROUP 4 **** **** 0

# MOE 2024.06 (io_trps.svl 2023.06)
