@<TRIPOS>MOLECULE
NONAME
51 53 1 0 0 
SMALL
USER_CHARGES


@<TRIPOS>ATOM
  1 O       -0.7060     0.2250    -0.9100 O.2   1 <1>  -0.5700 
  2 C       -1.2860     0.6640     0.0590 C.2   1 <1>   0.5690 
  3 N       -2.0760    -0.1430     0.8170 N.am  1 <1>  -0.7300 
  4 C       -1.1650     2.1680     0.4700 C.3   1 <1>   0.3310 
  5 C       -2.4020    -1.5540     0.5290 C.3   1 <1>   0.2200 
  6 N       -2.4440     2.6580     1.0970 N.3   1 <1>  -0.8100 
  7 C       -0.0330     2.2660     1.5070 C.3   1 <1>  -0.2400 
  8 C       -0.8010     3.0510    -0.7400 C.3   1 <1>  -0.2400 
  9 C       -3.7260    -1.6100    -0.2100 C.3   1 <1>  -0.0800 
 10 C       -2.7250    -2.2910     1.8270 C.3   1 <1>   0.1200 
 11 C       -3.6490     2.5600     0.2270 C.3   1 <1>   0.1100 
 12 C       -2.3880     3.9460     1.8390 C.3   1 <1>   0.1100 
 13 C       -4.7280    -1.5580     0.9450 C.3   1 <1>   0.1200 
 14 C       -3.8600    -2.9000    -1.0410 C.3   1 <1>  -0.0170 
 15 O       -4.0980    -2.1390     2.0480 O.3   1 <1>  -0.5600 
 16 C       -4.2050     3.9380    -0.1790 C.3   1 <1>   0.1200 
 17 C       -3.7940     4.5110     2.1130 C.3   1 <1>   0.1200 
 18 C       -5.1660    -2.9190    -1.8200 C.ar  1 <1>  -0.1430 
 19 O       -4.5190     4.7390     0.9310 O.3   1 <1>  -0.5600 
 20 C       -5.3440    -2.1480    -2.9500 C.ar  1 <1>  -0.1500 
 21 C       -6.2370    -3.7020    -1.4410 C.ar  1 <1>  -0.1500 
 22 C       -6.5530    -2.1900    -3.6240 C.ar  1 <1>   0.1600 
 23 C       -7.4050    -3.6720    -2.1860 C.ar  1 <1>   0.1600 
 24 N       -7.5890    -2.9320    -3.2670 N.ar  1 <1>  -0.6200 
 25 H       -2.6120     0.3130     1.5630 H     1 <1>   0.3700 
 26 H       -1.5920    -2.0140    -0.0120 H     1 <1>   0.0800 
 27 H        0.8550     1.8030     1.1140 H     1 <1>   0.0800 
 28 H       -0.3090     1.7480     2.4070 H     1 <1>   0.0800 
 29 H        0.2080     3.2870     1.7370 H     1 <1>   0.0800 
 30 H        0.1440     2.7340    -1.1440 H     1 <1>   0.0800 
 31 H       -0.7100     4.0840    -0.4670 H     1 <1>   0.0800 
 32 H       -1.5310     2.9510    -1.5210 H     1 <1>   0.0800 
 33 H       -3.8440    -0.7640    -0.8640 H     1 <1>   0.0800 
 34 H       -2.1790    -1.9040     2.6680 H     1 <1>   0.0800 
 35 H       -2.5310    -3.3430     1.7210 H     1 <1>   0.0800 
 36 H       -3.4400     1.9870    -0.6590 H     1 <1>   0.0800 
 37 H       -4.4200     2.0360     0.7660 H     1 <1>   0.0800 
 38 H       -1.8890     3.7920     2.7790 H     1 <1>   0.0800 
 39 H       -1.8360     4.6830     1.2850 H     1 <1>   0.0800 
 40 H       -5.6430    -2.0850     0.7420 H     1 <1>   0.0800 
 41 H       -4.9540    -0.5380     1.2030 H     1 <1>   0.0800 
 42 H       -3.8050    -3.7640    -0.4010 H     1 <1>   0.0800 
 43 H       -3.0430    -2.9600    -1.7390 H     1 <1>   0.0800 
 44 H       -5.1020     3.8240    -0.7610 H     1 <1>   0.0800 
 45 H       -3.4790     4.4650    -0.7720 H     1 <1>   0.0800 
 46 H       -3.7280     5.4460     2.6400 H     1 <1>   0.0800 
 47 H       -4.3540     3.8170     2.7160 H     1 <1>   0.0800 
 48 H       -4.5550    -1.5150    -3.3130 H     1 <1>   0.1500 
 49 H       -6.1780    -4.3340    -0.5730 H     1 <1>   0.1500 
 50 H       -6.6750    -1.5800    -4.5030 H     1 <1>   0.1500 
 51 H       -8.2300    -4.2890    -1.8750 H     1 <1>   0.1500 
@<TRIPOS>BOND
  1   1   2  2   
  2   2   3  am  
  3   2   4  1   
  4   3   5  1   
  5   3  25  1   
  6   4   6  1   
  7   4   7  1   
  8   4   8  1   
  9   5   9  1   
 10   5  10  1   
 11   5  26  1   
 12   6  11  1   
 13   6  12  1   
 14   7  27  1   
 15   7  28  1   
 16   7  29  1   
 17   8  30  1   
 18   8  31  1   
 19   8  32  1   
 20   9  13  1   
 21   9  14  1   
 22   9  33  1   
 23  10  15  1   
 24  10  34  1   
 25  10  35  1   
 26  11  16  1   
 27  11  36  1   
 28  11  37  1   
 29  12  17  1   
 30  12  38  1   
 31  12  39  1   
 32  13  15  1   
 33  13  40  1   
 34  13  41  1   
 35  14  18  1   
 36  14  42  1   
 37  14  43  1   
 38  16  19  1   
 39  16  44  1   
 40  16  45  1   
 41  17  19  1   
 42  17  46  1   
 43  17  47  1   
 44  18  20  ar  
 45  18  21  ar  
 46  20  22  ar  
 47  20  48  1   
 48  21  23  ar  
 49  21  49  1   
 50  22  24  ar  
 51  22  50  1   
 52  23  24  ar  
 53  23  51  1   
@<TRIPOS>SUBSTRUCTURE
  1 ****   9 GROUP 4 **** **** 0

# MOE 2024.06 (io_trps.svl 2023.06)
