@<TRIPOS>MOLECULE
NONAME
57 60 1 0 0 
SMALL
USER_CHARGES


@<TRIPOS>ATOM
  1 O       -1.7710    -0.1410     1.6270 O.3   1 <1>  -0.3630 
  2 C       -2.4740     0.6640     0.7900 C.ar  1 <1>   0.0820 
  3 C       -0.7120     0.3740     2.4070 C.3   1 <1>   0.1200 
  4 C       -3.0980     0.0950    -0.2940 C.ar  1 <1>  -0.1440 
  5 C       -2.5900     2.0450     1.0220 C.ar  1 <1>  -0.1500 
  6 C        0.0540    -0.8050     3.0080 C.3   1 <1>  -0.1600 
  7 C       -3.8470     0.8780    -1.2060 C.ar  1 <1>   0.0000 
  8 C       -2.9800    -1.4010    -0.4990 C.3   1 <1>   0.4870 
  9 C       -3.3260     2.8160     0.1700 C.ar  1 <1>  -0.1500 
 10 C        1.2450    -0.3220     3.8440 C.3   1 <1>  -0.2400 
 11 C       -3.9740     2.2630    -0.9510 C.ar  1 <1>   0.0000 
 12 C       -4.4790     0.3630    -2.3650 C.ar  1 <1>  -0.1500 
 13 N       -4.2620    -2.0410    -0.0860 N.4   1 <1>  -0.9590 
 14 C       -4.7430     3.0570    -1.8230 C.ar  1 <1>  -0.1500 
 15 C       -5.2160     1.1600    -3.1970 C.ar  1 <1>  -0.1500 
 16 C       -4.4260    -1.9630     1.4030 C.3   1 <1>   0.3430 
 17 C       -4.2650    -3.4950    -0.4420 C.3   1 <1>   0.3430 
 18 C       -5.3550     2.5220    -2.9210 C.ar  1 <1>  -0.1500 
 19 C       -3.9520    -3.3170     1.9390 C.3   1 <1>   0.2000 
 20 C       -4.4640    -4.2720     0.8630 C.3   1 <1>  -0.0800 
 21 O       -2.5580    -3.3490     1.9480 O.3   1 <1>  -0.6800 
 22 C       -3.8230    -5.6720     0.8350 C.3   1 <1>  -0.0170 
 23 C       -4.3020    -6.4400    -0.3870 C.ar  1 <1>  -0.1440 
 24 C       -3.4760    -6.6760    -1.4680 C.ar  1 <1>  -0.1500 
 25 C       -5.5890    -6.9330    -0.4820 C.ar  1 <1>  -0.1500 
 26 C       -3.9700    -7.3550    -2.5700 C.ar  1 <1>   0.1600 
 27 C       -5.9830    -7.5980    -1.6310 C.ar  1 <1>   0.1600 
 28 N       -5.2070    -7.8080    -2.6800 N.ar  1 <1>  -0.6200 
 29 H       -0.0700     0.9600     1.7700 H     1 <1>   0.0800 
 30 H       -1.1250     0.9920     3.1860 H     1 <1>   0.0800 
 31 H       -2.1140     2.5030     1.8680 H     1 <1>   0.1500 
 32 H       -0.6030    -1.3770     3.6380 H     1 <1>   0.0800 
 33 H        0.4170    -1.4360     2.2160 H     1 <1>   0.0800 
 34 H       -2.1650    -1.7960     0.0860 H     1 <1>   0.0800 
 35 H       -2.7750    -1.6040    -1.5360 H     1 <1>   0.0800 
 36 H       -3.4240     3.8740     0.3440 H     1 <1>   0.1500 
 37 H        0.9120     0.3010     4.6560 H     1 <1>   0.0800 
 38 H        1.9320     0.2400     3.2350 H     1 <1>   0.0800 
 39 H        1.7710    -1.1660     4.2570 H     1 <1>   0.0800 
 40 H       -4.3810    -0.6740    -2.6210 H     1 <1>   0.1500 
 41 H       -5.0240    -1.5250    -0.5440 H     1 <1>   0.4500 
 42 H       -4.8410     4.1080    -1.6110 H     1 <1>   0.1500 
 43 H       -5.6950     0.7600    -4.0750 H     1 <1>   0.1500 
 44 H       -3.8770    -1.1480     1.8420 H     1 <1>   0.0800 
 45 H       -5.4710    -1.8430     1.6390 H     1 <1>   0.0800 
 46 H       -5.0460    -3.7290    -1.1480 H     1 <1>   0.0800 
 47 H       -3.3150    -3.7700    -0.8700 H     1 <1>   0.0800 
 48 H       -5.9400     3.1370    -3.5840 H     1 <1>   0.1500 
 49 H       -4.3190    -3.5430     2.9270 H     1 <1>   0.0800 
 50 H       -5.5240    -4.3940     1.0020 H     1 <1>   0.0800 
 51 H       -2.1890    -2.8130     2.6810 H     1 <1>   0.4000 
 52 H       -4.0860    -6.2140     1.7270 H     1 <1>   0.0800 
 53 H       -2.7490    -5.6020     0.8070 H     1 <1>   0.0800 
 54 H       -2.4530    -6.3480    -1.4680 H     1 <1>   0.1500 
 55 H       -6.2910    -6.8120     0.3230 H     1 <1>   0.1500 
 56 H       -3.3130    -7.5350    -3.4050 H     1 <1>   0.1500 
 57 H       -6.9900    -7.9780    -1.6910 H     1 <1>   0.1500 
@<TRIPOS>BOND
  1   1   2  1   
  2   1   3  1   
  3   2   4  ar  
  4   2   5  ar  
  5   3   6  1   
  6   3  29  1   
  7   3  30  1   
  8   4   7  ar  
  9   4   8  1   
 10   5   9  ar  
 11   5  31  1   
 12   6  10  1   
 13   6  32  1   
 14   6  33  1   
 15   7  11  ar  
 16   7  12  ar  
 17   8  13  1   
 18   8  34  1   
 19   8  35  1   
 20   9  11  ar  
 21   9  36  1   
 22  10  37  1   
 23  10  38  1   
 24  10  39  1   
 25  11  14  ar  
 26  12  15  ar  
 27  12  40  1   
 28  13  16  1   
 29  13  17  1   
 30  13  41  1   
 31  14  18  ar  
 32  14  42  1   
 33  15  18  ar  
 34  15  43  1   
 35  16  19  1   
 36  16  44  1   
 37  16  45  1   
 38  17  20  1   
 39  17  46  1   
 40  17  47  1   
 41  18  48  1   
 42  19  20  1   
 43  19  21  1   
 44  19  49  1   
 45  20  22  1   
 46  20  50  1   
 47  21  51  1   
 48  22  23  1   
 49  22  52  1   
 50  22  53  1   
 51  23  24  ar  
 52  23  25  ar  
 53  24  26  ar  
 54  24  54  1   
 55  25  27  ar  
 56  25  55  1   
 57  26  28  ar  
 58  26  56  1   
 59  27  28  ar  
 60  27  57  1   
@<TRIPOS>SUBSTRUCTURE
  1 ****  13 GROUP 4 **** **** 0

# MOE 2024.06 (io_trps.svl 2023.06)
