@<TRIPOS>MOLECULE
NONAME
49 53 1 0 0 
SMALL
USER_CHARGES


@<TRIPOS>ATOM
  1 O        0.2960     0.9860     0.6560 O.2   1 <1>  -0.5700 
  2 C        0.1790     2.1480     0.3640 C.2   1 <1>   0.5690 
  3 N       -0.7460     2.9220     0.9730 N.am  1 <1>  -0.7300 
  4 C        1.0610     2.7620    -0.7270 C.3   1 <1>   0.1810 
  5 C       -0.9830     4.3460     0.6330 C.3   1 <1>   0.3640 
  6 O        1.1120     4.1690    -0.6510 O.3   1 <1>  -0.5600 
  7 C       -2.4780     4.5630     0.4210 C.ar  1 <1>  -0.1440 
  8 C       -0.1630     4.7990    -0.6010 C.3   1 <1>   0.2610 
  9 C       -3.0940     5.6820     0.9650 C.ar  1 <1>  -0.1500 
 10 C       -3.2420     3.6650    -0.3150 C.ar  1 <1>  -0.1500 
 11 C       -0.0560     6.3310    -0.6160 C.2   1 <1>   0.5690 
 12 C       -4.4480     5.8980     0.7820 C.ar  1 <1>  -0.1500 
 13 C       -4.5970     3.8810    -0.4980 C.ar  1 <1>  -0.1500 
 14 O       -0.7910     6.9130    -1.3810 O.2   1 <1>  -0.5700 
 15 N        0.7950     7.0360     0.2070 N.am  1 <1>  -0.6600 
 16 C       -5.2010     4.9970     0.0510 C.ar  1 <1>  -0.1500 
 17 C        0.9360     8.5190     0.0380 C.3   1 <1>   0.3210 
 18 C        1.7470     6.4410     1.2020 C.3   1 <1>   0.1400 
 19 C        2.4010     8.9220     0.0440 C.2   1 <1>  -0.1810 
 20 C        3.1910     6.6060     0.7200 C.3   1 <1>   0.0210 
 21 C        3.0090    10.0970    -0.2290 C.2   1 <1>  -0.2370 
 22 C        3.4370     8.0520     0.3600 C.2   1 <1>   0.1080 
 23 N        4.3330     9.8850    -0.0690 N.pl3 1 <1>   0.3000 
 24 C        2.4360    11.4360    -0.6490 C.3   1 <1>  -0.0150 
 25 N        4.6010     8.6170     0.3020 N.2   1 <1>  -0.7070 
 26 C        2.4960    12.5900     0.2990 C.3   1 <1>  -0.2000 
 27 C        1.1780    11.9560    -0.0300 C.3   1 <1>  -0.2000 
 28 H       -1.3700     2.4960     1.6600 H     1 <1>   0.3700 
 29 H        0.6840     2.4850    -1.6940 H     1 <1>   0.0800 
 30 H        2.0650     2.3910    -0.6250 H     1 <1>   0.0800 
 31 H       -0.6770     4.9340     1.4800 H     1 <1>   0.0800 
 32 H       -0.6910     4.5070    -1.4920 H     1 <1>   0.0800 
 33 H       -2.5260     6.3990     1.5320 H     1 <1>   0.1500 
 34 H       -2.7920     2.7910    -0.7510 H     1 <1>   0.1500 
 35 H       -4.9170     6.7690     1.2050 H     1 <1>   0.1500 
 36 H       -5.1820     3.1800    -1.0690 H     1 <1>   0.1500 
 37 H       -6.2540     5.1660    -0.0930 H     1 <1>   0.1500 
 38 H        0.4930     8.8470    -0.8870 H     1 <1>   0.0800 
 39 H        0.4280     9.0110     0.8480 H     1 <1>   0.0800 
 40 H        1.6330     6.9600     2.1390 H     1 <1>   0.0800 
 41 H        1.5450     5.4020     1.3790 H     1 <1>   0.0800 
 42 H        3.3610     5.9900    -0.1440 H     1 <1>   0.0800 
 43 H        3.8750     6.3060     1.4920 H     1 <1>   0.0800 
 44 H        5.0710    10.5850    -0.2050 H     1 <1>   0.2700 
 45 H        2.5920    11.6430    -1.6950 H     1 <1>   0.1000 
 46 H        2.9050    12.4340     1.2820 H     1 <1>   0.1000 
 47 H        2.7090    13.5700    -0.0900 H     1 <1>   0.1000 
 48 H        0.4830    12.4910    -0.6530 H     1 <1>   0.1000 
 49 H        0.6890    11.3900     0.7430 H     1 <1>   0.1000 
@<TRIPOS>BOND
  1   1   2  2   
  2   2   3  am  
  3   2   4  1   
  4   3   5  1   
  5   3  28  1   
  6   4   6  1   
  7   4  29  1   
  8   4  30  1   
  9   5   7  1   
 10   5   8  1   
 11   5  31  1   
 12   6   8  1   
 13   7   9  ar  
 14   7  10  ar  
 15   8  11  1   
 16   8  32  1   
 17   9  12  ar  
 18   9  33  1   
 19  10  13  ar  
 20  10  34  1   
 21  11  14  2   
 22  11  15  am  
 23  12  16  ar  
 24  12  35  1   
 25  13  16  ar  
 26  13  36  1   
 27  15  17  1   
 28  15  18  1   
 29  16  37  1   
 30  17  19  1   
 31  17  38  1   
 32  17  39  1   
 33  18  20  1   
 34  18  40  1   
 35  18  41  1   
 36  19  21  2   
 37  19  22  1   
 38  20  22  1   
 39  20  42  1   
 40  20  43  1   
 41  21  23  1   
 42  21  24  1   
 43  22  25  2   
 44  23  25  1   
 45  23  44  1   
 46  24  26  1   
 47  24  27  1   
 48  24  45  1   
 49  26  27  1   
 50  26  46  1   
 51  26  47  1   
 52  27  48  1   
 53  27  49  1   
@<TRIPOS>SUBSTRUCTURE
  1 ****  11 GROUP 4 **** **** 0

# MOE 2024.06 (io_trps.svl 2023.06)
