@<TRIPOS>MOLECULE
NONAME
46 48 1 0 0 
SMALL
USER_CHARGES


@<TRIPOS>ATOM
  1 S        1.3640     1.5290    -0.8900 S.3   1 <1>  -0.3320 
  2 C        2.4780     0.1970    -0.4600 C.ar  1 <1>   0.7220 
  3 C       -0.2800     0.7150    -1.1180 C.3   1 <1>  -0.0100 
  4 N        3.7190     0.5720    -0.2630 N.ar  1 <1>  -0.6200 
  5 N        1.9300    -1.0060    -0.3910 N.ar  1 <1>  -0.6200 
  6 C        4.5490    -0.4020     0.0490 C.ar  1 <1>   0.4100 
  7 C        2.7830    -1.9510    -0.0590 C.ar  1 <1>   0.1600 
  8 N        5.8560    -0.0230     0.2060 N.pl3 1 <1>  -0.8380 
  9 C        4.1120    -1.7120     0.1990 C.ar  1 <1>  -0.1790 
 10 C        6.3240     0.1620     1.6080 C.3   1 <1>   0.2090 
 11 C        6.8740    -0.6500    -0.6700 C.3   1 <1>   0.2090 
 12 C        4.9560    -2.7980     0.5900 C.2   1 <1>   0.9790 
 13 C        6.9770     1.5360     1.8510 C.3   1 <1>   0.2090 
 14 C        7.9630     0.3500    -1.0760 C.3   1 <1>  -0.1600 
 15 O        5.6290    -2.7640     1.6370 O.co2 1 <1>  -0.9000 
 16 O        4.9920    -3.8230    -0.1100 O.co2 1 <1>  -0.9000 
 17 N        7.9140     2.0230     0.7750 N.pl3 1 <1>  -0.8380 
 18 C        8.7310     0.9790     0.0930 C.3   1 <1>   0.2090 
 19 C        7.9580     3.3270     0.4000 C.ar  1 <1>   0.1000 
 20 C        6.8760     4.0150    -0.1880 C.ar  1 <1>  -0.1430 
 21 C        9.1400     4.0460     0.6070 C.ar  1 <1>  -0.1500 
 22 C        7.0100     5.3430    -0.5090 C.ar  1 <1>   0.2110 
 23 C        5.5580     3.3110    -0.5070 C.3   1 <1>  -0.0970 
 24 C        9.2320     5.3680     0.2690 C.ar  1 <1>   0.2110 
 25 N        8.1700     6.0060    -0.2800 N.ar  1 <1>  -0.1790 
 26 H       -0.9910     1.4760    -1.3810 H     1 <1>   0.0800 
 27 H       -0.5420     0.2420    -0.1890 H     1 <1>   0.0800 
 28 H       -0.1790    -0.0120    -1.9040 H     1 <1>   0.0800 
 29 H        2.4210    -2.9640     0.0160 H     1 <1>   0.1500 
 30 H        7.0240    -0.6160     1.8600 H     1 <1>   0.0800 
 31 H        5.4920     0.0490     2.2810 H     1 <1>   0.0800 
 32 H        6.3920    -1.0270    -1.5570 H     1 <1>   0.0800 
 33 H        7.3160    -1.4920    -0.1620 H     1 <1>   0.0800 
 34 H        7.5220     1.4810     2.7770 H     1 <1>   0.0800 
 35 H        6.1950     2.2560     1.9970 H     1 <1>   0.0800 
 36 H        7.5370     1.1190    -1.6910 H     1 <1>   0.0800 
 37 H        8.6680    -0.1850    -1.6840 H     1 <1>   0.0800 
 38 H        9.6250     1.4350    -0.2940 H     1 <1>   0.0800 
 39 H        9.0280     0.2200     0.7970 H     1 <1>   0.0800 
 40 H        9.9730     3.5290     1.0500 H     1 <1>   0.1500 
 41 H        6.1910     5.8840    -0.9570 H     1 <1>   0.1500 
 42 H        5.7460     2.3770    -1.0010 H     1 <1>   0.0800 
 43 H        4.9340     3.8990    -1.1540 H     1 <1>   0.0800 
 44 H        5.0030     3.1040     0.3890 H     1 <1>   0.0800 
 45 H       10.1440     5.9200     0.4350 H     1 <1>   0.1500 
 46 H        8.2430     6.9970    -0.5300 H     1 <1>   0.4570 
@<TRIPOS>BOND
  1   1   2  1   
  2   1   3  1   
  3   2   4  ar  
  4   2   5  ar  
  5   3  26  1   
  6   3  27  1   
  7   3  28  1   
  8   4   6  ar  
  9   5   7  ar  
 10   6   8  1   
 11   6   9  ar  
 12   7   9  ar  
 13   7  29  1   
 14   8  10  1   
 15   8  11  1   
 16   9  12  1   
 17  10  13  1   
 18  10  30  1   
 19  10  31  1   
 20  11  14  1   
 21  11  32  1   
 22  11  33  1   
 23  12  15  ar  
 24  12  16  ar  
 25  13  17  1   
 26  13  34  1   
 27  13  35  1   
 28  14  18  1   
 29  14  36  1   
 30  14  37  1   
 31  17  18  1   
 32  17  19  1   
 33  18  38  1   
 34  18  39  1   
 35  19  20  ar  
 36  19  21  ar  
 37  20  22  ar  
 38  20  23  1   
 39  21  24  ar  
 40  21  40  1   
 41  22  25  ar  
 42  22  41  1   
 43  23  42  1   
 44  23  43  1   
 45  23  44  1   
 46  24  25  ar  
 47  24  45  1   
 48  25  46  1   
@<TRIPOS>SUBSTRUCTURE
  1 ****   8 GROUP 4 **** **** 0

# MOE 2024.06 (io_trps.svl 2023.06)
