@<TRIPOS>MOLECULE
NONAME
48 51 1 0 0 
SMALL
USER_CHARGES


@<TRIPOS>ATOM
  1 F        0.7410     0.0590    -0.2730 F     1 <1>  -0.1370 
  2 C        2.0000    -0.2680    -0.1370 C.2   1 <1>  -0.0150 
  3 N        2.3600    -1.5110     0.1860 N.pl3 1 <1>   0.3340 
  4 C        3.0910     0.5350    -0.2780 C.2   1 <1>   0.1410 
  5 C        3.7340    -1.4250     0.2430 C.2   1 <1>   0.1410 
  6 C        1.6910    -2.7020     0.4450 C.2   1 <1>  -0.1810 
  7 N        4.1990    -0.2230    -0.0290 N.2   1 <1>  -0.5650 
  8 C        3.1190     1.9400    -0.6550 C.2   1 <1>   0.7160 
  9 C        4.4640    -2.5950     0.5770 C.2   1 <1>  -0.1050 
 10 C        2.3910    -3.8220     0.7650 C.2   1 <1>  -0.1380 
 11 O        2.2820     2.3820    -1.4210 O.2   1 <1>  -0.5700 
 12 N        4.1060     2.8100    -0.2220 N.am  1 <1>  -0.6600 
 13 C        3.8120    -3.7640     0.8320 C.2   1 <1>  -0.1500 
 14 C        1.7100    -5.1470     1.0560 C.3   1 <1>  -0.1020 
 15 C        4.9340     2.5330     1.0140 C.3   1 <1>   0.2200 
 16 C        4.4110     4.0260    -1.0400 C.3   1 <1>   0.1400 
 17 C        5.0550     3.7670     1.9240 C.3   1 <1>   0.1200 
 18 C        6.3260     1.9620     0.6510 C.3   1 <1>   0.3430 
 19 C        5.8260     4.6070    -0.8500 C.3   1 <1>  -0.0800 
 20 O        6.1340     4.5700     1.5540 O.3   1 <1>  -0.5600 
 21 N        6.6690     2.1900    -0.7930 N.4   1 <1>  -0.9590 
 22 C        5.9490     5.4010     0.4590 C.3   1 <1>   0.1200 
 23 C        7.0020     3.6250    -1.0560 C.3   1 <1>   0.3430 
 24 C        7.8680     1.3220    -1.1430 C.3   1 <1>   0.2370 
 25 C        9.1400     1.6470    -0.3560 C.2   1 <1>   0.9060 
 26 O        9.3160     1.0760     0.7230 O.co2 1 <1>  -0.9000 
 27 O        9.8600     2.5560    -0.7810 O.co2 1 <1>  -0.9000 
 28 H        0.6190    -2.6690     0.3740 H     1 <1>   0.1500 
 29 H        5.5360    -2.5190     0.6190 H     1 <1>   0.1500 
 30 H        4.3510    -4.6600     1.0860 H     1 <1>   0.1500 
 31 H        1.9460    -5.4720     2.0540 H     1 <1>   0.0800 
 32 H        2.0430    -5.8940     0.3580 H     1 <1>   0.0800 
 33 H        0.6410    -5.0530     0.9720 H     1 <1>   0.0800 
 34 H        4.4250     1.7940     1.6050 H     1 <1>   0.0800 
 35 H        4.2850     3.7760    -2.0810 H     1 <1>   0.0800 
 36 H        3.6790     4.7820    -0.8110 H     1 <1>   0.0800 
 37 H        5.2580     3.4380     2.9280 H     1 <1>   0.0800 
 38 H        4.1490     4.3470     1.9340 H     1 <1>   0.0800 
 39 H        6.3170     0.9030     0.8460 H     1 <1>   0.0800 
 40 H        7.0850     2.3920     1.2870 H     1 <1>   0.0800 
 41 H        5.9360     5.3500    -1.6190 H     1 <1>   0.0800 
 42 H        5.8420     1.9120    -1.3340 H     1 <1>   0.4500 
 43 H        5.0840     6.0200     0.6340 H     1 <1>   0.0800 
 44 H        6.8140     6.0410     0.4120 H     1 <1>   0.0800 
 45 H        7.8270     3.9230    -0.4260 H     1 <1>   0.0800 
 46 H        7.3420     3.7100    -2.0750 H     1 <1>   0.0800 
 47 H        7.6350     0.2900    -0.9550 H     1 <1>   0.0800 
 48 H        8.1050     1.4320    -2.1850 H     1 <1>   0.0800 
@<TRIPOS>BOND
  1   1   2  1   
  2   2   3  1   
  3   2   4  2   
  4   3   5  1   
  5   3   6  1   
  6   4   7  1   
  7   4   8  1   
  8   5   7  2   
  9   5   9  1   
 10   6  10  2   
 11   6  28  1   
 12   8  11  2   
 13   8  12  am  
 14   9  13  2   
 15   9  29  1   
 16  10  13  1   
 17  10  14  1   
 18  12  15  1   
 19  12  16  1   
 20  13  30  1   
 21  14  31  1   
 22  14  32  1   
 23  14  33  1   
 24  15  17  1   
 25  15  18  1   
 26  15  34  1   
 27  16  19  1   
 28  16  35  1   
 29  16  36  1   
 30  17  20  1   
 31  17  37  1   
 32  17  38  1   
 33  18  21  1   
 34  18  39  1   
 35  18  40  1   
 36  19  22  1   
 37  19  23  1   
 38  19  41  1   
 39  20  22  1   
 40  21  23  1   
 41  21  24  1   
 42  21  42  1   
 43  22  43  1   
 44  22  44  1   
 45  23  45  1   
 46  23  46  1   
 47  24  25  1   
 48  24  47  1   
 49  24  48  1   
 50  25  26  ar  
 51  25  27  ar  
@<TRIPOS>SUBSTRUCTURE
  1 ****   7 GROUP 4 **** **** 0

# MOE 2024.06 (io_trps.svl 2023.06)
