@<TRIPOS>MOLECULE
NONAME
62 65 1 0 0 
SMALL
USER_CHARGES


@<TRIPOS>ATOM
  1 O       -4.0500     0.6700    -1.2910 O.2   1 <1>  -0.5700 
  2 C       -2.9990     1.0710    -0.8480 C.2   1 <1>   0.5690 
  3 N       -2.7110     1.0040     0.4870 N.am  1 <1>  -0.6600 
  4 C       -2.0210     1.6970    -1.8280 C.3   1 <1>  -0.0990 
  5 C       -1.4540     1.5470     1.0720 C.3   1 <1>   0.1400 
  6 C       -3.5420     0.1890     1.4220 C.3   1 <1>   0.1400 
  7 C       -1.8400     3.2090    -1.6160 C.3   1 <1>  -0.1600 
  8 C       -1.3880     3.0720     0.9280 C.3   1 <1>  -0.1600 
  9 C       -4.3860     1.0730     2.3490 C.3   1 <1>  -0.0990 
 10 C       -0.9040     3.5510    -0.4490 C.3   1 <1>  -0.1600 
 11 C       -5.8100     1.2370     1.8620 C.2   1 <1>   0.5690 
 12 O       -6.5420     0.2740     1.8750 O.2   1 <1>  -0.5700 
 13 N       -6.2910     2.4360     1.4170 N.am  1 <1>  -0.6600 
 14 C       -7.7400     2.7880     1.6130 C.3   1 <1>   0.1400 
 15 C       -5.5630     3.2380     0.3970 C.3   1 <1>   0.1400 
 16 C       -8.6310     2.4060     0.4030 C.3   1 <1>   0.4230 
 17 C       -6.1600     3.0930    -1.0250 C.3   1 <1>  -0.0800 
 18 N       -7.9460     1.3280    -0.4020 N.4   1 <1>  -0.9590 
 19 C       -9.0500     3.6380    -0.4270 C.3   1 <1>   0.1200 
 20 C       -7.0080     4.3010    -1.4510 C.3   1 <1>   0.1200 
 21 C       -6.8810     1.7690    -1.3570 C.3   1 <1>   0.3430 
 22 C       -8.8370     0.3050    -1.0100 C.3   1 <1>   0.4860 
 23 O       -8.0190     4.5740    -0.5400 O.3   1 <1>  -0.5600 
 24 C       -9.8740    -0.1580    -0.0090 C.ar  1 <1>  -0.1440 
 25 C      -11.2030     0.2000    -0.1790 C.ar  1 <1>   0.1600 
 26 C       -9.5250    -0.9220     1.0880 C.ar  1 <1>  -0.1500 
 27 N      -12.1790    -0.1110     0.6520 N.ar  1 <1>  -0.6200 
 28 C      -10.5370    -1.2660     1.9580 C.ar  1 <1>  -0.1500 
 29 C      -11.8280    -0.8400     1.7000 C.ar  1 <1>   0.1600 
 30 H       -1.0760     1.1890    -1.7670 H     1 <1>   0.0800 
 31 H       -2.4020     1.5350    -2.8200 H     1 <1>   0.0800 
 32 H       -1.4130     1.3020     2.1200 H     1 <1>   0.0800 
 33 H       -0.6010     1.0870     0.6010 H     1 <1>   0.0800 
 34 H       -4.1790    -0.4840     0.8720 H     1 <1>   0.0800 
 35 H       -2.8860    -0.4220     2.0170 H     1 <1>   0.0800 
 36 H       -1.4160     3.6270    -2.5130 H     1 <1>   0.0800 
 37 H       -2.7980     3.6750    -1.4670 H     1 <1>   0.0800 
 38 H       -2.3400     3.5090     1.1690 H     1 <1>   0.0800 
 39 H       -0.6830     3.4340     1.6570 H     1 <1>   0.0800 
 40 H       -3.9230     2.0280     2.5090 H     1 <1>   0.0800 
 41 H       -4.4470     0.5850     3.3040 H     1 <1>   0.0800 
 42 H       -0.7900     4.6210    -0.4130 H     1 <1>   0.0800 
 43 H        0.0710     3.1390    -0.6460 H     1 <1>   0.0800 
 44 H       -8.1080     2.2580     2.4750 H     1 <1>   0.0800 
 45 H       -7.8320     3.8370     1.8380 H     1 <1>   0.0800 
 46 H       -5.5640     4.2730     0.6960 H     1 <1>   0.0800 
 47 H       -4.5370     2.9220     0.3710 H     1 <1>   0.0800 
 48 H       -9.5390     2.0020     0.8170 H     1 <1>   0.0800 
 49 H       -5.3170     3.1200    -1.6920 H     1 <1>   0.0800 
 50 H       -7.4190     0.8300     0.3470 H     1 <1>   0.4500 
 51 H       -9.8500     4.1400     0.0910 H     1 <1>   0.0800 
 52 H       -9.4060     3.3660    -1.4050 H     1 <1>   0.0800 
 53 H       -7.4450     4.1610    -2.4260 H     1 <1>   0.0800 
 54 H       -6.3860     5.1800    -1.4910 H     1 <1>   0.0800 
 55 H       -6.1530     0.9810    -1.4210 H     1 <1>   0.0800 
 56 H       -7.3120     1.8720    -2.3390 H     1 <1>   0.0800 
 57 H       -9.3300     0.7180    -1.8740 H     1 <1>   0.0800 
 58 H       -8.2500    -0.5420    -1.3300 H     1 <1>   0.0800 
 59 H      -11.4900     0.7810    -1.0400 H     1 <1>   0.1500 
 60 H       -8.5130    -1.2440     1.2750 H     1 <1>   0.1500 
 61 H      -10.3300    -1.8600     2.8310 H     1 <1>   0.1500 
 62 H      -12.6120    -1.1140     2.3880 H     1 <1>   0.1500 
@<TRIPOS>BOND
  1   1   2  2   
  2   2   3  am  
  3   2   4  1   
  4   3   5  1   
  5   3   6  1   
  6   4   7  1   
  7   4  30  1   
  8   4  31  1   
  9   5   8  1   
 10   5  32  1   
 11   5  33  1   
 12   6   9  1   
 13   6  34  1   
 14   6  35  1   
 15   7  10  1   
 16   7  36  1   
 17   7  37  1   
 18   8  10  1   
 19   8  38  1   
 20   8  39  1   
 21   9  11  1   
 22   9  40  1   
 23   9  41  1   
 24  10  42  1   
 25  10  43  1   
 26  11  12  2   
 27  11  13  am  
 28  13  14  1   
 29  13  15  1   
 30  14  16  1   
 31  14  44  1   
 32  14  45  1   
 33  15  17  1   
 34  15  46  1   
 35  15  47  1   
 36  16  18  1   
 37  16  19  1   
 38  16  48  1   
 39  17  20  1   
 40  17  21  1   
 41  17  49  1   
 42  18  21  1   
 43  18  22  1   
 44  18  50  1   
 45  19  23  1   
 46  19  51  1   
 47  19  52  1   
 48  20  23  1   
 49  20  53  1   
 50  20  54  1   
 51  21  55  1   
 52  21  56  1   
 53  22  24  1   
 54  22  57  1   
 55  22  58  1   
 56  24  25  ar  
 57  24  26  ar  
 58  25  27  ar  
 59  25  59  1   
 60  26  28  ar  
 61  26  60  1   
 62  27  29  ar  
 63  28  29  ar  
 64  28  61  1   
 65  29  62  1   
@<TRIPOS>SUBSTRUCTURE
  1 ****  13 GROUP 4 **** **** 0

# MOE 2024.06 (io_trps.svl 2023.06)
