@<TRIPOS>MOLECULE
NONAME
57 59 1 0 0 
SMALL
USER_CHARGES


@<TRIPOS>ATOM
  1 O       -0.0960     2.6220    -2.1700 O.2   1 <1>  -0.5700 
  2 C       -0.6060     3.5880    -1.6490 C.2   1 <1>   0.5690 
  3 N       -1.4490     3.5010    -0.5720 N.am  1 <1>  -0.5090 
  4 C       -0.2600     4.9610    -2.2320 C.3   1 <1>   0.1810 
  5 C       -2.2090     4.6900    -0.0930 C.3   1 <1>   0.3640 
  6 C       -1.8100     2.2190     0.0720 C.3   1 <1>   0.0490 
  7 O       -1.1740     5.9880    -1.9000 O.3   1 <1>  -0.5600 
  8 C       -3.6650     4.5940    -0.5570 C.ar  1 <1>  -0.1440 
  9 C       -1.5670     6.0280    -0.5330 C.3   1 <1>   0.2610 
 10 C       -1.5330     2.0600     1.5350 C.3   1 <1>  -0.2000 
 11 C       -0.7310     1.2920     0.5350 C.3   1 <1>  -0.2000 
 12 C       -3.9960     4.4860    -1.9020 C.ar  1 <1>  -0.1500 
 13 C       -4.6860     4.6130     0.3840 C.ar  1 <1>  -0.1500 
 14 C       -0.4140     6.4560     0.3880 C.2   1 <1>   0.5690 
 15 C       -5.3190     4.4030    -2.2950 C.ar  1 <1>  -0.1500 
 16 C       -6.0120     4.5300    -0.0070 C.ar  1 <1>  -0.1500 
 17 O       -0.4230     6.1120     1.5470 O.2   1 <1>  -0.5700 
 18 N        0.5710     7.2380    -0.1360 N.am  1 <1>  -0.7300 
 19 C       -6.3360     4.4240    -1.3560 C.ar  1 <1>   0.0830 
 20 C        1.7880     7.7800     0.4850 C.3   1 <1>   0.3000 
 21 O       -7.6050     4.3380    -1.8250 O.3   1 <1>  -0.3620 
 22 C        2.5210     8.5970    -0.6040 C.3   1 <1>  -0.1600 
 23 C        2.6610     6.5920     0.9560 C.3   1 <1>  -0.1600 
 24 C        1.3790     8.6820     1.6570 C.3   1 <1>  -0.2400 
 25 C       -8.7120     4.3320    -0.9510 C.3   1 <1>   0.0400 
 26 C        1.6980     9.7000    -1.3000 C.3   1 <1>  -0.2400 
 27 C        4.0290     6.9590     1.5590 C.3   1 <1>  -0.2400 
 28 H       -0.2350     4.8870    -3.3040 H     1 <1>   0.0800 
 29 H        0.7180     5.2450    -1.8920 H     1 <1>   0.0800 
 30 H       -2.2210     4.6630     0.9810 H     1 <1>   0.0800 
 31 H       -2.7110     1.7900    -0.3360 H     1 <1>   0.1000 
 32 H       -2.3160     6.7940    -0.4540 H     1 <1>   0.0800 
 33 H       -1.0370     2.8490     2.0740 H     1 <1>   0.1000 
 34 H       -2.2350     1.5180     2.1430 H     1 <1>   0.1000 
 35 H       -0.8940     0.2330     0.4430 H     1 <1>   0.1000 
 36 H        0.2930     1.5690     0.3550 H     1 <1>   0.1000 
 37 H       -3.2260     4.4650    -2.6540 H     1 <1>   0.1500 
 38 H       -4.4570     4.6910     1.4330 H     1 <1>   0.1500 
 39 H       -5.5720     4.3190    -3.3370 H     1 <1>   0.1500 
 40 H       -6.7740     4.5480     0.7480 H     1 <1>   0.1500 
 41 H        0.4650     7.5160    -1.1140 H     1 <1>   0.3700 
 42 H        3.3800     9.0690    -0.1610 H     1 <1>   0.0800 
 43 H        2.8920     7.9200    -1.3540 H     1 <1>   0.0800 
 44 H        2.1210     6.0370     1.7030 H     1 <1>   0.0800 
 45 H        2.8270     5.9310     0.1240 H     1 <1>   0.0800 
 46 H        2.2260     9.2340     2.0200 H     1 <1>   0.0800 
 47 H        0.9960     8.0920     2.4700 H     1 <1>   0.0800 
 48 H        0.6220     9.3820     1.3560 H     1 <1>   0.0800 
 49 H       -9.6050     4.2500    -1.5450 H     1 <1>   0.0800 
 50 H       -8.7250     5.2550    -0.3980 H     1 <1>   0.0800 
 51 H       -8.6320     3.4860    -0.2920 H     1 <1>   0.0800 
 52 H        1.3580    10.4310    -0.5890 H     1 <1>   0.0800 
 53 H        0.8460     9.2940    -1.8150 H     1 <1>   0.0800 
 54 H        2.3130    10.2050    -2.0240 H     1 <1>   0.0800 
 55 H        3.9140     7.6120     2.4050 H     1 <1>   0.0800 
 56 H        4.6620     7.4340     0.8310 H     1 <1>   0.0800 
 57 H        4.5250     6.0650     1.8940 H     1 <1>   0.0800 
@<TRIPOS>BOND
  1   1   2  2   
  2   2   3  am  
  3   2   4  1   
  4   3   5  1   
  5   3   6  1   
  6   4   7  1   
  7   4  28  1   
  8   4  29  1   
  9   5   8  1   
 10   5   9  1   
 11   5  30  1   
 12   6  10  1   
 13   6  11  1   
 14   6  31  1   
 15   7   9  1   
 16   8  12  ar  
 17   8  13  ar  
 18   9  14  1   
 19   9  32  1   
 20  10  11  1   
 21  10  33  1   
 22  10  34  1   
 23  11  35  1   
 24  11  36  1   
 25  12  15  ar  
 26  12  37  1   
 27  13  16  ar  
 28  13  38  1   
 29  14  17  2   
 30  14  18  am  
 31  15  19  ar  
 32  15  39  1   
 33  16  19  ar  
 34  16  40  1   
 35  18  20  1   
 36  18  41  1   
 37  19  21  1   
 38  20  22  1   
 39  20  23  1   
 40  20  24  1   
 41  21  25  1   
 42  22  26  1   
 43  22  42  1   
 44  22  43  1   
 45  23  27  1   
 46  23  44  1   
 47  23  45  1   
 48  24  46  1   
 49  24  47  1   
 50  24  48  1   
 51  25  49  1   
 52  25  50  1   
 53  25  51  1   
 54  26  52  1   
 55  26  53  1   
 56  26  54  1   
 57  27  55  1   
 58  27  56  1   
 59  27  57  1   
@<TRIPOS>SUBSTRUCTURE
  1 ****   9 GROUP 4 **** **** 0

# MOE 2024.06 (io_trps.svl 2023.06)
