@<TRIPOS>MOLECULE
NONAME
40 40 1 0 0 
SMALL
USER_CHARGES


@<TRIPOS>ATOM
  1 O        0.0410     0.8260    -0.6930 O.3   1 <1>  -0.5600 
  2 C        0.1470     2.1760    -0.3650 C.3   1 <1>   0.1200 
  3 C       -1.0660     0.5210    -1.4770 C.3   1 <1>   0.0400 
  4 C        1.4220     2.3820     0.4540 C.3   1 <1>   0.2090 
  5 N        1.5780     3.8250     0.8360 N.pl3 1 <1>  -0.8380 
  6 C        2.6460     4.5530     0.4200 C.ar  1 <1>   0.4100 
  7 C        0.7560     4.2450     2.0070 C.3   1 <1>   0.1290 
  8 N        3.8130     3.9450     0.4760 N.ar  1 <1>  -0.6200 
  9 C        2.5150     5.8930    -0.0340 C.ar  1 <1>  -0.1440 
 10 C        4.8960     4.6220     0.1420 C.ar  1 <1>   0.7710 
 11 C        3.6550     6.5760    -0.3360 C.ar  1 <1>   0.2180 
 12 C        1.1200     6.5090    -0.1990 C.3   1 <1>  -0.0960 
 13 N        4.8270     5.9070    -0.2340 N.ar  1 <1>  -0.1790 
 14 N        6.1130     4.0100     0.1840 N.pl3 1 <1>  -0.8380 
 15 C        3.7400     8.0280    -0.7910 C.3   1 <1>  -0.0970 
 16 C        7.4060     4.5310    -0.3640 C.3   1 <1>   0.1290 
 17 C        6.2570     2.6260     0.7490 C.3   1 <1>   0.1290 
 18 H       -0.7180     2.4570     0.2090 H     1 <1>   0.0800 
 19 H        0.2000     2.7490    -1.2740 H     1 <1>   0.0800 
 20 H       -1.0570    -0.5380    -1.6700 H     1 <1>   0.0800 
 21 H       -1.0020     1.0580    -2.4080 H     1 <1>   0.0800 
 22 H       -1.9630     0.7850    -0.9450 H     1 <1>   0.0800 
 23 H        2.2590     2.0630    -0.1420 H     1 <1>   0.0800 
 24 H        1.3860     1.7740     1.3410 H     1 <1>   0.0800 
 25 H       -0.2730     4.3610     1.7130 H     1 <1>   0.0800 
 26 H        1.1160     5.1790     2.4030 H     1 <1>   0.0800 
 27 H        0.8180     3.5030     2.7850 H     1 <1>   0.0800 
 28 H        0.4080     5.7550    -0.4870 H     1 <1>   0.0800 
 29 H        1.0990     7.2580    -0.9680 H     1 <1>   0.0800 
 30 H        0.7940     6.9490     0.7270 H     1 <1>   0.0800 
 31 H        5.7180     6.3420    -0.4260 H     1 <1>   0.4570 
 32 H        2.8430     8.5710    -0.5550 H     1 <1>   0.0800 
 33 H        3.8960     8.0750    -1.8540 H     1 <1>   0.0800 
 34 H        4.5520     8.5320    -0.2970 H     1 <1>   0.0800 
 35 H        7.2520     5.3330    -1.0630 H     1 <1>   0.0800 
 36 H        7.9220     3.7400    -0.8840 H     1 <1>   0.0800 
 37 H        8.0330     4.8720     0.4430 H     1 <1>   0.0800 
 38 H        5.4820     2.4110     1.4660 H     1 <1>   0.0800 
 39 H        7.2040     2.5230     1.2500 H     1 <1>   0.0800 
 40 H        6.2000     1.9010    -0.0450 H     1 <1>   0.0800 
@<TRIPOS>BOND
  1   1   2  1   
  2   1   3  1   
  3   2   4  1   
  4   2  18  1   
  5   2  19  1   
  6   3  20  1   
  7   3  21  1   
  8   3  22  1   
  9   4   5  1   
 10   4  23  1   
 11   4  24  1   
 12   5   6  1   
 13   5   7  1   
 14   6   8  ar  
 15   6   9  ar  
 16   7  25  1   
 17   7  26  1   
 18   7  27  1   
 19   8  10  ar  
 20   9  11  ar  
 21   9  12  1   
 22  10  13  ar  
 23  10  14  1   
 24  11  13  ar  
 25  11  15  1   
 26  12  28  1   
 27  12  29  1   
 28  12  30  1   
 29  13  31  1   
 30  14  16  1   
 31  14  17  1   
 32  15  32  1   
 33  15  33  1   
 34  15  34  1   
 35  16  35  1   
 36  16  36  1   
 37  16  37  1   
 38  17  38  1   
 39  17  39  1   
 40  17  40  1   
@<TRIPOS>SUBSTRUCTURE
  1 ****   6 GROUP 4 **** **** 0

# MOE 2024.06 (io_trps.svl 2023.06)
