@<TRIPOS>MOLECULE
NONAME
50 53 1 0 0 
SMALL
USER_CHARGES


@<TRIPOS>ATOM
  1 O        0.1470     0.7030    -0.5830 O.2   1 <1>  -0.5700 
  2 C       -0.4890     1.6060    -0.0930 C.2   1 <1>   0.5690 
  3 N       -1.8620     1.5860    -0.0640 N.am  1 <1>  -0.6600 
  4 C        0.2670     2.7900     0.4940 C.3   1 <1>  -0.0990 
  5 C       -2.7340     2.6560     0.5220 C.3   1 <1>   0.1400 
  6 C       -2.6330     0.4530    -0.6520 C.3   1 <1>   0.1400 
  7 C        1.7930     2.6930     0.3570 C.3   1 <1>  -0.0160 
  8 C       -3.6890     3.2330    -0.5410 C.3   1 <1>   0.1440 
  9 C       -3.5980     0.9770    -1.7240 C.3   1 <1>  -0.1600 
 10 C        2.4450     3.9470     0.9170 C.ar  1 <1>  -0.1440 
 11 C       -4.5630     4.2800     0.1230 C.ar  1 <1>   0.1660 
 12 C       -4.5100     2.0910    -1.1780 C.3   1 <1>  -0.1600 
 13 C       -2.9270     4.0660    -1.6080 C.3   1 <1>  -0.1600 
 14 C        2.7170     4.0480     2.2720 C.ar  1 <1>  -0.1500 
 15 C        2.7640     5.0040     0.0790 C.ar  1 <1>  -0.1500 
 16 N       -5.5530     4.0340     0.9530 N.ar  1 <1>  -0.6200 
 17 C       -4.1890     5.5430    -0.2280 C.ar  1 <1>  -0.1440 
 18 C       -3.0150     5.5400    -1.1750 C.3   1 <1>  -0.0170 
 19 C        3.3010     5.1930     2.7850 C.ar  1 <1>  -0.1500 
 20 C        3.3490     6.1500     0.5900 C.ar  1 <1>  -0.1500 
 21 C       -6.1670     5.1170     1.4100 C.ar  1 <1>   0.4770 
 22 C       -4.8940     6.5920     0.3070 C.ar  1 <1>   0.1600 
 23 C        3.6160     6.2460     1.9440 C.ar  1 <1>  -0.1500 
 24 N       -5.8970     6.3860     1.1350 N.ar  1 <1>  -0.6200 
 25 C       -7.3190     4.8800     2.3560 C.3   1 <1>  -0.0970 
 26 H        0.0200     2.8690     1.5360 H     1 <1>   0.0800 
 27 H       -0.0610     3.6830    -0.0020 H     1 <1>   0.0800 
 28 H       -2.1530     3.4520     0.9480 H     1 <1>   0.0800 
 29 H       -3.3180     2.2250     1.3170 H     1 <1>   0.0800 
 30 H       -3.1870    -0.0340     0.1320 H     1 <1>   0.0800 
 31 H       -1.9710    -0.2740    -1.0900 H     1 <1>   0.0800 
 32 H        2.0600     2.5750    -0.6790 H     1 <1>   0.0800 
 33 H        2.1530     1.8270     0.8850 H     1 <1>   0.0800 
 34 H       -4.2030     0.1610    -2.0800 H     1 <1>   0.0800 
 35 H       -3.0240     1.3410    -2.5570 H     1 <1>   0.0800 
 36 H       -5.1380     2.4760    -1.9610 H     1 <1>   0.0800 
 37 H       -5.1570     1.6690    -0.4270 H     1 <1>   0.0800 
 38 H       -3.4270     3.9710    -2.5560 H     1 <1>   0.0800 
 39 H       -1.9090     3.7470    -1.7370 H     1 <1>   0.0800 
 40 H        2.4770     3.2340     2.9330 H     1 <1>   0.1500 
 41 H        2.5610     4.9390    -0.9760 H     1 <1>   0.1500 
 42 H       -3.1790     6.1910    -2.0170 H     1 <1>   0.0800 
 43 H       -2.1240     5.8370    -0.6490 H     1 <1>   0.0800 
 44 H        3.5100     5.2650     3.8380 H     1 <1>   0.1500 
 45 H        3.5970     6.9670    -0.0650 H     1 <1>   0.1500 
 46 H       -4.6370     7.6080     0.0580 H     1 <1>   0.1500 
 47 H        4.0710     7.1360     2.3430 H     1 <1>   0.1500 
 48 H       -7.2480     3.9010     2.7940 H     1 <1>   0.0800 
 49 H       -8.2420     4.9590     1.8150 H     1 <1>   0.0800 
 50 H       -7.3040     5.6140     3.1390 H     1 <1>   0.0800 
@<TRIPOS>BOND
  1   1   2  2   
  2   2   3  am  
  3   2   4  1   
  4   3   5  1   
  5   3   6  1   
  6   4   7  1   
  7   4  26  1   
  8   4  27  1   
  9   5   8  1   
 10   5  28  1   
 11   5  29  1   
 12   6   9  1   
 13   6  30  1   
 14   6  31  1   
 15   7  10  1   
 16   7  32  1   
 17   7  33  1   
 18   8  11  1   
 19   8  12  1   
 20   8  13  1   
 21   9  12  1   
 22   9  34  1   
 23   9  35  1   
 24  10  14  ar  
 25  10  15  ar  
 26  11  16  ar  
 27  11  17  ar  
 28  12  36  1   
 29  12  37  1   
 30  13  18  1   
 31  13  38  1   
 32  13  39  1   
 33  14  19  ar  
 34  14  40  1   
 35  15  20  ar  
 36  15  41  1   
 37  16  21  ar  
 38  17  18  1   
 39  17  22  ar  
 40  18  42  1   
 41  18  43  1   
 42  19  23  ar  
 43  19  44  1   
 44  20  23  ar  
 45  20  45  1   
 46  21  24  ar  
 47  21  25  1   
 48  22  24  ar  
 49  22  46  1   
 50  23  47  1   
 51  25  48  1   
 52  25  49  1   
 53  25  50  1   
@<TRIPOS>SUBSTRUCTURE
  1 ****   5 GROUP 4 **** **** 0

# MOE 2024.06 (io_trps.svl 2023.06)
