@<TRIPOS>MOLECULE
NONAME
44 45 1 0 0 
SMALL
USER_CHARGES


@<TRIPOS>ATOM
  1 F        0.0130     0.6720     1.1390 F     1 <1>  -0.1900 
  2 C       -0.0290     1.9670     0.9900 C.ar  1 <1>   0.1900 
  3 C       -0.6250     2.5140    -0.1350 C.ar  1 <1>  -0.1440 
  4 C        0.5360     2.7410     1.9850 C.ar  1 <1>  -0.1500 
  5 C       -0.6360     3.9040    -0.2420 C.ar  1 <1>  -0.1500 
  6 C       -1.2360     1.5910    -1.1950 C.3   1 <1>   1.1640 
  7 C        0.5140     4.1180     1.8600 C.ar  1 <1>  -0.1500 
  8 C       -0.0670     4.7050     0.7430 C.ar  1 <1>  -0.1440 
  9 F       -2.2130     0.8330    -0.7180 F     1 <1>  -0.3400 
 10 F       -0.3390     0.7780    -1.7370 F     1 <1>  -0.3400 
 11 F       -1.7610     2.2760    -2.2040 F     1 <1>  -0.3400 
 12 C       -0.0810     6.2190     0.6040 C.3   1 <1>   0.4870 
 13 N        1.2870     6.6820     0.2480 N.4   1 <1>  -0.9590 
 14 C        1.3920     8.1780     0.3680 C.3   1 <1>   0.3430 
 15 C        1.6970     6.2090    -1.1080 C.3   1 <1>   0.3430 
 16 C        2.8030     8.7030     0.0510 C.3   1 <1>   0.2000 
 17 C        3.1350     6.6480    -1.3960 C.3   1 <1>  -0.1600 
 18 O        2.6980    10.0860    -0.0090 O.3   1 <1>  -0.5600 
 19 C        3.3060     8.1730    -1.3010 C.3   1 <1>  -0.1600 
 20 C        3.8870    10.7990     0.1420 C.3   1 <1>   0.1200 
 21 C        3.5410    12.2870     0.1260 C.3   1 <1>  -0.1600 
 22 C        4.7950    13.1520     0.2890 C.3   1 <1>  -0.2400 
 23 H        0.9810     2.2650     2.8430 H     1 <1>   0.1500 
 24 H       -1.0970     4.3660    -1.1010 H     1 <1>   0.1500 
 25 H        0.9470     4.7150     2.6460 H     1 <1>   0.1500 
 26 H       -0.3870     6.6560     1.5410 H     1 <1>   0.0800 
 27 H       -0.7860     6.5170    -0.1550 H     1 <1>   0.0800 
 28 H        1.9310     6.2530     0.9240 H     1 <1>   0.4500 
 29 H        1.1280     8.4880     1.3660 H     1 <1>   0.0800 
 30 H        0.7050     8.6390    -0.3230 H     1 <1>   0.0800 
 31 H        1.0410     6.6250    -1.8560 H     1 <1>   0.0800 
 32 H        1.6350     5.1340    -1.1610 H     1 <1>   0.0800 
 33 H        3.4740     8.4390     0.8510 H     1 <1>   0.0800 
 34 H        3.4050     6.3260    -2.3870 H     1 <1>   0.0800 
 35 H        3.8040     6.1570    -0.7100 H     1 <1>   0.0800 
 36 H        4.3460     8.4180    -1.4300 H     1 <1>   0.0800 
 37 H        2.7470     8.6410    -2.0940 H     1 <1>   0.0800 
 38 H        4.5500    10.5630    -0.6730 H     1 <1>   0.0800 
 39 H        4.3430    10.5310     1.0800 H     1 <1>   0.0800 
 40 H        2.8570    12.5020     0.9280 H     1 <1>   0.0800 
 41 H        3.0640    12.5300    -0.8080 H     1 <1>   0.0800 
 42 H        5.2820    12.9410     1.2250 H     1 <1>   0.0800 
 43 H        4.5250    14.1940     0.2740 H     1 <1>   0.0800 
 44 H        5.4880    12.9690    -0.5130 H     1 <1>   0.0800 
@<TRIPOS>BOND
  1   1   2  1   
  2   2   3  ar  
  3   2   4  ar  
  4   3   5  ar  
  5   3   6  1   
  6   4   7  ar  
  7   4  23  1   
  8   5   8  ar  
  9   5  24  1   
 10   6   9  1   
 11   6  10  1   
 12   6  11  1   
 13   7   8  ar  
 14   7  25  1   
 15   8  12  1   
 16  12  13  1   
 17  12  26  1   
 18  12  27  1   
 19  13  14  1   
 20  13  15  1   
 21  13  28  1   
 22  14  16  1   
 23  14  29  1   
 24  14  30  1   
 25  15  17  1   
 26  15  31  1   
 27  15  32  1   
 28  16  18  1   
 29  16  19  1   
 30  16  33  1   
 31  17  19  1   
 32  17  34  1   
 33  17  35  1   
 34  18  20  1   
 35  19  36  1   
 36  19  37  1   
 37  20  21  1   
 38  20  38  1   
 39  20  39  1   
 40  21  22  1   
 41  21  40  1   
 42  21  41  1   
 43  22  42  1   
 44  22  43  1   
 45  22  44  1   
@<TRIPOS>SUBSTRUCTURE
  1 ****  13 GROUP 4 **** **** 0

# MOE 2024.06 (io_trps.svl 2023.06)
