@<TRIPOS>MOLECULE
NONAME
53 56 1 0 0 
SMALL
USER_CHARGES


@<TRIPOS>ATOM
  1 S        0.5220    -1.3400     3.0950 S.3   1 <1>  -0.2420 
  2 C        1.5370    -1.2610     1.6580 C.2   1 <1>   0.6410 
  3 C       -0.6030    -2.4730     2.3160 C.2   1 <1>  -0.0490 
  4 N        2.6020    -0.5440     1.6550 N.2   1 <1>  -0.6610 
  5 N        0.9670    -2.0520     0.7180 N.pl3 1 <1>  -0.5500 
  6 C       -0.2040    -2.7400     1.0580 C.2   1 <1>   0.1460 
  7 C        3.3950    -0.4920     0.5510 C.2   1 <1>   0.7200 
  8 C       -0.8180    -3.6050     0.0770 C.2   1 <1>  -0.0460 
  9 O        3.1460    -1.0480    -0.4950 O.2   1 <1>  -0.5700 
 10 C        4.6610     0.3380     0.6920 C.3   1 <1>   0.2370 
 11 C       -2.2210    -3.7220    -0.1200 C.ar  1 <1>   0.0000 
 12 C       -0.2280    -4.4470    -0.8250 C.2   1 <1>  -0.3320 
 13 N        5.7030    -0.5800     1.1910 N.pl3 1 <1>   0.3140 
 14 C        5.0910     1.1210    -0.5830 C.3   1 <1>  -0.0800 
 15 C       -2.4130    -4.6400    -1.1450 C.ar  1 <1>  -0.1520 
 16 C       -3.3400    -3.1240     0.4710 C.ar  1 <1>  -0.1500 
 17 N       -1.1840    -5.0680    -1.5700 N.pl3 1 <1>   0.0330 
 18 C        1.2450    -4.7560    -1.0500 C.3   1 <1>  -0.0600 
 19 N        6.3740    -1.4410     0.4530 N.2   1 <1>  -0.4180 
 20 C        6.1300    -0.7130     2.4330 C.2   1 <1>   0.0360 
 21 C        6.4110     1.9000    -0.3530 C.3   1 <1>  -0.1600 
 22 C        3.9690     2.0820    -1.0310 C.3   1 <1>  -0.2400 
 23 C       -3.6930    -4.9860    -1.5800 C.ar  1 <1>  -0.1500 
 24 C       -4.6080    -3.4590     0.0520 C.ar  1 <1>   0.0830 
 25 N        7.1770    -2.0530     1.2480 N.2   1 <1>   0.0000 
 26 N        7.0380    -1.6090     2.4920 N.2   1 <1>  -0.3380 
 27 C        6.9410     2.5990    -1.6110 C.3   1 <1>  -0.2400 
 28 C       -4.7840    -4.3990    -0.9820 C.ar  1 <1>  -0.1500 
 29 O       -5.6460    -2.8390     0.6810 O.3   1 <1>  -0.3630 
 30 C       -6.9800    -3.0960     0.3050 C.3   1 <1>   0.0400 
 31 H       -1.4400    -2.8190     2.8940 H     1 <1>   0.1500 
 32 H        1.3950    -2.1250    -0.2100 H     1 <1>   0.4000 
 33 H        4.4820     1.0600     1.4650 H     1 <1>   0.0800 
 34 H        5.2490     0.4060    -1.3750 H     1 <1>   0.0800 
 35 H       -3.2110    -2.3990     1.2510 H     1 <1>   0.1500 
 36 H       -1.0300    -5.7530    -2.3160 H     1 <1>   0.2700 
 37 H        1.8480    -4.3780    -0.2460 H     1 <1>   0.0800 
 38 H        1.5810    -4.3150    -1.9720 H     1 <1>   0.0800 
 39 H        1.3950    -5.8200    -1.1000 H     1 <1>   0.0800 
 40 H        5.7580    -0.1460     3.2650 H     1 <1>   0.1500 
 41 H        6.2770     2.6330     0.4250 H     1 <1>   0.0800 
 42 H        7.1800     1.2200    -0.0270 H     1 <1>   0.0800 
 43 H        3.8140     2.8580    -0.3010 H     1 <1>   0.0800 
 44 H        3.0410     1.5590    -1.1780 H     1 <1>   0.0800 
 45 H        4.2150     2.5430    -1.9710 H     1 <1>   0.0800 
 46 H       -3.8160    -5.7030    -2.3730 H     1 <1>   0.1500 
 47 H        6.3050     3.4140    -1.9050 H     1 <1>   0.0800 
 48 H        7.0180     1.9010    -2.4270 H     1 <1>   0.0800 
 49 H        7.9210     3.0000    -1.4180 H     1 <1>   0.0800 
 50 H       -5.7660    -4.6680    -1.3170 H     1 <1>   0.1500 
 51 H       -7.6210    -2.4950     0.9240 H     1 <1>   0.0800 
 52 H       -7.1930    -4.1390     0.4640 H     1 <1>   0.0800 
 53 H       -7.1110    -2.8260    -0.7270 H     1 <1>   0.0800 
@<TRIPOS>BOND
  1   1   2  1   
  2   1   3  1   
  3   2   4  2   
  4   2   5  1   
  5   3   6  2   
  6   3  31  1   
  7   4   7  1   
  8   5   6  1   
  9   5  32  1   
 10   6   8  1   
 11   7   9  2   
 12   7  10  1   
 13   8  11  1   
 14   8  12  2   
 15  10  13  1   
 16  10  14  1   
 17  10  33  1   
 18  11  15  ar  
 19  11  16  ar  
 20  12  17  1   
 21  12  18  1   
 22  13  19  1   
 23  13  20  1   
 24  14  21  1   
 25  14  22  1   
 26  14  34  1   
 27  15  17  1   
 28  15  23  ar  
 29  16  24  ar  
 30  16  35  1   
 31  17  36  1   
 32  18  37  1   
 33  18  38  1   
 34  18  39  1   
 35  19  25  2   
 36  20  26  2   
 37  20  40  1   
 38  21  27  1   
 39  21  41  1   
 40  21  42  1   
 41  22  43  1   
 42  22  44  1   
 43  22  45  1   
 44  23  28  ar  
 45  23  46  1   
 46  24  28  ar  
 47  24  29  1   
 48  25  26  1   
 49  27  47  1   
 50  27  48  1   
 51  27  49  1   
 52  28  50  1   
 53  29  30  1   
 54  30  51  1   
 55  30  52  1   
 56  30  53  1   
@<TRIPOS>SUBSTRUCTURE
  1 ****   5 GROUP 4 **** **** 0

# MOE 2024.06 (io_trps.svl 2023.06)
