@<TRIPOS>MOLECULE
NONAME
47 50 1 0 0 
SMALL
USER_CHARGES


@<TRIPOS>ATOM
  1 O       -0.4870     0.0480     1.0280 O.2   1 <1>  -0.5700 
  2 C       -1.5040     0.7090     1.1030 C.2   1 <1>   0.5440 
  3 N       -2.7210     0.0610     1.1000 N.am  1 <1>  -0.6600 
  4 C       -1.4250     2.1420     1.1830 C.ar  1 <1>   0.0860 
  5 C       -2.8320    -1.4310     1.1920 C.3   1 <1>   0.1400 
  6 C       -4.0110     0.7060     0.6960 C.3   1 <1>   0.1400 
  7 C       -0.8110     2.9460     0.2290 C.ar  1 <1>   0.1660 
  8 C       -1.9940     2.8160     2.2490 C.ar  1 <1>   0.1600 
  9 C       -3.4910    -2.0130    -0.0710 C.3   1 <1>   0.3440 
 10 C       -4.6090     0.0100    -0.5480 C.3   1 <1>   0.2950 
 11 N       -0.7980     4.2540     0.3210 N.ar  1 <1>  -0.6200 
 12 C       -0.1220     2.3520    -0.9870 C.3   1 <1>  -0.0970 
 13 N       -1.9980     4.1210     2.3630 N.ar  1 <1>  -0.6200 
 14 O       -4.7120    -1.3660    -0.3230 O.3   1 <1>  -0.5600 
 15 C       -3.7280    -3.5110     0.0940 C.ar  1 <1>  -0.1440 
 16 C       -6.0100     0.5050    -0.9480 C.3   1 <1>  -0.1950 
 17 C       -1.3990     4.7700     1.3790 C.ar  1 <1>   0.7200 
 18 C       -2.7360    -4.4050    -0.2870 C.ar  1 <1>  -0.1500 
 19 C       -4.9080    -4.0050     0.6320 C.ar  1 <1>  -0.1500 
 20 C       -6.4840     1.9130    -0.7440 C.3   1 <1>  -0.2000 
 21 C       -7.1090     0.7850     0.0310 C.3   1 <1>  -0.2000 
 22 N       -1.3920     6.0950     1.4700 N.pl3 1 <1>  -0.9000 
 23 C       -2.9210    -5.7680    -0.1320 C.ar  1 <1>  -0.1500 
 24 C       -5.0950    -5.3680     0.7880 C.ar  1 <1>  -0.1500 
 25 C       -4.1010    -6.2510     0.4060 C.ar  1 <1>  -0.1500 
 26 H       -1.8640    -1.8820     1.3230 H     1 <1>   0.0800 
 27 H       -3.4290    -1.6900     2.0480 H     1 <1>   0.0800 
 28 H       -4.7040     0.6380     1.5150 H     1 <1>   0.0800 
 29 H       -3.8620     1.7460     0.4710 H     1 <1>   0.0800 
 30 H       -2.4650     2.2430     3.0300 H     1 <1>   0.1500 
 31 H       -2.8490    -1.8500    -0.9200 H     1 <1>   0.0800 
 32 H       -3.9470     0.1620    -1.3840 H     1 <1>   0.0800 
 33 H       -0.7060     1.5530    -1.4060 H     1 <1>   0.0800 
 34 H        0.8410     1.9680    -0.7020 H     1 <1>   0.0800 
 35 H        0.0180     3.1030    -1.7440 H     1 <1>   0.0800 
 36 H       -6.3100     0.0420    -1.8720 H     1 <1>   0.1000 
 37 H       -1.8120    -4.0460    -0.7050 H     1 <1>   0.1500 
 38 H       -5.6900    -3.3270     0.9300 H     1 <1>   0.1500 
 39 H       -5.8940     2.6280    -0.1990 H     1 <1>   0.1000 
 40 H       -7.0610     2.3780    -1.5250 H     1 <1>   0.1000 
 41 H       -8.1060     0.4670    -0.2240 H     1 <1>   0.1000 
 42 H       -6.9180     0.7040     1.0860 H     1 <1>   0.1000 
 43 H       -0.7710     6.6130     0.8540 H     1 <1>   0.4000 
 44 H       -1.6500     6.5170     2.3570 H     1 <1>   0.4000 
 45 H       -2.1470    -6.4540    -0.4300 H     1 <1>   0.1500 
 46 H       -6.0150    -5.7390     1.2040 H     1 <1>   0.1500 
 47 H       -4.2460    -7.3100     0.5270 H     1 <1>   0.1500 
@<TRIPOS>BOND
  1   1   2  2   
  2   2   3  am  
  3   2   4  1   
  4   3   5  1   
  5   3   6  1   
  6   4   7  ar  
  7   4   8  ar  
  8   5   9  1   
  9   5  26  1   
 10   5  27  1   
 11   6  10  1   
 12   6  28  1   
 13   6  29  1   
 14   7  11  ar  
 15   7  12  1   
 16   8  13  ar  
 17   8  30  1   
 18   9  14  1   
 19   9  15  1   
 20   9  31  1   
 21  10  14  1   
 22  10  16  1   
 23  10  32  1   
 24  11  17  ar  
 25  12  33  1   
 26  12  34  1   
 27  12  35  1   
 28  13  17  ar  
 29  15  18  ar  
 30  15  19  ar  
 31  16  20  1   
 32  16  21  1   
 33  16  36  1   
 34  17  22  1   
 35  18  23  ar  
 36  18  37  1   
 37  19  24  ar  
 38  19  38  1   
 39  20  21  1   
 40  20  39  1   
 41  20  40  1   
 42  21  41  1   
 43  21  42  1   
 44  22  43  1   
 45  22  44  1   
 46  23  25  ar  
 47  23  45  1   
 48  24  25  ar  
 49  24  46  1   
 50  25  47  1   
@<TRIPOS>SUBSTRUCTURE
  1 ****   3 GROUP 4 **** **** 0

# MOE 2024.06 (io_trps.svl 2023.06)
