@<TRIPOS>MOLECULE
NONAME
47 49 1 0 0 
SMALL
USER_CHARGES


@<TRIPOS>ATOM
  1 S       -0.0080    -0.1550     1.2020 S.o2  1 <1>   1.5760 
  2 O       -0.0280     0.8110     2.2720 O.2   1 <1>  -0.6500 
  3 O       -0.0130    -1.5690     1.4920 O.2   1 <1>  -0.6500 
  4 N        1.2530     0.2260     0.1460 N.am  1 <1>  -0.8490 
  5 N       -1.3220     0.2110     0.2370 N.am  1 <1>  -0.9140 
  6 C        2.5220    -0.3160     0.6330 C.3   1 <1>   0.1960 
  7 C        1.3400     1.6730    -0.1030 C.3   1 <1>   0.1160 
  8 C       -1.8520    -0.8040    -0.6800 C.3   1 <1>   0.2760 
  9 C        3.5690    -0.3340    -0.4800 C.3   1 <1>  -0.2400 
 10 C       -2.6140    -1.9370     0.0170 C.3   1 <1>  -0.0800 
 11 C       -0.8420    -1.5230    -1.5820 C.3   1 <1>   0.1200 
 12 C       -1.9650    -3.1940    -0.5750 C.3   1 <1>   0.1200 
 13 C       -4.1250    -1.8760    -0.2860 C.3   1 <1>  -0.0170 
 14 O       -1.3900    -2.7870    -1.7720 O.3   1 <1>  -0.5600 
 15 C       -5.0000    -2.9240     0.4140 C.ar  1 <1>  -0.1430 
 16 C       -6.3650    -3.0580     0.0530 C.ar  1 <1>   0.0000 
 17 C       -4.5380    -3.7560     1.3970 C.ar  1 <1>  -0.1500 
 18 C       -7.1360    -4.0440     0.7170 C.ar  1 <1>   0.3100 
 19 C       -7.0130    -2.2660    -0.9250 C.ar  1 <1>  -0.1500 
 20 C       -5.3870    -4.6950     1.9930 C.ar  1 <1>   0.1600 
 21 N       -6.6330    -4.8530     1.6820 N.ar  1 <1>  -0.6200 
 22 C       -8.4880    -4.2020     0.3700 C.ar  1 <1>  -0.1500 
 23 C       -8.3330    -2.4430    -1.2380 C.ar  1 <1>  -0.1500 
 24 C       -9.0830    -3.4240    -0.5850 C.ar  1 <1>  -0.1500 
 25 H       -2.0430     0.4540     0.9090 H     1 <1>   0.4200 
 26 H        2.8730     0.2510     1.4790 H     1 <1>   0.0800 
 27 H        2.3770    -1.3350     0.9550 H     1 <1>   0.0800 
 28 H        2.0540     1.8820    -0.8790 H     1 <1>   0.0800 
 29 H        1.6270     2.1950     0.7950 H     1 <1>   0.0800 
 30 H        0.3860     2.0510    -0.4290 H     1 <1>   0.0800 
 31 H       -2.5300    -0.2950    -1.3440 H     1 <1>   0.0800 
 32 H        3.8830     0.6590    -0.7390 H     1 <1>   0.0800 
 33 H        3.1730    -0.8280    -1.3500 H     1 <1>   0.0800 
 34 H        4.4340    -0.8770    -0.1460 H     1 <1>   0.0800 
 35 H       -2.4640    -1.9120     1.0800 H     1 <1>   0.0800 
 36 H        0.1180    -1.6610    -1.1230 H     1 <1>   0.0800 
 37 H       -0.7340    -1.0410    -2.5370 H     1 <1>   0.0800 
 38 H       -2.6670    -3.9860    -0.7750 H     1 <1>   0.0800 
 39 H       -1.1770    -3.5560     0.0640 H     1 <1>   0.0800 
 40 H       -4.2490    -1.9840    -1.3500 H     1 <1>   0.0800 
 41 H       -4.4930    -0.9040    -0.0080 H     1 <1>   0.0800 
 42 H       -3.5260    -3.7340     1.7540 H     1 <1>   0.1500 
 43 H       -6.4620    -1.5030    -1.4410 H     1 <1>   0.1500 
 44 H       -4.9750    -5.3280     2.7600 H     1 <1>   0.1500 
 45 H       -9.0440    -4.9620     0.8880 H     1 <1>   0.1500 
 46 H       -8.8100    -1.8340    -1.9860 H     1 <1>   0.1500 
 47 H      -10.1200    -3.5560    -0.8400 H     1 <1>   0.1500 
@<TRIPOS>BOND
  1   1   2  2   
  2   1   3  2   
  3   1   4  am  
  4   1   5  am  
  5   4   6  1   
  6   4   7  1   
  7   5   8  1   
  8   5  25  1   
  9   6   9  1   
 10   6  26  1   
 11   6  27  1   
 12   7  28  1   
 13   7  29  1   
 14   7  30  1   
 15   8  10  1   
 16   8  11  1   
 17   8  31  1   
 18   9  32  1   
 19   9  33  1   
 20   9  34  1   
 21  10  12  1   
 22  10  13  1   
 23  10  35  1   
 24  11  14  1   
 25  11  36  1   
 26  11  37  1   
 27  12  14  1   
 28  12  38  1   
 29  12  39  1   
 30  13  15  1   
 31  13  40  1   
 32  13  41  1   
 33  15  16  ar  
 34  15  17  ar  
 35  16  18  ar  
 36  16  19  ar  
 37  17  20  ar  
 38  17  42  1   
 39  18  21  ar  
 40  18  22  ar  
 41  19  23  ar  
 42  19  43  1   
 43  20  21  ar  
 44  20  44  1   
 45  22  24  ar  
 46  22  45  1   
 47  23  24  ar  
 48  23  46  1   
 49  24  47  1   
@<TRIPOS>SUBSTRUCTURE
  1 ****  10 GROUP 4 **** **** 0

# MOE 2024.06 (io_trps.svl 2023.06)
