@<TRIPOS>MOLECULE
NONAME
65 67 1 0 0 
SMALL
USER_CHARGES


@<TRIPOS>ATOM
  1 O       -0.1200     0.4990     1.5630 O.2   1 <1>  -0.5700 
  2 C       -0.1520     1.6610     1.2280 C.2   1 <1>   0.5690 
  3 N       -1.3360     2.3270     1.0460 N.am  1 <1>  -0.6600 
  4 C        1.1790     2.3790     1.0100 C.3   1 <1>  -0.0990 
  5 C       -2.6300     1.5830     1.1160 C.3   1 <1>   0.1400 
  6 C       -1.4250     3.7960     0.7880 C.3   1 <1>   0.1400 
  7 C        2.3630     1.4270     0.7290 C.3   1 <1>  -0.0800 
  8 C       -3.6220     2.1370     0.0890 C.3   1 <1>  -0.1600 
  9 C       -2.8220     4.3210     1.1230 C.3   1 <1>  -0.1600 
 10 C        3.7070     2.1770     0.7090 C.3   1 <1>  -0.1600 
 11 C        2.1950     0.6680    -0.5980 C.3   1 <1>  -0.1600 
 12 C       -3.8920     3.6560     0.2350 C.3   1 <1>   0.2800 
 13 C        4.8700     1.4180     0.0210 C.3   1 <1>   0.5030 
 14 C        3.2760    -0.4120    -0.7740 C.3   1 <1>   0.5030 
 15 O       -3.7610     4.1750    -1.0680 O.3   1 <1>  -0.5600 
 16 C       -5.3160     3.9310     0.7840 C.3   1 <1>  -0.1600 
 17 N        4.5550    -0.0080    -0.1680 N.4   1 <1>  -0.9060 
 18 C        5.2260     2.0420    -1.3300 C.3   1 <1>  -0.2400 
 19 C        6.1140     1.4480     0.9070 C.3   1 <1>  -0.2400 
 20 C        3.5060    -0.7420    -2.2490 C.3   1 <1>  -0.2400 
 21 C        2.8690    -1.6950    -0.0490 C.3   1 <1>  -0.2400 
 22 C       -4.3680     5.4030    -1.3570 C.3   1 <1>   0.1200 
 23 C       -6.3460     4.1460    -0.3290 C.3   1 <1>   0.2800 
 24 C       -5.8970     5.3020    -1.2280 C.3   1 <1>  -0.1600 
 25 O       -6.3710     3.0200    -1.1070 O.3   1 <1>  -0.6800 
 26 C       -7.7610     4.3410     0.2070 C.3   1 <1>  -0.2400 
 27 H        1.3830     2.9470     1.8990 H     1 <1>   0.0800 
 28 H        1.0810     3.0630     0.1880 H     1 <1>   0.0800 
 29 H       -3.0360     1.6740     2.1090 H     1 <1>   0.0800 
 30 H       -2.4680     0.5360     0.9200 H     1 <1>   0.0800 
 31 H       -1.2130     3.9850    -0.2510 H     1 <1>   0.0800 
 32 H       -0.7000     4.3160     1.3900 H     1 <1>   0.0800 
 33 H        2.3980     0.7150     1.5370 H     1 <1>   0.0800 
 34 H       -4.5360     1.5780     0.1760 H     1 <1>   0.0800 
 35 H       -3.2210     1.9270    -0.8870 H     1 <1>   0.0800 
 36 H       -2.8440     5.3880     1.0110 H     1 <1>   0.0800 
 37 H       -3.0220     4.1120     2.1590 H     1 <1>   0.0800 
 38 H        3.9680     2.4180     1.7250 H     1 <1>   0.0800 
 39 H        3.5760     3.1240     0.2130 H     1 <1>   0.0800 
 40 H        2.2300     1.3680    -1.4140 H     1 <1>   0.0800 
 41 H        1.2270     0.2010    -0.6490 H     1 <1>   0.0800 
 42 H       -5.2950     4.8220     1.3850 H     1 <1>   0.0800 
 43 H       -5.6320     3.1390     1.4380 H     1 <1>   0.0800 
 44 H        4.5560    -0.4210     0.7660 H     1 <1>   0.4500 
 45 H        5.3130    -0.4490    -0.6890 H     1 <1>   0.4500 
 46 H        4.3610     2.1450    -1.9590 H     1 <1>   0.0800 
 47 H        5.9740     1.4660    -1.8430 H     1 <1>   0.0800 
 48 H        5.6220     3.0320    -1.1800 H     1 <1>   0.0800 
 49 H        5.9220     0.9940     1.8630 H     1 <1>   0.0800 
 50 H        6.4120     2.4670     1.0840 H     1 <1>   0.0800 
 51 H        6.9400     0.9440     0.4370 H     1 <1>   0.0800 
 52 H        3.8040     0.1220    -2.8110 H     1 <1>   0.0800 
 53 H        2.5890    -1.1030    -2.6820 H     1 <1>   0.0800 
 54 H        4.2470    -1.5120    -2.3660 H     1 <1>   0.0800 
 55 H        2.6890    -1.5190     0.9970 H     1 <1>   0.0800 
 56 H        3.6160    -2.4620    -0.1560 H     1 <1>   0.0800 
 57 H        1.9530    -2.0750    -0.4670 H     1 <1>   0.0800 
 58 H       -4.0960     5.6750    -2.3620 H     1 <1>   0.0800 
 59 H       -3.9780     6.1470    -0.6860 H     1 <1>   0.0800 
 60 H       -6.3460     5.2090    -2.2010 H     1 <1>   0.0800 
 61 H       -6.2450     6.2320    -0.8170 H     1 <1>   0.0800 
 62 H       -5.4830     2.9410    -1.5160 H     1 <1>   0.4000 
 63 H       -7.8060     5.2110     0.8370 H     1 <1>   0.0800 
 64 H       -8.0610     3.4850     0.7850 H     1 <1>   0.0800 
 65 H       -8.4510     4.4730    -0.6070 H     1 <1>   0.0800 
@<TRIPOS>BOND
  1   1   2  2   
  2   2   3  am  
  3   2   4  1   
  4   3   5  1   
  5   3   6  1   
  6   4   7  1   
  7   4  27  1   
  8   4  28  1   
  9   5   8  1   
 10   5  29  1   
 11   5  30  1   
 12   6   9  1   
 13   6  31  1   
 14   6  32  1   
 15   7  10  1   
 16   7  11  1   
 17   7  33  1   
 18   8  12  1   
 19   8  34  1   
 20   8  35  1   
 21   9  12  1   
 22   9  36  1   
 23   9  37  1   
 24  10  13  1   
 25  10  38  1   
 26  10  39  1   
 27  11  14  1   
 28  11  40  1   
 29  11  41  1   
 30  12  15  1   
 31  12  16  1   
 32  13  17  1   
 33  13  18  1   
 34  13  19  1   
 35  14  17  1   
 36  14  20  1   
 37  14  21  1   
 38  15  22  1   
 39  16  23  1   
 40  16  42  1   
 41  16  43  1   
 42  17  44  1   
 43  17  45  1   
 44  18  46  1   
 45  18  47  1   
 46  18  48  1   
 47  19  49  1   
 48  19  50  1   
 49  19  51  1   
 50  20  52  1   
 51  20  53  1   
 52  20  54  1   
 53  21  55  1   
 54  21  56  1   
 55  21  57  1   
 56  22  24  1   
 57  22  58  1   
 58  22  59  1   
 59  23  24  1   
 60  23  25  1   
 61  23  26  1   
 62  24  60  1   
 63  24  61  1   
 64  25  62  1   
 65  26  63  1   
 66  26  64  1   
 67  26  65  1   
@<TRIPOS>SUBSTRUCTURE
  1 ****   3 GROUP 4 **** **** 0

# MOE 2024.06 (io_trps.svl 2023.06)
