@<TRIPOS>MOLECULE
NONAME
34 35 1 0 0 
SMALL
USER_CHARGES


@<TRIPOS>ATOM
  1 S        0.8500    -0.0690     1.9630 S.3   1 <1>  -0.0800 
  2 C        1.8290    -0.7150     0.6520 C.2   1 <1>  -0.1400 
  3 C       -0.4660    -1.1610     1.5820 C.2   1 <1>  -0.1100 
  4 C        1.1580    -1.6860    -0.0030 C.2   1 <1>  -0.1810 
  5 C        3.2060    -0.1040     0.4750 C.3   1 <1>   0.3890 
  6 C       -0.1470    -1.9380     0.5310 C.2   1 <1>  -0.1500 
  7 C        1.6470    -2.4830    -1.1980 C.3   1 <1>  -0.0590 
  8 N        3.0380     1.2630    -0.0440 N.pl3 1 <1>  -0.8690 
  9 C        4.0500     2.1870    -0.0510 C.ar  1 <1>   0.4100 
 10 N        5.2720     1.7280     0.1160 N.ar  1 <1>  -0.6200 
 11 C        3.7950     3.5420    -0.2270 C.ar  1 <1>  -0.1430 
 12 C        6.2330     2.6280     0.1060 C.ar  1 <1>   0.4770 
 13 C        4.8890     4.3730    -0.2140 C.ar  1 <1>   0.1600 
 14 C        2.3580     4.0370    -0.4230 C.3   1 <1>  -0.0160 
 15 N        6.1200     3.9320    -0.0470 N.ar  1 <1>  -0.6200 
 16 C        7.6380     2.1100     0.2960 C.3   1 <1>  -0.0970 
 17 C        2.2120     5.5440    -0.6670 C.3   1 <1>  -0.2400 
 18 H       -1.3500    -1.1060     2.1920 H     1 <1>   0.1500 
 19 H        3.7920    -0.6760    -0.2220 H     1 <1>   0.0800 
 20 H        3.7220    -0.0790     1.4200 H     1 <1>   0.0800 
 21 H       -0.7860    -2.6900     0.1020 H     1 <1>   0.1500 
 22 H        2.6220    -2.1560    -1.5090 H     1 <1>   0.0800 
 23 H        0.9680    -2.3570    -2.0220 H     1 <1>   0.0800 
 24 H        1.6970    -3.5270    -0.9460 H     1 <1>   0.0800 
 25 H        2.0800     1.5960     0.0640 H     1 <1>   0.4000 
 26 H        4.7790     5.4340    -0.3430 H     1 <1>   0.1500 
 27 H        1.7850     3.7750     0.4490 H     1 <1>   0.0800 
 28 H        1.9310     3.5160    -1.2640 H     1 <1>   0.0800 
 29 H        7.6590     1.0390     0.2150 H     1 <1>   0.0800 
 30 H        7.9930     2.3980     1.2670 H     1 <1>   0.0800 
 31 H        8.2810     2.5300    -0.4540 H     1 <1>   0.0800 
 32 H        2.5800     6.1010     0.1770 H     1 <1>   0.0800 
 33 H        1.1740     5.7900    -0.8060 H     1 <1>   0.0800 
 34 H        2.7500     5.8370    -1.5510 H     1 <1>   0.0800 
@<TRIPOS>BOND
  1   1   2  1   
  2   1   3  1   
  3   2   4  2   
  4   2   5  1   
  5   3   6  2   
  6   3  18  1   
  7   4   6  1   
  8   4   7  1   
  9   5   8  1   
 10   5  19  1   
 11   5  20  1   
 12   6  21  1   
 13   7  22  1   
 14   7  23  1   
 15   7  24  1   
 16   8   9  1   
 17   8  25  1   
 18   9  10  ar  
 19   9  11  ar  
 20  10  12  ar  
 21  11  13  ar  
 22  11  14  1   
 23  12  15  ar  
 24  12  16  1   
 25  13  15  ar  
 26  13  26  1   
 27  14  17  1   
 28  14  27  1   
 29  14  28  1   
 30  16  29  1   
 31  16  30  1   
 32  16  31  1   
 33  17  32  1   
 34  17  33  1   
 35  17  34  1   
@<TRIPOS>SUBSTRUCTURE
  1 ****   8 GROUP 4 **** **** 0

# MOE 2024.06 (io_trps.svl 2023.06)
