@<TRIPOS>MOLECULE
NONAME
48 51 1 0 0 
SMALL
USER_CHARGES


@<TRIPOS>ATOM
  1 O       -0.6180     0.5470    -0.1760 O.2   1 <1>  -0.5700 
  2 C       -0.4060     1.7200    -0.0010 C.2   1 <1>   0.5690 
  3 N       -1.3680     2.5250     0.5010 N.am  1 <1>  -0.7300 
  4 C        0.9520     2.3190    -0.3840 C.3   1 <1>   0.1810 
  5 C       -1.1670     3.9690     0.7660 C.3   1 <1>   0.3640 
  6 O        1.1850     3.5930     0.1800 O.3   1 <1>  -0.5600 
  7 C       -2.3980     4.7420     0.2950 C.ar  1 <1>  -0.1440 
  8 C        0.1030     4.5030     0.0600 C.3   1 <1>   0.2610 
  9 C       -2.9110     5.7610     1.0860 C.ar  1 <1>  -0.1500 
 10 C       -3.0090     4.4640    -0.9210 C.ar  1 <1>  -0.1500 
 11 C        0.4780     5.8980     0.5880 C.2   1 <1>   0.5690 
 12 C       -4.0130     6.4880     0.6720 C.ar  1 <1>  -0.1500 
 13 C       -4.1120     5.1900    -1.3370 C.ar  1 <1>  -0.1500 
 14 O        0.2420     6.1560     1.7500 O.2   1 <1>  -0.5700 
 15 N        1.0290     6.8370    -0.2510 N.am  1 <1>  -0.6600 
 16 C       -4.6150     6.2030    -0.5400 C.ar  1 <1>  -0.1500 
 17 C        1.0410     8.2720     0.1550 C.3   1 <1>   0.4100 
 18 C        1.5880     6.5070    -1.5970 C.3   1 <1>   0.0600 
 19 C        0.2700     9.1100    -0.8750 C.3   1 <1>  -0.1950 
 20 C        2.4820     8.7740     0.3380 C.3   1 <1>  -0.1950 
 21 C       -0.5690    10.2740    -0.4460 C.3   1 <1>  -0.2000 
 22 C       -1.2230     9.0280    -0.9710 C.3   1 <1>  -0.2000 
 23 C        3.3000     8.3550     1.5190 C.3   1 <1>  -0.2000 
 24 C        2.8130     9.7710     1.4060 C.3   1 <1>  -0.2000 
 25 H       -2.2690     2.1230     0.7630 H     1 <1>   0.3700 
 26 H        1.0110     2.4070    -1.4530 H     1 <1>   0.0800 
 27 H        1.7350     1.6650    -0.0470 H     1 <1>   0.0800 
 28 H       -1.0570     4.0930     1.8300 H     1 <1>   0.0800 
 29 H       -0.1220     4.5950    -0.9860 H     1 <1>   0.0800 
 30 H       -2.4500     6.0010     2.0310 H     1 <1>   0.1500 
 31 H       -2.6340     3.6780    -1.5550 H     1 <1>   0.1500 
 32 H       -4.4010     7.2760     1.2930 H     1 <1>   0.1500 
 33 H       -4.5810     4.9660    -2.2790 H     1 <1>   0.1500 
 34 H       -5.4720     6.7680    -0.8630 H     1 <1>   0.1500 
 35 H        0.5350     8.3750     1.1000 H     1 <1>   0.0800 
 36 H        2.4430     7.1210    -1.8120 H     1 <1>   0.0800 
 37 H        0.8390     6.6750    -2.3520 H     1 <1>   0.0800 
 38 H        1.9070     5.4800    -1.6340 H     1 <1>   0.0800 
 39 H        0.8200     9.2390    -1.7900 H     1 <1>   0.1000 
 40 H        2.9920     8.9120    -0.5980 H     1 <1>   0.1000 
 41 H       -0.6620    10.5000     0.6030 H     1 <1>   0.1000 
 42 H       -0.5770    11.1590    -1.0580 H     1 <1>   0.1000 
 43 H       -1.6800     9.0490    -1.9450 H     1 <1>   0.1000 
 44 H       -1.7500     8.3870    -0.2840 H     1 <1>   0.1000 
 45 H        2.8480     7.7010     2.2460 H     1 <1>   0.1000 
 46 H        4.3460     8.1470     1.3730 H     1 <1>   0.1000 
 47 H        3.5270    10.5470     1.1880 H     1 <1>   0.1000 
 48 H        2.0410    10.1000     2.0810 H     1 <1>   0.1000 
@<TRIPOS>BOND
  1   1   2  2   
  2   2   3  am  
  3   2   4  1   
  4   3   5  1   
  5   3  25  1   
  6   4   6  1   
  7   4  26  1   
  8   4  27  1   
  9   5   7  1   
 10   5   8  1   
 11   5  28  1   
 12   6   8  1   
 13   7   9  ar  
 14   7  10  ar  
 15   8  11  1   
 16   8  29  1   
 17   9  12  ar  
 18   9  30  1   
 19  10  13  ar  
 20  10  31  1   
 21  11  14  2   
 22  11  15  am  
 23  12  16  ar  
 24  12  32  1   
 25  13  16  ar  
 26  13  33  1   
 27  15  17  1   
 28  15  18  1   
 29  16  34  1   
 30  17  19  1   
 31  17  20  1   
 32  17  35  1   
 33  18  36  1   
 34  18  37  1   
 35  18  38  1   
 36  19  21  1   
 37  19  22  1   
 38  19  39  1   
 39  20  23  1   
 40  20  24  1   
 41  20  40  1   
 42  21  22  1   
 43  21  41  1   
 44  21  42  1   
 45  22  43  1   
 46  22  44  1   
 47  23  24  1   
 48  23  45  1   
 49  23  46  1   
 50  24  47  1   
 51  24  48  1   
@<TRIPOS>SUBSTRUCTURE
  1 ****  11 GROUP 4 **** **** 0

# MOE 2024.06 (io_trps.svl 2023.06)
