@<TRIPOS>MOLECULE
NONAME
55 56 1 0 0 
SMALL
USER_CHARGES


@<TRIPOS>ATOM
  1 S        0.6120     0.0510    -0.2540 S.o2  1 <1>   1.3330 
  2 O        0.0940    -0.1720    -1.5820 O.2   1 <1>  -0.6500 
  3 O        2.0030     0.4080    -0.0820 O.2   1 <1>  -0.6500 
  4 N        0.2350    -1.2680     0.7400 N.am  1 <1>  -0.8490 
  5 C       -0.3250     1.3970     0.4680 C.3   1 <1>  -0.0550 
  6 C       -0.9690    -1.9940     0.3160 C.3   1 <1>   0.1160 
  7 C        1.3540    -2.2070     0.8780 C.3   1 <1>   0.1160 
  8 C       -0.1690     2.7090    -0.3340 C.3   1 <1>  -0.0800 
  9 C       -0.9000     3.9230     0.2360 C.3   1 <1>   0.2000 
 10 C        1.2910     3.1740    -0.4640 C.3   1 <1>   0.3430 
 11 O       -0.6890     3.9870     1.6120 O.3   1 <1>  -0.6800 
 12 C       -0.1600     5.0890    -0.4240 C.3   1 <1>   0.3430 
 13 N        1.2750     4.6660    -0.4990 N.4   1 <1>  -0.9590 
 14 C        2.0510     5.2240     0.6420 C.3   1 <1>   0.4860 
 15 C        2.1430     6.7260     0.4640 C.ar  1 <1>  -0.1440 
 16 C        1.3880     7.5700     1.2600 C.ar  1 <1>  -0.1500 
 17 C        2.9740     7.2730    -0.4990 C.ar  1 <1>  -0.1500 
 18 C        1.4560     8.9400     1.0820 C.ar  1 <1>  -0.1500 
 19 C        3.0360     8.6440    -0.6730 C.ar  1 <1>  -0.1500 
 20 C        2.2760     9.5070     0.1120 C.ar  1 <1>  -0.1440 
 21 C        2.3130    11.0440    -0.0470 C.3   1 <1>   0.1430 
 22 C        2.7920    11.6840     1.2650 C.3   1 <1>  -0.2400 
 23 C        0.9060    11.5610    -0.3830 C.3   1 <1>  -0.2400 
 24 C        3.2580    11.5160    -1.1650 C.3   1 <1>  -0.2400 
 25 H       -1.3620     1.1250     0.4990 H     1 <1>   0.0800 
 26 H        0.0100     1.5390     1.4770 H     1 <1>   0.0800 
 27 H       -1.2070    -2.7640     1.0290 H     1 <1>   0.0800 
 28 H       -0.8150    -2.4470    -0.6500 H     1 <1>   0.0800 
 29 H       -1.8070    -1.3210     0.2510 H     1 <1>   0.0800 
 30 H        1.0850    -3.0170     1.5340 H     1 <1>   0.0800 
 31 H        2.2090    -1.7050     1.3000 H     1 <1>   0.0800 
 32 H        1.6290    -2.6080    -0.0840 H     1 <1>   0.0800 
 33 H       -0.5370     2.5350    -1.3320 H     1 <1>   0.0800 
 34 H       -1.9590     3.9370     0.0380 H     1 <1>   0.0800 
 35 H        1.7420     2.7650    -1.3550 H     1 <1>   0.0800 
 36 H        1.8540     2.8320     0.3900 H     1 <1>   0.0800 
 37 H       -1.3870     3.5030     2.1040 H     1 <1>   0.4000 
 38 H       -0.2940     6.0040     0.1300 H     1 <1>   0.0800 
 39 H       -0.5430     5.2270    -1.4220 H     1 <1>   0.0800 
 40 H        1.6980     5.0320    -1.3600 H     1 <1>   0.4500 
 41 H        1.5650     4.9900     1.5760 H     1 <1>   0.0800 
 42 H        3.0450     4.8070     0.6580 H     1 <1>   0.0800 
 43 H        0.7420     7.1760     2.0270 H     1 <1>   0.1500 
 44 H        3.5870     6.6460    -1.1240 H     1 <1>   0.1500 
 45 H        0.8570     9.5690     1.7170 H     1 <1>   0.1500 
 46 H        3.6960     9.0190    -1.4330 H     1 <1>   0.1500 
 47 H        2.8620    12.7520     1.1630 H     1 <1>   0.0800 
 48 H        3.7620    11.3020     1.5280 H     1 <1>   0.0800 
 49 H        2.1160    11.4710     2.0720 H     1 <1>   0.0800 
 50 H        0.9200    12.6260    -0.5320 H     1 <1>   0.0800 
 51 H        0.2130    11.3460     0.4080 H     1 <1>   0.0800 
 52 H        0.5480    11.0950    -1.2830 H     1 <1>   0.0800 
 53 H        3.2480    12.5890    -1.2410 H     1 <1>   0.0800 
 54 H        2.9530    11.1140    -2.1140 H     1 <1>   0.0800 
 55 H        4.2690    11.2090    -0.9610 H     1 <1>   0.0800 
@<TRIPOS>BOND
  1   1   2  2   
  2   1   3  2   
  3   1   4  am  
  4   1   5  1   
  5   4   6  1   
  6   4   7  1   
  7   5   8  1   
  8   5  25  1   
  9   5  26  1   
 10   6  27  1   
 11   6  28  1   
 12   6  29  1   
 13   7  30  1   
 14   7  31  1   
 15   7  32  1   
 16   8   9  1   
 17   8  10  1   
 18   8  33  1   
 19   9  11  1   
 20   9  12  1   
 21   9  34  1   
 22  10  13  1   
 23  10  35  1   
 24  10  36  1   
 25  11  37  1   
 26  12  13  1   
 27  12  38  1   
 28  12  39  1   
 29  13  14  1   
 30  13  40  1   
 31  14  15  1   
 32  14  41  1   
 33  14  42  1   
 34  15  16  ar  
 35  15  17  ar  
 36  16  18  ar  
 37  16  43  1   
 38  17  19  ar  
 39  17  44  1   
 40  18  20  ar  
 41  18  45  1   
 42  19  20  ar  
 43  19  46  1   
 44  20  21  1   
 45  21  22  1   
 46  21  23  1   
 47  21  24  1   
 48  22  47  1   
 49  22  48  1   
 50  22  49  1   
 51  23  50  1   
 52  23  51  1   
 53  23  52  1   
 54  24  53  1   
 55  24  54  1   
 56  24  55  1   
@<TRIPOS>SUBSTRUCTURE
  1 ****  13 GROUP 4 **** **** 0

# MOE 2024.06 (io_trps.svl 2023.06)
