@<TRIPOS>MOLECULE
NONAME
52 55 1 0 0 
SMALL
USER_CHARGES


@<TRIPOS>ATOM
  1 O        0.0490     1.5080    -1.1300 O.2   1 <1>  -0.5700 
  2 C       -0.2370     2.6780    -1.0240 C.2   1 <1>   0.5690 
  3 N       -0.9090     3.2000     0.0480 N.am  1 <1>  -0.5090 
  4 C        0.1490     3.6150    -2.1640 C.3   1 <1>   0.1810 
  5 C       -1.4270     4.6060     0.0260 C.3   1 <1>   0.3640 
  6 C       -1.3120     2.3910     1.2230 C.3   1 <1>   0.0490 
  7 O        0.3240     4.9320    -1.7110 O.3   1 <1>  -0.5600 
  8 C       -2.9550     4.5880    -0.0880 C.ar  1 <1>  -0.1440 
  9 C       -0.8270     5.4980    -1.0960 C.3   1 <1>   0.2610 
 10 C       -0.8220     2.8060     2.5750 C.3   1 <1>  -0.2000 
 11 C       -0.2920     1.5620     1.9380 C.3   1 <1>  -0.2000 
 12 C       -3.7110     5.4590     0.6850 C.ar  1 <1>  -0.1500 
 13 C       -3.6130     3.7240    -0.9570 C.ar  1 <1>  -0.1500 
 14 C       -0.4900     6.8810    -0.5240 C.2   1 <1>   0.5690 
 15 C       -5.0920     5.4720     0.5960 C.ar  1 <1>  -0.1500 
 16 C       -4.9930     3.7340    -1.0470 C.ar  1 <1>  -0.1500 
 17 O       -1.3320     7.5000     0.0820 O.2   1 <1>  -0.5700 
 18 N        0.7600     7.3790    -0.6980 N.am  1 <1>  -0.7300 
 19 C       -5.7430     4.6050    -0.2750 C.ar  1 <1>   0.0830 
 20 C        1.2910     8.6270    -0.1120 C.3   1 <1>   0.3200 
 21 O       -7.0900     4.5520    -0.4250 O.3   1 <1>  -0.3630 
 22 C        2.5960     8.3500     0.6130 C.2   1 <1>  -0.0400 
 23 C       -7.9400     5.4160     0.2960 C.3   1 <1>   0.0400 
 24 O        3.2930     9.3790     1.0540 O.3   1 <1>  -0.2800 
 25 C        3.2270     7.1930     0.9180 C.2   1 <1>  -0.1500 
 26 C        4.3750     8.9120     1.6420 C.2   1 <1>  -0.0400 
 27 C        4.3960     7.5640     1.5930 C.2   1 <1>  -0.1500 
 28 C        5.3560     9.8950     2.2400 C.3   1 <1>  -0.0600 
 29 H       -0.6120     3.6040    -2.9230 H     1 <1>   0.0800 
 30 H        1.0780     3.2880    -2.5930 H     1 <1>   0.0800 
 31 H       -1.1700     5.0500     0.9720 H     1 <1>   0.0800 
 32 H       -2.3130     2.0000     1.1330 H     1 <1>   0.1000 
 33 H       -1.5620     5.6400    -1.8680 H     1 <1>   0.0800 
 34 H       -0.1530     3.6430     2.6720 H     1 <1>   0.1000 
 35 H       -1.4810     2.7010     3.4190 H     1 <1>   0.1000 
 36 H       -0.5950     0.6090     2.3320 H     1 <1>   0.1000 
 37 H        0.7150     1.5500     1.5580 H     1 <1>   0.1000 
 38 H       -3.2260     6.1440     1.3620 H     1 <1>   0.1500 
 39 H       -3.0620     3.0300    -1.5670 H     1 <1>   0.1500 
 40 H       -5.6390     6.1630     1.2090 H     1 <1>   0.1500 
 41 H       -5.5000     3.0640    -1.7170 H     1 <1>   0.1500 
 42 H        1.4350     6.8050    -1.2120 H     1 <1>   0.3700 
 43 H        1.4670     9.3390    -0.8990 H     1 <1>   0.0800 
 44 H        0.5810     9.0500     0.5780 H     1 <1>   0.0800 
 45 H       -8.9540     5.2020     0.0100 H     1 <1>   0.0800 
 46 H       -7.6970     6.4340     0.0450 H     1 <1>   0.0800 
 47 H       -7.8100     5.2350     1.3480 H     1 <1>   0.0800 
 48 H        2.9270     6.1820     0.7070 H     1 <1>   0.1500 
 49 H        5.1350     6.8860     1.9800 H     1 <1>   0.1500 
 50 H        6.1830     9.3730     2.6830 H     1 <1>   0.0800 
 51 H        4.8650    10.4820     2.9960 H     1 <1>   0.0800 
 52 H        5.7240    10.5510     1.4730 H     1 <1>   0.0800 
@<TRIPOS>BOND
  1   1   2  2   
  2   2   3  am  
  3   2   4  1   
  4   3   5  1   
  5   3   6  1   
  6   4   7  1   
  7   4  29  1   
  8   4  30  1   
  9   5   8  1   
 10   5   9  1   
 11   5  31  1   
 12   6  10  1   
 13   6  11  1   
 14   6  32  1   
 15   7   9  1   
 16   8  12  ar  
 17   8  13  ar  
 18   9  14  1   
 19   9  33  1   
 20  10  11  1   
 21  10  34  1   
 22  10  35  1   
 23  11  36  1   
 24  11  37  1   
 25  12  15  ar  
 26  12  38  1   
 27  13  16  ar  
 28  13  39  1   
 29  14  17  2   
 30  14  18  am  
 31  15  19  ar  
 32  15  40  1   
 33  16  19  ar  
 34  16  41  1   
 35  18  20  1   
 36  18  42  1   
 37  19  21  1   
 38  20  22  1   
 39  20  43  1   
 40  20  44  1   
 41  21  23  1   
 42  22  24  1   
 43  22  25  2   
 44  23  45  1   
 45  23  46  1   
 46  23  47  1   
 47  24  26  1   
 48  25  27  1   
 49  25  48  1   
 50  26  27  2   
 51  26  28  1   
 52  27  49  1   
 53  28  50  1   
 54  28  51  1   
 55  28  52  1   
@<TRIPOS>SUBSTRUCTURE
  1 ****   5 GROUP 4 **** **** 0

# MOE 2024.06 (io_trps.svl 2023.06)
