@<TRIPOS>MOLECULE
NONAME
55 57 1 0 0 
SMALL
USER_CHARGES


@<TRIPOS>ATOM
  1 O        0.7020     0.2900    -1.7760 O.3   1 <1>  -0.5600 
  2 C        1.8680    -0.4280    -1.4460 C.3   1 <1>   0.2000 
  3 C        0.8820     1.6590    -1.9870 C.3   1 <1>   0.1200 
  4 C        2.5660     0.1740    -0.1950 C.3   1 <1>   0.5660 
  5 C        1.4840    -1.8950    -1.1910 C.3   1 <1>   0.1200 
  6 C        1.4140     2.3210    -0.7050 C.3   1 <1>   0.3430 
  7 N        2.6750     1.6660    -0.2270 N.4   1 <1>  -0.9590 
  8 C        3.9710    -0.3870    -0.0230 C.ar  1 <1>  -0.1430 
  9 O        0.8580    -2.0210     0.0480 O.3   1 <1>  -0.6800 
 10 C        3.1240     2.2050     1.0790 C.3   1 <1>   0.5240 
 11 C        4.9630    -0.1720    -0.9750 C.ar  1 <1>  -0.1500 
 12 C        4.2700    -1.1230     1.1140 C.ar  1 <1>  -0.1500 
 13 C        3.5040     3.6460     0.8420 C.2   1 <1>  -0.1810 
 14 C        6.2360    -0.6770    -0.7800 C.ar  1 <1>  -0.1500 
 15 C        5.5450    -1.6260     1.3060 C.ar  1 <1>  -0.1500 
 16 C        2.7210     4.7620     1.1180 C.2   1 <1>   0.1080 
 17 C        4.6460     4.1390     0.3080 C.2   1 <1>  -0.3320 
 18 C        6.5280    -1.4010     0.3610 C.ar  1 <1>  -0.1500 
 19 N        3.3040     5.8540     0.7570 N.2   1 <1>  -0.7070 
 20 C        1.3500     4.8040     1.7590 C.3   1 <1>  -0.0590 
 21 N        4.5050     5.4880     0.2640 N.pl3 1 <1>   0.3140 
 22 C        5.8930     3.3970    -0.1550 C.3   1 <1>  -0.0600 
 23 C        5.4950     6.4980    -0.2280 C.3   1 <1>   0.1760 
 24 C        5.9340     7.4260     0.9130 C.3   1 <1>  -0.2400 
 25 C        4.9130     7.3080    -1.3950 C.3   1 <1>  -0.2400 
 26 H        2.5210    -0.3860    -2.2990 H     1 <1>   0.0800 
 27 H        1.5570     1.8030    -2.8130 H     1 <1>   0.0800 
 28 H       -0.0750     2.0770    -2.2480 H     1 <1>   0.0800 
 29 H        1.9770    -0.1090     0.6630 H     1 <1>   0.0800 
 30 H        2.3610    -2.5200    -1.1820 H     1 <1>   0.0800 
 31 H        0.8110    -2.2410    -1.9580 H     1 <1>   0.0800 
 32 H        0.6530     2.2470     0.0540 H     1 <1>   0.0800 
 33 H        1.5940     3.3680    -0.8930 H     1 <1>   0.0800 
 34 H        3.4270     1.9070    -0.8780 H     1 <1>   0.4500 
 35 H        0.4060    -2.8890     0.1170 H     1 <1>   0.4000 
 36 H        2.3440     2.1290     1.8170 H     1 <1>   0.0800 
 37 H        3.9900     1.6670     1.4300 H     1 <1>   0.0800 
 38 H        4.7670     0.3810    -1.8770 H     1 <1>   0.1500 
 39 H        3.5170    -1.3210     1.8600 H     1 <1>   0.1500 
 40 H        7.0050    -0.5130    -1.5170 H     1 <1>   0.1500 
 41 H        5.7740    -2.1970     2.1910 H     1 <1>   0.1500 
 42 H        7.5200    -1.7950     0.5120 H     1 <1>   0.1500 
 43 H        1.0770     3.8570     2.1810 H     1 <1>   0.0800 
 44 H        0.6190     5.0970     1.0280 H     1 <1>   0.0800 
 45 H        1.3540     5.5390     2.5440 H     1 <1>   0.0800 
 46 H        5.8180     2.3450     0.0480 H     1 <1>   0.0800 
 47 H        6.7570     3.7700     0.3680 H     1 <1>   0.0800 
 48 H        6.0430     3.5370    -1.2110 H     1 <1>   0.0800 
 49 H        6.3610     5.9720    -0.5850 H     1 <1>   0.0800 
 50 H        5.0920     7.9840     1.2860 H     1 <1>   0.0800 
 51 H        6.6770     8.1200     0.5640 H     1 <1>   0.0800 
 52 H        6.3550     6.8500     1.7180 H     1 <1>   0.0800 
 53 H        4.0510     7.8650    -1.0690 H     1 <1>   0.0800 
 54 H        4.6250     6.6520    -2.1960 H     1 <1>   0.0800 
 55 H        5.6450     8.0020    -1.7670 H     1 <1>   0.0800 
@<TRIPOS>BOND
  1   1   2  1   
  2   1   3  1   
  3   2   4  1   
  4   2   5  1   
  5   2  26  1   
  6   3   6  1   
  7   3  27  1   
  8   3  28  1   
  9   4   7  1   
 10   4   8  1   
 11   4  29  1   
 12   5   9  1   
 13   5  30  1   
 14   5  31  1   
 15   6   7  1   
 16   6  32  1   
 17   6  33  1   
 18   7  10  1   
 19   7  34  1   
 20   8  11  ar  
 21   8  12  ar  
 22   9  35  1   
 23  10  13  1   
 24  10  36  1   
 25  10  37  1   
 26  11  14  ar  
 27  11  38  1   
 28  12  15  ar  
 29  12  39  1   
 30  13  16  1   
 31  13  17  2   
 32  14  18  ar  
 33  14  40  1   
 34  15  18  ar  
 35  15  41  1   
 36  16  19  2   
 37  16  20  1   
 38  17  21  1   
 39  17  22  1   
 40  18  42  1   
 41  19  21  1   
 42  20  43  1   
 43  20  44  1   
 44  20  45  1   
 45  21  23  1   
 46  22  46  1   
 47  22  47  1   
 48  22  48  1   
 49  23  24  1   
 50  23  25  1   
 51  23  49  1   
 52  24  50  1   
 53  24  51  1   
 54  24  52  1   
 55  25  53  1   
 56  25  54  1   
 57  25  55  1   
@<TRIPOS>SUBSTRUCTURE
  1 ****   7 GROUP 4 **** **** 0

# MOE 2024.06 (io_trps.svl 2023.06)
