@<TRIPOS>MOLECULE
NONAME
43 45 1 0 0 
SMALL
USER_CHARGES


@<TRIPOS>ATOM
  1 F       -2.1540     0.0020    -1.3940 F     1 <1>  -0.1900 
  2 C       -2.4800    -0.9480    -0.5540 C.ar  1 <1>   0.1900 
  3 C       -2.6640    -0.6890     0.8090 C.ar  1 <1>   0.0820 
  4 C       -2.6290    -2.2120    -1.0870 C.ar  1 <1>  -0.1500 
  5 O       -2.5450     0.5060     1.4450 O.3   1 <1>  -0.3630 
  6 C       -3.0090    -1.7630     1.6140 C.ar  1 <1>  -0.1500 
  7 C       -2.9730    -3.2950    -0.2770 C.ar  1 <1>   0.0860 
  8 C       -2.2090     1.7070     0.7860 C.3   1 <1>   0.0400 
  9 C       -3.1610    -3.0330     1.0840 C.ar  1 <1>  -0.1500 
 10 C       -3.1270    -4.6240    -0.8440 C.2   1 <1>   0.5440 
 11 O       -3.2680    -4.7790    -2.0410 O.2   1 <1>  -0.5700 
 12 N       -3.1290    -5.7380    -0.0540 N.am  1 <1>  -0.7300 
 13 C       -3.2670    -7.1330    -0.5360 C.3   1 <1>   0.2200 
 14 C       -4.6690    -7.6700    -0.2770 C.3   1 <1>  -0.0800 
 15 C       -2.4520    -8.0440     0.3720 C.3   1 <1>   0.1200 
 16 C       -4.5930    -8.1510     1.1770 C.3   1 <1>   0.1200 
 17 C       -5.8270    -6.6950    -0.5650 C.3   1 <1>  -0.0170 
 18 O       -3.2360    -8.2050     1.5150 O.3   1 <1>  -0.5600 
 19 C       -7.1720    -7.3710    -0.3480 C.ar  1 <1>  -0.1430 
 20 C       -7.9040    -7.1960     0.8090 C.ar  1 <1>  -0.1500 
 21 C       -7.7300    -8.1970    -1.3020 C.ar  1 <1>  -0.1500 
 22 C       -9.1200    -7.8430     0.9540 C.ar  1 <1>   0.1600 
 23 C       -8.9540    -8.7960    -1.0580 C.ar  1 <1>   0.1600 
 24 N       -9.6620    -8.6410     0.0490 N.ar  1 <1>  -0.6200 
 25 H       -2.4780    -2.3610    -2.1420 H     1 <1>   0.1500 
 26 H       -3.1590    -1.5920     2.6650 H     1 <1>   0.1500 
 27 H       -2.1860     2.4950     1.5180 H     1 <1>   0.0800 
 28 H       -2.9570     1.9210     0.0440 H     1 <1>   0.0800 
 29 H       -1.2380     1.6000     0.3360 H     1 <1>   0.0800 
 30 H       -3.4380    -3.8320     1.7490 H     1 <1>   0.1500 
 31 H       -2.9900    -5.6690     0.9550 H     1 <1>   0.3700 
 32 H       -2.9730    -7.2140    -1.5690 H     1 <1>   0.0800 
 33 H       -4.8050    -8.5400    -0.8950 H     1 <1>   0.0800 
 34 H       -1.4980    -7.6250     0.6380 H     1 <1>   0.0800 
 35 H       -2.3170    -9.0120    -0.0780 H     1 <1>   0.0800 
 36 H       -5.0240    -9.1310     1.2950 H     1 <1>   0.0800 
 37 H       -5.0690    -7.4610     1.8520 H     1 <1>   0.0800 
 38 H       -5.7590    -6.3520    -1.5830 H     1 <1>   0.0800 
 39 H       -5.7590    -5.8300     0.0700 H     1 <1>   0.0800 
 40 H       -7.5430    -6.5630     1.5990 H     1 <1>   0.1500 
 41 H       -7.2240    -8.3790    -2.2330 H     1 <1>   0.1500 
 42 H       -9.6770    -7.6950     1.8640 H     1 <1>   0.1500 
 43 H       -9.3740    -9.4380    -1.8140 H     1 <1>   0.1500 
@<TRIPOS>BOND
  1   1   2  1   
  2   2   3  ar  
  3   2   4  ar  
  4   3   5  1   
  5   3   6  ar  
  6   4   7  ar  
  7   4  25  1   
  8   5   8  1   
  9   6   9  ar  
 10   6  26  1   
 11   7   9  ar  
 12   7  10  1   
 13   8  27  1   
 14   8  28  1   
 15   8  29  1   
 16   9  30  1   
 17  10  11  2   
 18  10  12  am  
 19  12  13  1   
 20  12  31  1   
 21  13  14  1   
 22  13  15  1   
 23  13  32  1   
 24  14  16  1   
 25  14  17  1   
 26  14  33  1   
 27  15  18  1   
 28  15  34  1   
 29  15  35  1   
 30  16  18  1   
 31  16  36  1   
 32  16  37  1   
 33  17  19  1   
 34  17  38  1   
 35  17  39  1   
 36  19  20  ar  
 37  19  21  ar  
 38  20  22  ar  
 39  20  40  1   
 40  21  23  ar  
 41  21  41  1   
 42  22  24  ar  
 43  22  42  1   
 44  23  24  ar  
 45  23  43  1   
@<TRIPOS>SUBSTRUCTURE
  1 ****  12 GROUP 4 **** **** 0

# MOE 2024.06 (io_trps.svl 2023.06)
