@<TRIPOS>MOLECULE
NONAME
41 42 1 0 0 
SMALL
USER_CHARGES


@<TRIPOS>ATOM
  1 S        0.3260     0.5010    -1.0970 S.o2  1 <1>   1.3330 
  2 O       -0.7070     1.4550    -1.4320 O.2   1 <1>  -0.6500 
  3 O        0.4960    -0.6840    -1.9080 O.2   1 <1>  -0.6500 
  4 N        0.0400    -0.0030     0.5010 N.am  1 <1>  -0.8490 
  5 C        1.9070     1.3450    -1.0090 C.3   1 <1>  -0.0550 
  6 C       -0.8700    -1.1500     0.5590 C.3   1 <1>   0.1160 
  7 C       -0.4600     1.0700     1.3680 C.3   1 <1>   0.1160 
  8 C        3.1090     0.4200    -0.7170 C.3   1 <1>  -0.0800 
  9 C        4.4690     1.0970    -0.7980 C.3   1 <1>   0.2200 
 10 C        3.1260    -0.2050     0.6840 C.3   1 <1>   0.1200 
 11 N        4.4290     2.4250    -0.1430 N.am  1 <1>  -0.7300 
 12 C        5.3020     0.1530     0.0570 C.3   1 <1>   0.1200 
 13 O        4.4600    -0.2220     1.1040 O.3   1 <1>  -0.5600 
 14 C        4.3350     3.6270    -0.7800 C.2   1 <1>   0.5440 
 15 O        4.3290     3.6290    -1.9950 O.2   1 <1>  -0.5700 
 16 C        4.2480     4.8740    -0.0470 C.ar  1 <1>   0.0860 
 17 C        3.5760     5.0030     1.1690 C.ar  1 <1>   0.1900 
 18 C        4.8460     6.0350    -0.5510 C.ar  1 <1>  -0.1500 
 19 F        2.9690     3.9680     1.6930 F     1 <1>  -0.1900 
 20 C        3.5220     6.2130     1.8410 C.ar  1 <1>   0.1900 
 21 C        4.7910     7.2480     0.1210 C.ar  1 <1>  -0.1500 
 22 F        2.8880     6.3030     2.9810 F     1 <1>  -0.1900 
 23 C        4.1250     7.3460     1.3320 C.ar  1 <1>  -0.1500 
 24 H        2.0830     1.8240    -1.9540 H     1 <1>   0.0800 
 25 H        1.8520     2.1170    -0.2680 H     1 <1>   0.0800 
 26 H       -1.0210    -1.4560     1.5800 H     1 <1>   0.0800 
 27 H       -0.4510    -1.9820     0.0180 H     1 <1>   0.0800 
 28 H       -1.8210    -0.8960     0.1200 H     1 <1>   0.0800 
 29 H       -0.5450     0.7170     2.3810 H     1 <1>   0.0800 
 30 H       -1.4270     1.4080     1.0320 H     1 <1>   0.0800 
 31 H        0.2190     1.9060     1.3580 H     1 <1>   0.0800 
 32 H        3.0990    -0.3860    -1.4320 H     1 <1>   0.0800 
 33 H        4.8410     1.1750    -1.8070 H     1 <1>   0.0800 
 34 H        2.7450    -1.2120     0.6780 H     1 <1>   0.0800 
 35 H        2.5730     0.3870     1.3930 H     1 <1>   0.0800 
 36 H        4.3720     2.3770     0.8790 H     1 <1>   0.3700 
 37 H        6.1890     0.6180     0.4500 H     1 <1>   0.0800 
 38 H        5.5620    -0.7340    -0.4930 H     1 <1>   0.0800 
 39 H        5.3640     5.9790    -1.4950 H     1 <1>   0.1500 
 40 H        5.2670     8.1180    -0.3010 H     1 <1>   0.1500 
 41 H        4.0730     8.2780     1.8680 H     1 <1>   0.1500 
@<TRIPOS>BOND
  1   1   2  2   
  2   1   3  2   
  3   1   4  am  
  4   1   5  1   
  5   4   6  1   
  6   4   7  1   
  7   5   8  1   
  8   5  24  1   
  9   5  25  1   
 10   6  26  1   
 11   6  27  1   
 12   6  28  1   
 13   7  29  1   
 14   7  30  1   
 15   7  31  1   
 16   8   9  1   
 17   8  10  1   
 18   8  32  1   
 19   9  11  1   
 20   9  12  1   
 21   9  33  1   
 22  10  13  1   
 23  10  34  1   
 24  10  35  1   
 25  11  14  am  
 26  11  36  1   
 27  12  13  1   
 28  12  37  1   
 29  12  38  1   
 30  14  15  2   
 31  14  16  1   
 32  16  17  ar  
 33  16  18  ar  
 34  17  19  1   
 35  17  20  ar  
 36  18  21  ar  
 37  18  39  1   
 38  20  22  1   
 39  20  23  ar  
 40  21  23  ar  
 41  21  40  1   
 42  23  41  1   
@<TRIPOS>SUBSTRUCTURE
  1 ****  11 GROUP 4 **** **** 0

# MOE 2024.06 (io_trps.svl 2023.06)
