@<TRIPOS>MOLECULE
NONAME
46 49 1 0 0 
SMALL
USER_CHARGES


@<TRIPOS>ATOM
  1 O       -0.5640     0.3010    -0.7720 O.2   1 <1>  -0.5700 
  2 C       -1.0300     1.2790    -0.2180 C.2   1 <1>   0.5440 
  3 N       -2.2660     1.1690     0.3890 N.am  1 <1>  -0.6600 
  4 C       -0.2780     2.5180    -0.2270 C.ar  1 <1>   0.0860 
  5 C       -2.8710    -0.1810     0.5940 C.3   1 <1>   0.1400 
  6 C       -3.1070     2.3540     0.7360 C.3   1 <1>   0.1400 
  7 C        0.1920     3.0590    -1.4130 C.ar  1 <1>  -0.1500 
  8 C        0.0020     3.2040     0.9770 C.ar  1 <1>  -0.1500 
  9 C       -3.6090    -0.6580    -0.6660 C.3   1 <1>   0.1400 
 10 C       -4.5620     2.2490     0.2570 C.3   1 <1>  -0.1600 
 11 C        0.9000     4.2580    -1.4070 C.ar  1 <1>   0.2270 
 12 C        0.7040     4.3860     0.9940 C.ar  1 <1>  -0.1500 
 13 N       -4.8970     0.0780    -0.8710 N.am  1 <1>  -0.6600 
 14 C       -4.7440     1.5440    -1.0920 C.3   1 <1>   0.1400 
 15 N        1.4360     4.9750    -2.4250 N.2   1 <1>  -0.2270 
 16 C        1.1480     4.9050    -0.2250 C.ar  1 <1>  -0.1520 
 17 C       -6.1520    -0.4860    -0.8210 C.2   1 <1>   0.5690 
 18 N        1.9970     6.0160    -1.9360 N.2   1 <1>  -0.4180 
 19 N        1.8410     5.9980    -0.6040 N.pl3 1 <1>   0.3000 
 20 O       -7.1460     0.1980    -0.9110 O.2   1 <1>  -0.5700 
 21 C       -6.3360    -1.9920    -0.6290 C.3   1 <1>  -0.0190 
 22 C       -7.7360    -2.5000    -0.9470 C.3   1 <1>   0.1200 
 23 C       -6.1530    -2.4670     0.8110 C.3   1 <1>  -0.1600 
 24 O       -7.8330    -3.6980    -0.2510 O.3   1 <1>  -0.5600 
 25 C       -7.1780    -3.5890     0.9710 C.3   1 <1>   0.1200 
 26 H       -3.5420    -0.1700     1.4350 H     1 <1>   0.0800 
 27 H       -2.0840    -0.8810     0.8140 H     1 <1>   0.0800 
 28 H       -2.6810     3.2330     0.2860 H     1 <1>   0.0800 
 29 H       -3.0930     2.4950     1.8030 H     1 <1>   0.0800 
 30 H        0.0180     2.5620    -2.3500 H     1 <1>   0.1500 
 31 H       -0.3470     2.7700     1.8980 H     1 <1>   0.1500 
 32 H       -3.7810    -1.7110    -0.5720 H     1 <1>   0.0800 
 33 H       -2.9750    -0.5180    -1.5250 H     1 <1>   0.0800 
 34 H       -4.9430     3.2500     0.1660 H     1 <1>   0.0800 
 35 H       -5.1640     1.7610     1.0020 H     1 <1>   0.0800 
 36 H        0.9140     4.9010     1.9160 H     1 <1>   0.1500 
 37 H       -3.9090     1.7370    -1.7430 H     1 <1>   0.0800 
 38 H       -5.6260     1.9280    -1.5760 H     1 <1>   0.0800 
 39 H        2.2140     6.7290     0.0090 H     1 <1>   0.2700 
 40 H       -5.6660    -2.5180    -1.2820 H     1 <1>   0.0800 
 41 H       -7.8840    -2.6800    -1.9970 H     1 <1>   0.0800 
 42 H       -8.4990    -1.8390    -0.5730 H     1 <1>   0.0800 
 43 H       -6.3800    -1.6790     1.5070 H     1 <1>   0.0800 
 44 H       -5.1560    -2.8230     0.9960 H     1 <1>   0.0800 
 45 H       -7.9090    -3.3480     1.7240 H     1 <1>   0.0800 
 46 H       -6.7160    -4.5350     1.1940 H     1 <1>   0.0800 
@<TRIPOS>BOND
  1   1   2  2   
  2   2   3  am  
  3   2   4  1   
  4   3   5  1   
  5   3   6  1   
  6   4   7  ar  
  7   4   8  ar  
  8   5   9  1   
  9   5  26  1   
 10   5  27  1   
 11   6  10  1   
 12   6  28  1   
 13   6  29  1   
 14   7  11  ar  
 15   7  30  1   
 16   8  12  ar  
 17   8  31  1   
 18   9  13  1   
 19   9  32  1   
 20   9  33  1   
 21  10  14  1   
 22  10  34  1   
 23  10  35  1   
 24  11  15  1   
 25  11  16  ar  
 26  12  16  ar  
 27  12  36  1   
 28  13  14  1   
 29  13  17  am  
 30  14  37  1   
 31  14  38  1   
 32  15  18  2   
 33  16  19  1   
 34  17  20  2   
 35  17  21  1   
 36  18  19  1   
 37  19  39  1   
 38  21  22  1   
 39  21  23  1   
 40  21  40  1   
 41  22  24  1   
 42  22  41  1   
 43  22  42  1   
 44  23  25  1   
 45  23  43  1   
 46  23  44  1   
 47  24  25  1   
 48  25  45  1   
 49  25  46  1   
@<TRIPOS>SUBSTRUCTURE
  1 ****   3 GROUP 4 **** **** 0

# MOE 2024.06 (io_trps.svl 2023.06)
