@<TRIPOS>MOLECULE
NONAME
55 57 1 0 0 
SMALL
USER_CHARGES


@<TRIPOS>ATOM
  1 O        4.3490    -2.0260    -0.2360 O.2   1 <1>  -0.5700 
  2 C        3.2970    -1.7760    -0.7740 C.2   1 <1>   0.5690 
  3 N        3.1670    -0.6270    -1.5010 N.am  1 <1>  -0.6600 
  4 C        2.1290    -2.7230    -0.5850 C.3   1 <1>  -0.0990 
  5 C        4.3370    -0.0750    -2.2610 C.3   1 <1>   0.1400 
  6 C        2.0560     0.3290    -1.2720 C.3   1 <1>   0.1400 
  7 C        1.5890    -2.6920     0.8490 C.3   1 <1>   0.0200 
  8 C        5.3940     0.5790    -1.3470 C.3   1 <1>   0.3430 
  9 C        2.3600     1.1880    -0.0340 C.3   1 <1>  -0.1600 
 10 C        0.3780    -3.5990     0.9830 C.2   1 <1>  -0.3320 
 11 N        4.8400     0.9250     0.0020 N.4   1 <1>  -0.9590 
 12 C        3.7170     1.9060    -0.0460 C.3   1 <1>   0.3430 
 13 N        0.4100    -4.9520     1.0640 N.pl3 1 <1>   0.3140 
 14 C       -0.9220    -3.2400     1.0490 C.2   1 <1>  -0.1500 
 15 C        5.8930     1.2370     1.0210 C.3   1 <1>   0.3430 
 16 N       -0.8270    -5.4630     1.1700 N.2   1 <1>  -0.7070 
 17 C        1.5830    -5.8360     1.0540 C.3   1 <1>   0.0160 
 18 C       -1.6180    -4.4360     1.1630 C.2   1 <1>   0.1390 
 19 C        6.9360     2.2850     0.5870 C.3   1 <1>  -0.0800 
 20 C        7.9860     2.4170     1.7020 C.3   1 <1>   0.1200 
 21 C        6.3520     3.6770     0.2650 C.3   1 <1>  -0.1600 
 22 O        8.9650     3.3190     1.3030 O.3   1 <1>  -0.5600 
 23 C        7.4860     4.6830     0.0220 C.3   1 <1>  -0.1600 
 24 C        8.5260     4.6330     1.1470 C.3   1 <1>   0.1200 
 25 H        2.4660    -3.7160    -0.8180 H     1 <1>   0.0800 
 26 H        1.3430    -2.4820    -1.2760 H     1 <1>   0.0800 
 27 H        3.9930     0.6460    -2.9820 H     1 <1>   0.0800 
 28 H        4.8060    -0.8720    -2.8130 H     1 <1>   0.0800 
 29 H        1.1320    -0.2040    -1.1230 H     1 <1>   0.0800 
 30 H        1.9310     0.9540    -2.1400 H     1 <1>   0.0800 
 31 H        1.2950    -1.6880     1.0990 H     1 <1>   0.0800 
 32 H        2.3550    -2.9920     1.5440 H     1 <1>   0.0800 
 33 H        5.8010     1.4540    -1.8270 H     1 <1>   0.0800 
 34 H        6.1980    -0.1280    -1.2200 H     1 <1>   0.0800 
 35 H        2.2830     0.5870     0.8540 H     1 <1>   0.0800 
 36 H        1.5910     1.9370     0.0370 H     1 <1>   0.0800 
 37 H        4.4140     0.0190     0.2840 H     1 <1>   0.4500 
 38 H        3.7690     2.5510     0.8160 H     1 <1>   0.0800 
 39 H        3.8000     2.5230    -0.9260 H     1 <1>   0.0800 
 40 H       -1.3640    -2.2600     1.0230 H     1 <1>   0.1500 
 41 H        6.4210     0.3250     1.2530 H     1 <1>   0.0800 
 42 H        5.4200     1.5690     1.9310 H     1 <1>   0.0800 
 43 H        2.3710    -5.3970     1.6350 H     1 <1>   0.0800 
 44 H        1.9050    -5.9820     0.0410 H     1 <1>   0.0800 
 45 H        1.3090    -6.7830     1.4820 H     1 <1>   0.0800 
 46 H       -2.6890    -4.5140     1.2370 H     1 <1>   0.1500 
 47 H        7.4640     1.9140    -0.2740 H     1 <1>   0.0800 
 48 H        8.4760     1.4750     1.8820 H     1 <1>   0.0800 
 49 H        7.5530     2.7680     2.6250 H     1 <1>   0.0800 
 50 H        5.7550     4.0220     1.0920 H     1 <1>   0.0800 
 51 H        5.7360     3.6420    -0.6150 H     1 <1>   0.0800 
 52 H        7.0870     5.6790    -0.0510 H     1 <1>   0.0800 
 53 H        7.9820     4.4620    -0.9070 H     1 <1>   0.0800 
 54 H        9.3810     5.2390     0.8990 H     1 <1>   0.0800 
 55 H        8.1150     4.9750     2.0820 H     1 <1>   0.0800 
@<TRIPOS>BOND
  1   1   2  2   
  2   2   3  am  
  3   2   4  1   
  4   3   5  1   
  5   3   6  1   
  6   4   7  1   
  7   4  25  1   
  8   4  26  1   
  9   5   8  1   
 10   5  27  1   
 11   5  28  1   
 12   6   9  1   
 13   6  29  1   
 14   6  30  1   
 15   7  10  1   
 16   7  31  1   
 17   7  32  1   
 18   8  11  1   
 19   8  33  1   
 20   8  34  1   
 21   9  12  1   
 22   9  35  1   
 23   9  36  1   
 24  10  13  1   
 25  10  14  2   
 26  11  12  1   
 27  11  15  1   
 28  11  37  1   
 29  12  38  1   
 30  12  39  1   
 31  13  16  1   
 32  13  17  1   
 33  14  18  1   
 34  14  40  1   
 35  15  19  1   
 36  15  41  1   
 37  15  42  1   
 38  16  18  2   
 39  17  43  1   
 40  17  44  1   
 41  17  45  1   
 42  18  46  1   
 43  19  20  1   
 44  19  21  1   
 45  19  47  1   
 46  20  22  1   
 47  20  48  1   
 48  20  49  1   
 49  21  23  1   
 50  21  50  1   
 51  21  51  1   
 52  22  24  1   
 53  23  24  1   
 54  23  52  1   
 55  23  53  1   
 56  24  54  1   
 57  24  55  1   
@<TRIPOS>SUBSTRUCTURE
  1 ****   2 GROUP 4 **** **** 0

# MOE 2024.06 (io_trps.svl 2023.06)
