@<TRIPOS>MOLECULE
NONAME
60 62 1 0 0 
SMALL
USER_CHARGES


@<TRIPOS>ATOM
  1 O        0.3450    -0.2020    -2.0030 O.2   1 <1>  -0.5700 
  2 C        0.7490    -1.1930    -1.4430 C.2   1 <1>   0.5690 
  3 N        1.9480    -1.1730    -0.7790 N.am  1 <1>  -0.6600 
  4 C       -0.1690    -2.4030    -1.5240 C.3   1 <1>  -0.0990 
  5 C        2.4530    -2.2730     0.0980 C.3   1 <1>   0.1400 
  6 C        2.8440     0.0400    -0.8380 C.3   1 <1>   0.2010 
  7 C        0.2940    -3.7230    -0.9080 C.3   1 <1>   0.1200 
  8 C        2.6800    -3.6260    -0.6310 C.3   1 <1>   0.2800 
  9 C        3.1030     0.6830     0.5280 C.2   1 <1>   0.5690 
 10 O        1.5660    -4.0350    -1.3790 O.3   1 <1>  -0.5600 
 11 C        3.8200    -3.5090    -1.6620 C.3   1 <1>  -0.1600 
 12 C        2.9700    -4.7290     0.4060 C.3   1 <1>  -0.1600 
 13 O        4.1730     0.4490     1.0470 O.2   1 <1>  -0.5700 
 14 N        2.1560     1.4720     1.1410 N.am  1 <1>  -0.6600 
 15 C        5.1920    -3.7450    -1.0320 C.3   1 <1>   0.2090 
 16 C        3.9540    -5.7660    -0.1250 C.3   1 <1>   0.2090 
 17 C        0.8120     1.7400     0.5550 C.3   1 <1>   0.0600 
 18 C        2.3830     2.0740     2.4850 C.3   1 <1>   0.0600 
 19 N        5.2780    -5.1010    -0.3960 N.pl3 1 <1>  -0.8380 
 20 C        6.4560    -5.7110    -0.1210 C.ar  1 <1>   0.4100 
 21 N        6.4160    -6.9900     0.2810 N.ar  1 <1>  -0.6200 
 22 C        7.6960    -5.0660    -0.2430 C.ar  1 <1>  -0.1500 
 23 C        7.5290    -7.6070     0.5310 C.ar  1 <1>   0.5280 
 24 C        8.8490    -5.7420     0.0270 C.ar  1 <1>   0.2180 
 25 N        8.7400    -7.0280     0.4140 N.ar  1 <1>  -0.1790 
 26 C        7.4610    -9.0530     0.9780 C.3   1 <1>  -0.0970 
 27 C       10.2310    -5.1100    -0.0890 C.3   1 <1>  -0.0170 
 28 C       10.9540    -5.0470     1.2630 C.3   1 <1>  -0.2400 
 29 H       -0.3640    -2.5810    -2.5650 H     1 <1>   0.0800 
 30 H       -1.1060    -2.1310    -1.0760 H     1 <1>   0.0800 
 31 H        1.7730    -2.4000     0.9210 H     1 <1>   0.0800 
 32 H        3.3900    -1.9790     0.5370 H     1 <1>   0.0800 
 33 H        2.4410     0.7830    -1.5010 H     1 <1>   0.0800 
 34 H        3.7900    -0.2570    -1.2490 H     1 <1>   0.0800 
 35 H       -0.3640    -4.5120    -1.2290 H     1 <1>   0.0800 
 36 H        0.2820    -3.7010     0.1670 H     1 <1>   0.0800 
 37 H        3.8040    -2.5440    -2.1310 H     1 <1>   0.0800 
 38 H        3.6850    -4.2390    -2.4410 H     1 <1>   0.0800 
 39 H        2.0600    -5.2160     0.7020 H     1 <1>   0.0800 
 40 H        3.4090    -4.3040     1.2910 H     1 <1>   0.0800 
 41 H        5.3840    -2.9910    -0.2870 H     1 <1>   0.0800 
 42 H        5.9360    -3.6610    -1.8060 H     1 <1>   0.0800 
 43 H        3.5770    -6.2070    -1.0320 H     1 <1>   0.0800 
 44 H        4.0540    -6.5460     0.6100 H     1 <1>   0.0800 
 45 H        0.8930     1.9620    -0.4950 H     1 <1>   0.0800 
 46 H        0.3500     2.5800     1.0420 H     1 <1>   0.0800 
 47 H        0.1840     0.8750     0.6800 H     1 <1>   0.0800 
 48 H        3.3620     1.8270     2.8570 H     1 <1>   0.0800 
 49 H        1.6490     1.7010     3.1770 H     1 <1>   0.0800 
 50 H        2.3010     3.1440     2.4210 H     1 <1>   0.0800 
 51 H        7.7290    -4.0370    -0.5440 H     1 <1>   0.1500 
 52 H        9.5740    -7.5730     0.6300 H     1 <1>   0.4570 
 53 H        6.4350    -9.3760     1.0240 H     1 <1>   0.0800 
 54 H        7.8910    -9.1630     1.9570 H     1 <1>   0.0800 
 55 H        7.9810    -9.6850     0.2820 H     1 <1>   0.0800 
 56 H       10.1350    -4.1090    -0.4730 H     1 <1>   0.0800 
 57 H       10.8270    -5.6650    -0.7930 H     1 <1>   0.0800 
 58 H       10.3690    -4.4940     1.9790 H     1 <1>   0.0800 
 59 H       11.8990    -4.5430     1.1460 H     1 <1>   0.0800 
 60 H       11.1480    -6.0290     1.6570 H     1 <1>   0.0800 
@<TRIPOS>BOND
  1   1   2  2   
  2   2   3  am  
  3   2   4  1   
  4   3   5  1   
  5   3   6  1   
  6   4   7  1   
  7   4  29  1   
  8   4  30  1   
  9   5   8  1   
 10   5  31  1   
 11   5  32  1   
 12   6   9  1   
 13   6  33  1   
 14   6  34  1   
 15   7  10  1   
 16   7  35  1   
 17   7  36  1   
 18   8  10  1   
 19   8  11  1   
 20   8  12  1   
 21   9  13  2   
 22   9  14  am  
 23  11  15  1   
 24  11  37  1   
 25  11  38  1   
 26  12  16  1   
 27  12  39  1   
 28  12  40  1   
 29  14  17  1   
 30  14  18  1   
 31  15  19  1   
 32  15  41  1   
 33  15  42  1   
 34  16  19  1   
 35  16  43  1   
 36  16  44  1   
 37  17  45  1   
 38  17  46  1   
 39  17  47  1   
 40  18  48  1   
 41  18  49  1   
 42  18  50  1   
 43  19  20  1   
 44  20  21  ar  
 45  20  22  ar  
 46  21  23  ar  
 47  22  24  ar  
 48  22  51  1   
 49  23  25  ar  
 50  23  26  1   
 51  24  25  ar  
 52  24  27  1   
 53  25  52  1   
 54  26  53  1   
 55  26  54  1   
 56  26  55  1   
 57  27  28  1   
 58  27  56  1   
 59  27  57  1   
 60  28  58  1   
 61  28  59  1   
 62  28  60  1   
@<TRIPOS>SUBSTRUCTURE
  1 ****  15 GROUP 4 **** **** 0

# MOE 2024.06 (io_trps.svl 2023.06)
