@<TRIPOS>MOLECULE
NONAME
44 48 1 0 0 
SMALL
USER_CHARGES


@<TRIPOS>ATOM
  1 O        2.8390    -0.6290     1.4260 O.2   1 <1>  -0.5700 
  2 C        2.1360    -0.8630     0.4730 C.2   1 <1>   0.5690 
  3 N        1.8630     0.0930    -0.4600 N.am  1 <1>  -0.4940 
  4 C        1.5240    -2.2730     0.3190 C.3   1 <1>   0.0610 
  5 C        2.2170     1.4460    -0.5170 C.2   1 <1>   0.2500 
  6 C        0.6680    -2.6120     1.5650 C.3   1 <1>  -0.1600 
  7 C        0.6160    -2.4120    -0.9360 C.3   1 <1>  -0.1600 
  8 C        2.6570    -3.3240     0.2070 C.3   1 <1>  -0.1600 
  9 N        1.4340     2.2970    -1.1010 N.2   1 <1>  -0.3380 
 10 N        3.3370     2.0370    -0.0410 N.pl3 1 <1>   0.3340 
 11 C        0.0850    -4.0350     1.4680 C.3   1 <1>  -0.0800 
 12 C        0.0340    -3.8330    -1.0450 C.3   1 <1>  -0.0800 
 13 C        2.0840    -4.7500     0.1030 C.3   1 <1>  -0.0800 
 14 N        2.0030     3.4970    -1.0090 N.2   1 <1>  -0.3380 
 15 C        3.1310     3.3430    -0.3810 C.2   1 <1>   0.3130 
 16 C        4.5490     1.6730     0.5370 C.2   1 <1>  -0.1810 
 17 C       -0.8000    -4.1360     0.2130 C.3   1 <1>  -0.1600 
 18 C        1.2400    -5.0470     1.3560 C.3   1 <1>  -0.1600 
 19 C        1.1890    -4.8460    -1.1460 C.3   1 <1>  -0.1600 
 20 N        4.0340     4.3450    -0.0960 N.2   1 <1>  -0.5760 
 21 C        5.4470     2.6530     0.8040 C.2   1 <1>  -0.1360 
 22 C        5.1360     4.0020     0.4750 C.2   1 <1>   0.3750 
 23 C        6.1520     5.0730     0.8070 C.3   1 <1>  -0.1790 
 24 H        1.1430    -0.1490    -1.1380 H     1 <1>   0.3700 
 25 H       -0.1320    -1.8990     1.6630 H     1 <1>   0.0800 
 26 H        1.2730    -2.5390     2.4530 H     1 <1>   0.0800 
 27 H        1.1830    -2.2020    -1.8270 H     1 <1>   0.0800 
 28 H       -0.1980    -1.7100    -0.8820 H     1 <1>   0.0800 
 29 H        3.2960    -3.2620     1.0720 H     1 <1>   0.0800 
 30 H        3.2640    -3.1150    -0.6570 H     1 <1>   0.0800 
 31 H       -0.5020    -4.2490     2.3450 H     1 <1>   0.0800 
 32 H       -0.5900    -3.9080    -1.9200 H     1 <1>   0.0800 
 33 H        2.8880    -5.4620     0.0300 H     1 <1>   0.0800 
 34 H        4.7160     0.6330     0.7440 H     1 <1>   0.1500 
 35 H       -1.6190    -3.4410     0.2860 H     1 <1>   0.0800 
 36 H       -1.2190    -5.1250     0.1420 H     1 <1>   0.0800 
 37 H        0.8440    -6.0460     1.3000 H     1 <1>   0.0800 
 38 H        1.8600    -4.9910     2.2350 H     1 <1>   0.0800 
 39 H        1.7720    -4.6530    -2.0290 H     1 <1>   0.0800 
 40 H        0.7910    -5.8430    -1.2300 H     1 <1>   0.0800 
 41 H        6.3990     2.4450     1.2590 H     1 <1>   0.1500 
 42 H        7.0710     4.8790     0.2850 H     1 <1>   0.0800 
 43 H        6.3370     5.0860     1.8650 H     1 <1>   0.0800 
 44 H        5.7830     6.0390     0.5090 H     1 <1>   0.0800 
@<TRIPOS>BOND
  1   1   2  2   
  2   2   3  am  
  3   2   4  1   
  4   3   5  1   
  5   3  24  1   
  6   4   6  1   
  7   4   7  1   
  8   4   8  1   
  9   5   9  2   
 10   5  10  1   
 11   6  11  1   
 12   6  25  1   
 13   6  26  1   
 14   7  12  1   
 15   7  27  1   
 16   7  28  1   
 17   8  13  1   
 18   8  29  1   
 19   8  30  1   
 20   9  14  1   
 21  10  15  1   
 22  10  16  1   
 23  11  17  1   
 24  11  18  1   
 25  11  31  1   
 26  12  17  1   
 27  12  19  1   
 28  12  32  1   
 29  13  18  1   
 30  13  19  1   
 31  13  33  1   
 32  14  15  2   
 33  15  20  1   
 34  16  21  2   
 35  16  34  1   
 36  17  35  1   
 37  17  36  1   
 38  18  37  1   
 39  18  38  1   
 40  19  39  1   
 41  19  40  1   
 42  20  22  2   
 43  21  22  1   
 44  21  41  1   
 45  22  23  1   
 46  23  42  1   
 47  23  43  1   
 48  23  44  1   
@<TRIPOS>SUBSTRUCTURE
  1 ****   2 GROUP 4 **** **** 0

# MOE 2024.06 (io_trps.svl 2023.06)
