@<TRIPOS>MOLECULE
NONAME
45 46 1 0 0 
SMALL
USER_CHARGES


@<TRIPOS>ATOM
  1 O        1.8670    -0.4940     2.8510 O.2   1 <1>  -0.5700 
  2 C        1.6510    -0.7860     1.6900 C.2   1 <1>   0.5440 
  3 N        1.7250     0.1930     0.7270 N.am  1 <1>  -0.4940 
  4 C        1.3030    -2.1520     1.3490 C.ar  1 <1>   0.0860 
  5 C        2.1120     1.5540     0.7660 C.2   1 <1>  -0.0880 
  6 C        1.4920    -2.7210     0.0750 C.ar  1 <1>   0.3920 
  7 C        0.7460    -2.9790     2.3220 C.ar  1 <1>  -0.1500 
  8 N        1.9230     2.4630     1.7630 N.pl3 1 <1>   0.3140 
  9 C        2.7510     2.2130    -0.2310 C.2   1 <1>  -0.1810 
 10 O        2.0510    -1.9640    -0.8970 O.3   1 <1>  -0.3630 
 11 N        1.1660    -3.9650    -0.2670 N.ar  1 <1>  -0.6200 
 12 C        0.4120    -4.2670     1.9820 C.ar  1 <1>  -0.1500 
 13 N        2.4270     3.6720     1.4290 N.2   1 <1>  -0.7070 
 14 C        1.1940     2.3090     3.0280 C.3   1 <1>   0.0160 
 15 C        2.9240     3.5110     0.2430 C.2   1 <1>   0.1080 
 16 C        3.1910     1.6540    -1.5750 C.3   1 <1>   0.0210 
 17 C        2.3420    -2.4760    -2.1850 C.3   1 <1>   0.0400 
 18 C        0.6350    -4.7120     0.6900 C.ar  1 <1>   0.3930 
 19 C        3.6050     4.6490    -0.4960 C.3   1 <1>   0.0210 
 20 C        4.5420     0.9500    -1.4430 C.3   1 <1>  -0.2400 
 21 O        0.2840    -5.9800     0.4120 O.3   1 <1>  -0.3630 
 22 C        2.6110     5.4060    -1.3830 C.3   1 <1>  -0.2400 
 23 C        0.4750    -6.5320    -0.8760 C.3   1 <1>   0.0400 
 24 H        1.7070    -0.1920    -0.2210 H     1 <1>   0.3700 
 25 H        0.5830    -2.6130     3.3220 H     1 <1>   0.1500 
 26 H       -0.0200    -4.9390     2.7000 H     1 <1>   0.1500 
 27 H        0.3620     1.6490     2.8810 H     1 <1>   0.0800 
 28 H        0.8420     3.2710     3.3510 H     1 <1>   0.0800 
 29 H        1.8600     1.9020     3.7650 H     1 <1>   0.0800 
 30 H        3.2610     2.4470    -2.2970 H     1 <1>   0.0800 
 31 H        2.4540     0.9560    -1.9300 H     1 <1>   0.0800 
 32 H        2.8010    -1.6970    -2.7660 H     1 <1>   0.0800 
 33 H        1.4250    -2.7940    -2.6500 H     1 <1>   0.0800 
 34 H        3.0190    -3.3070    -2.0850 H     1 <1>   0.0800 
 35 H        4.4110     4.2600    -1.0910 H     1 <1>   0.0800 
 36 H        4.0250     5.3240     0.2270 H     1 <1>   0.0800 
 37 H        5.2860     1.6430    -1.0920 H     1 <1>   0.0800 
 38 H        4.8520     0.5560    -2.3940 H     1 <1>   0.0800 
 39 H        4.4690     0.1410    -0.7370 H     1 <1>   0.0800 
 40 H        2.1800     4.7430    -2.1120 H     1 <1>   0.0800 
 41 H        3.1060     6.2130    -1.8910 H     1 <1>   0.0800 
 42 H        1.8200     5.8090    -0.7750 H     1 <1>   0.0800 
 43 H        0.1260    -7.5490    -0.8640 H     1 <1>   0.0800 
 44 H        1.5240    -6.5040    -1.1140 H     1 <1>   0.0800 
 45 H       -0.0880    -5.9550    -1.5890 H     1 <1>   0.0800 
@<TRIPOS>BOND
  1   1   2  2   
  2   2   3  am  
  3   2   4  1   
  4   3   5  1   
  5   3  24  1   
  6   4   6  ar  
  7   4   7  ar  
  8   5   8  1   
  9   5   9  2   
 10   6  10  1   
 11   6  11  ar  
 12   7  12  ar  
 13   7  25  1   
 14   8  13  1   
 15   8  14  1   
 16   9  15  1   
 17   9  16  1   
 18  10  17  1   
 19  11  18  ar  
 20  12  18  ar  
 21  12  26  1   
 22  13  15  2   
 23  14  27  1   
 24  14  28  1   
 25  14  29  1   
 26  15  19  1   
 27  16  20  1   
 28  16  30  1   
 29  16  31  1   
 30  17  32  1   
 31  17  33  1   
 32  17  34  1   
 33  18  21  1   
 34  19  22  1   
 35  19  35  1   
 36  19  36  1   
 37  20  37  1   
 38  20  38  1   
 39  20  39  1   
 40  21  23  1   
 41  22  40  1   
 42  22  41  1   
 43  22  42  1   
 44  23  43  1   
 45  23  44  1   
 46  23  45  1   
@<TRIPOS>SUBSTRUCTURE
  1 ****   3 GROUP 4 **** **** 0

# MOE 2024.06 (io_trps.svl 2023.06)
