@<TRIPOS>MOLECULE
NONAME
57 59 1 0 0 
SMALL
USER_CHARGES


@<TRIPOS>ATOM
  1 O        0.3840     0.8800    -0.2700 O.2   1 <1>  -0.5700 
  2 C        0.1530     2.0640    -0.3320 C.2   1 <1>   0.5690 
  3 N       -0.6990     2.6940     0.5380 N.am  1 <1>  -0.6600 
  4 C        0.8330     2.8760    -1.4330 C.3   1 <1>   0.1810 
  5 C       -0.9760     4.1660     0.4340 C.3   1 <1>   0.3640 
  6 C       -1.3640     1.9730     1.6620 C.3   1 <1>   0.0600 
  7 O        0.9630     4.2320    -1.0900 O.3   1 <1>  -0.5600 
  8 C       -2.4910     4.4030     0.3630 C.ar  1 <1>  -0.1430 
  9 C       -0.2670     4.8560    -0.7610 C.3   1 <1>   0.2610 
 10 C       -3.1530     5.2870     1.2160 C.ar  1 <1>  -0.1430 
 11 C       -3.2270     3.7100    -0.5920 C.ar  1 <1>  -0.1500 
 12 C       -0.0950     6.3500    -0.4530 C.2   1 <1>   0.5690 
 13 C       -4.5250     5.4570     1.0930 C.ar  1 <1>  -0.1500 
 14 C       -2.4300     6.0920     2.2890 C.3   1 <1>  -0.0960 
 15 C       -4.5930     3.8860    -0.7060 C.ar  1 <1>  -0.1500 
 16 O       -0.8560     7.1130    -1.0030 O.2   1 <1>  -0.5700 
 17 N        0.8470     6.8200     0.4390 N.am  1 <1>  -0.6600 
 18 C       -5.2430     4.7620     0.1380 C.ar  1 <1>  -0.1500 
 19 C        0.9630     8.2860     0.7410 C.3   1 <1>   0.1400 
 20 C        1.9700     5.9990     0.9890 C.3   1 <1>   0.1400 
 21 C        2.4310     8.7970     0.6750 C.3   1 <1>   0.2800 
 22 C        2.8210     6.7960     1.9910 C.3   1 <1>   0.1200 
 23 O        3.3070     7.9830     1.4240 O.3   1 <1>  -0.5600 
 24 C        2.5000    10.2070     1.3090 C.3   1 <1>  -0.1600 
 25 C        2.9780     8.7580    -0.7740 C.3   1 <1>  -0.1600 
 26 C        3.8950    10.8590     1.3350 C.3   1 <1>  -0.2400 
 27 C        2.2660     9.6720    -1.7880 C.3   1 <1>  -0.2400 
 28 H        0.2660     2.8030    -2.3430 H     1 <1>   0.0800 
 29 H        1.8190     2.4860    -1.6050 H     1 <1>   0.0800 
 30 H       -0.5940     4.6080     1.3330 H     1 <1>   0.0800 
 31 H       -1.1940     2.4970     2.5860 H     1 <1>   0.0800 
 32 H       -0.9750     0.9740     1.7580 H     1 <1>   0.0800 
 33 H       -2.4230     1.9110     1.4830 H     1 <1>   0.0800 
 34 H       -0.8960     4.7820    -1.6290 H     1 <1>   0.0800 
 35 H       -2.7380     3.0180    -1.2560 H     1 <1>   0.1500 
 36 H       -5.0480     6.1380     1.7400 H     1 <1>   0.1500 
 37 H       -3.1230     6.6880     2.8550 H     1 <1>   0.0800 
 38 H       -1.7180     6.7570     1.8370 H     1 <1>   0.0800 
 39 H       -1.9250     5.4350     2.9730 H     1 <1>   0.0800 
 40 H       -5.1480     3.3420    -1.4510 H     1 <1>   0.1500 
 41 H       -6.3060     4.9050     0.0530 H     1 <1>   0.1500 
 42 H        0.3550     8.8610     0.0670 H     1 <1>   0.0800 
 43 H        0.5760     8.4600     1.7280 H     1 <1>   0.0800 
 44 H        1.5830     5.1210     1.4740 H     1 <1>   0.0800 
 45 H        2.6060     5.6790     0.1810 H     1 <1>   0.0800 
 46 H        3.6710     6.2150     2.3020 H     1 <1>   0.0800 
 47 H        2.2420     7.0490     2.8610 H     1 <1>   0.0800 
 48 H        1.8260    10.8630     0.7890 H     1 <1>   0.0800 
 49 H        2.1450    10.1370     2.3220 H     1 <1>   0.0800 
 50 H        4.0220     9.0150    -0.7580 H     1 <1>   0.0800 
 51 H        2.9110     7.7490    -1.1390 H     1 <1>   0.0800 
 52 H        4.2470    11.0550     0.3390 H     1 <1>   0.0800 
 53 H        4.6010    10.2170     1.8330 H     1 <1>   0.0800 
 54 H        3.8520    11.7930     1.8670 H     1 <1>   0.0800 
 55 H        2.3250    10.7030    -1.4910 H     1 <1>   0.0800 
 56 H        1.2330     9.3940    -1.8990 H     1 <1>   0.0800 
 57 H        2.7370     9.5740    -2.7500 H     1 <1>   0.0800 
@<TRIPOS>BOND
  1   1   2  2   
  2   2   3  am  
  3   2   4  1   
  4   3   5  1   
  5   3   6  1   
  6   4   7  1   
  7   4  28  1   
  8   4  29  1   
  9   5   8  1   
 10   5   9  1   
 11   5  30  1   
 12   6  31  1   
 13   6  32  1   
 14   6  33  1   
 15   7   9  1   
 16   8  10  ar  
 17   8  11  ar  
 18   9  12  1   
 19   9  34  1   
 20  10  13  ar  
 21  10  14  1   
 22  11  15  ar  
 23  11  35  1   
 24  12  16  2   
 25  12  17  am  
 26  13  18  ar  
 27  13  36  1   
 28  14  37  1   
 29  14  38  1   
 30  14  39  1   
 31  15  18  ar  
 32  15  40  1   
 33  17  19  1   
 34  17  20  1   
 35  18  41  1   
 36  19  21  1   
 37  19  42  1   
 38  19  43  1   
 39  20  22  1   
 40  20  44  1   
 41  20  45  1   
 42  21  23  1   
 43  21  24  1   
 44  21  25  1   
 45  22  23  1   
 46  22  46  1   
 47  22  47  1   
 48  24  26  1   
 49  24  48  1   
 50  24  49  1   
 51  25  27  1   
 52  25  50  1   
 53  25  51  1   
 54  26  52  1   
 55  26  53  1   
 56  26  54  1   
 57  27  55  1   
 58  27  56  1   
 59  27  57  1   
@<TRIPOS>SUBSTRUCTURE
  1 ****  12 GROUP 4 **** **** 0

# MOE 2024.06 (io_trps.svl 2023.06)
