@<TRIPOS>MOLECULE
NONAME
26 28 1 0 0 
SMALL
USER_CHARGES


@<TRIPOS>ATOM
  1 O        1.2760     1.0470     2.2530 O.2   1 <1>  -0.5700 
  2 C        2.1780     1.0140     1.4300 C.2   1 <1>   0.7670 
  3 N        3.0190    -0.0590     1.4250 N.2   1 <1>  -0.6610 
  4 C        2.3310     2.0870     0.5040 C.2   1 <1>  -0.1360 
  5 C        3.9410    -0.0340     0.5330 C.2   1 <1>   0.6500 
  6 C        3.3220     2.0520    -0.4150 C.2   1 <1>  -0.0500 
  7 O        4.8410    -0.9990     0.4160 O.3   1 <1>  -0.4300 
  8 N        4.1280     0.9460    -0.3860 N.pl3 1 <1>  -0.5190 
  9 C        5.7550    -0.7100    -0.6270 C.3   1 <1>   0.2000 
 10 C        5.2790     0.6210    -1.2080 C.3   1 <1>   0.5690 
 11 C        7.1330    -0.4010    -0.0640 C.3   1 <1>   0.2000 
 12 O        6.2500     1.5860    -0.9590 O.3   1 <1>  -0.5600 
 13 O        8.0820    -1.3440    -0.4610 O.3   1 <1>  -0.6800 
 14 C        7.4680     0.9850    -0.6200 C.3   1 <1>   0.2000 
 15 C        8.2290     1.8690     0.3780 C.3   1 <1>   0.1200 
 16 O        8.3030     3.1610    -0.1170 O.3   1 <1>  -0.6800 
 17 H        1.6340     2.8970     0.5850 H     1 <1>   0.1500 
 18 H        3.5110     2.8250    -1.1430 H     1 <1>   0.1500 
 19 H        5.7430    -1.5060    -1.3490 H     1 <1>   0.0800 
 20 H        5.0510     0.5840    -2.2600 H     1 <1>   0.0800 
 21 H        7.1080    -0.3890     1.0130 H     1 <1>   0.0800 
 22 H        8.1950    -1.3820    -1.4310 H     1 <1>   0.4000 
 23 H        8.0400     0.8910    -1.5270 H     1 <1>   0.0800 
 24 H        9.2310     1.5050     0.5300 H     1 <1>   0.0800 
 25 H        7.7180     1.9010     1.3250 H     1 <1>   0.0800 
 26 H        7.4110     3.4290    -0.4250 H     1 <1>   0.4000 
@<TRIPOS>BOND
  1   1   2  2   
  2   2   3  1   
  3   2   4  1   
  4   3   5  2   
  5   4   6  2   
  6   4  17  1   
  7   5   7  1   
  8   5   8  1   
  9   6   8  1   
 10   6  18  1   
 11   7   9  1   
 12   8  10  1   
 13   9  10  1   
 14   9  11  1   
 15   9  19  1   
 16  10  12  1   
 17  10  20  1   
 18  11  13  1   
 19  11  14  1   
 20  11  21  1   
 21  12  14  1   
 22  13  22  1   
 23  14  15  1   
 24  14  23  1   
 25  15  16  1   
 26  15  24  1   
 27  15  25  1   
 28  16  26  1   
@<TRIPOS>SUBSTRUCTURE
  1 ****   8 GROUP 4 **** **** 0

# MOE 2024.06 (io_trps.svl 2023.06)
