@<TRIPOS>MOLECULE
NONAME
54 57 1 0 0 
SMALL
USER_CHARGES


@<TRIPOS>ATOM
  1 O       -1.5190     0.6460     2.7790 O.2   1 <1>  -0.5700 
  2 C       -1.7450     0.9560     1.6190 C.2   1 <1>   0.7160 
  3 N       -2.1420    -0.0450     0.7520 N.am  1 <1>  -0.6600 
  4 C       -1.6570     2.3400     1.1790 C.2   1 <1>   0.1410 
  5 C       -2.8600    -1.2350     1.2880 C.3   1 <1>   0.1400 
  6 C       -2.1510     0.1300    -0.7210 C.3   1 <1>   0.1400 
  7 N       -0.5770     2.8820     0.5460 N.2   1 <1>  -0.5650 
  8 C       -2.6320     3.2890     1.2790 C.2   1 <1>  -0.3320 
  9 C       -3.8850    -1.8230     0.2840 C.3   1 <1>   0.4230 
 10 C       -3.5910     0.1910    -1.2500 C.3   1 <1>  -0.1600 
 11 C       -0.9080     4.1150     0.2780 C.2   1 <1>   0.1330 
 12 N       -2.1590     4.4010     0.7170 N.pl3 1 <1>   0.0330 
 13 C       -4.0270     3.1780     1.8770 C.3   1 <1>  -0.0600 
 14 N       -4.8750    -2.7470     0.9400 N.4   1 <1>  -0.9590 
 15 C       -4.6250    -0.7050    -0.4880 C.3   1 <1>  -0.1060 
 16 C       -0.0710     5.0850    -0.3930 C.ar  1 <1>   0.0530 
 17 C       -5.7840    -3.4050    -0.0320 C.3   1 <1>   0.3430 
 18 C       -4.3110    -3.6970     1.9370 C.3   1 <1>   0.2630 
 19 C       -5.4560     0.1330     0.5070 C.2   1 <1>   0.9060 
 20 C       -5.5760    -1.3550    -1.5250 C.3   1 <1>  -0.1600 
 21 C        1.3180     5.0090    -0.2970 C.ar  1 <1>  -0.1500 
 22 C       -0.6060     6.1250    -1.1550 C.ar  1 <1>  -0.1500 
 23 C       -6.5300    -2.3590    -0.8610 C.3   1 <1>  -0.1600 
 24 O       -5.9050     1.2240     0.1580 O.co2 1 <1>  -0.9000 
 25 O       -5.7430    -0.3510     1.6160 O.co2 1 <1>  -0.9000 
 26 C        2.1380     5.9320    -0.9200 C.ar  1 <1>  -0.1500 
 27 C        0.2090     7.0530    -1.7800 C.ar  1 <1>  -0.1500 
 28 C        1.5840     6.9600    -1.6620 C.ar  1 <1>  -0.1500 
 29 H       -2.1300    -1.9810     1.5450 H     1 <1>   0.0800 
 30 H       -3.3770    -0.9390     2.1860 H     1 <1>   0.0800 
 31 H       -1.6180     1.0190    -1.0120 H     1 <1>   0.0800 
 32 H       -1.6380    -0.7060    -1.1640 H     1 <1>   0.0800 
 33 H       -3.3240    -2.3940    -0.4340 H     1 <1>   0.0800 
 34 H       -3.9060     1.2200    -1.2230 H     1 <1>   0.0800 
 35 H       -3.5560    -0.0700    -2.2920 H     1 <1>   0.0800 
 36 H       -2.6360     5.3000     0.6260 H     1 <1>   0.2700 
 37 H       -4.2070     2.1840     2.2470 H     1 <1>   0.0800 
 38 H       -4.7720     3.3880     1.1290 H     1 <1>   0.0800 
 39 H       -4.1450     3.8680     2.6910 H     1 <1>   0.0800 
 40 H       -5.4620    -2.0370     1.4600 H     1 <1>   0.4500 
 41 H       -5.2110    -4.0410    -0.6870 H     1 <1>   0.0800 
 42 H       -6.5010    -4.0130     0.4940 H     1 <1>   0.0800 
 43 H       -3.6240    -4.3770     1.4600 H     1 <1>   0.0800 
 44 H       -5.1040    -4.2630     2.3960 H     1 <1>   0.0800 
 45 H       -3.7910    -3.1580     2.7120 H     1 <1>   0.0800 
 46 H       -6.1540    -0.5830    -2.0080 H     1 <1>   0.0800 
 47 H       -5.0060    -1.8640    -2.2830 H     1 <1>   0.0800 
 48 H        1.7530     4.2100     0.2780 H     1 <1>   0.1500 
 49 H       -1.6700     6.2080    -1.2720 H     1 <1>   0.1500 
 50 H       -7.1090    -2.8550    -1.6190 H     1 <1>   0.0800 
 51 H       -7.2250    -1.8360    -0.2240 H     1 <1>   0.0800 
 52 H        3.2070     5.8500    -0.8260 H     1 <1>   0.1500 
 53 H       -0.2250     7.8480    -2.3620 H     1 <1>   0.1500 
 54 H        2.2200     7.6800    -2.1470 H     1 <1>   0.1500 
@<TRIPOS>BOND
  1   1   2  2   
  2   2   3  am  
  3   2   4  1   
  4   3   5  1   
  5   3   6  1   
  6   4   7  1   
  7   4   8  2   
  8   5   9  1   
  9   5  29  1   
 10   5  30  1   
 11   6  10  1   
 12   6  31  1   
 13   6  32  1   
 14   7  11  2   
 15   8  12  1   
 16   8  13  1   
 17   9  14  1   
 18   9  15  1   
 19   9  33  1   
 20  10  15  1   
 21  10  34  1   
 22  10  35  1   
 23  11  12  1   
 24  11  16  1   
 25  12  36  1   
 26  13  37  1   
 27  13  38  1   
 28  13  39  1   
 29  14  17  1   
 30  14  18  1   
 31  14  40  1   
 32  15  19  1   
 33  15  20  1   
 34  16  21  ar  
 35  16  22  ar  
 36  17  23  1   
 37  17  41  1   
 38  17  42  1   
 39  18  43  1   
 40  18  44  1   
 41  18  45  1   
 42  19  24  ar  
 43  19  25  ar  
 44  20  23  1   
 45  20  46  1   
 46  20  47  1   
 47  21  26  ar  
 48  21  48  1   
 49  22  27  ar  
 50  22  49  1   
 51  23  50  1   
 52  23  51  1   
 53  26  28  ar  
 54  26  52  1   
 55  27  28  ar  
 56  27  53  1   
 57  28  54  1   
@<TRIPOS>SUBSTRUCTURE
  1 ****   4 GROUP 4 **** **** 0

# MOE 2024.06 (io_trps.svl 2023.06)
