@<TRIPOS>MOLECULE
NONAME
45 47 1 0 0 
SMALL
USER_CHARGES


@<TRIPOS>ATOM
  1 O       -2.4910     1.2350    -0.5340 O.co2 1 <1>  -0.9000 
  2 C       -1.2750     1.4300    -0.3950 C.2   1 <1>   0.9060 
  3 O       -0.4180     0.5620    -0.5650 O.co2 1 <1>  -0.9000 
  4 C       -0.8560     2.8370     0.0540 C.3   1 <1>   0.3170 
  5 N       -1.9700     3.5420     0.8370 N.4   1 <1>  -0.9590 
  6 C       -0.4610     3.6100    -1.2200 C.3   1 <1>   0.1100 
  7 C       -1.7440     5.0130     0.9850 C.3   1 <1>   0.3430 
  8 C       -2.2090     2.8380     2.1260 C.3   1 <1>   0.2630 
  9 N       -0.2040     5.0470    -0.9700 N.3   1 <1>  -0.8100 
 10 C       -1.3880     5.6820    -0.3550 C.3   1 <1>   0.1100 
 11 C        0.2060     5.7240    -2.2140 C.3   1 <1>   0.2530 
 12 C        0.6050     7.1660    -1.9360 C.ar  1 <1>  -0.1440 
 13 C        1.6290     7.4430    -1.0440 C.ar  1 <1>  -0.1500 
 14 C       -0.0520     8.2130    -2.5620 C.ar  1 <1>  -0.1500 
 15 C        2.0210     8.7480    -0.7520 C.ar  1 <1>   0.0530 
 16 C        0.3150     9.5190    -2.2900 C.ar  1 <1>  -0.1500 
 17 C        3.0910     9.0200     0.1830 C.2   1 <1>   0.0870 
 18 C        1.3370     9.7780    -1.3960 C.ar  1 <1>  -0.1500 
 19 O        3.3660    10.2680     0.5450 O.3   1 <1>  -0.2800 
 20 C        3.9530     8.1860     0.8270 C.2   1 <1>  -0.1500 
 21 C        4.3690    10.2540     1.3950 C.2   1 <1>  -0.0400 
 22 C        4.7820     8.9890     1.6130 C.2   1 <1>  -0.1500 
 23 C        4.8660    11.5690     1.9530 C.3   1 <1>  -0.0600 
 24 H        0.0160     2.7330     0.6720 H     1 <1>   0.0800 
 25 H       -2.7930     3.3350     0.2400 H     1 <1>   0.4500 
 26 H       -1.2460     3.4990    -1.9510 H     1 <1>   0.0800 
 27 H        0.4250     3.1500    -1.6260 H     1 <1>   0.0800 
 28 H       -0.9290     5.1820     1.6680 H     1 <1>   0.0800 
 29 H       -2.6250     5.4780     1.3920 H     1 <1>   0.0800 
 30 H       -1.3340     2.8970     2.7520 H     1 <1>   0.0800 
 31 H       -2.4310     1.7980     1.9380 H     1 <1>   0.0800 
 32 H       -3.0450     3.2770     2.6440 H     1 <1>   0.0800 
 33 H       -1.1830     6.7210    -0.1620 H     1 <1>   0.0800 
 34 H       -2.2290     5.6270    -1.0240 H     1 <1>   0.0800 
 35 H       -0.5950     5.6890    -2.9330 H     1 <1>   0.0800 
 36 H        1.0550     5.2110    -2.6350 H     1 <1>   0.0800 
 37 H        2.1270     6.6220    -0.5620 H     1 <1>   0.1500 
 38 H       -0.8480     8.0220    -3.2600 H     1 <1>   0.1500 
 39 H       -0.1930    10.3340    -2.7740 H     1 <1>   0.1500 
 40 H        1.6140    10.7980    -1.1930 H     1 <1>   0.1500 
 41 H        4.0140     7.1160     0.7630 H     1 <1>   0.1500 
 42 H        5.5750     8.6400     2.2490 H     1 <1>   0.1500 
 43 H        4.0700    12.0630     2.4790 H     1 <1>   0.0800 
 44 H        5.1990    12.2000     1.1490 H     1 <1>   0.0800 
 45 H        5.6840    11.4010     2.6300 H     1 <1>   0.0800 
@<TRIPOS>BOND
  1   1   2  ar  
  2   2   3  ar  
  3   2   4  1   
  4   4   5  1   
  5   4   6  1   
  6   4  24  1   
  7   5   7  1   
  8   5   8  1   
  9   5  25  1   
 10   6   9  1   
 11   6  26  1   
 12   6  27  1   
 13   7  10  1   
 14   7  28  1   
 15   7  29  1   
 16   8  30  1   
 17   8  31  1   
 18   8  32  1   
 19   9  10  1   
 20   9  11  1   
 21  10  33  1   
 22  10  34  1   
 23  11  12  1   
 24  11  35  1   
 25  11  36  1   
 26  12  13  ar  
 27  12  14  ar  
 28  13  15  ar  
 29  13  37  1   
 30  14  16  ar  
 31  14  38  1   
 32  15  17  1   
 33  15  18  ar  
 34  16  18  ar  
 35  16  39  1   
 36  17  19  1   
 37  17  20  2   
 38  18  40  1   
 39  19  21  1   
 40  20  22  1   
 41  20  41  1   
 42  21  22  2   
 43  21  23  1   
 44  22  42  1   
 45  23  43  1   
 46  23  44  1   
 47  23  45  1   
@<TRIPOS>SUBSTRUCTURE
  1 ****  13 GROUP 4 **** **** 0

# MOE 2024.06 (io_trps.svl 2023.06)
