@<TRIPOS>MOLECULE
NONAME
58 60 1 0 0 
SMALL
USER_CHARGES


@<TRIPOS>ATOM
  1 O        1.8680    -1.4820     1.8590 O.2   1 <1>  -0.5700 
  2 C        1.7180    -1.4700     0.6630 C.2   1 <1>   0.5690 
  3 N        1.7450    -0.3310    -0.0700 N.am  1 <1>  -0.7300 
  4 C        1.4680    -2.7790    -0.0490 C.3   1 <1>  -0.0990 
  5 C        1.9570     1.0230     0.4680 C.3   1 <1>   0.2200 
  6 C       -0.0130    -3.1750     0.0380 C.3   1 <1>  -0.0990 
  7 C        0.7090     1.8580     0.1500 C.3   1 <1>  -0.1600 
  8 C        3.2630     1.5600    -0.1290 C.3   1 <1>  -0.1600 
  9 C       -0.2740    -4.4690    -0.6950 C.2   1 <1>   0.5690 
 10 C        0.6710     3.1770     0.9370 C.3   1 <1>  -0.1600 
 11 C        3.6080     3.0090     0.2560 C.3   1 <1>  -0.1600 
 12 O       -0.4590    -4.4400    -1.8860 O.2   1 <1>  -0.5700 
 13 N       -0.2930    -5.6260     0.0070 N.am  1 <1>  -0.7300 
 14 C        1.3950     4.3540     0.2660 C.3   1 <1>  -0.1600 
 15 C        2.7140     4.0340    -0.4550 C.3   1 <1>  -0.1600 
 16 C       -0.5090    -6.9700    -0.5800 C.3   1 <1>   0.2200 
 17 C       -1.9090    -7.4880    -0.2780 C.3   1 <1>  -0.0800 
 18 C        0.3330    -7.9820     0.1830 C.3   1 <1>   0.1200 
 19 C       -1.7560    -8.1040     1.1180 C.3   1 <1>   0.1200 
 20 C       -3.0490    -6.4600    -0.3970 C.3   1 <1>  -0.0170 
 21 O       -0.3840    -8.2440     1.3510 O.3   1 <1>  -0.5600 
 22 C       -4.3990    -7.1180    -0.1590 C.ar  1 <1>  -0.1440 
 23 C       -5.0440    -7.0510     1.0600 C.ar  1 <1>  -0.1500 
 24 C       -5.0500    -7.8180    -1.1550 C.ar  1 <1>  -0.1500 
 25 C       -6.2700    -7.6760     1.2210 C.ar  1 <1>   0.1600 
 26 C       -6.2750    -8.4070    -0.8900 C.ar  1 <1>   0.1600 
 27 N       -6.9000    -8.3540     0.2760 N.ar  1 <1>  -0.6200 
 28 H        1.6020    -0.3730    -1.0790 H     1 <1>   0.3700 
 29 H        1.7630    -2.6930    -1.0790 H     1 <1>   0.0800 
 30 H        2.0750    -3.5390     0.4090 H     1 <1>   0.0800 
 31 H        2.0680     0.9600     1.5390 H     1 <1>   0.0800 
 32 H       -0.6200    -2.4050    -0.4020 H     1 <1>   0.0800 
 33 H       -0.3020    -3.2760     1.0690 H     1 <1>   0.0800 
 34 H        0.6300     2.0460    -0.9050 H     1 <1>   0.0800 
 35 H       -0.1500     1.2830     0.4510 H     1 <1>   0.0800 
 36 H        4.0610     0.9280     0.2200 H     1 <1>   0.0800 
 37 H        3.2300     1.4810    -1.2010 H     1 <1>   0.0800 
 38 H       -0.3570     3.4640     1.0790 H     1 <1>   0.0800 
 39 H        1.0820     3.0170     1.9200 H     1 <1>   0.0800 
 40 H        3.5690     3.1420     1.3240 H     1 <1>   0.0800 
 41 H        4.6250     3.1900    -0.0490 H     1 <1>   0.0800 
 42 H       -0.1440    -5.6340     1.0190 H     1 <1>   0.3700 
 43 H        0.7300     4.8060    -0.4500 H     1 <1>   0.0800 
 44 H        1.5880     5.0960     1.0220 H     1 <1>   0.0800 
 45 H        3.2620     4.9550    -0.5560 H     1 <1>   0.0800 
 46 H        2.5020     3.6930    -1.4540 H     1 <1>   0.0800 
 47 H       -0.2870    -6.9640    -1.6340 H     1 <1>   0.0800 
 48 H       -2.1130    -8.2940    -0.9610 H     1 <1>   0.0800 
 49 H        1.3120    -7.6120     0.4310 H     1 <1>   0.0800 
 50 H        0.4160    -8.9030    -0.3670 H     1 <1>   0.0800 
 51 H       -2.2230    -9.0720     1.1800 H     1 <1>   0.0800 
 52 H       -2.1510    -7.4600     1.8840 H     1 <1>   0.0800 
 53 H       -3.0330    -6.0220    -1.3800 H     1 <1>   0.0800 
 54 H       -2.9140    -5.6630     0.3120 H     1 <1>   0.0800 
 55 H       -4.6080    -6.5200     1.8850 H     1 <1>   0.1500 
 56 H       -4.6150    -7.9120    -2.1330 H     1 <1>   0.1500 
 57 H       -6.7580    -7.6140     2.1780 H     1 <1>   0.1500 
 58 H       -6.7670    -8.9490    -1.6780 H     1 <1>   0.1500 
@<TRIPOS>BOND
  1   1   2  2   
  2   2   3  am  
  3   2   4  1   
  4   3   5  1   
  5   3  28  1   
  6   4   6  1   
  7   4  29  1   
  8   4  30  1   
  9   5   7  1   
 10   5   8  1   
 11   5  31  1   
 12   6   9  1   
 13   6  32  1   
 14   6  33  1   
 15   7  10  1   
 16   7  34  1   
 17   7  35  1   
 18   8  11  1   
 19   8  36  1   
 20   8  37  1   
 21   9  12  2   
 22   9  13  am  
 23  10  14  1   
 24  10  38  1   
 25  10  39  1   
 26  11  15  1   
 27  11  40  1   
 28  11  41  1   
 29  13  16  1   
 30  13  42  1   
 31  14  15  1   
 32  14  43  1   
 33  14  44  1   
 34  15  45  1   
 35  15  46  1   
 36  16  17  1   
 37  16  18  1   
 38  16  47  1   
 39  17  19  1   
 40  17  20  1   
 41  17  48  1   
 42  18  21  1   
 43  18  49  1   
 44  18  50  1   
 45  19  21  1   
 46  19  51  1   
 47  19  52  1   
 48  20  22  1   
 49  20  53  1   
 50  20  54  1   
 51  22  23  ar  
 52  22  24  ar  
 53  23  25  ar  
 54  23  55  1   
 55  24  26  ar  
 56  24  56  1   
 57  25  27  ar  
 58  25  57  1   
 59  26  27  ar  
 60  26  58  1   
@<TRIPOS>SUBSTRUCTURE
  1 ****   6 GROUP 4 **** **** 0

# MOE 2024.06 (io_trps.svl 2023.06)
