@<TRIPOS>MOLECULE
NONAME
39 41 1 0 0 
SMALL
USER_CHARGES


@<TRIPOS>ATOM
  1 F       -1.8150    -1.0870     0.0860 F     1 <1>  -0.3400 
  2 C       -1.4620    -2.3470     0.3190 C.3   1 <1>   1.1640 
  3 F       -2.1730    -3.0720    -0.5400 F     1 <1>  -0.3400 
  4 F       -1.9310    -2.6230     1.5310 F     1 <1>  -0.3400 
  5 C        0.0410    -2.5580     0.1730 C.ar  1 <1>  -0.1440 
  6 C        0.5890    -3.8080     0.4600 C.ar  1 <1>   0.4100 
  7 C        0.8900    -1.5420    -0.2320 C.ar  1 <1>  -0.1500 
  8 N        1.8760    -4.0910     0.3840 N.ar  1 <1>  -0.6200 
  9 N       -0.1510    -4.8770     0.8610 N.pl3 1 <1>  -0.8690 
 10 C        2.2350    -1.8340    -0.3180 C.ar  1 <1>  -0.1500 
 11 C        2.6680    -3.1060     0.0000 C.ar  1 <1>   0.1600 
 12 C       -0.7080    -5.7640    -0.1890 C.3   1 <1>   0.2890 
 13 C       -2.0460    -6.2990     0.2880 C.3   1 <1>  -0.0800 
 14 C        0.1330    -7.0380    -0.3120 C.3   1 <1>   0.1200 
 15 C       -1.6090    -7.5030     1.1210 C.3   1 <1>   0.1200 
 16 C       -2.9490    -6.6990    -0.8930 C.3   1 <1>  -0.0160 
 17 O       -0.4590    -8.0050     0.5090 O.3   1 <1>  -0.5600 
 18 C       -4.2940    -7.2170    -0.4100 C.ar  1 <1>  -0.1430 
 19 C       -5.2690    -6.3660     0.0680 C.ar  1 <1>  -0.1500 
 20 C       -4.6100    -8.5610    -0.4230 C.ar  1 <1>  -0.1500 
 21 C       -6.4780    -6.8850     0.5020 C.ar  1 <1>   0.1600 
 22 C       -5.8500    -8.9760     0.0340 C.ar  1 <1>   0.1600 
 23 N       -6.7910    -8.1700     0.4980 N.ar  1 <1>  -0.6200 
 24 H        0.5360    -0.5530    -0.4730 H     1 <1>   0.1500 
 25 H        0.4210    -5.4560     1.4850 H     1 <1>   0.4000 
 26 H        2.9410    -1.0820    -0.6250 H     1 <1>   0.1500 
 27 H        3.7210    -3.3260    -0.0650 H     1 <1>   0.1500 
 28 H       -0.7700    -5.2390    -1.1270 H     1 <1>   0.0800 
 29 H       -2.5610    -5.5770     0.8960 H     1 <1>   0.0800 
 30 H        1.1550    -6.8850    -0.0100 H     1 <1>   0.0800 
 31 H        0.1050    -7.4120    -1.3190 H     1 <1>   0.0800 
 32 H       -2.3520    -8.2790     1.1760 H     1 <1>   0.0800 
 33 H       -1.3390    -7.1940     2.1160 H     1 <1>   0.0800 
 34 H       -2.4670    -7.4510    -1.4930 H     1 <1>   0.0800 
 35 H       -3.1180    -5.8410    -1.5210 H     1 <1>   0.0800 
 36 H       -5.1000    -5.3050     0.1090 H     1 <1>   0.1500 
 37 H       -3.9040    -9.2880    -0.7810 H     1 <1>   0.1500 
 38 H       -7.2270    -6.2060     0.8730 H     1 <1>   0.1500 
 39 H       -6.0780   -10.0280     0.0180 H     1 <1>   0.1500 
@<TRIPOS>BOND
  1   1   2  1   
  2   2   3  1   
  3   2   4  1   
  4   2   5  1   
  5   5   6  ar  
  6   5   7  ar  
  7   6   8  ar  
  8   6   9  1   
  9   7  10  ar  
 10   7  24  1   
 11   8  11  ar  
 12   9  12  1   
 13   9  25  1   
 14  10  11  ar  
 15  10  26  1   
 16  11  27  1   
 17  12  13  1   
 18  12  14  1   
 19  12  28  1   
 20  13  15  1   
 21  13  16  1   
 22  13  29  1   
 23  14  17  1   
 24  14  30  1   
 25  14  31  1   
 26  15  17  1   
 27  15  32  1   
 28  15  33  1   
 29  16  18  1   
 30  16  34  1   
 31  16  35  1   
 32  18  19  ar  
 33  18  20  ar  
 34  19  21  ar  
 35  19  36  1   
 36  20  22  ar  
 37  20  37  1   
 38  21  23  ar  
 39  21  38  1   
 40  22  23  ar  
 41  22  39  1   
@<TRIPOS>SUBSTRUCTURE
  1 ****  13 GROUP 4 **** **** 0

# MOE 2024.06 (io_trps.svl 2023.06)
