@<TRIPOS>MOLECULE
NONAME
56 58 1 0 0 
SMALL
USER_CHARGES


@<TRIPOS>ATOM
  1 O        0.6070     0.4430     1.2270 O.2   1 <1>  -0.5700 
  2 C        1.6460     0.2450     0.6360 C.2   1 <1>   0.7150 
  3 N        2.0190    -1.0590     0.5600 N.am  1 <1>  -0.7300 
  4 C        2.3730     1.3490     0.0800 C.2   1 <1>  -0.2370 
  5 C        3.3050    -1.7460     0.2610 C.3   1 <1>   0.1400 
  6 N        3.3730     1.2840    -0.8300 N.pl3 1 <1>   0.3140 
  7 C        2.2020     2.6750     0.3200 C.2   1 <1>  -0.1500 
  8 C        4.4250    -0.8580    -0.3040 C.3   1 <1>   0.2000 
  9 N        3.8420     2.4900    -1.1660 N.2   1 <1>  -0.7070 
 10 C        3.9620     0.0750    -1.4200 C.3   1 <1>   0.0960 
 11 C        3.1290     3.3560    -0.4640 C.2   1 <1>   0.2030 
 12 O        5.4180    -1.6900    -0.8070 O.3   1 <1>  -0.6800 
 13 C        3.2890     4.8020    -0.5030 C.2   1 <1>   0.7160 
 14 O        2.6150     5.5520     0.1840 O.2   1 <1>  -0.5700 
 15 N        4.2360     5.3470    -1.3250 N.am  1 <1>  -0.7300 
 16 C        4.4600     6.7850    -1.5530 C.3   1 <1>   0.1400 
 17 C        5.4090     7.3140    -0.4750 C.3   1 <1>  -0.1600 
 18 C        5.5540     8.8410    -0.5450 C.3   1 <1>  -0.1600 
 19 C        6.4330     9.3470     0.6020 C.3   1 <1>   0.3430 
 20 N        6.5630    10.8290     0.5420 N.4   1 <1>  -0.9590 
 21 C        7.7170    11.2930     1.3590 C.3   1 <1>   0.3430 
 22 C        5.3210    11.5200     0.9830 C.3   1 <1>   0.3430 
 23 C        8.2600    12.6280     0.8410 C.3   1 <1>  -0.1600 
 24 C        5.0080    12.6920     0.0530 C.3   1 <1>  -0.1600 
 25 C        7.2470    13.7840     0.7420 C.3   1 <1>  -0.1600 
 26 C        6.2000    13.5730    -0.3620 C.3   1 <1>  -0.1600 
 27 H        1.3200    -1.6630     1.0000 H     1 <1>   0.3700 
 28 H        3.0940    -2.5280    -0.4470 H     1 <1>   0.0800 
 29 H        3.6630    -2.2060     1.1660 H     1 <1>   0.0800 
 30 H        1.4910     3.1370     0.9840 H     1 <1>   0.1500 
 31 H        4.8800    -0.2860     0.4880 H     1 <1>   0.0800 
 32 H        4.8050     0.3790    -2.0150 H     1 <1>   0.0800 
 33 H        3.2300    -0.3970    -2.0470 H     1 <1>   0.0800 
 34 H        5.1050    -2.2140    -1.5700 H     1 <1>   0.4000 
 35 H        4.7730     4.6730    -1.8790 H     1 <1>   0.3700 
 36 H        3.5140     7.2990    -1.4980 H     1 <1>   0.0800 
 37 H        4.8740     6.9340    -2.5360 H     1 <1>   0.0800 
 38 H        6.3710     6.8440    -0.5920 H     1 <1>   0.0800 
 39 H        5.0110     7.0420     0.4890 H     1 <1>   0.0800 
 40 H        4.5730     9.2780    -0.4810 H     1 <1>   0.0800 
 41 H        5.9950     9.1100    -1.4890 H     1 <1>   0.0800 
 42 H        7.4080     8.8930     0.5130 H     1 <1>   0.0800 
 43 H        6.0100     9.0500     1.5490 H     1 <1>   0.0800 
 44 H        6.7410    11.1090    -0.4300 H     1 <1>   0.4500 
 45 H        8.5110    10.5640     1.3130 H     1 <1>   0.0800 
 46 H        7.4190    11.3940     2.3900 H     1 <1>   0.0800 
 47 H        5.4470    11.8850     1.9900 H     1 <1>   0.0800 
 48 H        4.4860    10.8390     0.9820 H     1 <1>   0.0800 
 49 H        8.7240    12.4710    -0.1170 H     1 <1>   0.0800 
 50 H        9.0450    12.9340     1.5110 H     1 <1>   0.0800 
 51 H        4.2870    13.3120     0.5580 H     1 <1>   0.0800 
 52 H        4.5210    12.3210    -0.8320 H     1 <1>   0.0800 
 53 H        7.8000    14.6770     0.5020 H     1 <1>   0.0800 
 54 H        6.7700    13.9610     1.6920 H     1 <1>   0.0800 
 55 H        5.8130    14.5360    -0.6540 H     1 <1>   0.0800 
 56 H        6.6780    13.1630    -1.2360 H     1 <1>   0.0800 
@<TRIPOS>BOND
  1   1   2  2   
  2   2   3  am  
  3   2   4  1   
  4   3   5  1   
  5   3  27  1   
  6   4   6  1   
  7   4   7  2   
  8   5   8  1   
  9   5  28  1   
 10   5  29  1   
 11   6   9  1   
 12   6  10  1   
 13   7  11  1   
 14   7  30  1   
 15   8  10  1   
 16   8  12  1   
 17   8  31  1   
 18   9  11  2   
 19  10  32  1   
 20  10  33  1   
 21  11  13  1   
 22  12  34  1   
 23  13  14  2   
 24  13  15  am  
 25  15  16  1   
 26  15  35  1   
 27  16  17  1   
 28  16  36  1   
 29  16  37  1   
 30  17  18  1   
 31  17  38  1   
 32  17  39  1   
 33  18  19  1   
 34  18  40  1   
 35  18  41  1   
 36  19  20  1   
 37  19  42  1   
 38  19  43  1   
 39  20  21  1   
 40  20  22  1   
 41  20  44  1   
 42  21  23  1   
 43  21  45  1   
 44  21  46  1   
 45  22  24  1   
 46  22  47  1   
 47  22  48  1   
 48  23  25  1   
 49  23  49  1   
 50  23  50  1   
 51  24  26  1   
 52  24  51  1   
 53  24  52  1   
 54  25  26  1   
 55  25  53  1   
 56  25  54  1   
 57  26  55  1   
 58  26  56  1   
@<TRIPOS>SUBSTRUCTURE
  1 ****  15 GROUP 4 **** **** 0

# MOE 2024.06 (io_trps.svl 2023.06)
