@<TRIPOS>MOLECULE
NONAME
50 53 1 0 0 
SMALL
USER_CHARGES


@<TRIPOS>ATOM
  1 O       -1.4350     0.8240    -1.0120 O.2   1 <1>  -0.5700 
  2 C       -1.0090     1.7940    -0.4390 C.2   1 <1>   0.5690 
  3 N       -1.7890     2.8820    -0.2570 N.am  1 <1>  -0.7300 
  4 C        0.4400     1.8180     0.0580 C.3   1 <1>   0.1810 
  5 C       -1.3340     4.1120     0.4370 C.3   1 <1>   0.3640 
  6 O        0.6890     2.8380     1.0010 O.3   1 <1>  -0.5600 
  7 C       -1.7780     5.3240    -0.3760 C.ar  1 <1>  -0.1440 
  8 C        0.2050     4.1220     0.6350 C.3   1 <1>   0.2610 
  9 C       -2.3010     6.4360     0.2710 C.ar  1 <1>   0.1600 
 10 C       -1.6640     5.3570    -1.7550 C.ar  1 <1>  -0.1500 
 11 C        0.6360     5.1870     1.6580 C.2   1 <1>   0.5690 
 12 N       -2.7120     7.5410    -0.3310 N.ar  1 <1>  -0.6200 
 13 C       -2.0860     6.5010    -2.3960 C.ar  1 <1>  -0.1500 
 14 O       -0.1860     5.5820     2.4570 O.2   1 <1>  -0.5700 
 15 N        1.9130     5.7010     1.6480 N.am  1 <1>  -0.6600 
 16 C       -2.5950     7.5480    -1.6480 C.ar  1 <1>   0.1600 
 17 C        3.0500     5.1420     0.8650 C.3   1 <1>   0.1400 
 18 C        2.2750     6.8960     2.4590 C.3   1 <1>   0.1400 
 19 C        3.5670     6.2130    -0.0980 C.3   1 <1>  -0.1600 
 20 C        2.7960     7.9950     1.5280 C.3   1 <1>  -0.1600 
 21 C        3.9600     7.4920     0.6570 C.3   1 <1>   0.0630 
 22 C        4.4450     8.5690    -0.3100 C.ar  1 <1>  -0.1430 
 23 C        3.5940     9.1250    -1.2570 C.ar  1 <1>  -0.1500 
 24 C        5.7620     9.0060    -0.2550 C.ar  1 <1>  -0.1500 
 25 C        4.0500    10.0980    -2.1290 C.ar  1 <1>  -0.1500 
 26 C        6.2190     9.9780    -1.1270 C.ar  1 <1>  -0.1500 
 27 C        5.3640    10.5260    -2.0660 C.ar  1 <1>  -0.1500 
 28 H       -2.7590     2.8500    -0.5730 H     1 <1>   0.3700 
 29 H        1.1010     1.9590    -0.7770 H     1 <1>   0.0800 
 30 H        0.6690     0.8780     0.5260 H     1 <1>   0.0800 
 31 H       -1.8140     4.1340     1.4010 H     1 <1>   0.0800 
 32 H        0.6550     4.3770    -0.3060 H     1 <1>   0.0800 
 33 H       -2.3840     6.4230     1.3460 H     1 <1>   0.1500 
 34 H       -1.2670     4.5280    -2.3170 H     1 <1>   0.1500 
 35 H       -2.0250     6.5850    -3.4660 H     1 <1>   0.1500 
 36 H       -2.9240     8.4380    -2.1590 H     1 <1>   0.1500 
 37 H        3.8330     4.8580     1.5480 H     1 <1>   0.0800 
 38 H        2.7630     4.2630     0.3190 H     1 <1>   0.0800 
 39 H        1.4220     7.2640     3.0050 H     1 <1>   0.0800 
 40 H        3.0330     6.6230     3.1730 H     1 <1>   0.0800 
 41 H        4.4240     5.8350    -0.6270 H     1 <1>   0.0800 
 42 H        2.8030     6.4290    -0.8230 H     1 <1>   0.0800 
 43 H        1.9820     8.3290     0.9100 H     1 <1>   0.0800 
 44 H        3.1240     8.8350     2.1140 H     1 <1>   0.0800 
 45 H        4.7710     7.2420     1.3200 H     1 <1>   0.0800 
 46 H        2.5700     8.8050    -1.3210 H     1 <1>   0.1500 
 47 H        6.4420     8.5920     0.4680 H     1 <1>   0.1500 
 48 H        3.3810    10.5230    -2.8580 H     1 <1>   0.1500 
 49 H        7.2420    10.3100    -1.0760 H     1 <1>   0.1500 
 50 H        5.7190    11.2820    -2.7440 H     1 <1>   0.1500 
@<TRIPOS>BOND
  1   1   2  2   
  2   2   3  am  
  3   2   4  1   
  4   3   5  1   
  5   3  28  1   
  6   4   6  1   
  7   4  29  1   
  8   4  30  1   
  9   5   7  1   
 10   5   8  1   
 11   5  31  1   
 12   6   8  1   
 13   7   9  ar  
 14   7  10  ar  
 15   8  11  1   
 16   8  32  1   
 17   9  12  ar  
 18   9  33  1   
 19  10  13  ar  
 20  10  34  1   
 21  11  14  2   
 22  11  15  am  
 23  12  16  ar  
 24  13  16  ar  
 25  13  35  1   
 26  15  17  1   
 27  15  18  1   
 28  16  36  1   
 29  17  19  1   
 30  17  37  1   
 31  17  38  1   
 32  18  20  1   
 33  18  39  1   
 34  18  40  1   
 35  19  21  1   
 36  19  41  1   
 37  19  42  1   
 38  20  21  1   
 39  20  43  1   
 40  20  44  1   
 41  21  22  1   
 42  21  45  1   
 43  22  23  ar  
 44  22  24  ar  
 45  23  25  ar  
 46  23  46  1   
 47  24  26  ar  
 48  24  47  1   
 49  25  27  ar  
 50  25  48  1   
 51  26  27  ar  
 52  26  49  1   
 53  27  50  1   
@<TRIPOS>SUBSTRUCTURE
  1 ****  15 GROUP 4 **** **** 0

# MOE 2024.06 (io_trps.svl 2023.06)
