@<TRIPOS>MOLECULE
NONAME
52 53 1 0 0 
SMALL
USER_CHARGES


@<TRIPOS>ATOM
  1 O       -1.7850    -0.0440    -0.8340 O.co2 1 <1>  -0.9000 
  2 C       -2.3340     1.0060    -0.4820 C.2   1 <1>   0.9060 
  3 O       -3.5360     1.1850    -0.7280 O.co2 1 <1>  -0.9000 
  4 C       -1.6460     1.8120     0.6470 C.3   1 <1>   0.4600 
  5 N       -2.3460     1.6870     2.0070 N.4   1 <1>  -0.9590 
  6 C       -1.3770     3.2910     0.3610 C.ar  1 <1>  -0.1430 
  7 C       -2.6110     0.2340     2.3800 C.3   1 <1>   0.3430 
  8 C       -3.5880     2.5360     2.0200 C.3   1 <1>   0.2630 
  9 C       -2.1810     4.0450    -0.4860 C.ar  1 <1>  -0.1500 
 10 C       -0.2970     3.9040     0.9830 C.ar  1 <1>  -0.1500 
 11 C       -3.8400    -0.4730     1.7140 C.3   1 <1>   0.3430 
 12 C       -1.9200     5.3870    -0.6970 C.ar  1 <1>  -0.1500 
 13 C       -0.0370     5.2460     0.7740 C.ar  1 <1>  -0.1500 
 14 N       -3.5140    -1.5130     0.6780 N.4   1 <1>  -0.9590 
 15 C       -0.8440     5.9970    -0.0620 C.ar  1 <1>   0.0830 
 16 C       -4.6790    -1.6930    -0.2300 C.3   1 <1>   0.3430 
 17 C       -3.0330    -2.8040     1.2250 C.3   1 <1>   0.3430 
 18 O       -0.5220     7.3050    -0.2080 O.3   1 <1>  -0.3620 
 19 C       -4.2730    -2.2720    -1.5870 C.3   1 <1>  -0.1600 
 20 C       -1.8520    -3.3400     0.4180 C.3   1 <1>  -0.1600 
 21 C       -1.2310     8.1410    -1.0960 C.3   1 <1>   0.0400 
 22 C       -3.4960    -3.6010    -1.5690 C.3   1 <1>  -0.1600 
 23 C       -2.0440    -3.4200    -1.1060 C.3   1 <1>  -0.1600 
 24 H       -0.6810     1.3470     0.7360 H     1 <1>   0.0800 
 25 H       -1.6860     2.1040     2.6770 H     1 <1>   0.4500 
 26 H       -2.7760     0.2020     3.4440 H     1 <1>   0.0800 
 27 H       -1.7300    -0.3530     2.1800 H     1 <1>   0.0800 
 28 H       -4.2510     2.2470     1.2190 H     1 <1>   0.0800 
 29 H       -3.3300     3.5740     1.8790 H     1 <1>   0.0800 
 30 H       -4.1050     2.4400     2.9600 H     1 <1>   0.0800 
 31 H       -3.0220     3.6030    -0.9970 H     1 <1>   0.1500 
 32 H        0.3580     3.3490     1.6320 H     1 <1>   0.1500 
 33 H       -4.4540     0.2850     1.2550 H     1 <1>   0.0800 
 34 H       -4.4290    -0.9380     2.4860 H     1 <1>   0.0800 
 35 H       -2.5620     5.9390    -1.3590 H     1 <1>   0.1500 
 36 H        0.7980     5.7240     1.2540 H     1 <1>   0.1500 
 37 H       -2.7850    -1.1270     0.0180 H     1 <1>   0.4500 
 38 H       -5.1320    -0.7310    -0.4150 H     1 <1>   0.0800 
 39 H       -5.4140    -2.3300     0.2340 H     1 <1>   0.0800 
 40 H       -3.8350    -3.5250     1.2030 H     1 <1>   0.0800 
 41 H       -2.7240    -2.6830     2.2490 H     1 <1>   0.0800 
 42 H       -3.7050    -1.5260    -2.1190 H     1 <1>   0.0800 
 43 H       -5.1760    -2.4200    -2.1520 H     1 <1>   0.0800 
 44 H       -1.6450    -4.3320     0.7820 H     1 <1>   0.0800 
 45 H       -0.9790    -2.7460     0.6260 H     1 <1>   0.0800 
 46 H       -0.7820     9.1180    -1.0650 H     1 <1>   0.0800 
 47 H       -2.2560     8.2000    -0.7770 H     1 <1>   0.0800 
 48 H       -1.1580     7.7370    -2.0900 H     1 <1>   0.0800 
 49 H       -3.4670    -3.9680    -2.5820 H     1 <1>   0.0800 
 50 H       -4.0050    -4.3450    -0.9810 H     1 <1>   0.0800 
 51 H       -1.4570    -4.2450    -1.4750 H     1 <1>   0.0800 
 52 H       -1.6380    -2.5340    -1.5660 H     1 <1>   0.0800 
@<TRIPOS>BOND
  1   1   2  ar  
  2   2   3  ar  
  3   2   4  1   
  4   4   5  1   
  5   4   6  1   
  6   4  24  1   
  7   5   7  1   
  8   5   8  1   
  9   5  25  1   
 10   6   9  ar  
 11   6  10  ar  
 12   7  11  1   
 13   7  26  1   
 14   7  27  1   
 15   8  28  1   
 16   8  29  1   
 17   8  30  1   
 18   9  12  ar  
 19   9  31  1   
 20  10  13  ar  
 21  10  32  1   
 22  11  14  1   
 23  11  33  1   
 24  11  34  1   
 25  12  15  ar  
 26  12  35  1   
 27  13  15  ar  
 28  13  36  1   
 29  14  16  1   
 30  14  17  1   
 31  14  37  1   
 32  15  18  1   
 33  16  19  1   
 34  16  38  1   
 35  16  39  1   
 36  17  20  1   
 37  17  40  1   
 38  17  41  1   
 39  18  21  1   
 40  19  22  1   
 41  19  42  1   
 42  19  43  1   
 43  20  23  1   
 44  20  44  1   
 45  20  45  1   
 46  21  46  1   
 47  21  47  1   
 48  21  48  1   
 49  22  23  1   
 50  22  49  1   
 51  22  50  1   
 52  23  51  1   
 53  23  52  1   
@<TRIPOS>SUBSTRUCTURE
  1 ****   2 GROUP 4 **** **** 0

# MOE 2024.06 (io_trps.svl 2023.06)
