@<TRIPOS>MOLECULE
NONAME
46 48 1 0 0 
SMALL
USER_CHARGES


@<TRIPOS>ATOM
  1 S        0.1290     0.3100     1.3580 S.3   1 <1>  -0.0800 
  2 C       -1.1120     1.2180     0.4860 C.2   1 <1>  -0.0450 
  3 C       -0.5490    -1.2270     0.8780 C.2   1 <1>  -0.1100 
  4 C       -1.9650     0.3330    -0.0990 C.2   1 <1>  -0.1810 
  5 C       -1.0830     2.6610     0.5310 C.2   1 <1>   0.7150 
  6 C       -1.6420    -1.0390     0.1180 C.2   1 <1>  -0.1500 
  7 C       -3.1870     0.6980    -0.9250 C.3   1 <1>  -0.0590 
  8 O       -2.0880     3.2570     0.8790 O.2   1 <1>  -0.5700 
  9 N        0.0250     3.4040     0.1550 N.am  1 <1>  -0.6600 
 10 C        1.1140     2.8200    -0.6930 C.3   1 <1>   0.1400 
 11 C       -0.0220     4.8930     0.2940 C.3   1 <1>   0.1400 
 12 C        2.4150     2.6100     0.0970 C.3   1 <1>   0.1400 
 13 C        1.3430     5.5900     0.3490 C.3   1 <1>  -0.1600 
 14 N        3.1320     3.8960     0.3550 N.am  1 <1>  -0.6600 
 15 C        2.3850     4.8640     1.2030 C.3   1 <1>   0.1400 
 16 C        4.3940     4.1490    -0.1650 C.2   1 <1>   0.7160 
 17 O        4.9930     3.2140    -0.6760 O.2   1 <1>  -0.5700 
 18 C        5.0420     5.4590    -0.1290 C.2   1 <1>   0.2030 
 19 N        4.4530     6.6150    -0.2450 N.2   1 <1>  -0.4100 
 20 C        6.4100     5.6900     0.0090 C.2   1 <1>  -0.1810 
 21 O        5.3290     7.5860    -0.1990 O.3   1 <1>  -0.0190 
 22 C        6.5070     7.0230    -0.0500 C.2   1 <1>  -0.0400 
 23 C        7.5020     4.6500     0.1910 C.3   1 <1>   0.3010 
 24 C        7.7150     7.9350     0.0200 C.3   1 <1>  -0.0600 
 25 O        7.6160     3.9240    -0.9740 O.3   1 <1>  -0.6800 
 26 H       -0.0560    -2.1200     1.2190 H     1 <1>   0.1500 
 27 H       -2.2440    -1.8260    -0.3010 H     1 <1>   0.1500 
 28 H       -3.2860     1.7650    -1.0160 H     1 <1>   0.0800 
 29 H       -4.0730     0.3150    -0.4520 H     1 <1>   0.0800 
 30 H       -3.1050     0.2760    -1.9100 H     1 <1>   0.0800 
 31 H        1.3040     3.4580    -1.5380 H     1 <1>   0.0800 
 32 H        0.7960     1.8700    -1.0830 H     1 <1>   0.0800 
 33 H       -0.5480     5.1290     1.2050 H     1 <1>   0.0800 
 34 H       -0.5970     5.3000    -0.5200 H     1 <1>   0.0800 
 35 H        3.0400     1.9420    -0.4690 H     1 <1>   0.0800 
 36 H        2.2040     2.1290     1.0350 H     1 <1>   0.0800 
 37 H        1.1860     6.5670     0.7700 H     1 <1>   0.0800 
 38 H        1.7210     5.7450    -0.6460 H     1 <1>   0.0800 
 39 H        1.9070     4.3470     2.0190 H     1 <1>   0.0800 
 40 H        3.0650     5.5780     1.6330 H     1 <1>   0.0800 
 41 H        7.2610     3.9720     0.9920 H     1 <1>   0.0800 
 42 H        8.4540     5.1090     0.3890 H     1 <1>   0.0800 
 43 H        8.6230     7.3690     0.1120 H     1 <1>   0.0800 
 44 H        7.6270     8.5930     0.8660 H     1 <1>   0.0800 
 45 H        7.7710     8.5280    -0.8750 H     1 <1>   0.0800 
 46 H        6.7480     3.4870    -1.1510 H     1 <1>   0.4000 
@<TRIPOS>BOND
  1   1   2  1   
  2   1   3  1   
  3   2   4  2   
  4   2   5  1   
  5   3   6  2   
  6   3  26  1   
  7   4   6  1   
  8   4   7  1   
  9   5   8  2   
 10   5   9  am  
 11   6  27  1   
 12   7  28  1   
 13   7  29  1   
 14   7  30  1   
 15   9  10  1   
 16   9  11  1   
 17  10  12  1   
 18  10  31  1   
 19  10  32  1   
 20  11  13  1   
 21  11  33  1   
 22  11  34  1   
 23  12  14  1   
 24  12  35  1   
 25  12  36  1   
 26  13  15  1   
 27  13  37  1   
 28  13  38  1   
 29  14  15  1   
 30  14  16  am  
 31  15  39  1   
 32  15  40  1   
 33  16  17  2   
 34  16  18  1   
 35  18  19  2   
 36  18  20  1   
 37  19  21  1   
 38  20  22  2   
 39  20  23  1   
 40  21  22  1   
 41  22  24  1   
 42  23  25  1   
 43  23  41  1   
 44  23  42  1   
 45  24  43  1   
 46  24  44  1   
 47  24  45  1   
 48  25  46  1   
@<TRIPOS>SUBSTRUCTURE
  1 ****  14 GROUP 4 **** **** 0

# MOE 2024.06 (io_trps.svl 2023.06)
