@<TRIPOS>MOLECULE
NONAME
52 54 1 0 0 
SMALL
USER_CHARGES


@<TRIPOS>ATOM
  1 O       -0.9360    -0.9260    -1.3010 O.3   1 <1>  -0.3630 
  2 C       -1.9190    -1.1640    -0.3820 C.ar  1 <1>   0.0820 
  3 C       -0.0450     0.1510    -1.0920 C.3   1 <1>   0.0400 
  4 C       -2.0730    -2.4610     0.1350 C.ar  1 <1>   0.0820 
  5 C       -2.8090    -0.1530     0.0120 C.ar  1 <1>   0.0820 
  6 O       -1.2700    -3.5250    -0.1790 O.3   1 <1>  -0.3630 
  7 C       -3.1120    -2.7350     1.0190 C.ar  1 <1>  -0.1430 
  8 O       -2.6800     1.0960    -0.5230 O.3   1 <1>  -0.3630 
  9 C       -3.8210    -0.4460     0.9220 C.ar  1 <1>  -0.1500 
 10 C        0.1190    -3.3560    -0.3860 C.3   1 <1>   0.0400 
 11 C       -3.9730    -1.7260     1.4170 C.ar  1 <1>  -0.1500 
 12 C       -3.3210    -4.1420     1.5470 C.3   1 <1>   0.4860 
 13 C       -3.6320     2.1150    -0.3060 C.3   1 <1>   0.0400 
 14 N       -3.5880    -5.0450     0.3980 N.4   1 <1>  -0.9590 
 15 C       -4.8630    -4.6840    -0.2880 C.3   1 <1>   0.3430 
 16 C       -3.7010    -6.4670     0.8360 C.3   1 <1>   0.3430 
 17 C       -5.8990    -5.6790     0.2390 C.3   1 <1>   0.2000 
 18 C       -5.0920    -6.9660     0.4080 C.3   1 <1>  -0.0800 
 19 O       -6.3150    -5.2600     1.5000 O.3   1 <1>  -0.6800 
 20 C       -5.0420    -7.7810    -0.9040 C.3   1 <1>  -0.0170 
 21 C       -4.3960    -9.1460    -0.7080 C.ar  1 <1>   0.1670 
 22 N       -3.0940    -9.1520    -0.4710 N.ar  1 <1>  -0.6200 
 23 C       -5.1680   -10.3050    -0.7870 C.ar  1 <1>   0.1600 
 24 C       -2.6190   -10.3810    -0.3280 C.ar  1 <1>   0.1600 
 25 N       -4.6970   -11.5290    -0.6330 N.ar  1 <1>  -0.6200 
 26 C       -3.3960   -11.5310    -0.4050 C.ar  1 <1>   0.1600 
 27 H        0.8910    -0.0900    -1.5630 H     1 <1>   0.0800 
 28 H        0.0990     0.2960    -0.0350 H     1 <1>   0.0800 
 29 H       -0.4560     1.0360    -1.5420 H     1 <1>   0.0800 
 30 H       -4.5070     0.3100     1.2560 H     1 <1>   0.1500 
 31 H        0.6050    -4.2990    -0.2140 H     1 <1>   0.0800 
 32 H        0.4930    -2.6190     0.3020 H     1 <1>   0.0800 
 33 H        0.2860    -3.0460    -1.4020 H     1 <1>   0.0800 
 34 H       -4.7730    -1.9260     2.1120 H     1 <1>   0.1500 
 35 H       -4.1500    -4.1630     2.2360 H     1 <1>   0.0800 
 36 H       -2.4300    -4.4590     2.0650 H     1 <1>   0.0800 
 37 H       -3.3400     2.9720    -0.8870 H     1 <1>   0.0800 
 38 H       -3.6400     2.3710     0.7380 H     1 <1>   0.0800 
 39 H       -4.5970     1.7690    -0.6290 H     1 <1>   0.0800 
 40 H       -2.7860    -4.8960    -0.2390 H     1 <1>   0.4500 
 41 H       -5.1630    -3.6670    -0.0960 H     1 <1>   0.0800 
 42 H       -4.7470    -4.8210    -1.3500 H     1 <1>   0.0800 
 43 H       -2.9130    -7.0590     0.4010 H     1 <1>   0.0800 
 44 H       -3.6210    -6.5280     1.9090 H     1 <1>   0.0800 
 45 H       -6.7600    -5.7660    -0.4020 H     1 <1>   0.0800 
 46 H       -5.5180    -7.5910     1.1740 H     1 <1>   0.0800 
 47 H       -7.0930    -5.7720     1.8060 H     1 <1>   0.4000 
 48 H       -4.4910    -7.2480    -1.6610 H     1 <1>   0.0800 
 49 H       -6.0420    -7.9210    -1.2750 H     1 <1>   0.0800 
 50 H       -6.2220   -10.2220    -0.9850 H     1 <1>   0.1500 
 51 H       -1.5650   -10.4870    -0.1400 H     1 <1>   0.1500 
 52 H       -2.9210   -12.4880    -0.2740 H     1 <1>   0.1500 
@<TRIPOS>BOND
  1   1   2  1   
  2   1   3  1   
  3   2   4  ar  
  4   2   5  ar  
  5   3  27  1   
  6   3  28  1   
  7   3  29  1   
  8   4   6  1   
  9   4   7  ar  
 10   5   8  1   
 11   5   9  ar  
 12   6  10  1   
 13   7  11  ar  
 14   7  12  1   
 15   8  13  1   
 16   9  11  ar  
 17   9  30  1   
 18  10  31  1   
 19  10  32  1   
 20  10  33  1   
 21  11  34  1   
 22  12  14  1   
 23  12  35  1   
 24  12  36  1   
 25  13  37  1   
 26  13  38  1   
 27  13  39  1   
 28  14  15  1   
 29  14  16  1   
 30  14  40  1   
 31  15  17  1   
 32  15  41  1   
 33  15  42  1   
 34  16  18  1   
 35  16  43  1   
 36  16  44  1   
 37  17  18  1   
 38  17  19  1   
 39  17  45  1   
 40  18  20  1   
 41  18  46  1   
 42  19  47  1   
 43  20  21  1   
 44  20  48  1   
 45  20  49  1   
 46  21  22  ar  
 47  21  23  ar  
 48  22  24  ar  
 49  23  25  ar  
 50  23  50  1   
 51  24  26  ar  
 52  24  51  1   
 53  25  26  ar  
 54  26  52  1   
@<TRIPOS>SUBSTRUCTURE
  1 ****  14 GROUP 4 **** **** 0

# MOE 2024.06 (io_trps.svl 2023.06)
