@<TRIPOS>MOLECULE
NONAME
52 54 1 0 0 
SMALL
USER_CHARGES


@<TRIPOS>ATOM
  1 F       -0.5930    -0.1190    -0.1370 F     1 <1>  -0.1900 
  2 C       -1.8250     0.3200    -0.0920 C.ar  1 <1>   0.1900 
  3 C       -2.1300     1.6840    -0.1430 C.ar  1 <1>   0.0820 
  4 C       -2.8150    -0.6370     0.0060 C.ar  1 <1>  -0.1500 
  5 O       -1.2480     2.7200    -0.2390 O.3   1 <1>  -0.3630 
  6 C       -3.4670     2.0450    -0.0910 C.ar  1 <1>  -0.1500 
  7 C       -4.1390    -0.2410     0.0540 C.ar  1 <1>  -0.1500 
  8 C        0.1510     2.5410    -0.2660 C.3   1 <1>   0.0400 
  9 C       -4.5000     1.1090     0.0080 C.ar  1 <1>   0.0530 
 10 C       -5.8790     1.5390     0.0550 C.2   1 <1>   0.0870 
 11 O       -6.2020     2.7490    -0.3280 O.3   1 <1>  -0.0190 
 12 C       -7.0380     0.9330     0.4310 C.2   1 <1>  -0.0860 
 13 N       -7.4810     2.9980    -0.2290 N.2   1 <1>  -0.4100 
 14 C       -8.0080     1.9220     0.2410 C.2   1 <1>   0.3720 
 15 C       -7.2830    -0.3850     0.9190 C.2   1 <1>   0.7160 
 16 N       -9.3770     1.7820     0.5240 N.pl3 1 <1>  -0.8210 
 17 O       -6.8360    -0.6970     2.0090 O.2   1 <1>  -0.5700 
 18 N       -7.9690    -1.3350     0.1830 N.am  1 <1>  -0.6600 
 19 C       -9.6840     1.6710     1.9770 C.3   1 <1>   0.1290 
 20 C      -10.2740     2.7590    -0.1560 C.3   1 <1>   0.1290 
 21 C       -8.4840    -1.0860    -1.1930 C.3   1 <1>   0.1400 
 22 C       -8.3250    -2.6640     0.7550 C.3   1 <1>   0.1400 
 23 C      -10.0070    -1.2460    -1.2100 C.3   1 <1>  -0.1600 
 24 C       -9.8470    -2.8270     0.7540 C.3   1 <1>  -0.1600 
 25 C      -10.4760    -2.5850    -0.6270 C.3   1 <1>   0.2800 
 26 O      -10.0340    -3.5930    -1.4730 O.3   1 <1>  -0.6800 
 27 C      -12.0190    -2.6510    -0.5690 C.3   1 <1>   0.1200 
 28 O      -12.4410    -3.9410    -0.2720 O.3   1 <1>  -0.6800 
 29 H       -2.5490    -1.6780     0.0450 H     1 <1>   0.1500 
 30 H       -3.7040     3.0940    -0.1270 H     1 <1>   0.1500 
 31 H       -4.8940    -1.0020     0.1280 H     1 <1>   0.1500 
 32 H        0.6110     3.5100    -0.3250 H     1 <1>   0.0800 
 33 H        0.4130     1.9600    -1.1320 H     1 <1>   0.0800 
 34 H        0.4580     2.0460     0.6390 H     1 <1>   0.0800 
 35 H       -9.0750     0.9110     2.4360 H     1 <1>   0.0800 
 36 H      -10.7180     1.4070     2.1150 H     1 <1>   0.0800 
 37 H       -9.4890     2.6100     2.4650 H     1 <1>   0.0800 
 38 H      -10.0380     2.8030    -1.2060 H     1 <1>   0.0800 
 39 H      -10.1420     3.7400     0.2690 H     1 <1>   0.0800 
 40 H      -11.3000     2.4570    -0.0450 H     1 <1>   0.0800 
 41 H       -8.0310    -1.7890    -1.8700 H     1 <1>   0.0800 
 42 H       -8.2290    -0.0980    -1.5350 H     1 <1>   0.0800 
 43 H       -7.9600    -2.7610     1.7640 H     1 <1>   0.0800 
 44 H       -7.8640    -3.4380     0.1670 H     1 <1>   0.0800 
 45 H      -10.3710    -1.1390    -2.2160 H     1 <1>   0.0800 
 46 H      -10.4320    -0.4460    -0.6320 H     1 <1>   0.0800 
 47 H      -10.2570    -2.1210     1.4540 H     1 <1>   0.0800 
 48 H      -10.1070    -3.8090     1.1080 H     1 <1>   0.0800 
 49 H       -9.0600    -3.5880    -1.4980 H     1 <1>   0.4000 
 50 H      -12.4360    -2.3790    -1.5230 H     1 <1>   0.0800 
 51 H      -12.4070    -1.9880     0.1830 H     1 <1>   0.0800 
 52 H      -11.8960    -4.5550    -0.8110 H     1 <1>   0.4000 
@<TRIPOS>BOND
  1   1   2  1   
  2   2   3  ar  
  3   2   4  ar  
  4   3   5  1   
  5   3   6  ar  
  6   4   7  ar  
  7   4  29  1   
  8   5   8  1   
  9   6   9  ar  
 10   6  30  1   
 11   7   9  ar  
 12   7  31  1   
 13   8  32  1   
 14   8  33  1   
 15   8  34  1   
 16   9  10  1   
 17  10  11  1   
 18  10  12  2   
 19  11  13  1   
 20  12  14  1   
 21  12  15  1   
 22  13  14  2   
 23  14  16  1   
 24  15  17  2   
 25  15  18  am  
 26  16  19  1   
 27  16  20  1   
 28  18  21  1   
 29  18  22  1   
 30  19  35  1   
 31  19  36  1   
 32  19  37  1   
 33  20  38  1   
 34  20  39  1   
 35  20  40  1   
 36  21  23  1   
 37  21  41  1   
 38  21  42  1   
 39  22  24  1   
 40  22  43  1   
 41  22  44  1   
 42  23  25  1   
 43  23  45  1   
 44  23  46  1   
 45  24  25  1   
 46  24  47  1   
 47  24  48  1   
 48  25  26  1   
 49  25  27  1   
 50  26  49  1   
 51  27  28  1   
 52  27  50  1   
 53  27  51  1   
 54  28  52  1   
@<TRIPOS>SUBSTRUCTURE
  1 ****  12 GROUP 4 **** **** 0

# MOE 2024.06 (io_trps.svl 2023.06)
