@<TRIPOS>MOLECULE
NONAME
45 47 1 0 0 
SMALL
USER_CHARGES


@<TRIPOS>ATOM
  1 O       -1.4150     0.4510    -1.2310 O.2   1 <1>  -0.5700 
  2 C       -1.6510     0.6490    -0.0550 C.2   1 <1>   0.7150 
  3 N       -1.8370    -0.4270     0.7520 N.am  1 <1>  -0.7300 
  4 C       -1.7590     1.9640     0.5050 C.2   1 <1>  -0.2370 
  5 C       -1.7180    -1.8480     0.3560 C.3   1 <1>   0.2200 
  6 N       -1.4340     3.1300    -0.1220 N.pl3 1 <1>   0.3140 
  7 C       -2.1900     2.3380     1.7440 C.2   1 <1>  -0.1500 
  8 C       -3.0860    -2.5080     0.2480 C.3   1 <1>  -0.0800 
  9 C       -1.1260    -2.6290     1.5200 C.3   1 <1>   0.1200 
 10 N       -1.6460     4.1990     0.6650 N.2   1 <1>  -0.7070 
 11 C       -0.8880     3.3350    -1.4860 C.3   1 <1>   0.0960 
 12 C       -2.0970     3.7150     1.7770 C.2   1 <1>   0.1080 
 13 C       -3.3910    -2.9130     1.6950 C.3   1 <1>   0.1200 
 14 C       -4.1910    -1.6690    -0.4220 C.3   1 <1>  -0.0160 
 15 O       -2.1890    -2.8170     2.4040 O.3   1 <1>  -0.5600 
 16 C        0.6220     3.0650    -1.5300 C.3   1 <1>  -0.2400 
 17 C       -2.4640     4.5990     2.9450 C.3   1 <1>  -0.0590 
 18 C       -5.4750    -2.4730    -0.5530 C.ar  1 <1>  -0.1430 
 19 C       -5.6580    -3.3860    -1.5720 C.ar  1 <1>  -0.1500 
 20 C       -6.5220    -2.3350     0.3360 C.ar  1 <1>  -0.1500 
 21 C       -6.8420    -4.1010    -1.6470 C.ar  1 <1>   0.1600 
 22 C       -7.6650    -3.1000     0.1720 C.ar  1 <1>   0.1600 
 23 N       -7.8490    -3.9820    -0.7970 N.ar  1 <1>  -0.6200 
 24 H       -2.0370    -0.2790     1.7410 H     1 <1>   0.3700 
 25 H       -1.1340    -1.9490    -0.5440 H     1 <1>   0.0800 
 26 H       -2.5390     1.7180     2.5490 H     1 <1>   0.1500 
 27 H       -2.9670    -3.4150    -0.3180 H     1 <1>   0.0800 
 28 H       -0.3280    -2.1040     2.0150 H     1 <1>   0.0800 
 29 H       -0.7860    -3.5980     1.1990 H     1 <1>   0.0800 
 30 H       -1.4090     2.6990    -2.1760 H     1 <1>   0.0800 
 31 H       -1.0760     4.3550    -1.7680 H     1 <1>   0.0800 
 32 H       -3.7560    -3.9240     1.7580 H     1 <1>   0.0800 
 33 H       -4.0950    -2.2430     2.1580 H     1 <1>   0.0800 
 34 H       -3.8610    -1.3610    -1.4000 H     1 <1>   0.0800 
 35 H       -4.3850    -0.7770     0.1470 H     1 <1>   0.0800 
 36 H        0.8290     2.0410    -1.2750 H     1 <1>   0.0800 
 37 H        1.1330     3.7150    -0.8420 H     1 <1>   0.0800 
 38 H        0.9950     3.2500    -2.5200 H     1 <1>   0.0800 
 39 H       -2.8050     4.0080     3.7750 H     1 <1>   0.0800 
 40 H       -3.2430     5.2770     2.6490 H     1 <1>   0.0800 
 41 H       -1.6040     5.1690     3.2460 H     1 <1>   0.0800 
 42 H       -4.8920    -3.5470    -2.3090 H     1 <1>   0.1500 
 43 H       -6.4620    -1.6420     1.1540 H     1 <1>   0.1500 
 44 H       -6.9660    -4.8090    -2.4480 H     1 <1>   0.1500 
 45 H       -8.4710    -2.9800     0.8760 H     1 <1>   0.1500 
@<TRIPOS>BOND
  1   1   2  2   
  2   2   3  am  
  3   2   4  1   
  4   3   5  1   
  5   3  24  1   
  6   4   6  1   
  7   4   7  2   
  8   5   8  1   
  9   5   9  1   
 10   5  25  1   
 11   6  10  1   
 12   6  11  1   
 13   7  12  1   
 14   7  26  1   
 15   8  13  1   
 16   8  14  1   
 17   8  27  1   
 18   9  15  1   
 19   9  28  1   
 20   9  29  1   
 21  10  12  2   
 22  11  16  1   
 23  11  30  1   
 24  11  31  1   
 25  12  17  1   
 26  13  15  1   
 27  13  32  1   
 28  13  33  1   
 29  14  18  1   
 30  14  34  1   
 31  14  35  1   
 32  16  36  1   
 33  16  37  1   
 34  16  38  1   
 35  17  39  1   
 36  17  40  1   
 37  17  41  1   
 38  18  19  ar  
 39  18  20  ar  
 40  19  21  ar  
 41  19  42  1   
 42  20  22  ar  
 43  20  43  1   
 44  21  23  ar  
 45  21  44  1   
 46  22  23  ar  
 47  22  45  1   
@<TRIPOS>SUBSTRUCTURE
  1 ****   3 GROUP 4 **** **** 0

# MOE 2024.06 (io_trps.svl 2023.06)
