@<TRIPOS>MOLECULE
NONAME
54 57 1 0 0 
SMALL
USER_CHARGES


@<TRIPOS>ATOM
  1 O       -1.4160     0.3210     1.2540 O.2   1 <1>  -0.5700 
  2 C       -2.2630     1.1960     1.2620 C.2   1 <1>   0.5440 
  3 N       -3.5850     0.8140     1.2930 N.am  1 <1>  -0.6600 
  4 C       -1.8710     2.5930     1.2100 C.ar  1 <1>   0.0860 
  5 C       -3.9550    -0.5820     1.6620 C.3   1 <1>   0.1400 
  6 C       -4.6220     1.4950     0.4650 C.3   1 <1>   0.1400 
  7 C       -0.8110     3.0190     0.4360 C.ar  1 <1>  -0.1500 
  8 C       -2.5620     3.5680     1.9570 C.ar  1 <1>  -0.1500 
  9 C       -4.0910    -1.3990     0.3590 C.3   1 <1>   0.4230 
 10 C       -4.8650     0.6740    -0.8140 C.3   1 <1>  -0.1600 
 11 C       -0.4270     4.3630     0.3560 C.ar  1 <1>   0.3100 
 12 C       -2.2090     4.8900     1.9040 C.ar  1 <1>  -0.1500 
 13 N       -4.3080    -2.8730     0.5450 N.4   1 <1>  -0.9590 
 14 C       -5.2220    -0.8140    -0.5200 C.3   1 <1>  -0.1060 
 15 N        0.6150     4.7080    -0.4410 N.ar  1 <1>  -0.6200 
 16 C       -1.1420     5.3260     1.1060 C.ar  1 <1>   0.3100 
 17 C       -4.3290    -3.6470    -0.7310 C.3   1 <1>   0.3430 
 18 C       -3.4760    -3.5190     1.5950 C.3   1 <1>   0.2630 
 19 C       -6.5350    -0.9240     0.2770 C.2   1 <1>   0.9060 
 20 C       -5.3580    -1.5990    -1.8580 C.3   1 <1>  -0.1600 
 21 C        0.8930     5.9740    -0.4500 C.ar  1 <1>   0.1660 
 22 N       -0.8300     6.6430     1.0740 N.ar  1 <1>  -0.6200 
 23 C       -4.3430    -2.7480    -1.9760 C.3   1 <1>  -0.1600 
 24 O       -6.7590    -1.9770     0.8950 O.co2 1 <1>  -0.9000 
 25 O       -7.3170     0.0250     0.3140 O.co2 1 <1>  -0.9000 
 26 C        0.1720     6.9400     0.3060 C.ar  1 <1>   0.1670 
 27 C        2.0570     6.3940    -1.3310 C.3   1 <1>  -0.0970 
 28 C        0.5540     8.4090     0.2450 C.3   1 <1>  -0.0970 
 29 H       -3.1850    -0.9930     2.2890 H     1 <1>   0.0800 
 30 H       -4.8770    -0.5740     2.2170 H     1 <1>   0.0800 
 31 H       -5.5330     1.5830     1.0350 H     1 <1>   0.0800 
 32 H       -4.3100     2.4880     0.1940 H     1 <1>   0.0800 
 33 H       -0.2450     2.3070    -0.1370 H     1 <1>   0.1500 
 34 H       -3.3830     3.2500     2.5790 H     1 <1>   0.1500 
 35 H       -3.1600    -1.2720    -0.1670 H     1 <1>   0.0800 
 36 H       -5.6700     1.1330    -1.3630 H     1 <1>   0.0800 
 37 H       -3.9830     0.7290    -1.4280 H     1 <1>   0.0800 
 38 H       -2.7390     5.6310     2.4740 H     1 <1>   0.1500 
 39 H       -5.3140    -2.8680     0.8690 H     1 <1>   0.4500 
 40 H       -3.4700    -4.2950    -0.7820 H     1 <1>   0.0800 
 41 H       -5.2130    -4.2650    -0.7400 H     1 <1>   0.0800 
 42 H       -2.4310    -3.4310     1.3480 H     1 <1>   0.0800 
 43 H       -3.7320    -4.5630     1.6790 H     1 <1>   0.0800 
 44 H       -3.6510    -3.0500     2.5490 H     1 <1>   0.0800 
 45 H       -6.3510    -2.0130    -1.9230 H     1 <1>   0.0800 
 46 H       -5.2480    -0.9400    -2.7020 H     1 <1>   0.0800 
 47 H       -3.3570    -2.3470    -2.1330 H     1 <1>   0.0800 
 48 H       -4.5800    -3.3470    -2.8380 H     1 <1>   0.0800 
 49 H        2.8240     6.8540    -0.7360 H     1 <1>   0.0800 
 50 H        1.7220     7.0830    -2.0840 H     1 <1>   0.0800 
 51 H        2.4820     5.5370    -1.8240 H     1 <1>   0.0800 
 52 H        0.4630     8.7750    -0.7610 H     1 <1>   0.0800 
 53 H        1.5640     8.5440     0.5870 H     1 <1>   0.0800 
 54 H       -0.0950     8.9910     0.8750 H     1 <1>   0.0800 
@<TRIPOS>BOND
  1   1   2  2   
  2   2   3  am  
  3   2   4  1   
  4   3   5  1   
  5   3   6  1   
  6   4   7  ar  
  7   4   8  ar  
  8   5   9  1   
  9   5  29  1   
 10   5  30  1   
 11   6  10  1   
 12   6  31  1   
 13   6  32  1   
 14   7  11  ar  
 15   7  33  1   
 16   8  12  ar  
 17   8  34  1   
 18   9  13  1   
 19   9  14  1   
 20   9  35  1   
 21  10  14  1   
 22  10  36  1   
 23  10  37  1   
 24  11  15  ar  
 25  11  16  ar  
 26  12  16  ar  
 27  12  38  1   
 28  13  17  1   
 29  13  18  1   
 30  13  39  1   
 31  14  19  1   
 32  14  20  1   
 33  15  21  ar  
 34  16  22  ar  
 35  17  23  1   
 36  17  40  1   
 37  17  41  1   
 38  18  42  1   
 39  18  43  1   
 40  18  44  1   
 41  19  24  ar  
 42  19  25  ar  
 43  20  23  1   
 44  20  45  1   
 45  20  46  1   
 46  21  26  ar  
 47  21  27  1   
 48  22  26  ar  
 49  23  47  1   
 50  23  48  1   
 51  26  28  1   
 52  27  49  1   
 53  27  50  1   
 54  27  51  1   
 55  28  52  1   
 56  28  53  1   
 57  28  54  1   
@<TRIPOS>SUBSTRUCTURE
  1 ****   2 GROUP 4 **** **** 0

# MOE 2024.06 (io_trps.svl 2023.06)
