@<TRIPOS>MOLECULE
NONAME
43 44 1 0 0 
SMALL
USER_CHARGES


@<TRIPOS>ATOM
  1 F       -0.4400     0.4900    -0.4630 F     1 <1>  -0.1900 
  2 C       -1.7140     0.7810    -0.3970 C.ar  1 <1>   0.1900 
  3 C       -2.1670     2.0800    -0.1440 C.ar  1 <1>   0.0830 
  4 C       -2.5940    -0.2650    -0.5930 C.ar  1 <1>  -0.1500 
  5 O       -1.4030     3.1900     0.0650 O.3   1 <1>  -0.3630 
  6 C       -3.5370     2.2840    -0.0970 C.ar  1 <1>  -0.1500 
  7 C       -3.9550    -0.0250    -0.5400 C.ar  1 <1>  -0.1500 
  8 C        0.0070     3.1600     0.0970 C.3   1 <1>   0.0400 
  9 C       -4.4610     1.2530    -0.2890 C.ar  1 <1>   0.0530 
 10 C       -5.8800     1.5190    -0.2340 C.2   1 <1>   0.0870 
 11 O       -6.3250     2.7340    -0.4380 O.3   1 <1>  -0.0190 
 12 C       -6.9730     0.7390    -0.0090 C.2   1 <1>  -0.0860 
 13 N       -7.6260     2.8260    -0.3590 N.2   1 <1>  -0.4100 
 14 C       -8.0410     1.6390    -0.0870 C.2   1 <1>   0.3720 
 15 C       -7.0780    -0.6590     0.2680 C.2   1 <1>   0.7160 
 16 N       -9.3920     1.3130     0.1100 N.pl3 1 <1>  -0.8210 
 17 O       -6.4900    -1.1210     1.2280 O.2   1 <1>  -0.5700 
 18 N       -7.8000    -1.5280    -0.5290 N.am  1 <1>  -0.6600 
 19 C       -9.7440     0.9300     1.5060 C.3   1 <1>   0.1290 
 20 C      -10.3820     2.2600    -0.4760 C.3   1 <1>   0.1290 
 21 C       -8.1280    -2.9230    -0.0420 C.3   1 <1>   0.1400 
 22 C       -8.4790    -1.1040    -1.7890 C.3   1 <1>   0.0600 
 23 C       -9.4260    -3.0720     0.7890 C.3   1 <1>   1.0200 
 24 F       -9.6020    -4.3200     1.2030 F     1 <1>  -0.3400 
 25 F       -9.4510    -2.3090     1.8750 F     1 <1>  -0.3400 
 26 F      -10.5130    -2.7590     0.0920 F     1 <1>  -0.3400 
 27 H       -2.2160    -1.2530    -0.7830 H     1 <1>   0.1500 
 28 H       -3.8900     3.2810     0.0990 H     1 <1>   0.1500 
 29 H       -4.6270    -0.8490    -0.6990 H     1 <1>   0.1500 
 30 H        0.3580     4.1550     0.3020 H     1 <1>   0.0800 
 31 H        0.3730     2.8350    -0.8610 H     1 <1>   0.0800 
 32 H        0.3260     2.4930     0.8790 H     1 <1>   0.0800 
 33 H       -8.9290     0.4060     1.9760 H     1 <1>   0.0800 
 34 H      -10.6050     0.2840     1.4990 H     1 <1>   0.0800 
 35 H       -9.9640     1.8090     2.0870 H     1 <1>   0.0800 
 36 H      -10.1180     2.4800    -1.4960 H     1 <1>   0.0800 
 37 H      -10.3920     3.1790     0.0860 H     1 <1>   0.0800 
 38 H      -11.3650     1.8210    -0.4600 H     1 <1>   0.0800 
 39 H       -7.3180    -3.2870     0.5640 H     1 <1>   0.0800 
 40 H       -8.2030    -3.5790    -0.8890 H     1 <1>   0.0800 
 41 H       -8.0090    -0.2280    -2.2000 H     1 <1>   0.0800 
 42 H       -9.5120    -0.8760    -1.5870 H     1 <1>   0.0800 
 43 H       -8.4260    -1.8900    -2.5210 H     1 <1>   0.0800 
@<TRIPOS>BOND
  1   1   2  1   
  2   2   3  ar  
  3   2   4  ar  
  4   3   5  1   
  5   3   6  ar  
  6   4   7  ar  
  7   4  27  1   
  8   5   8  1   
  9   6   9  ar  
 10   6  28  1   
 11   7   9  ar  
 12   7  29  1   
 13   8  30  1   
 14   8  31  1   
 15   8  32  1   
 16   9  10  1   
 17  10  11  1   
 18  10  12  2   
 19  11  13  1   
 20  12  14  1   
 21  12  15  1   
 22  13  14  2   
 23  14  16  1   
 24  15  17  2   
 25  15  18  am  
 26  16  19  1   
 27  16  20  1   
 28  18  21  1   
 29  18  22  1   
 30  19  33  1   
 31  19  34  1   
 32  19  35  1   
 33  20  36  1   
 34  20  37  1   
 35  20  38  1   
 36  21  23  1   
 37  21  39  1   
 38  21  40  1   
 39  22  41  1   
 40  22  42  1   
 41  22  43  1   
 42  23  24  1   
 43  23  25  1   
 44  23  26  1   
@<TRIPOS>SUBSTRUCTURE
  1 ****  12 GROUP 4 **** **** 0

# MOE 2024.06 (io_trps.svl 2023.06)
