@<TRIPOS>MOLECULE
NONAME
50 52 1 0 0 
SMALL
USER_CHARGES


@<TRIPOS>ATOM
  1 F       -1.9060     5.3670     0.4010 F     1 <1>  -0.1900 
  2 C       -1.3640     5.6800    -0.7470 C.ar  1 <1>   0.1900 
  3 C       -0.0570     6.1410    -0.7870 C.ar  1 <1>  -0.1440 
  4 C       -2.1380     5.5440    -1.8840 C.ar  1 <1>  -0.1500 
  5 C        0.4730     6.4810    -2.0240 C.ar  1 <1>  -0.1500 
  6 C        0.7800     6.2930     0.4750 C.3   1 <1>   0.2540 
  7 C       -1.5900     5.8850    -3.1100 C.ar  1 <1>  -0.1500 
  8 C       -0.2870     6.3530    -3.1760 C.ar  1 <1>  -0.1500 
  9 N        1.4420     5.0290     0.8630 N.3   1 <1>  -0.8100 
 10 C        2.0780     5.1460     2.2110 C.3   1 <1>   0.1710 
 11 C        2.3410     4.5110    -0.1780 C.3   1 <1>   0.0300 
 12 C        2.9890     6.3640     2.4310 C.2   1 <1>   0.5690 
 13 O        2.7290     7.1500     3.3110 O.2   1 <1>  -0.5700 
 14 N        4.0370     6.5570     1.5960 N.am  1 <1>  -0.7300 
 15 C        4.6470     7.8760     1.3500 C.3   1 <1>   0.3210 
 16 C        4.0230     8.4470     0.0830 C.2   1 <1>   0.1080 
 17 N        4.3750     8.0340    -1.1000 N.2   1 <1>  -0.7070 
 18 C        3.0200     9.4170     0.0230 C.2   1 <1>  -0.1810 
 19 N        3.6190     8.7530    -1.9480 N.pl3 1 <1>   0.3000 
 20 C        2.7860     9.5870    -1.2950 C.2   1 <1>  -0.3320 
 21 C        2.3420    10.1350     1.1800 C.3   1 <1>   0.0210 
 22 C        1.8100    10.5150    -1.9920 C.3   1 <1>   0.0200 
 23 C        0.8090    10.0970     1.0980 C.3   1 <1>  -0.1600 
 24 C        0.3880    10.3720    -1.4390 C.3   1 <1>  -0.1600 
 25 C        0.2010    10.9510    -0.0270 C.3   1 <1>  -0.1600 
 26 H       -3.1450     5.1790    -1.8060 H     1 <1>   0.1500 
 27 H        1.4840     6.8460    -2.0860 H     1 <1>   0.1500 
 28 H        0.1440     6.6210     1.2800 H     1 <1>   0.0800 
 29 H        1.5210     7.0560     0.3110 H     1 <1>   0.0800 
 30 H       -2.1760     5.7860    -4.0080 H     1 <1>   0.1500 
 31 H        0.1360     6.6180    -4.1290 H     1 <1>   0.1500 
 32 H        2.6390     4.2540     2.4190 H     1 <1>   0.0800 
 33 H        1.2920     5.1980     2.9440 H     1 <1>   0.0800 
 34 H        1.7590     4.1730    -1.0190 H     1 <1>   0.0800 
 35 H        2.8990     3.6700     0.1960 H     1 <1>   0.0800 
 36 H        3.0190     5.2740    -0.5180 H     1 <1>   0.0800 
 37 H        4.1000     5.9570     0.7730 H     1 <1>   0.3700 
 38 H        5.7060     7.7570     1.2030 H     1 <1>   0.0800 
 39 H        4.4920     8.5300     2.1890 H     1 <1>   0.0800 
 40 H        3.6970     8.6550    -2.9670 H     1 <1>   0.2700 
 41 H        2.6790    11.1560     1.2070 H     1 <1>   0.0800 
 42 H        2.6290     9.6750     2.1070 H     1 <1>   0.0800 
 43 H        1.7900    10.2850    -3.0430 H     1 <1>   0.0800 
 44 H        2.1450    11.5320    -1.8870 H     1 <1>   0.0800 
 45 H        0.4260    10.4630     2.0340 H     1 <1>   0.0800 
 46 H        0.4790     9.0800     1.0000 H     1 <1>   0.0800 
 47 H        0.0960     9.3360    -1.4510 H     1 <1>   0.0800 
 48 H       -0.2770    10.8980    -2.1010 H     1 <1>   0.0800 
 49 H        0.5960    11.9520     0.0170 H     1 <1>   0.0800 
 50 H       -0.8570    11.0210     0.1580 H     1 <1>   0.0800 
@<TRIPOS>BOND
  1   1   2  1   
  2   2   3  ar  
  3   2   4  ar  
  4   3   5  ar  
  5   3   6  1   
  6   4   7  ar  
  7   4  26  1   
  8   5   8  ar  
  9   5  27  1   
 10   6   9  1   
 11   6  28  1   
 12   6  29  1   
 13   7   8  ar  
 14   7  30  1   
 15   8  31  1   
 16   9  10  1   
 17   9  11  1   
 18  10  12  1   
 19  10  32  1   
 20  10  33  1   
 21  11  34  1   
 22  11  35  1   
 23  11  36  1   
 24  12  13  2   
 25  12  14  am  
 26  14  15  1   
 27  14  37  1   
 28  15  16  1   
 29  15  38  1   
 30  15  39  1   
 31  16  17  2   
 32  16  18  1   
 33  17  19  1   
 34  18  20  2   
 35  18  21  1   
 36  19  20  1   
 37  19  40  1   
 38  20  22  1   
 39  21  23  1   
 40  21  41  1   
 41  21  42  1   
 42  22  24  1   
 43  22  43  1   
 44  22  44  1   
 45  23  25  1   
 46  23  45  1   
 47  23  46  1   
 48  24  25  1   
 49  24  47  1   
 50  24  48  1   
 51  25  49  1   
 52  25  50  1   
@<TRIPOS>SUBSTRUCTURE
  1 ****   6 GROUP 4 **** **** 0

# MOE 2024.06 (io_trps.svl 2023.06)
