@<TRIPOS>MOLECULE
NONAME
60 65 1 0 0 
SMALL
USER_CHARGES


@<TRIPOS>ATOM
  1 O       -0.0690     0.5610     1.6970 O.2   1 <1>  -0.5700 
  2 C       -0.5390     0.9790     0.6560 C.2   1 <1>   0.6900 
  3 N       -1.8940     0.9980     0.4610 N.am  1 <1>  -0.6600 
  4 N        0.2600     1.4400    -0.3380 N.am  1 <1>  -0.7300 
  5 C       -2.5780     2.0080    -0.4030 C.3   1 <1>   0.1400 
  6 C       -2.8160     0.3330     1.4210 C.3   1 <1>   0.1400 
  7 C        1.7200     1.6100    -0.3520 C.3   1 <1>   0.3000 
  8 C       -3.1760     3.1300     0.4670 C.3   1 <1>   0.1430 
  9 C       -3.4660     1.3850     2.3280 C.3   1 <1>  -0.1600 
 10 C        2.4340     0.2520    -0.2180 C.3   1 <1>  -0.1600 
 11 C        2.0950     2.2380    -1.7070 C.3   1 <1>  -0.1600 
 12 C        2.1770     2.5570     0.7750 C.3   1 <1>  -0.1600 
 13 C       -3.9240     4.1310    -0.3930 C.ar  1 <1>   0.1670 
 14 C       -4.1280     2.5230     1.5240 C.3   1 <1>  -0.1600 
 15 C       -2.0760     4.0130     1.1180 C.3   1 <1>  -0.1600 
 16 C        3.9610     0.4520    -0.2920 C.3   1 <1>  -0.0800 
 17 C        3.6190     2.4490    -1.7990 C.3   1 <1>  -0.0800 
 18 C        3.7030     2.7630     0.7040 C.3   1 <1>  -0.0800 
 19 N       -4.8010     3.8300    -1.3260 N.ar  1 <1>  -0.6200 
 20 C       -3.5770     5.4140    -0.0890 C.ar  1 <1>  -0.1430 
 21 C       -2.5530     5.4720     1.0160 C.3   1 <1>  -0.0170 
 22 C        4.3250     1.0880    -1.6470 C.3   1 <1>  -0.1600 
 23 C        4.4020     1.3970     0.8430 C.3   1 <1>  -0.1600 
 24 C        4.0680     3.3820    -0.6580 C.3   1 <1>  -0.1600 
 25 C       -5.3230     4.8800    -1.9450 C.ar  1 <1>   0.4770 
 26 C       -4.1800     6.4240    -0.7960 C.ar  1 <1>   0.1600 
 27 N       -5.0640     6.1640    -1.7370 N.ar  1 <1>  -0.6200 
 28 C       -6.3400     4.5850    -3.0210 C.3   1 <1>  -0.0970 
 29 H       -0.1730     1.5030    -1.2510 H     1 <1>   0.3700 
 30 H       -3.3680     1.5200    -0.9480 H     1 <1>   0.0800 
 31 H       -1.9030     2.4340    -1.1220 H     1 <1>   0.0800 
 32 H       -2.2820    -0.3880     2.0170 H     1 <1>   0.0800 
 33 H       -3.5740    -0.1940     0.8670 H     1 <1>   0.0800 
 34 H       -2.7100     1.7800     2.9830 H     1 <1>   0.0800 
 35 H       -4.2050     0.9070     2.9470 H     1 <1>   0.0800 
 36 H        2.1150    -0.4090    -1.0030 H     1 <1>   0.0800 
 37 H        2.1850    -0.2010     0.7240 H     1 <1>   0.0800 
 38 H        1.6000     3.1860    -1.8190 H     1 <1>   0.0800 
 39 H        1.7800     1.5940    -2.5080 H     1 <1>   0.0800 
 40 H        1.9270     2.1370     1.7330 H     1 <1>   0.0800 
 41 H        1.6760     3.5040     0.6830 H     1 <1>   0.0800 
 42 H       -4.9900     2.1260     1.0160 H     1 <1>   0.0800 
 43 H       -4.4740     3.2910     2.1930 H     1 <1>   0.0800 
 44 H       -1.1640     3.9210     0.5530 H     1 <1>   0.0800 
 45 H       -1.8620     3.7360     2.1340 H     1 <1>   0.0800 
 46 H        4.4570    -0.4980    -0.1890 H     1 <1>   0.0800 
 47 H        3.8720     2.8870    -2.7490 H     1 <1>   0.0800 
 48 H        4.0190     3.4170     1.4990 H     1 <1>   0.0800 
 49 H       -1.7420     6.1380     0.7770 H     1 <1>   0.0800 
 50 H       -3.0260     5.7820     1.9320 H     1 <1>   0.0800 
 51 H        4.0310     0.4310    -2.4480 H     1 <1>   0.0800 
 52 H        5.3910     1.2210    -1.7110 H     1 <1>   0.0800 
 53 H        5.4700     1.5290     0.8120 H     1 <1>   0.0800 
 54 H        4.1560     0.9580     1.7960 H     1 <1>   0.0800 
 55 H        3.5920     4.3410    -0.7620 H     1 <1>   0.0800 
 56 H        5.1320     3.5380    -0.7130 H     1 <1>   0.0800 
 57 H       -3.9400     7.4530    -0.5910 H     1 <1>   0.1500 
 58 H       -6.4830     3.5260    -3.1280 H     1 <1>   0.0800 
 59 H       -5.9980     4.9900    -3.9550 H     1 <1>   0.0800 
 60 H       -7.2760     5.0410    -2.7600 H     1 <1>   0.0800 
@<TRIPOS>BOND
  1   1   2  2   
  2   2   3  am  
  3   2   4  am  
  4   3   5  1   
  5   3   6  1   
  6   4   7  1   
  7   4  29  1   
  8   5   8  1   
  9   5  30  1   
 10   5  31  1   
 11   6   9  1   
 12   6  32  1   
 13   6  33  1   
 14   7  10  1   
 15   7  11  1   
 16   7  12  1   
 17   8  13  1   
 18   8  14  1   
 19   8  15  1   
 20   9  14  1   
 21   9  34  1   
 22   9  35  1   
 23  10  16  1   
 24  10  36  1   
 25  10  37  1   
 26  11  17  1   
 27  11  38  1   
 28  11  39  1   
 29  12  18  1   
 30  12  40  1   
 31  12  41  1   
 32  13  19  ar  
 33  13  20  ar  
 34  14  42  1   
 35  14  43  1   
 36  15  21  1   
 37  15  44  1   
 38  15  45  1   
 39  16  22  1   
 40  16  23  1   
 41  16  46  1   
 42  17  22  1   
 43  17  24  1   
 44  17  47  1   
 45  18  23  1   
 46  18  24  1   
 47  18  48  1   
 48  19  25  ar  
 49  20  21  1   
 50  20  26  ar  
 51  21  49  1   
 52  21  50  1   
 53  22  51  1   
 54  22  52  1   
 55  23  53  1   
 56  23  54  1   
 57  24  55  1   
 58  24  56  1   
 59  25  27  ar  
 60  25  28  1   
 61  26  27  ar  
 62  26  57  1   
 63  28  58  1   
 64  28  59  1   
 65  28  60  1   
@<TRIPOS>SUBSTRUCTURE
  1 ****   4 GROUP 4 **** **** 0

# MOE 2024.06 (io_trps.svl 2023.06)
