@<TRIPOS>MOLECULE
NONAME
38 39 1 0 0 
SMALL
USER_CHARGES


@<TRIPOS>ATOM
  1 O       -0.7390    -0.7720     0.8610 O.2   1 <1>  -0.5700 
  2 C       -1.8260    -1.3080     0.8800 C.2   1 <1>   0.6900 
  3 N       -2.8170    -1.0070    -0.0340 N.am  1 <1>  -0.4200 
  4 N       -2.0740    -2.2500     1.8380 N.am  1 <1>  -0.5390 
  5 C       -4.0240    -1.6830     0.0070 C.2   1 <1>   0.6160 
  6 C       -2.5600     0.0300    -1.0750 C.3   1 <1>   0.0600 
  7 C       -3.2750    -2.9210     1.9400 C.2   1 <1>  -0.0410 
  8 O       -4.8770    -1.4750    -0.8420 O.2   1 <1>  -0.5700 
  9 C       -4.2510    -2.6550     1.0430 C.2   1 <1>  -0.1240 
 10 C       -5.6090    -3.3510     1.0990 C.3   1 <1>  -0.0220 
 11 C       -5.8540    -4.1830    -0.1700 C.3   1 <1>   0.3430 
 12 N       -7.2690    -4.0770    -0.6410 N.4   1 <1>  -0.9590 
 13 C       -7.6310    -5.2150    -1.5450 C.3   1 <1>   0.4860 
 14 C       -7.5600    -2.7480    -1.2690 C.3   1 <1>   0.2630 
 15 C       -7.7770    -6.5000    -0.7320 C.ar  1 <1>   0.1670 
 16 N       -8.1880    -6.3770     0.5280 N.ar  1 <1>  -0.6200 
 17 C       -7.4780    -7.7220    -1.3290 C.ar  1 <1>   0.1600 
 18 C       -8.2890    -7.5520     1.1340 C.ar  1 <1>   0.1600 
 19 N       -7.5700    -8.8870    -0.7180 N.ar  1 <1>  -0.6200 
 20 C       -7.9890    -8.7670     0.5300 C.ar  1 <1>   0.1600 
 21 H       -1.2950    -2.4010     2.4840 H     1 <1>   0.3700 
 22 H       -1.9070     0.7930    -0.6880 H     1 <1>   0.0800 
 23 H       -3.4810     0.4960    -1.3800 H     1 <1>   0.0800 
 24 H       -2.0940    -0.4270    -1.9300 H     1 <1>   0.0800 
 25 H       -3.3750    -3.6320     2.7470 H     1 <1>   0.1500 
 26 H       -6.3640    -2.5950     1.2210 H     1 <1>   0.0800 
 27 H       -5.6570    -4.0010     1.9550 H     1 <1>   0.0800 
 28 H       -5.6100    -5.2110     0.0450 H     1 <1>   0.0800 
 29 H       -5.1970    -3.8450    -0.9550 H     1 <1>   0.0800 
 30 H       -7.8760    -4.2370     0.1840 H     1 <1>   0.4500 
 31 H       -6.8850    -5.3380    -2.3120 H     1 <1>   0.0800 
 32 H       -8.5780    -5.0100    -2.0160 H     1 <1>   0.0800 
 33 H       -6.9280    -2.5920    -2.1290 H     1 <1>   0.0800 
 34 H       -7.3680    -1.9500    -0.5690 H     1 <1>   0.0800 
 35 H       -8.5910    -2.6910    -1.5770 H     1 <1>   0.0800 
 36 H       -7.1500    -7.7480    -2.3550 H     1 <1>   0.1500 
 37 H       -8.6260    -7.5590     2.1570 H     1 <1>   0.1500 
 38 H       -8.1000    -9.6740     1.1010 H     1 <1>   0.1500 
@<TRIPOS>BOND
  1   1   2  2   
  2   2   3  am  
  3   2   4  am  
  4   3   5  am  
  5   3   6  1   
  6   4   7  1   
  7   4  21  1   
  8   5   8  2   
  9   5   9  1   
 10   6  22  1   
 11   6  23  1   
 12   6  24  1   
 13   7   9  2   
 14   7  25  1   
 15   9  10  1   
 16  10  11  1   
 17  10  26  1   
 18  10  27  1   
 19  11  12  1   
 20  11  28  1   
 21  11  29  1   
 22  12  13  1   
 23  12  14  1   
 24  12  30  1   
 25  13  15  1   
 26  13  31  1   
 27  13  32  1   
 28  14  33  1   
 29  14  34  1   
 30  14  35  1   
 31  15  16  ar  
 32  15  17  ar  
 33  16  18  ar  
 34  17  19  ar  
 35  17  36  1   
 36  18  20  ar  
 37  18  37  1   
 38  19  20  ar  
 39  20  38  1   
@<TRIPOS>SUBSTRUCTURE
  1 ****  11 GROUP 4 **** **** 0

# MOE 2024.06 (io_trps.svl 2023.06)
