@<TRIPOS>MOLECULE
NONAME
44 46 1 0 0 
SMALL
USER_CHARGES


@<TRIPOS>ATOM
  1 O       -0.2260     0.2160     0.2890 O.2   1 <1>  -0.5700 
  2 C       -1.2750     0.7830     0.0960 C.2   1 <1>   0.5690 
  3 N       -2.4320     0.0840    -0.0980 N.am  1 <1>  -0.6600 
  4 C       -1.3060     2.3030     0.0600 C.3   1 <1>  -0.0990 
  5 C       -3.7650     0.6470    -0.4270 C.3   1 <1>   0.1400 
  6 C       -2.4790    -1.3970    -0.0610 C.3   1 <1>   0.1400 
  7 C        0.0210     2.9580     0.4730 C.3   1 <1>  -0.0160 
  8 C       -4.6150    -0.5650    -0.8060 C.3   1 <1>   0.2000 
  9 C       -3.9660    -1.7540    -0.1010 C.3   1 <1>  -0.0800 
 10 C       -0.1020     4.4720     0.4300 C.ar  1 <1>  -0.1440 
 11 O       -5.9280    -0.4200    -0.3900 O.3   1 <1>  -0.6800 
 12 C       -4.2580    -3.0950    -0.7900 C.3   1 <1>   0.0200 
 13 C       -0.4940     5.2040     1.5320 C.ar  1 <1>  -0.1500 
 14 C        0.1700     5.1930    -0.7150 C.ar  1 <1>  -0.1500 
 15 C       -3.5330    -4.2310    -0.0950 C.2   1 <1>  -0.0400 
 16 C       -0.5960     6.5820     1.4370 C.ar  1 <1>   0.1600 
 17 C        0.0360     6.5710    -0.7040 C.ar  1 <1>   0.1600 
 18 O       -3.8170    -4.5240     1.1460 O.3   1 <1>  -0.0190 
 19 C       -2.5750    -5.0730    -0.5090 C.2   1 <1>  -0.1500 
 20 N       -0.3420     7.2840     0.3440 N.ar  1 <1>  -0.6200 
 21 N       -3.0960    -5.5140     1.5860 N.2   1 <1>  -0.4100 
 22 C       -2.3380    -5.8660     0.6100 C.2   1 <1>   0.1080 
 23 C       -1.3280    -6.9890     0.6800 C.3   1 <1>  -0.0590 
 24 H       -1.5520     2.6130    -0.9380 H     1 <1>   0.0800 
 25 H       -2.0790     2.6460     0.7220 H     1 <1>   0.0800 
 26 H       -4.1660     1.1390     0.4430 H     1 <1>   0.0800 
 27 H       -3.6960     1.3360    -1.2500 H     1 <1>   0.0800 
 28 H       -1.9620    -1.7820    -0.9230 H     1 <1>   0.0800 
 29 H       -2.0060    -1.7740     0.8320 H     1 <1>   0.0800 
 30 H        0.8060     2.6390    -0.1910 H     1 <1>   0.0800 
 31 H        0.2870     2.6420     1.4670 H     1 <1>   0.0800 
 32 H       -4.6100    -0.6900    -1.8750 H     1 <1>   0.0800 
 33 H       -4.3070    -1.7960     0.9190 H     1 <1>   0.0800 
 34 H       -5.9820    -0.4180     0.5860 H     1 <1>   0.4000 
 35 H       -3.9480    -3.0560    -1.8190 H     1 <1>   0.0800 
 36 H       -5.3160    -3.2890    -0.7680 H     1 <1>   0.0800 
 37 H       -0.7200     4.7170     2.4620 H     1 <1>   0.1500 
 38 H        0.4840     4.6950    -1.6150 H     1 <1>   0.1500 
 39 H       -0.9020     7.1370     2.3080 H     1 <1>   0.1500 
 40 H        0.2530     7.1170    -1.6070 H     1 <1>   0.1500 
 41 H       -2.0820    -5.1470    -1.4610 H     1 <1>   0.1500 
 42 H       -1.5490    -7.7260    -0.0700 H     1 <1>   0.0800 
 43 H       -1.3640    -7.4550     1.6480 H     1 <1>   0.0800 
 44 H       -0.3400    -6.6000     0.5170 H     1 <1>   0.0800 
@<TRIPOS>BOND
  1   1   2  2   
  2   2   3  am  
  3   2   4  1   
  4   3   5  1   
  5   3   6  1   
  6   4   7  1   
  7   4  24  1   
  8   4  25  1   
  9   5   8  1   
 10   5  26  1   
 11   5  27  1   
 12   6   9  1   
 13   6  28  1   
 14   6  29  1   
 15   7  10  1   
 16   7  30  1   
 17   7  31  1   
 18   8   9  1   
 19   8  11  1   
 20   8  32  1   
 21   9  12  1   
 22   9  33  1   
 23  10  13  ar  
 24  10  14  ar  
 25  11  34  1   
 26  12  15  1   
 27  12  35  1   
 28  12  36  1   
 29  13  16  ar  
 30  13  37  1   
 31  14  17  ar  
 32  14  38  1   
 33  15  18  1   
 34  15  19  2   
 35  16  20  ar  
 36  16  39  1   
 37  17  20  ar  
 38  17  40  1   
 39  18  21  1   
 40  19  22  1   
 41  19  41  1   
 42  21  22  2   
 43  22  23  1   
 44  23  42  1   
 45  23  43  1   
 46  23  44  1   
@<TRIPOS>SUBSTRUCTURE
  1 ****   3 GROUP 4 **** **** 0

# MOE 2024.06 (io_trps.svl 2023.06)
