@<TRIPOS>MOLECULE
NONAME
45 48 1 0 0 
SMALL
USER_CHARGES


@<TRIPOS>ATOM
  1 O       -0.8170     0.5450     1.6150 O.2   1 <1>  -0.5700 
  2 C       -1.7620     1.1120     1.0940 C.2   1 <1>   0.7150 
  3 N       -2.8530     0.3510     0.7280 N.am  1 <1>  -0.6600 
  4 C       -1.7350     2.5420     0.8690 C.2   1 <1>   0.0550 
  5 C       -3.8610     0.7760    -0.2800 C.3   1 <1>   0.1400 
  6 C       -2.8740    -1.1280     0.8770 C.3   1 <1>   0.1400 
  7 O       -0.6420     3.1180     0.3480 O.3   1 <1>  -0.2800 
  8 C       -2.6780     3.4940     1.0930 C.2   1 <1>  -0.1500 
  9 C       -4.7600    -0.4440    -0.4680 C.3   1 <1>   0.2000 
 10 C       -3.8220    -1.6290    -0.2190 C.3   1 <1>  -0.0800 
 11 C       -0.8720     4.4260     0.2310 C.ar  1 <1>   0.1400 
 12 C       -2.1430     4.7260     0.6830 C.ar  1 <1>   0.0000 
 13 O       -5.7390    -0.4120     0.5150 O.3   1 <1>  -0.6800 
 14 C       -4.5250    -2.9570     0.1240 C.3   1 <1>   0.0200 
 15 C       -0.0120     5.4010    -0.2650 C.ar  1 <1>  -0.1430 
 16 C       -2.5920     6.0470     0.6470 C.ar  1 <1>  -0.1500 
 17 C       -3.5630    -4.1280     0.2330 C.2   1 <1>  -0.0400 
 18 C       -0.4680     6.7050    -0.2970 C.ar  1 <1>  -0.1500 
 19 C        1.3770     5.0210    -0.7470 C.3   1 <1>  -0.0970 
 20 C       -1.7510     7.0250     0.1570 C.ar  1 <1>  -0.1500 
 21 O       -4.0170    -5.2720     0.6720 O.3   1 <1>  -0.0190 
 22 C       -2.2560    -4.2860    -0.0370 C.2   1 <1>  -0.1500 
 23 N       -3.0870    -6.1820     0.7150 N.2   1 <1>  -0.4100 
 24 C       -2.0150    -5.6160     0.2940 C.2   1 <1>   0.1080 
 25 C       -0.6760    -6.3100     0.1780 C.3   1 <1>  -0.0590 
 26 H       -4.4260     1.6320     0.0460 H     1 <1>   0.0800 
 27 H       -3.3580     1.0070    -1.2040 H     1 <1>   0.0800 
 28 H       -1.8870    -1.5430     0.7630 H     1 <1>   0.0800 
 29 H       -3.2490    -1.3750     1.8550 H     1 <1>   0.0800 
 30 H       -3.6590     3.3730     1.5120 H     1 <1>   0.1500 
 31 H       -5.2420    -0.4720    -1.4300 H     1 <1>   0.0800 
 32 H       -3.2420    -1.7730    -1.1130 H     1 <1>   0.0800 
 33 H       -5.3170    -0.2480     1.3820 H     1 <1>   0.4000 
 34 H       -5.2510    -3.1840    -0.6370 H     1 <1>   0.0800 
 35 H       -5.0520    -2.8650     1.0570 H     1 <1>   0.0800 
 36 H       -3.5790     6.2850     0.9990 H     1 <1>   0.1500 
 37 H        0.1630     7.4920    -0.6720 H     1 <1>   0.1500 
 38 H        1.9150     5.8840    -1.0940 H     1 <1>   0.0800 
 39 H        1.3020     4.3120    -1.5520 H     1 <1>   0.0800 
 40 H        1.9290     4.5690     0.0580 H     1 <1>   0.0800 
 41 H       -2.0790     8.0500     0.1200 H     1 <1>   0.1500 
 42 H       -1.5300    -3.5920    -0.4160 H     1 <1>   0.1500 
 43 H        0.0550    -5.7950     0.7720 H     1 <1>   0.0800 
 44 H       -0.3590    -6.3210    -0.8490 H     1 <1>   0.0800 
 45 H       -0.7570    -7.3240     0.5270 H     1 <1>   0.0800 
@<TRIPOS>BOND
  1   1   2  2   
  2   2   3  am  
  3   2   4  1   
  4   3   5  1   
  5   3   6  1   
  6   4   7  1   
  7   4   8  2   
  8   5   9  1   
  9   5  26  1   
 10   5  27  1   
 11   6  10  1   
 12   6  28  1   
 13   6  29  1   
 14   7  11  1   
 15   8  12  1   
 16   8  30  1   
 17   9  10  1   
 18   9  13  1   
 19   9  31  1   
 20  10  14  1   
 21  10  32  1   
 22  11  12  ar  
 23  11  15  ar  
 24  12  16  ar  
 25  13  33  1   
 26  14  17  1   
 27  14  34  1   
 28  14  35  1   
 29  15  18  ar  
 30  15  19  1   
 31  16  20  ar  
 32  16  36  1   
 33  17  21  1   
 34  17  22  2   
 35  18  20  ar  
 36  18  37  1   
 37  19  38  1   
 38  19  39  1   
 39  19  40  1   
 40  20  41  1   
 41  21  23  1   
 42  22  24  1   
 43  22  42  1   
 44  23  24  2   
 45  24  25  1   
 46  25  43  1   
 47  25  44  1   
 48  25  45  1   
@<TRIPOS>SUBSTRUCTURE
  1 ****   3 GROUP 4 **** **** 0

# MOE 2024.06 (io_trps.svl 2023.06)
