@<TRIPOS>MOLECULE
Untitled Document
74 77 1 0 0 
SMALL
USER_CHARGES


@<TRIPOS>ATOM
  1 O       -0.3220     1.2940    -0.5680 O.co2 1 <1>  -0.9000 
  2 C       -0.2540     1.6620    -1.7670 C.2   1 <1>   0.9060 
  3 O        0.7830     2.0260    -2.3630 O.co2 1 <1>  -0.9000 
  4 C       -1.5690     1.6640    -2.5720 C.3   1 <1>   0.0340 
  5 N       -2.7300     1.2200    -1.7790 N.am  1 <1>  -0.7300 
  6 C       -4.0170     1.1370    -2.1840 C.2   1 <1>   0.5690 
  7 O       -4.3750     1.4230    -3.3020 O.2   1 <1>  -0.5700 
  8 C       -5.0450     0.6650    -1.1770 C.3   1 <1>  -0.0990 
  9 C       -5.5330     1.8170    -0.2800 C.3   1 <1>  -0.1600 
 10 C       -6.4120     1.3900     0.9300 C.3   1 <1>  -0.0800 
 11 C       -7.5190     0.2520     0.7430 C.3   1 <1>  -0.0800 
 12 C       -6.8770     2.6500     1.6900 C.3   1 <1>  -0.2400 
 13 C       -9.0830     0.2610     0.2420 C.3   1 <1>   0.0000 
 14 C       -7.4880    -0.4410     2.1290 C.3   1 <1>  -0.1600 
 15 C       -9.2340    -1.2490     0.8220 C.3   1 <1>  -0.0800 
 16 C      -10.6340     0.2810    -0.1670 C.3   1 <1>  -0.1600 
 17 C       -8.9490     1.6980    -0.4030 C.3   1 <1>  -0.2400 
 18 C       -8.7500    -1.2250     2.2530 C.3   1 <1>  -0.1600 
 19 C      -10.4840    -2.2040     0.7440 C.3   1 <1>  -0.0800 
 20 C      -10.9930    -0.7490    -1.2500 C.3   1 <1>  -0.1600 
 21 C      -10.2720    -3.6820     1.1740 C.3   1 <1>   0.2000 
 22 C      -11.1510    -2.1560    -0.6460 C.3   1 <1>  -0.0800 
 23 O       -9.0310    -4.1480     0.7790 O.3   1 <1>  -0.6800 
 24 C      -11.3020    -4.6510     0.5730 C.3   1 <1>  -0.1600 
 25 C      -12.6140    -2.7210    -0.5850 C.3   1 <1>   0.0000 
 26 C      -12.6810    -4.0110     0.3130 C.3   1 <1>  -0.0800 
 27 C      -13.0740    -3.0660    -2.0250 C.3   1 <1>  -0.1600 
 28 C      -13.5870    -1.6630     0.0050 C.3   1 <1>  -0.2400 
 29 C      -13.6140    -5.1210    -0.2320 C.3   1 <1>  -0.1600 
 30 C      -14.5030    -3.6420    -2.1060 C.3   1 <1>  -0.1600 
 31 C      -14.8540    -4.5630    -0.9270 C.3   1 <1>   0.2000 
 32 O      -15.5910    -5.6250    -1.4020 O.3   1 <1>  -0.6800 
 33 H       -1.4320     1.0060    -3.4280 H     1 <1>   0.0800 
 34 H       -1.7330     2.6770    -2.9330 H     1 <1>   0.0800 
 35 H       -2.4620     0.9830    -0.8290 H     1 <1>   0.3700 
 36 H       -5.8720     0.2470    -1.7210 H     1 <1>   0.0800 
 37 H       -4.6070    -0.1110    -0.5760 H     1 <1>   0.0800 
 38 H       -6.0200     2.5480    -0.8990 H     1 <1>   0.0800 
 39 H       -4.6620     2.3120     0.1150 H     1 <1>   0.0800 
 40 H       -5.6700     0.9510     1.5780 H     1 <1>   0.0800 
 41 H       -7.0320    -0.4300     0.0710 H     1 <1>   0.0800 
 42 H       -7.3260     3.3650     1.0270 H     1 <1>   0.0800 
 43 H       -6.0310     3.1270     2.1530 H     1 <1>   0.0800 
 44 H       -7.5880     2.4090     2.4580 H     1 <1>   0.0800 
 45 H       -6.6390    -1.1010     2.1890 H     1 <1>   0.0800 
 46 H       -7.4400     0.2500     2.9520 H     1 <1>   0.0800 
 47 H       -8.5250    -1.8240     0.2510 H     1 <1>   0.0800 
 48 H      -11.2230     0.1420     0.7220 H     1 <1>   0.0800 
 49 H      -11.1060     1.1980    -0.4890 H     1 <1>   0.0800 
 50 H       -9.2830     2.4570     0.2830 H     1 <1>   0.0800 
 51 H       -9.4610     1.8310    -1.3450 H     1 <1>   0.0800 
 52 H       -7.9920     1.9530    -0.7690 H     1 <1>   0.0800 
 53 H       -9.4600    -0.7060     2.8740 H     1 <1>   0.0800 
 54 H       -8.5520    -2.2020     2.6570 H     1 <1>   0.0800 
 55 H      -11.1920    -1.8340     1.4600 H     1 <1>   0.0800 
 56 H      -10.2000    -0.7610    -1.9780 H     1 <1>   0.0800 
 57 H      -11.8780    -0.4400    -1.7740 H     1 <1>   0.0800 
 58 H      -10.3040    -3.7440     2.2490 H     1 <1>   0.0800 
 59 H      -10.5810    -2.8060    -1.2890 H     1 <1>   0.0800 
 60 H       -8.9170    -3.9930    -0.1760 H     1 <1>   0.4000 
 61 H      -10.9310    -5.0330    -0.3630 H     1 <1>   0.0800 
 62 H      -11.4130    -5.4850     1.2440 H     1 <1>   0.0800 
 63 H      -13.0650    -3.7210     1.2770 H     1 <1>   0.0800 
 64 H      -13.0200    -2.1990    -2.6600 H     1 <1>   0.0800 
 65 H      -12.3940    -3.7930    -2.4350 H     1 <1>   0.0800 
 66 H      -14.5600    -2.0760     0.1850 H     1 <1>   0.0800 
 67 H      -13.7170    -0.8310    -0.6620 H     1 <1>   0.0800 
 68 H      -13.2330    -1.2820     0.9430 H     1 <1>   0.0800 
 69 H      -13.9180    -5.7570     0.5810 H     1 <1>   0.0800 
 70 H      -13.0760    -5.7230    -0.9430 H     1 <1>   0.0800 
 71 H      -14.6040    -4.1640    -3.0420 H     1 <1>   0.0800 
 72 H      -15.2090    -2.8310    -2.1130 H     1 <1>   0.0800 
 73 H      -15.4680    -4.0430    -0.2130 H     1 <1>   0.0800 
 74 H      -15.0610    -6.1340    -2.0430 H     1 <1>   0.4000 
@<TRIPOS>BOND
  1   1   2  ar  
  2   2   3  ar  
  3   2   4  1   
  4   4   5  1   
  5   4  33  1   
  6   4  34  1   
  7   5   6  am  
  8   5  35  1   
  9   6   7  2   
 10   6   8  1   
 11   8   9  1   
 12   8  36  1   
 13   8  37  1   
 14   9  10  1   
 15   9  38  1   
 16   9  39  1   
 17  10  11  1   
 18  10  12  1   
 19  10  40  1   
 20  11  13  1   
 21  11  14  1   
 22  11  41  1   
 23  12  42  1   
 24  12  43  1   
 25  12  44  1   
 26  13  15  1   
 27  13  16  1   
 28  13  17  1   
 29  14  18  1   
 30  14  45  1   
 31  14  46  1   
 32  15  18  1   
 33  15  19  1   
 34  15  47  1   
 35  16  20  1   
 36  16  48  1   
 37  16  49  1   
 38  17  50  1   
 39  17  51  1   
 40  17  52  1   
 41  18  53  1   
 42  18  54  1   
 43  19  21  1   
 44  19  22  1   
 45  19  55  1   
 46  20  22  1   
 47  20  56  1   
 48  20  57  1   
 49  21  23  1   
 50  21  24  1   
 51  21  58  1   
 52  22  25  1   
 53  22  59  1   
 54  23  60  1   
 55  24  26  1   
 56  24  61  1   
 57  24  62  1   
 58  25  26  1   
 59  25  27  1   
 60  25  28  1   
 61  26  29  1   
 62  26  63  1   
 63  27  30  1   
 64  27  64  1   
 65  27  65  1   
 66  28  66  1   
 67  28  67  1   
 68  28  68  1   
 69  29  31  1   
 70  29  69  1   
 71  29  70  1   
 72  30  31  1   
 73  30  71  1   
 74  30  72  1   
 75  31  32  1   
 76  31  73  1   
 77  32  74  1   
@<TRIPOS>SUBSTRUCTURE
  1 ****  15 GROUP 4 **** **** 0

# MOE 2024.06 (io_trps.svl 2023.06)
