@<TRIPOS>MOLECULE
NONAME
41 43 1 0 0 
SMALL
USER_CHARGES


@<TRIPOS>ATOM
  1 CL      -0.1380    -0.2650     0.7360 Cl    1 <1>  -0.1770 
  2 C       -1.6650    -1.0370     0.3720 C.ar  1 <1>   0.1770 
  3 C       -2.3330    -1.7530     1.3470 C.ar  1 <1>   0.1600 
  4 C       -2.1970    -0.9300    -0.8940 C.ar  1 <1>  -0.1500 
  5 N       -3.4920    -2.3700     1.1610 N.ar  1 <1>  -0.6200 
  6 C       -3.4030    -1.5630    -1.0950 C.ar  1 <1>  -0.1500 
  7 C       -4.0250    -2.2570    -0.0550 C.ar  1 <1>   0.4100 
  8 N       -5.2480    -2.8740    -0.2700 N.pl3 1 <1>  -0.8380 
  9 C       -5.7080    -3.9360     0.6780 C.3   1 <1>   0.2090 
 10 C       -6.3820    -2.0510    -0.7820 C.3   1 <1>   0.2090 
 11 C       -6.6940    -4.8900    -0.0400 C.3   1 <1>   0.4230 
 12 C       -7.3640    -2.9730    -1.5160 C.3   1 <1>  -0.1600 
 13 N       -7.1690    -6.0520     0.7920 N.4   1 <1>  -0.9590 
 14 C       -7.9020    -4.1000    -0.5890 C.3   1 <1>  -0.1060 
 15 C       -7.9860    -7.0060     0.0010 C.3   1 <1>   0.3430 
 16 C       -6.1270    -6.7230     1.6130 C.3   1 <1>   0.2630 
 17 C       -8.6870    -3.4990     0.5920 C.2   1 <1>   0.9060 
 18 C       -8.8000    -5.0480    -1.4180 C.3   1 <1>  -0.1600 
 19 C       -9.1960    -6.2950    -0.6110 C.3   1 <1>  -0.1600 
 20 O       -8.6940    -4.1010     1.6790 O.co2 1 <1>  -0.9000 
 21 O       -9.2990    -2.4440     0.4360 O.co2 1 <1>  -0.9000 
 22 H       -1.8900    -1.8200     2.3250 H     1 <1>   0.1500 
 23 H       -1.6910    -0.3840    -1.6690 H     1 <1>   0.1500 
 24 H       -3.8750    -1.5340    -2.0580 H     1 <1>   0.1500 
 25 H       -4.8510    -4.4920     1.0100 H     1 <1>   0.0800 
 26 H       -6.1730    -3.4730     1.5320 H     1 <1>   0.0800 
 27 H       -6.8730    -1.5590     0.0440 H     1 <1>   0.0800 
 28 H       -6.0310    -1.2880    -1.4540 H     1 <1>   0.0800 
 29 H       -6.1570    -5.2890    -0.8820 H     1 <1>   0.0800 
 30 H       -8.1870    -2.3790    -1.8740 H     1 <1>   0.0800 
 31 H       -6.8670    -3.3890    -2.3740 H     1 <1>   0.0800 
 32 H       -7.8410    -5.5570     1.4400 H     1 <1>   0.4500 
 33 H       -7.3840    -7.4320    -0.7840 H     1 <1>   0.0800 
 34 H       -8.3330    -7.8030     0.6380 H     1 <1>   0.0800 
 35 H       -5.3660    -7.1460     0.9790 H     1 <1>   0.0800 
 36 H       -6.5700    -7.5080     2.2030 H     1 <1>   0.0800 
 37 H       -5.6700    -6.0140     2.2840 H     1 <1>   0.0800 
 38 H       -9.6900    -4.5200    -1.7200 H     1 <1>   0.0800 
 39 H       -8.2820    -5.3570    -2.3100 H     1 <1>   0.0800 
 40 H       -9.7240    -6.9810    -1.2490 H     1 <1>   0.0800 
 41 H       -9.8720    -6.0140     0.1800 H     1 <1>   0.0800 
@<TRIPOS>BOND
  1   1   2  1   
  2   2   3  ar  
  3   2   4  ar  
  4   3   5  ar  
  5   3  22  1   
  6   4   6  ar  
  7   4  23  1   
  8   5   7  ar  
  9   6   7  ar  
 10   6  24  1   
 11   7   8  1   
 12   8   9  1   
 13   8  10  1   
 14   9  11  1   
 15   9  25  1   
 16   9  26  1   
 17  10  12  1   
 18  10  27  1   
 19  10  28  1   
 20  11  13  1   
 21  11  14  1   
 22  11  29  1   
 23  12  14  1   
 24  12  30  1   
 25  12  31  1   
 26  13  15  1   
 27  13  16  1   
 28  13  32  1   
 29  14  17  1   
 30  14  18  1   
 31  15  19  1   
 32  15  33  1   
 33  15  34  1   
 34  16  35  1   
 35  16  36  1   
 36  16  37  1   
 37  17  20  ar  
 38  17  21  ar  
 39  18  19  1   
 40  18  38  1   
 41  18  39  1   
 42  19  40  1   
 43  19  41  1   
@<TRIPOS>SUBSTRUCTURE
  1 ****   9 GROUP 4 **** **** 0

# MOE 2024.06 (io_trps.svl 2023.06)
