@<TRIPOS>MOLECULE
NONAME
56 57 1 0 0 
SMALL
USER_CHARGES


@<TRIPOS>ATOM
  1 O       -1.7690    -0.1560     1.3780 O.2   1 <1>  -0.5700 
  2 C       -1.8160     0.4670     0.3430 C.2   1 <1>   0.5690 
  3 N       -2.0860    -0.1760    -0.8470 N.am  1 <1>  -0.6600 
  4 C       -1.5840     1.9800     0.4620 C.3   1 <1>  -0.0190 
  5 C       -2.2490    -1.6630    -0.8560 C.3   1 <1>   0.1400 
  6 C       -2.2500     0.4480    -2.1930 C.3   1 <1>   0.0600 
  7 C       -2.8500     2.8160     0.1720 C.3   1 <1>  -0.1600 
  8 C       -0.3240     2.4760    -0.2940 C.3   1 <1>  -0.1600 
  9 C       -3.6510    -2.0520    -0.3910 C.3   1 <1>   0.1200 
 10 C       -2.6460     4.3170     0.4700 C.3   1 <1>   0.2000 
 11 C       -0.4210     3.9460    -0.7410 C.3   1 <1>  -0.1600 
 12 O       -3.8470    -3.4240    -0.6560 O.3   1 <1>  -0.3620 
 13 O       -3.4700     5.0440    -0.4090 O.3   1 <1>  -0.5600 
 14 C       -1.1740     4.7820     0.2950 C.3   1 <1>   0.2000 
 15 C       -5.0230    -4.0330    -0.3580 C.ar  1 <1>   0.0820 
 16 C       -4.7960     5.1770    -0.0020 C.3   1 <1>   0.0400 
 17 O       -1.1580     6.0950    -0.1250 O.3   1 <1>  -0.6800 
 18 C       -6.0810    -3.4020     0.2880 C.ar  1 <1>  -0.1500 
 19 C       -5.1520    -5.3600    -0.7320 C.ar  1 <1>  -0.1500 
 20 C       -7.2480    -4.1000     0.5480 C.ar  1 <1>  -0.1500 
 21 C       -6.3200    -6.0530    -0.4700 C.ar  1 <1>  -0.1500 
 22 C       -7.3810    -5.4300     0.1720 C.ar  1 <1>  -0.1440 
 23 C       -8.6640    -6.2090     0.4550 C.3   1 <1>   0.0630 
 24 C       -9.8580    -5.5780    -0.2690 C.3   1 <1>  -0.2400 
 25 C       -8.9270    -6.3020     1.9610 C.3   1 <1>  -0.2400 
 26 H       -1.3750     2.1500     1.5050 H     1 <1>   0.0800 
 27 H       -2.0830    -2.0420    -1.8500 H     1 <1>   0.0800 
 28 H       -1.5230    -2.1090    -0.1980 H     1 <1>   0.0800 
 29 H       -1.6010    -0.0390    -2.8990 H     1 <1>   0.0800 
 30 H       -2.0070     1.4920    -2.1870 H     1 <1>   0.0800 
 31 H       -3.2690     0.3340    -2.5210 H     1 <1>   0.0800 
 32 H       -3.6580     2.4460     0.7780 H     1 <1>   0.0800 
 33 H       -3.1310     2.7050    -0.8570 H     1 <1>   0.0800 
 34 H        0.5210     2.3670     0.3650 H     1 <1>   0.0800 
 35 H       -0.1160     1.8650    -1.1520 H     1 <1>   0.0800 
 36 H       -4.3950    -1.4980    -0.9340 H     1 <1>   0.0800 
 37 H       -3.7490    -1.8890     0.6680 H     1 <1>   0.0800 
 38 H       -2.9370     4.5360     1.4830 H     1 <1>   0.0800 
 39 H       -0.9480     4.0000    -1.6790 H     1 <1>   0.0800 
 40 H        0.5690     4.3440    -0.8840 H     1 <1>   0.0800 
 41 H       -0.6540     4.7310     1.2360 H     1 <1>   0.0800 
 42 H       -5.3200     5.7480    -0.7490 H     1 <1>   0.0800 
 43 H       -4.8280     5.7010     0.9390 H     1 <1>   0.0800 
 44 H       -5.2460     4.2040     0.0900 H     1 <1>   0.0800 
 45 H       -2.0070     6.2300    -0.6060 H     1 <1>   0.4000 
 46 H       -6.0170    -2.3770     0.5980 H     1 <1>   0.1500 
 47 H       -4.3320    -5.8460    -1.2280 H     1 <1>   0.1500 
 48 H       -8.0570    -3.5990     1.0480 H     1 <1>   0.1500 
 49 H       -6.3960    -7.0830    -0.7700 H     1 <1>   0.1500 
 50 H       -8.5480    -7.2120     0.0810 H     1 <1>   0.0800 
 51 H      -10.0520    -4.5880     0.1030 H     1 <1>   0.0800 
 52 H      -10.7390    -6.1780    -0.1270 H     1 <1>   0.0800 
 53 H       -9.6530    -5.5140    -1.3230 H     1 <1>   0.0800 
 54 H       -9.0990    -5.3280     2.3810 H     1 <1>   0.0800 
 55 H       -8.0760    -6.7400     2.4530 H     1 <1>   0.0800 
 56 H       -9.7880    -6.9170     2.1520 H     1 <1>   0.0800 
@<TRIPOS>BOND
  1   1   2  2   
  2   2   3  am  
  3   2   4  1   
  4   3   5  1   
  5   3   6  1   
  6   4   7  1   
  7   4   8  1   
  8   4  26  1   
  9   5   9  1   
 10   5  27  1   
 11   5  28  1   
 12   6  29  1   
 13   6  30  1   
 14   6  31  1   
 15   7  10  1   
 16   7  32  1   
 17   7  33  1   
 18   8  11  1   
 19   8  34  1   
 20   8  35  1   
 21   9  12  1   
 22   9  36  1   
 23   9  37  1   
 24  10  13  1   
 25  10  14  1   
 26  10  38  1   
 27  11  14  1   
 28  11  39  1   
 29  11  40  1   
 30  12  15  1   
 31  13  16  1   
 32  14  17  1   
 33  14  41  1   
 34  15  18  ar  
 35  15  19  ar  
 36  16  42  1   
 37  16  43  1   
 38  16  44  1   
 39  17  45  1   
 40  18  20  ar  
 41  18  46  1   
 42  19  21  ar  
 43  19  47  1   
 44  20  22  ar  
 45  20  48  1   
 46  21  22  ar  
 47  21  49  1   
 48  22  23  1   
 49  23  24  1   
 50  23  25  1   
 51  23  50  1   
 52  24  51  1   
 53  24  52  1   
 54  24  53  1   
 55  25  54  1   
 56  25  55  1   
 57  25  56  1   
@<TRIPOS>SUBSTRUCTURE
  1 ****   9 GROUP 4 **** **** 0

# MOE 2024.06 (io_trps.svl 2023.06)
