@<TRIPOS>MOLECULE
NONAME
58 61 1 0 0 
SMALL
USER_CHARGES


@<TRIPOS>ATOM
  1 O       -2.2660     0.8020    -1.9840 O.2   1 <1>  -0.5700 
  2 C       -2.0850     1.0770    -0.8150 C.2   1 <1>   0.5440 
  3 N       -2.0720     0.0590     0.0930 N.am  1 <1>  -0.7300 
  4 C       -1.9070     2.4570    -0.3970 C.ar  1 <1>   0.0860 
  5 C       -2.2640    -1.3700    -0.2400 C.3   1 <1>   0.2200 
  6 C       -2.4630     3.5010    -1.1360 C.ar  1 <1>  -0.1500 
  7 C       -1.1790     2.8030     0.7420 C.ar  1 <1>  -0.1500 
  8 C       -3.7280    -1.7310    -0.0490 C.3   1 <1>  -0.0800 
  9 C       -1.5930    -2.2340     0.8190 C.3   1 <1>   0.1200 
 10 C       -2.3030     4.8230    -0.7630 C.ar  1 <1>  -0.1500 
 11 C       -1.0130     4.1220     1.1230 C.ar  1 <1>  -0.1500 
 12 C       -3.7980    -2.0610     1.4480 C.3   1 <1>   0.1200 
 13 C       -4.1320    -2.9250    -0.9340 C.3   1 <1>  -0.0160 
 14 O       -2.4880    -2.2770     1.8890 O.3   1 <1>  -0.5600 
 15 C       -1.5680     5.1440     0.3680 C.ar  1 <1>  -0.1430 
 16 C       -5.6060    -3.2640    -0.7690 C.ar  1 <1>  -0.1430 
 17 C       -1.3670     6.5960     0.7620 C.3   1 <1>   0.4860 
 18 C       -6.0330    -4.3760    -0.0730 C.ar  1 <1>  -0.1500 
 19 C       -6.5940    -2.4690    -1.3140 C.ar  1 <1>  -0.1500 
 20 N        0.0210     6.9990     0.4120 N.4   1 <1>  -0.9590 
 21 C       -7.3900    -4.6290     0.0470 C.ar  1 <1>   0.1600 
 22 C       -7.9240    -2.8120    -1.1360 C.ar  1 <1>   0.1600 
 23 C        0.3630     8.3310     0.9850 C.3   1 <1>   0.3430 
 24 C        0.2600     6.9430    -1.0630 C.3   1 <1>   0.3430 
 25 N       -8.3460    -3.8730    -0.4670 N.ar  1 <1>  -0.6200 
 26 C        1.8400     8.6380     0.7290 C.3   1 <1>  -0.1600 
 27 C        1.7340     7.2260    -1.3570 C.3   1 <1>  -0.1600 
 28 C        2.1870     8.5660    -0.7640 C.3   1 <1>  -0.1600 
 29 H       -2.1000     0.2540     1.0960 H     1 <1>   0.3700 
 30 H       -1.8970    -1.5760    -1.2320 H     1 <1>   0.0800 
 31 H       -3.0310     3.2610    -2.0200 H     1 <1>   0.1500 
 32 H       -0.7300     2.0250     1.3360 H     1 <1>   0.1500 
 33 H       -4.3650    -0.8980    -0.2880 H     1 <1>   0.0800 
 34 H       -0.6510    -1.8330     1.1480 H     1 <1>   0.0800 
 35 H       -1.4580    -3.2400     0.4630 H     1 <1>   0.0800 
 36 H       -2.7590     5.5890    -1.3680 H     1 <1>   0.1500 
 37 H       -0.4460     4.3370     2.0140 H     1 <1>   0.1500 
 38 H       -4.3820    -2.9400     1.6570 H     1 <1>   0.0800 
 39 H       -4.1960    -1.2310     2.0050 H     1 <1>   0.0800 
 40 H       -3.5330    -3.7870    -0.6960 H     1 <1>   0.0800 
 41 H       -3.9510    -2.6780    -1.9660 H     1 <1>   0.0800 
 42 H       -1.5270     6.6990     1.8240 H     1 <1>   0.0800 
 43 H       -2.0790     7.2210     0.2480 H     1 <1>   0.0800 
 44 H       -5.3270    -5.0490     0.3790 H     1 <1>   0.1500 
 45 H       -6.3420    -1.5870    -1.8740 H     1 <1>   0.1500 
 46 H        0.6480     6.3020     0.8300 H     1 <1>   0.4500 
 47 H       -7.7050    -5.5010     0.5940 H     1 <1>   0.1500 
 48 H       -8.6810    -2.1800    -1.5680 H     1 <1>   0.1500 
 49 H       -0.2450     9.0940     0.5250 H     1 <1>   0.0800 
 50 H        0.1750     8.3400     2.0470 H     1 <1>   0.0800 
 51 H        0.0040     5.9670    -1.4460 H     1 <1>   0.0800 
 52 H       -0.3540     7.6750    -1.5620 H     1 <1>   0.0800 
 53 H        2.0630     9.6240     1.0980 H     1 <1>   0.0800 
 54 H        2.4510     7.9440     1.2810 H     1 <1>   0.0800 
 55 H        2.3360     6.4260    -0.9620 H     1 <1>   0.0800 
 56 H        1.8820     7.2400    -2.4230 H     1 <1>   0.0800 
 57 H        3.2490     8.6860    -0.8990 H     1 <1>   0.0800 
 58 H        1.6990     9.3730    -1.2850 H     1 <1>   0.0800 
@<TRIPOS>BOND
  1   1   2  2   
  2   2   3  am  
  3   2   4  1   
  4   3   5  1   
  5   3  29  1   
  6   4   6  ar  
  7   4   7  ar  
  8   5   8  1   
  9   5   9  1   
 10   5  30  1   
 11   6  10  ar  
 12   6  31  1   
 13   7  11  ar  
 14   7  32  1   
 15   8  12  1   
 16   8  13  1   
 17   8  33  1   
 18   9  14  1   
 19   9  34  1   
 20   9  35  1   
 21  10  15  ar  
 22  10  36  1   
 23  11  15  ar  
 24  11  37  1   
 25  12  14  1   
 26  12  38  1   
 27  12  39  1   
 28  13  16  1   
 29  13  40  1   
 30  13  41  1   
 31  15  17  1   
 32  16  18  ar  
 33  16  19  ar  
 34  17  20  1   
 35  17  42  1   
 36  17  43  1   
 37  18  21  ar  
 38  18  44  1   
 39  19  22  ar  
 40  19  45  1   
 41  20  23  1   
 42  20  24  1   
 43  20  46  1   
 44  21  25  ar  
 45  21  47  1   
 46  22  25  ar  
 47  22  48  1   
 48  23  26  1   
 49  23  49  1   
 50  23  50  1   
 51  24  27  1   
 52  24  51  1   
 53  24  52  1   
 54  26  28  1   
 55  26  53  1   
 56  26  54  1   
 57  27  28  1   
 58  27  55  1   
 59  27  56  1   
 60  28  57  1   
 61  28  58  1   
@<TRIPOS>SUBSTRUCTURE
  1 ****   2 GROUP 4 **** **** 0

# MOE 2024.06 (io_trps.svl 2023.06)
