@<TRIPOS>MOLECULE
NONAME
58 59 1 0 0 
SMALL
USER_CHARGES


@<TRIPOS>ATOM
  1 O        0.0680     0.2790     2.0510 O.2   1 <1>  -0.5700 
  2 C        1.1500    -0.1600     1.7470 C.2   1 <1>   0.5690 
  3 N        2.1670     0.5950     1.2340 N.am  1 <1>  -0.4940 
  4 C        1.3770    -1.6500     1.9380 C.3   1 <1>  -0.0990 
  5 C        2.1650     1.9730     0.8990 C.2   1 <1>  -0.0880 
  6 C        0.2940    -2.4710     1.2070 C.3   1 <1>  -0.1600 
  7 N        3.2410     2.6740     0.4470 N.pl3 1 <1>   0.3140 
  8 C        1.1410     2.8580     0.9430 C.2   1 <1>  -0.1500 
  9 C        0.4510    -3.9900     1.3560 C.3   1 <1>   0.4230 
 10 N        2.9290     3.9650     0.2020 N.2   1 <1>  -0.7070 
 11 C        4.6180     2.1810     0.2420 C.3   1 <1>   0.0960 
 12 C        1.6740     4.0620     0.5020 C.2   1 <1>   0.1080 
 13 N       -0.4820    -4.6600     0.4180 N.4   1 <1>  -0.9590 
 14 C        0.2030    -4.4680     2.7900 C.3   1 <1>  -0.2400 
 15 C        4.7410     1.4290    -1.0910 C.3   1 <1>  -0.1600 
 16 C        0.9090     5.3570     0.3750 C.3   1 <1>  -0.0590 
 17 C       -1.9530    -4.4790     0.6800 C.3   1 <1>   0.3430 
 18 C       -0.1750    -6.1080     0.1680 C.3   1 <1>   0.3430 
 19 C        6.1620     0.8870    -1.2920 C.3   1 <1>  -0.1600 
 20 C       -2.7930    -5.0380    -0.4960 C.3   1 <1>   0.1100 
 21 C       -1.0510    -6.6710    -0.9790 C.3   1 <1>   0.1100 
 22 C        6.2830     0.1490    -2.6280 C.3   1 <1>  -0.2400 
 23 N       -1.9470    -5.6410    -1.5540 N.3   1 <1>  -0.8100 
 24 C       -2.7650    -6.1890    -2.6440 C.3   1 <1>   0.0300 
 25 H        3.0410     0.1030     1.0570 H     1 <1>   0.3700 
 26 H        1.3430    -1.8400     2.9960 H     1 <1>   0.0800 
 27 H        2.3530    -1.9200     1.5780 H     1 <1>   0.0800 
 28 H        0.3350    -2.2120     0.1630 H     1 <1>   0.0800 
 29 H       -0.6680    -2.1690     1.5860 H     1 <1>   0.0800 
 30 H        0.1250     2.6880     1.2500 H     1 <1>   0.1500 
 31 H        1.4590    -4.2510     1.0770 H     1 <1>   0.0800 
 32 H        4.8800     1.5450     1.0660 H     1 <1>   0.0800 
 33 H        5.2780     3.0300     0.2450 H     1 <1>   0.0800 
 34 H       -0.3730    -4.2440    -0.5210 H     1 <1>   0.4500 
 35 H       -0.7480    -4.1270     3.1590 H     1 <1>   0.0800 
 36 H        0.9640    -4.0780     3.4410 H     1 <1>   0.0800 
 37 H        0.2480    -5.5390     2.8570 H     1 <1>   0.0800 
 38 H        4.5020     2.1080    -1.8930 H     1 <1>   0.0800 
 39 H        4.0390     0.6150    -1.1170 H     1 <1>   0.0800 
 40 H       -0.1100     5.2240     0.6870 H     1 <1>   0.0800 
 41 H        0.9260     5.6830    -0.6490 H     1 <1>   0.0800 
 42 H        1.3720     6.1080     0.9880 H     1 <1>   0.0800 
 43 H       -2.1840    -3.4340     0.8020 H     1 <1>   0.0800 
 44 H       -2.2310    -4.9860     1.5890 H     1 <1>   0.0800 
 45 H       -0.3500    -6.6840     1.0610 H     1 <1>   0.0800 
 46 H        0.8620    -6.2230    -0.1010 H     1 <1>   0.0800 
 47 H        6.4150     0.2120    -0.4910 H     1 <1>   0.0800 
 48 H        6.8660     1.7020    -1.2770 H     1 <1>   0.0800 
 49 H       -3.3720    -4.2350    -0.9200 H     1 <1>   0.0800 
 50 H       -3.4860    -5.7700    -0.1160 H     1 <1>   0.0800 
 51 H       -1.6340    -7.4970    -0.6060 H     1 <1>   0.0800 
 52 H       -0.4070    -7.0550    -1.7530 H     1 <1>   0.0800 
 53 H        5.6040    -0.6850    -2.6660 H     1 <1>   0.0800 
 54 H        7.2860    -0.2220    -2.7540 H     1 <1>   0.0800 
 55 H        6.0620     0.8130    -3.4460 H     1 <1>   0.0800 
 56 H       -3.3760    -5.4120    -3.0720 H     1 <1>   0.0800 
 57 H       -3.4050    -6.9770    -2.2840 H     1 <1>   0.0800 
 58 H       -2.1300    -6.5810    -3.4200 H     1 <1>   0.0800 
@<TRIPOS>BOND
  1   1   2  2   
  2   2   3  am  
  3   2   4  1   
  4   3   5  1   
  5   3  25  1   
  6   4   6  1   
  7   4  26  1   
  8   4  27  1   
  9   5   7  1   
 10   5   8  2   
 11   6   9  1   
 12   6  28  1   
 13   6  29  1   
 14   7  10  1   
 15   7  11  1   
 16   8  12  1   
 17   8  30  1   
 18   9  13  1   
 19   9  14  1   
 20   9  31  1   
 21  10  12  2   
 22  11  15  1   
 23  11  32  1   
 24  11  33  1   
 25  12  16  1   
 26  13  17  1   
 27  13  18  1   
 28  13  34  1   
 29  14  35  1   
 30  14  36  1   
 31  14  37  1   
 32  15  19  1   
 33  15  38  1   
 34  15  39  1   
 35  16  40  1   
 36  16  41  1   
 37  16  42  1   
 38  17  20  1   
 39  17  43  1   
 40  17  44  1   
 41  18  21  1   
 42  18  45  1   
 43  18  46  1   
 44  19  22  1   
 45  19  47  1   
 46  19  48  1   
 47  20  23  1   
 48  20  49  1   
 49  20  50  1   
 50  21  23  1   
 51  21  51  1   
 52  21  52  1   
 53  22  53  1   
 54  22  54  1   
 55  22  55  1   
 56  23  24  1   
 57  24  56  1   
 58  24  57  1   
 59  24  58  1   
@<TRIPOS>SUBSTRUCTURE
  1 ****   2 GROUP 4 **** **** 0

# MOE 2024.06 (io_trps.svl 2023.06)
