@<TRIPOS>MOLECULE
NONAME
47 49 1 0 0 
SMALL
USER_CHARGES


@<TRIPOS>ATOM
  1 O        0.1430    -0.1280     0.6690 O.2   1 <1>  -0.5700 
  2 C        1.2480    -0.6160     0.7080 C.2   1 <1>   0.5690 
  3 N        2.3660     0.1690     0.8320 N.am  1 <1>  -0.6600 
  4 C        1.3780    -2.1310     0.6290 C.3   1 <1>  -0.0990 
  5 C        2.2300     1.6650     0.7430 C.3   1 <1>   0.3200 
  6 C        3.7410    -0.3550     1.0840 C.3   1 <1>   0.0600 
  7 C        0.1000    -2.8370     0.1370 C.3   1 <1>  -0.0160 
  8 C        3.3220     2.3370    -0.0840 C.2   1 <1>   0.2980 
  9 C        0.2170    -4.3580     0.0110 C.ar  1 <1>   0.1660 
 10 O        4.4840     2.5780     0.4370 O.3   1 <1>  -0.2800 
 11 N        3.2450     2.7390    -1.2960 N.2   1 <1>  -0.3380 
 12 N        1.3110    -4.9370     0.4070 N.ar  1 <1>  -0.6200 
 13 C       -0.8910    -5.0720    -0.5360 C.ar  1 <1>   0.3930 
 14 C        5.1390     3.1520    -0.5200 C.2   1 <1>   0.2980 
 15 N        4.4350     3.2700    -1.5810 N.2   1 <1>  -0.3380 
 16 C        1.3210    -6.2880     0.2590 C.ar  1 <1>   0.3100 
 17 O       -1.9750    -4.3560    -0.9080 O.3   1 <1>  -0.3630 
 18 N       -0.9130    -6.3660    -0.6940 N.ar  1 <1>  -0.6200 
 19 C        6.5750     3.5900    -0.2780 C.3   1 <1>   0.0200 
 20 C        0.2190    -6.9910    -0.2870 C.ar  1 <1>   0.3100 
 21 C        2.4550    -7.0130     0.6570 C.ar  1 <1>  -0.1500 
 22 C       -3.1220    -4.9760    -1.4550 C.3   1 <1>   0.0400 
 23 C        7.2310     4.2440    -1.5030 C.3   1 <1>  -0.2400 
 24 C        0.3070    -8.3870    -0.4090 C.ar  1 <1>  -0.1500 
 25 C        2.5130    -8.3770     0.5260 C.ar  1 <1>  -0.1500 
 26 C        1.4270    -9.0710    -0.0130 C.ar  1 <1>  -0.1500 
 27 H        1.6290    -2.5000     1.6060 H     1 <1>   0.0800 
 28 H        2.1790    -2.3720    -0.0450 H     1 <1>   0.0800 
 29 H        2.2430     2.0760     1.7360 H     1 <1>   0.0800 
 30 H        1.2850     1.9220     0.2970 H     1 <1>   0.0800 
 31 H        3.7160    -1.3660     1.4480 H     1 <1>   0.0800 
 32 H        4.2330     0.2520     1.8260 H     1 <1>   0.0800 
 33 H        4.3130    -0.3260     0.1720 H     1 <1>   0.0800 
 34 H       -0.1650    -2.4330    -0.8240 H     1 <1>   0.0800 
 35 H       -0.7060    -2.6170     0.8160 H     1 <1>   0.0800 
 36 H        7.1480     2.7280     0.0110 H     1 <1>   0.0800 
 37 H        6.5840     4.2860     0.5410 H     1 <1>   0.0800 
 38 H        3.2800    -6.4620     1.0690 H     1 <1>   0.1500 
 39 H       -3.8490    -4.2140    -1.6710 H     1 <1>   0.0800 
 40 H       -3.5170    -5.6720    -0.7350 H     1 <1>   0.0800 
 41 H       -2.8420    -5.4900    -2.3580 H     1 <1>   0.0800 
 42 H        7.2430     3.5550    -2.3300 H     1 <1>   0.0800 
 43 H        8.2420     4.5320    -1.2760 H     1 <1>   0.0800 
 44 H        6.6790     5.1200    -1.7960 H     1 <1>   0.0800 
 45 H       -0.5380    -8.9050    -0.8250 H     1 <1>   0.1500 
 46 H        3.3880    -8.9240     0.8340 H     1 <1>   0.1500 
 47 H        1.4820   -10.1420    -0.1110 H     1 <1>   0.1500 
@<TRIPOS>BOND
  1   1   2  2   
  2   2   3  am  
  3   2   4  1   
  4   3   5  1   
  5   3   6  1   
  6   4   7  1   
  7   4  27  1   
  8   4  28  1   
  9   5   8  1   
 10   5  29  1   
 11   5  30  1   
 12   6  31  1   
 13   6  32  1   
 14   6  33  1   
 15   7   9  1   
 16   7  34  1   
 17   7  35  1   
 18   8  10  1   
 19   8  11  2   
 20   9  12  ar  
 21   9  13  ar  
 22  10  14  1   
 23  11  15  1   
 24  12  16  ar  
 25  13  17  1   
 26  13  18  ar  
 27  14  15  2   
 28  14  19  1   
 29  16  20  ar  
 30  16  21  ar  
 31  17  22  1   
 32  18  20  ar  
 33  19  23  1   
 34  19  36  1   
 35  19  37  1   
 36  20  24  ar  
 37  21  25  ar  
 38  21  38  1   
 39  22  39  1   
 40  22  40  1   
 41  22  41  1   
 42  23  42  1   
 43  23  43  1   
 44  23  44  1   
 45  24  26  ar  
 46  24  45  1   
 47  25  26  ar  
 48  25  46  1   
 49  26  47  1   
@<TRIPOS>SUBSTRUCTURE
  1 ****   4 GROUP 4 **** **** 0

# MOE 2024.06 (io_trps.svl 2023.06)
