@<TRIPOS>MOLECULE
NONAME
48 49 1 0 0 
SMALL
USER_CHARGES


@<TRIPOS>ATOM
  1 S       -0.2240     0.1290    -2.0320 S.o2  1 <1>   1.4470 
  2 O        0.0090    -1.1850    -2.5960 O.2   1 <1>  -0.6500 
  3 O       -0.8520     1.1410    -2.8550 O.2   1 <1>  -0.6500 
  4 N       -1.1620    -0.0500    -0.6290 N.am  1 <1>  -0.8490 
  5 C        1.3420     0.7970    -1.4010 C.ar  1 <1>  -0.0090 
  6 C       -0.7680    -1.1660     0.2590 C.3   1 <1>   0.1960 
  7 C       -2.6090     0.0370    -0.8320 C.3   1 <1>   0.1960 
  8 C        1.3720     1.7240    -0.3690 C.ar  1 <1>  -0.1500 
  9 C        2.5590     0.4180    -1.9480 C.ar  1 <1>  -0.1500 
 10 C       -1.7730    -2.3330     0.3130 C.3   1 <1>  -0.1860 
 11 C       -3.1470    -1.2110    -1.5400 C.3   1 <1>  -0.1600 
 12 C        2.5660     2.2440     0.0980 C.ar  1 <1>  -0.1500 
 13 C        3.7560     0.9370    -1.4840 C.ar  1 <1>  -0.1500 
 14 C       -2.6940    -2.1630     1.5090 C.2   1 <1>   0.9060 
 15 C       -2.4900    -2.5040    -1.0350 C.3   1 <1>   0.2000 
 16 C        3.7890     1.8650    -0.4460 C.ar  1 <1>  -0.1440 
 17 O       -2.1790    -2.0150     2.6200 O.co2 1 <1>  -0.9000 
 18 O       -3.9250    -2.1960     1.3590 O.co2 1 <1>  -0.9000 
 19 O       -3.4710    -3.4600    -0.8960 O.3   1 <1>  -0.6800 
 20 C        5.1000     2.4800     0.1090 C.3   1 <1>   0.1430 
 21 C        6.3570     1.9350    -0.6250 C.3   1 <1>  -0.1600 
 22 C        5.0350     4.0090    -0.0630 C.3   1 <1>  -0.2400 
 23 C        5.2040     2.1460     1.6090 C.3   1 <1>  -0.2400 
 24 C        7.7320     2.4630    -0.1720 C.3   1 <1>  -0.2400 
 25 H        0.1850    -1.5560    -0.0570 H     1 <1>   0.0800 
 26 H       -0.6190    -0.7730     1.2510 H     1 <1>   0.0800 
 27 H       -3.0870     0.1280     0.1310 H     1 <1>   0.0800 
 28 H       -2.8590     0.9200    -1.3950 H     1 <1>   0.0800 
 29 H        0.4440     2.0430     0.0760 H     1 <1>   0.1500 
 30 H        2.5700    -0.2980    -2.7530 H     1 <1>   0.1500 
 31 H       -1.2170    -3.2280     0.5110 H     1 <1>   0.0800 
 32 H       -2.9760    -1.1220    -2.5960 H     1 <1>   0.0800 
 33 H       -4.2110    -1.2430    -1.3800 H     1 <1>   0.0800 
 34 H        2.5220     2.9560     0.9020 H     1 <1>   0.1500 
 35 H        4.6530     0.5910    -1.9610 H     1 <1>   0.1500 
 36 H       -1.7910    -2.8620    -1.7720 H     1 <1>   0.0800 
 37 H       -3.9660    -3.1980    -0.0670 H     1 <1>   0.4000 
 38 H        6.3760     0.8640    -0.5190 H     1 <1>   0.0800 
 39 H        6.2610     2.1560    -1.6740 H     1 <1>   0.0800 
 40 H        5.8950     4.4870     0.3650 H     1 <1>   0.0800 
 41 H        4.1680     4.4200     0.4200 H     1 <1>   0.0800 
 42 H        4.9850     4.2590    -1.1080 H     1 <1>   0.0800 
 43 H        6.0650     2.6090     2.0520 H     1 <1>   0.0800 
 44 H        5.2760     1.0820     1.7440 H     1 <1>   0.0800 
 45 H        4.3430     2.4940     2.1480 H     1 <1>   0.0800 
 46 H        7.9260     2.2220     0.8580 H     1 <1>   0.0800 
 47 H        7.8090     3.5260    -0.3060 H     1 <1>   0.0800 
 48 H        8.5030     2.0020    -0.7650 H     1 <1>   0.0800 
@<TRIPOS>BOND
  1   1   2  2   
  2   1   3  2   
  3   1   4  am  
  4   1   5  1   
  5   4   6  1   
  6   4   7  1   
  7   5   8  ar  
  8   5   9  ar  
  9   6  10  1   
 10   6  25  1   
 11   6  26  1   
 12   7  11  1   
 13   7  27  1   
 14   7  28  1   
 15   8  12  ar  
 16   8  29  1   
 17   9  13  ar  
 18   9  30  1   
 19  10  14  1   
 20  10  15  1   
 21  10  31  1   
 22  11  15  1   
 23  11  32  1   
 24  11  33  1   
 25  12  16  ar  
 26  12  34  1   
 27  13  16  ar  
 28  13  35  1   
 29  14  17  ar  
 30  14  18  ar  
 31  15  19  1   
 32  15  36  1   
 33  16  20  1   
 34  19  37  1   
 35  20  21  1   
 36  20  22  1   
 37  20  23  1   
 38  21  24  1   
 39  21  38  1   
 40  21  39  1   
 41  22  40  1   
 42  22  41  1   
 43  22  42  1   
 44  23  43  1   
 45  23  44  1   
 46  23  45  1   
 47  24  46  1   
 48  24  47  1   
 49  24  48  1   
@<TRIPOS>SUBSTRUCTURE
  1 ****   5 GROUP 4 **** **** 0

# MOE 2024.06 (io_trps.svl 2023.06)
