@<TRIPOS>MOLECULE
NONAME
40 42 1 0 0 
SMALL
USER_CHARGES


@<TRIPOS>ATOM
  1 CL       0.2880    -1.8820     2.2180 Cl    1 <1>  -0.1770 
  2 C       -0.2750    -3.3770     1.5130 C.ar  1 <1>   0.1770 
  3 C       -0.4600    -3.4600     0.1520 C.ar  1 <1>  -0.1500 
  4 C       -0.5280    -4.4570     2.3470 C.ar  1 <1>  -0.1500 
  5 C       -0.9120    -4.6510    -0.4260 C.ar  1 <1>   0.0860 
  6 C       -0.9720    -5.6390     1.7960 C.ar  1 <1>  -0.1500 
  7 C       -1.1370    -4.8110    -1.8390 C.2   1 <1>   0.4690 
  8 C       -1.1640    -5.7460     0.4190 C.ar  1 <1>   0.1000 
  9 O       -0.9590    -3.8950    -2.6300 O.2   1 <1>  -0.5700 
 10 C       -1.5920    -6.0690    -2.3170 C.2   1 <1>  -0.1360 
 11 N       -1.6100    -6.9370    -0.1280 N.pl3 1 <1>  -0.6000 
 12 C       -1.8290    -7.1070    -1.4760 C.2   1 <1>  -0.0380 
 13 C       -2.3130    -8.4810    -1.9410 C.3   1 <1>   0.4810 
 14 N       -3.8060    -8.7050    -1.7960 N.4   1 <1>  -0.9590 
 15 C       -4.0390   -10.1450    -1.4000 C.3   1 <1>   0.3430 
 16 C       -4.4750    -7.7170    -0.8690 C.3   1 <1>   0.3430 
 17 C       -4.2330   -10.3100     0.1040 C.3   1 <1>  -0.1860 
 18 C       -5.7740    -8.2930    -0.3230 C.3   1 <1>  -0.1600 
 19 C       -2.8910    -9.9670     0.6990 C.2   1 <1>   0.9060 
 20 C       -5.4680    -9.5050     0.5680 C.3   1 <1>   0.2000 
 21 O       -1.9240   -10.6000     0.2830 O.co2 1 <1>  -0.9000 
 22 O       -2.7430    -8.9490     1.3870 O.co2 1 <1>  -0.9000 
 23 O       -5.2750    -9.0470     1.8480 O.3   1 <1>  -0.6800 
 24 H       -0.2580    -2.6080    -0.4720 H     1 <1>   0.1500 
 25 H       -0.3740    -4.3600     3.4070 H     1 <1>   0.1500 
 26 H       -1.1770    -6.4950     2.4190 H     1 <1>   0.1500 
 27 H       -1.7310    -6.1390    -3.3790 H     1 <1>   0.1500 
 28 H       -1.8070    -7.7280     0.5430 H     1 <1>   0.4000 
 29 H       -1.7670    -9.2190    -1.3790 H     1 <1>   0.0800 
 30 H       -2.0380    -8.6150    -2.9730 H     1 <1>   0.0800 
 31 H       -4.2130    -8.5660    -2.7240 H     1 <1>   0.4500 
 32 H       -4.9230   -10.5110    -1.8950 H     1 <1>   0.0800 
 33 H       -3.2070   -10.7560    -1.7160 H     1 <1>   0.0800 
 34 H       -3.8410    -7.5090    -0.0230 H     1 <1>   0.0800 
 35 H       -4.6570    -6.7880    -1.3830 H     1 <1>   0.0800 
 36 H       -4.4060   -11.3470     0.3160 H     1 <1>   0.0800 
 37 H       -6.4070    -8.5830    -1.1410 H     1 <1>   0.0800 
 38 H       -6.3010    -7.5460     0.2460 H     1 <1>   0.0800 
 39 H       -6.3370   -10.1410     0.5970 H     1 <1>   0.0800 
 40 H       -4.2960    -8.8540     1.9610 H     1 <1>   0.4000 
@<TRIPOS>BOND
  1   1   2  1   
  2   2   3  ar  
  3   2   4  ar  
  4   3   5  ar  
  5   3  24  1   
  6   4   6  ar  
  7   4  25  1   
  8   5   7  1   
  9   5   8  ar  
 10   6   8  ar  
 11   6  26  1   
 12   7   9  2   
 13   7  10  1   
 14   8  11  1   
 15  10  12  2   
 16  10  27  1   
 17  11  12  1   
 18  11  28  1   
 19  12  13  1   
 20  13  14  1   
 21  13  29  1   
 22  13  30  1   
 23  14  15  1   
 24  14  16  1   
 25  14  31  1   
 26  15  17  1   
 27  15  32  1   
 28  15  33  1   
 29  16  18  1   
 30  16  34  1   
 31  16  35  1   
 32  17  19  1   
 33  17  20  1   
 34  17  36  1   
 35  18  20  1   
 36  18  37  1   
 37  18  38  1   
 38  19  21  ar  
 39  19  22  ar  
 40  20  23  1   
 41  20  39  1   
 42  23  40  1   
@<TRIPOS>SUBSTRUCTURE
  1 ****  11 GROUP 4 **** **** 0

# MOE 2024.06 (io_trps.svl 2023.06)
