@<TRIPOS>MOLECULE
NONAME
53 54 1 0 0 
SMALL
USER_CHARGES


@<TRIPOS>ATOM
  1 F        1.6190     1.7730     2.8130 F     1 <1>  -0.1900 
  2 C        2.0510     1.7050     1.5840 C.ar  1 <1>   0.1900 
  3 C        2.2330     0.4710     0.9820 C.ar  1 <1>  -0.1440 
  4 C        2.3110     2.9010     0.9410 C.ar  1 <1>  -0.1500 
  5 C        2.6980     0.4680    -0.3310 C.ar  1 <1>  -0.1500 
  6 C        1.9230    -0.8120     1.7580 C.3   1 <1>   1.1640 
  7 C        2.7820     2.8820    -0.3630 C.ar  1 <1>  -0.1440 
  8 C        2.9670     1.6570    -0.9930 C.ar  1 <1>  -0.1500 
  9 F        0.6570    -0.8820     2.1450 F     1 <1>  -0.3400 
 10 F        2.1470    -1.9060     1.0380 F     1 <1>  -0.3400 
 11 F        2.6680    -0.9350     2.8490 F     1 <1>  -0.3400 
 12 C        3.0860     4.1790    -1.0920 C.3   1 <1>   0.4870 
 13 N        4.3570     4.7540    -0.5520 N.4   1 <1>  -0.9590 
 14 C        4.5080     6.1770    -0.9960 C.3   1 <1>   0.3430 
 15 C        5.5150     3.8710    -0.9120 C.3   1 <1>   0.2630 
 16 C        5.5690     6.9660    -0.1900 C.3   1 <1>  -0.0800 
 17 C        5.1150     8.4320    -0.0310 C.3   1 <1>  -0.1600 
 18 C        6.9650     6.9510    -0.8530 C.3   1 <1>  -0.1600 
 19 C        6.1510     9.2980     0.6960 C.3   1 <1>   0.3430 
 20 C        7.9740     7.8440    -0.1190 C.3   1 <1>   0.3430 
 21 N        7.4550     9.2380    -0.0280 N.4   1 <1>  -0.9590 
 22 C        8.4900    10.1150     0.6230 C.3   1 <1>   0.3430 
 23 C        8.1790    11.6130     0.5020 C.3   1 <1>   0.1200 
 24 O        9.2250    12.2900     1.1090 O.3   1 <1>  -0.5600 
 25 C        9.1140    13.6790     1.0720 C.3   1 <1>   0.0400 
 26 H        2.1320     3.8190     1.4730 H     1 <1>   0.1500 
 27 H        2.8530    -0.4640    -0.8530 H     1 <1>   0.1500 
 28 H        3.3180     1.6080    -2.0120 H     1 <1>   0.1500 
 29 H        2.2690     4.8660    -0.9340 H     1 <1>   0.0800 
 30 H        3.1750     3.9970    -2.1510 H     1 <1>   0.0800 
 31 H        4.2480     4.7250     0.4720 H     1 <1>   0.4500 
 32 H        3.5590     6.6720    -0.8610 H     1 <1>   0.0800 
 33 H        4.7420     6.2160    -2.0480 H     1 <1>   0.0800 
 34 H        5.6840     3.8820    -1.9770 H     1 <1>   0.0800 
 35 H        5.3200     2.8550    -0.6070 H     1 <1>   0.0800 
 36 H        6.4100     4.1990    -0.4120 H     1 <1>   0.0800 
 37 H        5.6430     6.5430     0.7990 H     1 <1>   0.0800 
 38 H        4.1980     8.4660     0.5330 H     1 <1>   0.0800 
 39 H        4.9140     8.8710    -0.9930 H     1 <1>   0.0800 
 40 H        6.8950     7.2810    -1.8760 H     1 <1>   0.0800 
 41 H        7.3640     5.9540    -0.8680 H     1 <1>   0.0800 
 42 H        6.2790     8.9410     1.7060 H     1 <1>   0.0800 
 43 H        5.7970    10.3150     0.7420 H     1 <1>   0.0800 
 44 H        8.9140     7.8360    -0.6480 H     1 <1>   0.0800 
 45 H        8.1460     7.4570     0.8730 H     1 <1>   0.0800 
 46 H        7.3160     9.5860    -0.9870 H     1 <1>   0.4500 
 47 H        9.4480     9.9440     0.1580 H     1 <1>   0.0800 
 48 H        8.5770     9.8650     1.6680 H     1 <1>   0.0800 
 49 H        7.2700    11.8700     1.0170 H     1 <1>   0.0800 
 50 H        8.1340    11.9150    -0.5300 H     1 <1>   0.0800 
 51 H        9.9730    14.0970     1.5690 H     1 <1>   0.0800 
 52 H        8.2190    13.9830     1.5880 H     1 <1>   0.0800 
 53 H        9.0950    14.0120     0.0490 H     1 <1>   0.0800 
@<TRIPOS>BOND
  1   1   2  1   
  2   2   3  ar  
  3   2   4  ar  
  4   3   5  ar  
  5   3   6  1   
  6   4   7  ar  
  7   4  26  1   
  8   5   8  ar  
  9   5  27  1   
 10   6   9  1   
 11   6  10  1   
 12   6  11  1   
 13   7   8  ar  
 14   7  12  1   
 15   8  28  1   
 16  12  13  1   
 17  12  29  1   
 18  12  30  1   
 19  13  14  1   
 20  13  15  1   
 21  13  31  1   
 22  14  16  1   
 23  14  32  1   
 24  14  33  1   
 25  15  34  1   
 26  15  35  1   
 27  15  36  1   
 28  16  17  1   
 29  16  18  1   
 30  16  37  1   
 31  17  19  1   
 32  17  38  1   
 33  17  39  1   
 34  18  20  1   
 35  18  40  1   
 36  18  41  1   
 37  19  21  1   
 38  19  42  1   
 39  19  43  1   
 40  20  21  1   
 41  20  44  1   
 42  20  45  1   
 43  21  22  1   
 44  21  46  1   
 45  22  23  1   
 46  22  47  1   
 47  22  48  1   
 48  23  24  1   
 49  23  49  1   
 50  23  50  1   
 51  24  25  1   
 52  25  51  1   
 53  25  52  1   
 54  25  53  1   
@<TRIPOS>SUBSTRUCTURE
  1 ****  13 GROUP 4 **** **** 0

# MOE 2024.06 (io_trps.svl 2023.06)
