@<TRIPOS>MOLECULE
NONAME
50 52 1 0 0 
SMALL
USER_CHARGES


@<TRIPOS>ATOM
  1 CL      -0.4220     0.1400     1.6580 Cl    1 <1>  -0.1770 
  2 C       -0.2640    -1.5830     1.4490 C.ar  1 <1>   0.1770 
  3 C        0.7970    -2.0900     0.7320 C.ar  1 <1>  -0.1500 
  4 C       -1.2060    -2.4180     2.0160 C.ar  1 <1>  -0.1500 
  5 C        0.9370    -3.4650     0.5570 C.ar  1 <1>   0.1170 
  6 C       -1.0780    -3.7820     1.8470 C.ar  1 <1>  -0.1500 
  7 N        2.0320    -4.0060    -0.1340 N.am  1 <1>  -0.5470 
  8 C       -0.0260    -4.3340     1.1080 C.ar  1 <1>   0.0860 
  9 C        2.9620    -3.4780    -0.9850 C.2   1 <1>   0.5690 
 10 C        0.0590    -5.7720     0.9260 C.2   1 <1>   0.5440 
 11 O        2.9510    -2.3340    -1.3630 O.2   1 <1>  -0.5700 
 12 C        4.0500    -4.4060    -1.4970 C.3   1 <1>  -0.0990 
 13 O        1.1310    -6.3430     1.0440 O.2   1 <1>  -0.5700 
 14 N       -1.0440    -6.5310     0.6000 N.am  1 <1>  -0.6600 
 15 C        4.8140    -5.1380    -0.3790 C.3   1 <1>  -0.2400 
 16 C       -2.2450    -6.0170    -0.1110 C.3   1 <1>   0.1400 
 17 C       -0.9920    -8.0150     0.5180 C.3   1 <1>   0.1400 
 18 C       -2.8000    -7.2260    -0.8630 C.3   1 <1>   0.2000 
 19 C       -2.3460    -8.4370    -0.0550 C.3   1 <1>  -0.0800 
 20 O       -4.1830    -7.1890    -0.9420 O.3   1 <1>  -0.6800 
 21 C       -2.2930    -9.7330    -0.8770 C.3   1 <1>   0.0210 
 22 C       -1.7710   -10.8880    -0.0450 C.2   1 <1>   0.1080 
 23 N       -2.3400   -11.2760     1.0540 N.2   1 <1>  -0.7070 
 24 C       -0.6450   -11.6460    -0.3500 C.2   1 <1>  -0.1500 
 25 N       -1.5840   -12.3050     1.4830 N.pl3 1 <1>   0.3000 
 26 C       -0.5500   -12.5470     0.6500 C.2   1 <1>  -0.3320 
 27 C        0.4790   -13.6410     0.8640 C.3   1 <1>  -0.0600 
 28 H        1.5140    -1.4040     0.3220 H     1 <1>   0.1500 
 29 H       -2.0190    -1.9970     2.5810 H     1 <1>   0.1500 
 30 H       -1.8010    -4.4390     2.3000 H     1 <1>   0.1500 
 31 H        2.1660    -5.0080     0.0640 H     1 <1>   0.3700 
 32 H        3.6020    -5.1240    -2.1590 H     1 <1>   0.0800 
 33 H        4.7480    -3.8230    -2.0730 H     1 <1>   0.0800 
 34 H        4.1600    -5.7920     0.1710 H     1 <1>   0.0800 
 35 H        5.2430    -4.4250     0.3030 H     1 <1>   0.0800 
 36 H        5.6080    -5.7280    -0.8010 H     1 <1>   0.0800 
 37 H       -2.9610    -5.6640     0.6100 H     1 <1>   0.0800 
 38 H       -1.9800    -5.2300    -0.7950 H     1 <1>   0.0800 
 39 H       -0.1890    -8.3040    -0.1390 H     1 <1>   0.0800 
 40 H       -0.8270    -8.4470     1.4910 H     1 <1>   0.0800 
 41 H       -2.4020    -7.2450    -1.8630 H     1 <1>   0.0800 
 42 H       -3.0080    -8.5800     0.7820 H     1 <1>   0.0800 
 43 H       -4.5810    -7.4140    -0.0770 H     1 <1>   0.4000 
 44 H       -1.6640    -9.6000    -1.7390 H     1 <1>   0.0800 
 45 H       -3.2820    -9.9800    -1.2210 H     1 <1>   0.0800 
 46 H       -0.0050   -11.5200    -1.2050 H     1 <1>   0.1500 
 47 H       -1.8010   -12.8200     2.3450 H     1 <1>   0.2700 
 48 H        1.1990   -13.6320     0.0660 H     1 <1>   0.0800 
 49 H        0.0000   -14.6040     0.8830 H     1 <1>   0.0800 
 50 H        0.9970   -13.4880     1.7940 H     1 <1>   0.0800 
@<TRIPOS>BOND
  1   1   2  1   
  2   2   3  ar  
  3   2   4  ar  
  4   3   5  ar  
  5   3  28  1   
  6   4   6  ar  
  7   4  29  1   
  8   5   7  1   
  9   5   8  ar  
 10   6   8  ar  
 11   6  30  1   
 12   7   9  am  
 13   7  31  1   
 14   8  10  1   
 15   9  11  2   
 16   9  12  1   
 17  10  13  2   
 18  10  14  am  
 19  12  15  1   
 20  12  32  1   
 21  12  33  1   
 22  14  16  1   
 23  14  17  1   
 24  15  34  1   
 25  15  35  1   
 26  15  36  1   
 27  16  18  1   
 28  16  37  1   
 29  16  38  1   
 30  17  19  1   
 31  17  39  1   
 32  17  40  1   
 33  18  19  1   
 34  18  20  1   
 35  18  41  1   
 36  19  21  1   
 37  19  42  1   
 38  20  43  1   
 39  21  22  1   
 40  21  44  1   
 41  21  45  1   
 42  22  23  2   
 43  22  24  1   
 44  23  25  1   
 45  24  26  2   
 46  24  46  1   
 47  25  26  1   
 48  25  47  1   
 49  26  27  1   
 50  27  48  1   
 51  27  49  1   
 52  27  50  1   
@<TRIPOS>SUBSTRUCTURE
  1 ****  14 GROUP 4 **** **** 0

# MOE 2024.06 (io_trps.svl 2023.06)
