@<TRIPOS>MOLECULE
NONAME
41 42 1 0 0 
SMALL
USER_CHARGES


@<TRIPOS>ATOM
  1 S        0.2060     0.3200    -0.9760 S.o2  1 <1>   1.3330 
  2 O        0.3890    -0.8930    -1.7400 O.2   1 <1>  -0.6500 
  3 O       -0.8890     1.2080    -1.2960 O.2   1 <1>  -0.6500 
  4 N        0.0280    -0.1200     0.6560 N.am  1 <1>  -0.8490 
  5 C        1.7470     1.2380    -1.0120 C.3   1 <1>  -0.0550 
  6 C       -0.4830     0.9680     1.4980 C.3   1 <1>   0.1160 
  7 C       -0.8180    -1.3070     0.8160 C.3   1 <1>   0.1160 
  8 C        3.0030     0.3830    -0.7360 C.3   1 <1>  -0.0800 
  9 C        4.3250     1.1110    -0.9320 C.3   1 <1>   0.2200 
 10 C        3.1240    -0.1560     0.6950 C.3   1 <1>   0.1200 
 11 N        4.2630     2.4740    -0.3540 N.am  1 <1>  -0.7300 
 12 C        5.2450     0.2550    -0.0740 C.3   1 <1>   0.1200 
 13 O        4.4790    -0.1000     1.0370 O.3   1 <1>  -0.5600 
 14 C        4.0820     3.6320    -1.0520 C.2   1 <1>   0.5440 
 15 O        3.9680     3.5510    -2.2590 O.2   1 <1>  -0.5700 
 16 C        4.0310     4.9230    -0.3930 C.ar  1 <1>   0.0860 
 17 C        3.5410     5.1140     0.9020 C.ar  1 <1>   0.1900 
 18 C        4.4820     6.0700    -1.0500 C.ar  1 <1>  -0.1500 
 19 F        3.0750     4.1000     1.5800 F     1 <1>  -0.1900 
 20 C        3.5080     6.3480     1.5250 C.ar  1 <1>  -0.1500 
 21 C        4.4560     7.3160    -0.4460 C.ar  1 <1>  -0.1500 
 22 C        3.9710     7.4590     0.8440 C.ar  1 <1>  -0.1500 
 23 H        1.8530     1.6740    -1.9870 H     1 <1>   0.0800 
 24 H        1.6930     2.0450    -0.3100 H     1 <1>   0.0800 
 25 H       -0.4980     0.6610     2.5300 H     1 <1>   0.0800 
 26 H       -1.4830     1.2390     1.2000 H     1 <1>   0.0800 
 27 H        0.1480     1.8350     1.4120 H     1 <1>   0.0800 
 28 H       -0.9020    -1.5700     1.8560 H     1 <1>   0.0800 
 29 H       -0.3830    -2.1420     0.2920 H     1 <1>   0.0800 
 30 H       -1.8010    -1.1220     0.4150 H     1 <1>   0.0800 
 31 H        2.9920    -0.4620    -1.4020 H     1 <1>   0.0800 
 32 H        4.6380     1.1440    -1.9620 H     1 <1>   0.0800 
 33 H        2.7830    -1.1750     0.7690 H     1 <1>   0.0800 
 34 H        2.5890     0.4570     1.3990 H     1 <1>   0.0800 
 35 H        4.2900     2.4930     0.6710 H     1 <1>   0.3700 
 36 H        6.1290     0.7790     0.2440 H     1 <1>   0.0800 
 37 H        5.5180    -0.6490    -0.5900 H     1 <1>   0.0800 
 38 H        4.8590     5.9770    -2.0560 H     1 <1>   0.1500 
 39 H        3.1230     6.4370     2.5250 H     1 <1>   0.1500 
 40 H        4.8140     8.1790    -0.9810 H     1 <1>   0.1500 
 41 H        3.9540     8.4290     1.3110 H     1 <1>   0.1500 
@<TRIPOS>BOND
  1   1   2  2   
  2   1   3  2   
  3   1   4  am  
  4   1   5  1   
  5   4   6  1   
  6   4   7  1   
  7   5   8  1   
  8   5  23  1   
  9   5  24  1   
 10   6  25  1   
 11   6  26  1   
 12   6  27  1   
 13   7  28  1   
 14   7  29  1   
 15   7  30  1   
 16   8   9  1   
 17   8  10  1   
 18   8  31  1   
 19   9  11  1   
 20   9  12  1   
 21   9  32  1   
 22  10  13  1   
 23  10  33  1   
 24  10  34  1   
 25  11  14  am  
 26  11  35  1   
 27  12  13  1   
 28  12  36  1   
 29  12  37  1   
 30  14  15  2   
 31  14  16  1   
 32  16  17  ar  
 33  16  18  ar  
 34  17  19  1   
 35  17  20  ar  
 36  18  21  ar  
 37  18  38  1   
 38  20  22  ar  
 39  20  39  1   
 40  21  22  ar  
 41  21  40  1   
 42  22  41  1   
@<TRIPOS>SUBSTRUCTURE
  1 ****  11 GROUP 4 **** **** 0

# MOE 2024.06 (io_trps.svl 2023.06)
