@<TRIPOS>MOLECULE
NONAME
55 58 1 0 0 
SMALL
USER_CHARGES


@<TRIPOS>ATOM
  1 O        0.0120    -0.5800    -0.0090 O.3   1 <1>  -0.2800 
  2 C        0.7910    -1.5080    -0.5350 C.2   1 <1>  -0.0400 
  3 C        0.1780     0.5250    -0.7080 C.2   1 <1>  -0.0100 
  4 C        1.4700    -1.0090    -1.5910 C.2   1 <1>  -0.1500 
  5 C        0.8040    -2.8980     0.0740 C.3   1 <1>   0.5230 
  6 C        1.0670     0.3280    -1.7030 C.2   1 <1>  -0.1500 
  7 N       -0.5850    -3.4530     0.0330 N.4   1 <1>  -0.9590 
  8 C       -1.3800    -2.9670     1.2010 C.3   1 <1>   0.3430 
  9 C       -0.5790    -4.9350    -0.1110 C.3   1 <1>   0.3430 
 10 C       -2.8200    -3.4700     1.0970 C.3   1 <1>  -0.1600 
 11 C       -2.0130    -5.4450    -0.2310 C.3   1 <1>  -0.1600 
 12 C       -2.8490    -4.9930     0.9730 C.3   1 <1>   0.4230 
 13 N       -4.2580    -5.4720     0.9040 N.4   1 <1>  -0.9590 
 14 C       -5.0800    -5.1240    -0.3010 C.3   1 <1>   0.3430 
 15 C       -4.4090    -6.9530     1.1040 C.3   1 <1>   0.3430 
 16 C       -6.1830    -6.1830    -0.3240 C.3   1 <1>   0.2000 
 17 C       -5.4350    -7.4510     0.0740 C.3   1 <1>  -0.0800 
 18 O       -7.0810    -5.8740     0.6900 O.3   1 <1>  -0.6800 
 19 C       -4.7560    -8.1080    -1.1460 C.3   1 <1>   0.0210 
 20 C       -3.8440    -9.2450    -0.7360 C.2   1 <1>   0.1080 
 21 N       -2.6230    -9.0630    -0.3300 N.2   1 <1>  -0.7070 
 22 C       -4.2020   -10.5880    -0.7550 C.2   1 <1>  -0.1500 
 23 N       -2.1620   -10.3130    -0.0890 N.pl3 1 <1>   0.3000 
 24 C       -3.1040   -11.2460    -0.3330 C.2   1 <1>  -0.3320 
 25 C       -2.8910   -12.7390    -0.1540 C.3   1 <1>  -0.0600 
 26 H       -0.3700     1.4110    -0.4310 H     1 <1>   0.1500 
 27 H        2.1840    -1.4850    -2.2420 H     1 <1>   0.1500 
 28 H        1.1680    -2.8530     1.0870 H     1 <1>   0.0800 
 29 H        1.4720    -3.5170    -0.5040 H     1 <1>   0.0800 
 30 H        1.4160     1.0300    -2.4420 H     1 <1>   0.1500 
 31 H       -0.9870    -3.0250    -0.8150 H     1 <1>   0.4500 
 32 H       -0.9350    -3.3220     2.1180 H     1 <1>   0.0800 
 33 H       -1.3810    -1.8880     1.2300 H     1 <1>   0.0800 
 34 H       -0.0220    -5.2200    -0.9910 H     1 <1>   0.0800 
 35 H       -0.1040    -5.3850     0.7470 H     1 <1>   0.0800 
 36 H       -3.2890    -3.0020     0.2490 H     1 <1>   0.0800 
 37 H       -3.3470    -3.1670     1.9840 H     1 <1>   0.0800 
 38 H       -1.9760    -6.5170    -0.2740 H     1 <1>   0.0800 
 39 H       -2.4270    -5.0850    -1.1550 H     1 <1>   0.0800 
 40 H       -2.4010    -5.4060     1.8640 H     1 <1>   0.0800 
 41 H       -4.7920    -5.0640     1.6880 H     1 <1>   0.4500 
 42 H       -5.4990    -4.1330    -0.2360 H     1 <1>   0.0800 
 43 H       -4.4920    -5.2110    -1.1980 H     1 <1>   0.0800 
 44 H       -3.4680    -7.4610     1.0020 H     1 <1>   0.0800 
 45 H       -4.7860    -7.1430     2.0960 H     1 <1>   0.0800 
 46 H       -6.7080    -6.2390    -1.2630 H     1 <1>   0.0800 
 47 H       -6.0920    -8.1760     0.5230 H     1 <1>   0.0800 
 48 H       -7.8920    -6.4250     0.6310 H     1 <1>   0.4000 
 49 H       -4.1680    -7.3960    -1.6960 H     1 <1>   0.0800 
 50 H       -5.5080    -8.4930    -1.8130 H     1 <1>   0.0800 
 51 H       -5.1530   -10.9950    -1.0500 H     1 <1>   0.1500 
 52 H       -1.2050   -10.5070     0.2320 H     1 <1>   0.2700 
 53 H       -3.7860   -13.2760    -0.4160 H     1 <1>   0.0800 
 54 H       -2.6470   -12.9630     0.8700 H     1 <1>   0.0800 
 55 H       -2.0910   -13.0810    -0.7870 H     1 <1>   0.0800 
@<TRIPOS>BOND
  1   1   2  1   
  2   1   3  1   
  3   2   4  2   
  4   2   5  1   
  5   3   6  2   
  6   3  26  1   
  7   4   6  1   
  8   4  27  1   
  9   5   7  1   
 10   5  28  1   
 11   5  29  1   
 12   6  30  1   
 13   7   8  1   
 14   7   9  1   
 15   7  31  1   
 16   8  10  1   
 17   8  32  1   
 18   8  33  1   
 19   9  11  1   
 20   9  34  1   
 21   9  35  1   
 22  10  12  1   
 23  10  36  1   
 24  10  37  1   
 25  11  12  1   
 26  11  38  1   
 27  11  39  1   
 28  12  13  1   
 29  12  40  1   
 30  13  14  1   
 31  13  15  1   
 32  13  41  1   
 33  14  16  1   
 34  14  42  1   
 35  14  43  1   
 36  15  17  1   
 37  15  44  1   
 38  15  45  1   
 39  16  17  1   
 40  16  18  1   
 41  16  46  1   
 42  17  19  1   
 43  17  47  1   
 44  18  48  1   
 45  19  20  1   
 46  19  49  1   
 47  19  50  1   
 48  20  21  2   
 49  20  22  1   
 50  21  23  1   
 51  22  24  2   
 52  22  51  1   
 53  23  24  1   
 54  23  52  1   
 55  24  25  1   
 56  25  53  1   
 57  25  54  1   
 58  25  55  1   
@<TRIPOS>SUBSTRUCTURE
  1 ****  11 GROUP 4 **** **** 0

# MOE 2024.06 (io_trps.svl 2023.06)
