@<TRIPOS>MOLECULE
NONAME
41 43 1 0 0 
SMALL
USER_CHARGES


@<TRIPOS>ATOM
  1 F        0.2090    -0.8160    -0.7040 F     1 <1>  -0.1900 
  2 C       -0.4940    -1.8940    -0.4630 C.ar  1 <1>   0.1900 
  3 C        0.0060    -3.1780    -0.7120 C.ar  1 <1>   0.0820 
  4 C       -1.7590    -1.6990     0.0550 C.ar  1 <1>  -0.1500 
  5 O        1.2320    -3.4980    -1.2190 O.3   1 <1>  -0.3630 
  6 C       -0.8170    -4.2540    -0.4190 C.ar  1 <1>  -0.1500 
  7 C       -2.5510    -2.7970     0.3370 C.ar  1 <1>  -0.1500 
  8 C        2.1680    -2.5280    -1.6330 C.3   1 <1>   0.0400 
  9 C       -2.1030    -4.0990     0.1050 C.ar  1 <1>   0.0530 
 10 C       -2.9220    -5.2540     0.3930 C.2   1 <1>   0.0870 
 11 O       -2.3530    -6.3940     0.7010 O.3   1 <1>  -0.0190 
 12 C       -4.2620    -5.4680     0.4180 C.2   1 <1>  -0.2330 
 13 N       -3.2170    -7.3450     0.9320 N.2   1 <1>  -0.4100 
 14 C       -4.3830    -6.8190     0.7610 C.2   1 <1>   0.3720 
 15 C       -5.3170    -4.5460     0.1540 C.2   1 <1>   1.0330 
 16 N       -5.5680    -7.5590     0.9470 N.pl3 1 <1>  -0.8210 
 17 O       -5.8820    -4.5320    -0.9540 O.co2 1 <1>  -0.9000 
 18 O       -5.6800    -3.7300     1.0180 O.co2 1 <1>  -0.9000 
 19 C       -5.4620    -9.0540     0.9090 C.3   1 <1>   0.2090 
 20 C       -6.7500    -7.2040     0.1060 C.3   1 <1>   0.2090 
 21 C       -6.7230    -9.5930     0.2050 C.3   1 <1>   0.2000 
 22 C       -7.6820    -8.4070     0.2240 C.3   1 <1>   0.2000 
 23 O       -6.4550    -9.9240    -1.1340 O.3   1 <1>  -0.5600 
 24 O       -8.2960    -8.3560     1.4760 O.3   1 <1>  -0.6800 
 25 C       -5.8690   -11.1710    -1.3310 C.3   1 <1>   0.0400 
 26 H       -2.1230    -0.7050     0.2380 H     1 <1>   0.1500 
 27 H       -0.4470    -5.2450    -0.6090 H     1 <1>   0.1500 
 28 H       -3.5330    -2.6360     0.7480 H     1 <1>   0.1500 
 29 H        3.0300    -3.0400    -2.0220 H     1 <1>   0.0800 
 30 H        2.4520    -1.9310    -0.7850 H     1 <1>   0.0800 
 31 H        1.7260    -1.9210    -2.4030 H     1 <1>   0.0800 
 32 H       -4.5740    -9.3730     0.3920 H     1 <1>   0.0800 
 33 H       -5.4290    -9.4120     1.9220 H     1 <1>   0.0800 
 34 H       -7.2340    -6.3050     0.4500 H     1 <1>   0.0800 
 35 H       -6.4400    -7.0740    -0.9180 H     1 <1>   0.0800 
 36 H       -7.1480   -10.4490     0.6980 H     1 <1>   0.0800 
 37 H       -8.4390    -8.4550    -0.5380 H     1 <1>   0.0800 
 38 H       -7.6620    -7.9060     2.0780 H     1 <1>   0.4000 
 39 H       -5.7250   -11.3080    -2.3880 H     1 <1>   0.0800 
 40 H       -6.5260   -11.9360    -0.9540 H     1 <1>   0.0800 
 41 H       -4.9170   -11.2070    -0.8320 H     1 <1>   0.0800 
@<TRIPOS>BOND
  1   1   2  1   
  2   2   3  ar  
  3   2   4  ar  
  4   3   5  1   
  5   3   6  ar  
  6   4   7  ar  
  7   4  26  1   
  8   5   8  1   
  9   6   9  ar  
 10   6  27  1   
 11   7   9  ar  
 12   7  28  1   
 13   8  29  1   
 14   8  30  1   
 15   8  31  1   
 16   9  10  1   
 17  10  11  1   
 18  10  12  2   
 19  11  13  1   
 20  12  14  1   
 21  12  15  1   
 22  13  14  2   
 23  14  16  1   
 24  15  17  ar  
 25  15  18  ar  
 26  16  19  1   
 27  16  20  1   
 28  19  21  1   
 29  19  32  1   
 30  19  33  1   
 31  20  22  1   
 32  20  34  1   
 33  20  35  1   
 34  21  22  1   
 35  21  23  1   
 36  21  36  1   
 37  22  24  1   
 38  22  37  1   
 39  23  25  1   
 40  24  38  1   
 41  25  39  1   
 42  25  40  1   
 43  25  41  1   
@<TRIPOS>SUBSTRUCTURE
  1 ****  12 GROUP 4 **** **** 0

# MOE 2024.06 (io_trps.svl 2023.06)
