@<TRIPOS>MOLECULE
NONAME
45 47 1 0 0 
SMALL
USER_CHARGES


@<TRIPOS>ATOM
  1 CL       0.7770     0.1560     3.0400 Cl    1 <1>  -0.1770 
  2 C        1.8400     0.7420     1.7810 C.ar  1 <1>   0.1770 
  3 C        2.4450    -0.1390     0.8960 C.ar  1 <1>  -0.1440 
  4 C        2.0490     2.1090     1.7040 C.ar  1 <1>  -0.1500 
  5 C        3.2760     0.4150    -0.0670 C.ar  1 <1>   0.1900 
  6 C        2.2220    -1.6440     0.9690 C.3   1 <1>   0.2540 
  7 C        2.8800     2.6290     0.7260 C.ar  1 <1>  -0.1500 
  8 F        3.8810    -0.3800    -0.9130 F     1 <1>  -0.1900 
  9 C        3.5070     1.7820    -0.1750 C.ar  1 <1>  -0.1440 
 10 N        1.2680    -2.0960    -0.0660 N.3   1 <1>  -0.8100 
 11 C        4.4240     2.3430    -1.2520 C.3   1 <1>  -0.0970 
 12 C        1.1580    -3.5780    -0.1130 C.3   1 <1>   0.3330 
 13 C       -0.0720    -1.5000     0.1210 C.3   1 <1>   0.1100 
 14 C        2.5180    -4.2190    -0.3950 C.ar  1 <1>  -0.1430 
 15 C        0.1100    -4.0220    -1.1710 C.3   1 <1>   0.2000 
 16 C       -1.0710    -2.0180    -0.9260 C.3   1 <1>   0.1200 
 17 C        2.9830    -5.2520     0.4070 C.ar  1 <1>  -0.1500 
 18 C        3.2950    -3.7910    -1.4630 C.ar  1 <1>  -0.1500 
 19 O       -1.1270    -3.4140    -0.8980 O.3   1 <1>  -0.5600 
 20 C       -0.1280    -5.5410    -1.2070 C.3   1 <1>   0.1200 
 21 C        4.2000    -5.8550     0.1380 C.ar  1 <1>  -0.1500 
 22 C        4.5120    -4.3920    -1.7310 C.ar  1 <1>  -0.1500 
 23 O        0.9250    -6.2050    -1.8340 O.3   1 <1>  -0.6800 
 24 C        4.9640    -5.4260    -0.9320 C.ar  1 <1>  -0.1500 
 25 H        1.5610     2.7600     2.4070 H     1 <1>   0.1500 
 26 H        1.8690    -1.9360     1.9420 H     1 <1>   0.0800 
 27 H        3.1760    -2.1220     0.8210 H     1 <1>   0.0800 
 28 H        3.0360     3.6940     0.6720 H     1 <1>   0.1500 
 29 H        4.4680     3.4160    -1.2040 H     1 <1>   0.0800 
 30 H        4.0640     2.0580    -2.2250 H     1 <1>   0.0800 
 31 H        5.4180     1.9530    -1.1250 H     1 <1>   0.0800 
 32 H        0.8130    -3.9230     0.8470 H     1 <1>   0.0800 
 33 H       -0.4460    -1.7290     1.1050 H     1 <1>   0.0800 
 34 H       -0.0100    -0.4300     0.0260 H     1 <1>   0.0800 
 35 H        0.4190    -3.7010    -2.1510 H     1 <1>   0.0800 
 36 H       -0.7820    -1.7010    -1.9130 H     1 <1>   0.0800 
 37 H       -2.0580    -1.6450    -0.7160 H     1 <1>   0.0800 
 38 H        2.4010    -5.5980     1.2430 H     1 <1>   0.1500 
 39 H        2.9510    -2.9800    -2.0830 H     1 <1>   0.1500 
 40 H       -1.0190    -5.7580    -1.7690 H     1 <1>   0.0800 
 41 H       -0.2290    -5.9330    -0.2110 H     1 <1>   0.0800 
 42 H        4.5540    -6.6580     0.7620 H     1 <1>   0.1500 
 43 H        5.1060    -4.0510    -2.5610 H     1 <1>   0.1500 
 44 H        1.7910    -5.9080    -1.4730 H     1 <1>   0.4000 
 45 H        5.9100    -5.8940    -1.1420 H     1 <1>   0.1500 
@<TRIPOS>BOND
  1   1   2  1   
  2   2   3  ar  
  3   2   4  ar  
  4   3   5  ar  
  5   3   6  1   
  6   4   7  ar  
  7   4  25  1   
  8   5   8  1   
  9   5   9  ar  
 10   6  10  1   
 11   6  26  1   
 12   6  27  1   
 13   7   9  ar  
 14   7  28  1   
 15   9  11  1   
 16  10  12  1   
 17  10  13  1   
 18  11  29  1   
 19  11  30  1   
 20  11  31  1   
 21  12  14  1   
 22  12  15  1   
 23  12  32  1   
 24  13  16  1   
 25  13  33  1   
 26  13  34  1   
 27  14  17  ar  
 28  14  18  ar  
 29  15  19  1   
 30  15  20  1   
 31  15  35  1   
 32  16  19  1   
 33  16  36  1   
 34  16  37  1   
 35  17  21  ar  
 36  17  38  1   
 37  18  22  ar  
 38  18  39  1   
 39  20  23  1   
 40  20  40  1   
 41  20  41  1   
 42  21  24  ar  
 43  21  42  1   
 44  22  24  ar  
 45  22  43  1   
 46  23  44  1   
 47  24  45  1   
@<TRIPOS>SUBSTRUCTURE
  1 ****  10 GROUP 4 **** **** 0

# MOE 2024.06 (io_trps.svl 2023.06)
