@<TRIPOS>MOLECULE
NONAME
46 48 1 0 0 
SMALL
USER_CHARGES


@<TRIPOS>ATOM
  1 F        1.0360    -0.5480    -1.4640 F     1 <1>  -0.1900 
  2 C        0.8470    -1.7820    -1.0800 C.ar  1 <1>   0.1900 
  3 C        0.9340    -2.7930    -2.0170 C.ar  1 <1>  -0.1500 
  4 C        0.5650    -2.0300     0.2500 C.ar  1 <1>  -0.1500 
  5 C        0.7310    -4.0990    -1.6030 C.ar  1 <1>  -0.1500 
  6 C        0.3640    -3.3400     0.6510 C.ar  1 <1>  -0.1500 
  7 C        0.4450    -4.3760    -0.2720 C.ar  1 <1>  -0.1430 
  8 C        0.2150    -5.8120     0.1730 C.3   1 <1>  -0.0160 
  9 C       -1.2660    -6.1860     0.0120 C.3   1 <1>  -0.0990 
 10 C       -1.6010    -7.6010     0.4690 C.2   1 <1>   0.5690 
 11 O       -0.6830    -8.3450     0.7240 O.2   1 <1>  -0.5700 
 12 N       -2.9100    -8.0100     0.5840 N.am  1 <1>  -0.6600 
 13 C       -4.0730    -7.1660     0.1680 C.3   1 <1>   0.2200 
 14 C       -3.2020    -9.3650     1.1520 C.3   1 <1>   0.0600 
 15 C       -5.1620    -7.9110    -0.6030 C.3   1 <1>  -0.1600 
 16 C       -4.8030    -6.5590     1.3610 C.3   1 <1>  -0.1600 
 17 C       -6.3930    -7.0020    -0.4840 C.3   1 <1>  -0.0800 
 18 C       -6.1930    -6.1910     0.8220 C.3   1 <1>  -0.0800 
 19 C       -7.7240    -7.7750    -0.6020 C.3   1 <1>   0.1400 
 20 C       -7.3120    -6.3860     1.8630 C.3   1 <1>  -0.0990 
 21 N       -8.8130    -7.0000     0.0280 N.am  1 <1>  -0.7300 
 22 C       -8.6690    -6.3390     1.1950 C.2   1 <1>   0.5690 
 23 O       -9.5830    -5.7390     1.6970 O.2   1 <1>  -0.5700 
 24 H        1.1560    -2.5610    -3.0420 H     1 <1>   0.1500 
 25 H        0.5070    -1.2160     0.9500 H     1 <1>   0.1500 
 26 H        0.7960    -4.8990    -2.3200 H     1 <1>   0.1500 
 27 H        0.1450    -3.5510     1.6840 H     1 <1>   0.1500 
 28 H        0.8250    -6.4770    -0.4140 H     1 <1>   0.0800 
 29 H        0.5100    -5.9280     1.2020 H     1 <1>   0.0800 
 30 H       -1.5350    -6.0910    -1.0230 H     1 <1>   0.0800 
 31 H       -1.8520    -5.4920     0.5850 H     1 <1>   0.0800 
 32 H       -3.7430    -6.3610    -0.4640 H     1 <1>   0.0800 
 33 H       -4.0760    -9.3360     1.7760 H     1 <1>   0.0800 
 34 H       -2.3770    -9.7110     1.7520 H     1 <1>   0.0800 
 35 H       -3.3570   -10.0650     0.3510 H     1 <1>   0.0800 
 36 H       -4.8800    -8.0670    -1.6290 H     1 <1>   0.0800 
 37 H       -5.3800    -8.8550    -0.1420 H     1 <1>   0.0800 
 38 H       -4.8910    -7.2860     2.1470 H     1 <1>   0.0800 
 39 H       -4.2860    -5.6940     1.7370 H     1 <1>   0.0800 
 40 H       -6.3590    -6.3000    -1.3010 H     1 <1>   0.0800 
 41 H       -6.1860    -5.1480     0.5490 H     1 <1>   0.0800 
 42 H       -7.6520    -8.7230    -0.0970 H     1 <1>   0.0800 
 43 H       -7.9540    -7.9560    -1.6380 H     1 <1>   0.0800 
 44 H       -7.2560    -5.6210     2.6170 H     1 <1>   0.0800 
 45 H       -7.2200    -7.3420     2.3430 H     1 <1>   0.0800 
 46 H       -9.7390    -7.0010    -0.4040 H     1 <1>   0.3700 
@<TRIPOS>BOND
  1   1   2  1   
  2   2   3  ar  
  3   2   4  ar  
  4   3   5  ar  
  5   3  24  1   
  6   4   6  ar  
  7   4  25  1   
  8   5   7  ar  
  9   5  26  1   
 10   6   7  ar  
 11   6  27  1   
 12   7   8  1   
 13   8   9  1   
 14   8  28  1   
 15   8  29  1   
 16   9  10  1   
 17   9  30  1   
 18   9  31  1   
 19  10  11  2   
 20  10  12  am  
 21  12  13  1   
 22  12  14  1   
 23  13  15  1   
 24  13  16  1   
 25  13  32  1   
 26  14  33  1   
 27  14  34  1   
 28  14  35  1   
 29  15  17  1   
 30  15  36  1   
 31  15  37  1   
 32  16  18  1   
 33  16  38  1   
 34  16  39  1   
 35  17  18  1   
 36  17  19  1   
 37  17  40  1   
 38  18  20  1   
 39  18  41  1   
 40  19  21  1   
 41  19  42  1   
 42  19  43  1   
 43  20  22  1   
 44  20  44  1   
 45  20  45  1   
 46  21  22  am  
 47  21  46  1   
 48  22  23  2   
@<TRIPOS>SUBSTRUCTURE
  1 ****  13 GROUP 4 **** **** 0

# MOE 2024.06 (io_trps.svl 2023.06)
