@<TRIPOS>MOLECULE
NONAME
44 45 1 0 0 
SMALL
USER_CHARGES


@<TRIPOS>ATOM
  1 S       -0.5130    -0.3060    -0.1260 S.3   1 <1>  -0.0800 
  2 C       -0.6960    -2.0460     0.0440 C.2   1 <1>  -0.1400 
  3 C        0.8160    -0.5070    -1.2530 C.2   1 <1>  -0.1100 
  4 C        0.2130    -2.6870    -0.7170 C.2   1 <1>  -0.1500 
  5 C       -1.7940    -2.5170     0.9790 C.3   1 <1>   0.3200 
  6 C        1.0720    -1.8120    -1.4560 C.2   1 <1>  -0.1500 
  7 N       -2.0320    -3.9560     0.7740 N.am  1 <1>  -0.7300 
  8 C       -2.4450    -4.8120     1.7440 C.2   1 <1>   0.5690 
  9 O       -2.6070    -4.4320     2.8800 O.2   1 <1>  -0.5700 
 10 C       -2.6590    -6.2950     1.4050 C.3   1 <1>   0.1710 
 11 N       -3.9360    -6.6470     0.7160 N.3   1 <1>  -0.8100 
 12 C       -4.1010    -8.1180     0.6900 C.3   1 <1>   0.1100 
 13 C       -4.0460    -6.0770    -0.6350 C.3   1 <1>   0.1100 
 14 C       -5.4620    -8.5270     0.1110 C.3   1 <1>   0.2000 
 15 C       -5.4150    -6.4080    -1.2410 C.3   1 <1>  -0.1600 
 16 O       -5.4800    -9.9180     0.0100 O.3   1 <1>  -0.5600 
 17 C       -5.6700    -7.9210    -1.2820 C.3   1 <1>  -0.1600 
 18 C       -6.7440   -10.4970     0.0560 C.3   1 <1>   0.1200 
 19 C       -6.5690   -12.0100    -0.0570 C.3   1 <1>  -0.1600 
 20 C       -7.9190   -12.7340    -0.0110 C.3   1 <1>  -0.2400 
 21 H        1.2710     0.3850    -1.6470 H     1 <1>   0.1500 
 22 H        0.3290    -3.7540    -0.7930 H     1 <1>   0.1500 
 23 H       -2.7030    -1.9800     0.7710 H     1 <1>   0.0800 
 24 H       -1.5110    -2.3270     2.0020 H     1 <1>   0.0800 
 25 H        1.8390    -2.2050    -2.1010 H     1 <1>   0.1500 
 26 H       -1.9450    -4.2710    -0.1900 H     1 <1>   0.3700 
 27 H       -2.6210    -6.8270     2.3390 H     1 <1>   0.0800 
 28 H       -1.8290    -6.6320     0.8120 H     1 <1>   0.0800 
 29 H       -4.0330    -8.5030     1.6930 H     1 <1>   0.0800 
 30 H       -3.3190    -8.5590     0.0950 H     1 <1>   0.0800 
 31 H       -3.2630    -6.4670    -1.2640 H     1 <1>   0.0800 
 32 H       -3.9560    -5.0070    -0.5880 H     1 <1>   0.0800 
 33 H       -6.2330    -8.2070     0.7920 H     1 <1>   0.0800 
 34 H       -5.4700    -6.0060    -2.2370 H     1 <1>   0.0800 
 35 H       -6.1760    -5.9280    -0.6500 H     1 <1>   0.0800 
 36 H       -6.6720    -8.1030    -1.6230 H     1 <1>   0.0800 
 37 H       -4.9790    -8.3770    -1.9700 H     1 <1>   0.0800 
 38 H       -7.3330   -10.1230    -0.7640 H     1 <1>   0.0800 
 39 H       -7.2100   -10.2390     0.9920 H     1 <1>   0.0800 
 40 H       -5.9520   -12.3540     0.7540 H     1 <1>   0.0800 
 41 H       -6.0750   -12.2380    -0.9850 H     1 <1>   0.0800 
 42 H       -8.4230   -12.5310     0.9180 H     1 <1>   0.0800 
 43 H       -7.7670   -13.7960    -0.0920 H     1 <1>   0.0800 
 44 H       -8.5460   -12.4150    -0.8250 H     1 <1>   0.0800 
@<TRIPOS>BOND
  1   1   2  1   
  2   1   3  1   
  3   2   4  2   
  4   2   5  1   
  5   3   6  2   
  6   3  21  1   
  7   4   6  1   
  8   4  22  1   
  9   5   7  1   
 10   5  23  1   
 11   5  24  1   
 12   6  25  1   
 13   7   8  am  
 14   7  26  1   
 15   8   9  2   
 16   8  10  1   
 17  10  11  1   
 18  10  27  1   
 19  10  28  1   
 20  11  12  1   
 21  11  13  1   
 22  12  14  1   
 23  12  29  1   
 24  12  30  1   
 25  13  15  1   
 26  13  31  1   
 27  13  32  1   
 28  14  16  1   
 29  14  17  1   
 30  14  33  1   
 31  15  17  1   
 32  15  34  1   
 33  15  35  1   
 34  16  18  1   
 35  17  36  1   
 36  17  37  1   
 37  18  19  1   
 38  18  38  1   
 39  18  39  1   
 40  19  20  1   
 41  19  40  1   
 42  19  41  1   
 43  20  42  1   
 44  20  43  1   
 45  20  44  1   
@<TRIPOS>SUBSTRUCTURE
  1 ****  13 GROUP 4 **** **** 0

# MOE 2024.06 (io_trps.svl 2023.06)
