@<TRIPOS>MOLECULE
NONAME
39 41 1 0 0 
SMALL
USER_CHARGES


@<TRIPOS>ATOM
  1 O        0.3450     0.6000    -0.4050 O.3   1 <1>  -0.6800 
  2 C        1.5180     1.3310    -0.3130 C.3   1 <1>   0.2000 
  3 C        2.7310     0.5100    -0.8160 C.3   1 <1>  -0.0800 
  4 C        1.6890     1.7860     1.1370 C.3   1 <1>  -0.1600 
  5 C        4.0310     0.9640    -0.1220 C.3   1 <1>   0.2090 
  6 C        2.5510    -1.0100    -0.6470 C.3   1 <1>   0.1200 
  7 C        2.8990     2.7230     1.2660 C.3   1 <1>   0.2090 
  8 N        3.9450     2.4020     0.2580 N.pl3 1 <1>  -0.8380 
  9 O        3.6790    -1.6740    -1.1090 O.3   1 <1>  -0.6800 
 10 C        5.0830     3.1710     0.2370 C.ar  1 <1>   0.4100 
 11 N        6.1550     2.6530     0.7620 N.ar  1 <1>  -0.6200 
 12 C        5.0710     4.4780    -0.3110 C.ar  1 <1>   0.0000 
 13 C        7.2400     3.4290     0.7990 C.ar  1 <1>   0.4760 
 14 C        6.2630     5.1970    -0.1970 C.ar  1 <1>   0.3100 
 15 C        3.9760     5.0850    -0.9590 C.ar  1 <1>  -0.1500 
 16 N        7.3540     4.6450     0.3720 N.ar  1 <1>  -0.6200 
 17 C        8.4550     2.7890     1.4230 C.3   1 <1>  -0.0970 
 18 C        6.3250     6.5070    -0.6930 C.ar  1 <1>  -0.1500 
 19 C        4.0570     6.3660    -1.4420 C.ar  1 <1>  -0.1500 
 20 C        5.2430     7.0880    -1.3040 C.ar  1 <1>  -0.1500 
 21 H       -0.4160     1.1480    -0.1340 H     1 <1>   0.4000 
 22 H        1.4060     2.2010    -0.9400 H     1 <1>   0.0800 
 23 H        2.8310     0.7170    -1.8660 H     1 <1>   0.0800 
 24 H        0.8130     2.3040     1.4820 H     1 <1>   0.0800 
 25 H        1.8450     0.9290     1.7670 H     1 <1>   0.0800 
 26 H        4.8720     0.8010    -0.7740 H     1 <1>   0.0800 
 27 H        4.1960     0.3860     0.7720 H     1 <1>   0.0800 
 28 H        1.7020    -1.3680    -1.2030 H     1 <1>   0.0800 
 29 H        2.4190    -1.2620     0.3920 H     1 <1>   0.0800 
 30 H        3.3190     2.6470     2.2550 H     1 <1>   0.0800 
 31 H        2.5800     3.7410     1.1190 H     1 <1>   0.0800 
 32 H        3.7610    -1.5730    -2.0770 H     1 <1>   0.4000 
 33 H        3.0690     4.5190    -1.0740 H     1 <1>   0.1500 
 34 H        9.2860     3.4690     1.4180 H     1 <1>   0.0800 
 35 H        8.7180     1.9080     0.8680 H     1 <1>   0.0800 
 36 H        8.2320     2.5130     2.4360 H     1 <1>   0.0800 
 37 H        7.2510     7.0400    -0.5810 H     1 <1>   0.1500 
 38 H        3.2150     6.8240    -1.9330 H     1 <1>   0.1500 
 39 H        5.2990     8.0940    -1.6830 H     1 <1>   0.1500 
@<TRIPOS>BOND
  1   1   2  1   
  2   1  21  1   
  3   2   3  1   
  4   2   4  1   
  5   2  22  1   
  6   3   5  1   
  7   3   6  1   
  8   3  23  1   
  9   4   7  1   
 10   4  24  1   
 11   4  25  1   
 12   5   8  1   
 13   5  26  1   
 14   5  27  1   
 15   6   9  1   
 16   6  28  1   
 17   6  29  1   
 18   7   8  1   
 19   7  30  1   
 20   7  31  1   
 21   8  10  1   
 22   9  32  1   
 23  10  11  ar  
 24  10  12  ar  
 25  11  13  ar  
 26  12  14  ar  
 27  12  15  ar  
 28  13  16  ar  
 29  13  17  1   
 30  14  16  ar  
 31  14  18  ar  
 32  15  19  ar  
 33  15  33  1   
 34  17  34  1   
 35  17  35  1   
 36  17  36  1   
 37  18  20  ar  
 38  18  37  1   
 39  19  20  ar  
 40  19  38  1   
 41  20  39  1   
@<TRIPOS>SUBSTRUCTURE
  1 ****  10 GROUP 4 **** **** 0

# MOE 2024.06 (io_trps.svl 2023.06)
