@<TRIPOS>MOLECULE
NONAME
40 40 1 0 0 
SMALL
USER_CHARGES


@<TRIPOS>ATOM
  1 S       -0.4970     1.0910     0.1620 S.3   1 <1>  -0.4600 
  2 C        1.2990     1.2550     0.3240 C.3   1 <1>   0.0700 
  3 C       -0.8500    -0.4370     1.0690 C.3   1 <1>  -0.0100 
  4 C        1.7240     2.4900    -0.4730 C.3   1 <1>  -0.1600 
  5 C        3.2160     2.8160    -0.3230 C.3   1 <1>   0.2890 
  6 N        3.4770     4.0610    -1.0810 N.pl3 1 <1>  -0.8690 
  7 C        4.1540     1.7050    -0.8410 C.3   1 <1>   0.1200 
  8 C        4.4670     4.9560    -0.7710 C.ar  1 <1>   0.4100 
  9 O        4.2960     0.6900     0.1030 O.3   1 <1>  -0.6800 
 10 N        5.3600     4.5930     0.1420 N.ar  1 <1>  -0.6200 
 11 C        4.5090     6.1870    -1.4180 C.ar  1 <1>  -0.1500 
 12 C        6.3060     5.4760     0.4140 C.ar  1 <1>   0.1600 
 13 C        5.4970     7.0930    -1.1170 C.ar  1 <1>  -0.1500 
 14 C        6.4370     6.7410    -0.1520 C.ar  1 <1>   0.0860 
 15 C        7.5140     7.6130     0.2540 C.2   1 <1>   0.5440 
 16 O        8.6280     7.1430     0.4010 O.2   1 <1>  -0.5700 
 17 N        7.3260     8.9620     0.4960 N.am  1 <1>  -0.6600 
 18 C        8.4840     9.8880     0.6430 C.3   1 <1>   0.0600 
 19 C        6.0090     9.5630     0.8440 C.3   1 <1>   0.0600 
 20 H        1.5210     1.3570     1.3720 H     1 <1>   0.0800 
 21 H        1.7380     0.3530    -0.0650 H     1 <1>   0.0800 
 22 H       -1.9100    -0.6120     1.0150 H     1 <1>   0.0800 
 23 H       -0.5350    -0.2990     2.0880 H     1 <1>   0.0800 
 24 H       -0.3050    -1.2360     0.5990 H     1 <1>   0.0800 
 25 H        1.4930     2.3250    -1.5100 H     1 <1>   0.0800 
 26 H        1.1540     3.3300    -0.1190 H     1 <1>   0.0800 
 27 H        3.4370     3.0010     0.7150 H     1 <1>   0.0800 
 28 H        2.7130     4.3660    -1.6840 H     1 <1>   0.4000 
 29 H        5.1340     2.1060    -1.0350 H     1 <1>   0.0800 
 30 H        3.7630     1.2730    -1.7440 H     1 <1>   0.0800 
 31 H        4.8760     1.0000     0.8280 H     1 <1>   0.4000 
 32 H        3.7640     6.4150    -2.1560 H     1 <1>   0.1500 
 33 H        7.0430     5.1860     1.1450 H     1 <1>   0.1500 
 34 H        5.5560     8.0470    -1.6110 H     1 <1>   0.1500 
 35 H        8.2710    10.8230     0.1570 H     1 <1>   0.0800 
 36 H        9.3660     9.4640     0.1960 H     1 <1>   0.0800 
 37 H        8.6760    10.0630     1.6870 H     1 <1>   0.0800 
 38 H        6.1090    10.1690     1.7280 H     1 <1>   0.0800 
 39 H        5.2770     8.8000     1.0420 H     1 <1>   0.0800 
 40 H        5.6670    10.1820     0.0330 H     1 <1>   0.0800 
@<TRIPOS>BOND
  1   1   2  1   
  2   1   3  1   
  3   2   4  1   
  4   2  20  1   
  5   2  21  1   
  6   3  22  1   
  7   3  23  1   
  8   3  24  1   
  9   4   5  1   
 10   4  25  1   
 11   4  26  1   
 12   5   6  1   
 13   5   7  1   
 14   5  27  1   
 15   6   8  1   
 16   6  28  1   
 17   7   9  1   
 18   7  29  1   
 19   7  30  1   
 20   8  10  ar  
 21   8  11  ar  
 22   9  31  1   
 23  10  12  ar  
 24  11  13  ar  
 25  11  32  1   
 26  12  14  ar  
 27  12  33  1   
 28  13  14  ar  
 29  13  34  1   
 30  14  15  1   
 31  15  16  2   
 32  15  17  am  
 33  17  18  1   
 34  17  19  1   
 35  18  35  1   
 36  18  36  1   
 37  18  37  1   
 38  19  38  1   
 39  19  39  1   
 40  19  40  1   
@<TRIPOS>SUBSTRUCTURE
  1 ****   8 GROUP 4 **** **** 0

# MOE 2024.06 (io_trps.svl 2023.06)
