@<TRIPOS>MOLECULE
NONAME
52 54 1 0 0 
SMALL
USER_CHARGES


@<TRIPOS>ATOM
  1 S        0.3640     0.0640     0.4550 S.o2  1 <1>   1.3330 
  2 O        1.7800     0.0640     0.1610 O.2   1 <1>  -0.6500 
  3 O       -0.0750     0.0350     1.8310 O.2   1 <1>  -0.6500 
  4 N       -0.3480    -1.2370    -0.3700 N.am  1 <1>  -0.8490 
  5 C       -0.3780     1.4990    -0.3200 C.3   1 <1>  -0.0550 
  6 C        0.3150    -1.5610    -1.6370 C.3   1 <1>   0.1160 
  7 C       -0.4440    -2.4390     0.4650 C.3   1 <1>   0.1160 
  8 C       -0.0210     2.8170     0.3890 C.3   1 <1>  -0.0800 
  9 C       -0.6060     4.0380    -0.3130 C.3   1 <1>   0.2000 
 10 C        1.4770     3.1130     0.4600 C.3   1 <1>   0.2090 
 11 O       -1.9260     4.2140     0.0750 O.3   1 <1>  -0.6800 
 12 C        0.2850     5.2100     0.0980 C.3   1 <1>   0.2090 
 13 N        1.5730     4.5910     0.5220 N.pl3 1 <1>  -0.8380 
 14 C        2.7640     5.2960     0.4990 C.ar  1 <1>   0.4100 
 15 N        2.7030     6.5750     0.2180 N.ar  1 <1>  -0.6200 
 16 C        3.9750     4.6870     0.7690 C.ar  1 <1>  -0.1500 
 17 C        3.8490     7.2340     0.1970 C.ar  1 <1>   0.7200 
 18 C        5.1220     5.4420     0.7280 C.ar  1 <1>   0.1670 
 19 N        5.0560     6.7330     0.4330 N.ar  1 <1>  -0.6200 
 20 N        3.7900     8.5750    -0.1070 N.pl3 1 <1>  -0.8380 
 21 C        6.5000     4.7930     1.0210 C.3   1 <1>   1.1630 
 22 C        2.5280     9.3450    -0.1290 C.3   1 <1>   0.2090 
 23 C        4.9640     9.4700    -0.0440 C.3   1 <1>   0.2090 
 24 F        7.2630     4.6990    -0.0640 F     1 <1>  -0.3400 
 25 F        7.2150     5.4630     1.9210 F     1 <1>  -0.3400 
 26 F        6.4020     3.5530     1.4970 F     1 <1>  -0.3400 
 27 C        2.9480    10.7860     0.1330 C.3   1 <1>  -0.1600 
 28 C        4.4020    10.8580    -0.3260 C.3   1 <1>  -0.1600 
 29 H       -0.0680     1.5480    -1.3450 H     1 <1>   0.0800 
 30 H       -1.4450     1.3860    -0.3060 H     1 <1>   0.0800 
 31 H       -0.2310    -2.3320    -2.1540 H     1 <1>   0.0800 
 32 H        1.3210    -1.9030    -1.4600 H     1 <1>   0.0800 
 33 H        0.3520    -0.6910    -2.2700 H     1 <1>   0.0800 
 34 H       -0.9160    -3.2370    -0.0820 H     1 <1>   0.0800 
 35 H       -1.0380    -2.2340     1.3400 H     1 <1>   0.0800 
 36 H        0.5370    -2.7560     0.7790 H     1 <1>   0.0800 
 37 H       -0.3800     2.7830     1.4040 H     1 <1>   0.0800 
 38 H       -0.5800     3.9260    -1.3830 H     1 <1>   0.0800 
 39 H        1.9840     2.7620    -0.4240 H     1 <1>   0.0800 
 40 H        1.9180     2.6620     1.3340 H     1 <1>   0.0800 
 41 H       -1.9840     4.3340     1.0430 H     1 <1>   0.4000 
 42 H       -0.1340     5.7490     0.9300 H     1 <1>   0.0800 
 43 H        0.4340     5.8770    -0.7340 H     1 <1>   0.0800 
 44 H        4.0000     3.6430     1.0080 H     1 <1>   0.1500 
 45 H        2.0790     9.2490    -1.1030 H     1 <1>   0.0800 
 46 H        1.8400     8.9940     0.6230 H     1 <1>   0.0800 
 47 H        5.3900     9.4270     0.9440 H     1 <1>   0.0800 
 48 H        5.7030     9.1830    -0.7720 H     1 <1>   0.0800 
 49 H        2.3170    11.4860    -0.3850 H     1 <1>   0.0800 
 50 H        2.8890    10.9750     1.1910 H     1 <1>   0.0800 
 51 H        4.9580    11.6240     0.1840 H     1 <1>   0.0800 
 52 H        4.4420    11.0380    -1.3860 H     1 <1>   0.0800 
@<TRIPOS>BOND
  1   1   2  2   
  2   1   3  2   
  3   1   4  am  
  4   1   5  1   
  5   4   6  1   
  6   4   7  1   
  7   5   8  1   
  8   5  29  1   
  9   5  30  1   
 10   6  31  1   
 11   6  32  1   
 12   6  33  1   
 13   7  34  1   
 14   7  35  1   
 15   7  36  1   
 16   8   9  1   
 17   8  10  1   
 18   8  37  1   
 19   9  11  1   
 20   9  12  1   
 21   9  38  1   
 22  10  13  1   
 23  10  39  1   
 24  10  40  1   
 25  11  41  1   
 26  12  13  1   
 27  12  42  1   
 28  12  43  1   
 29  13  14  1   
 30  14  15  ar  
 31  14  16  ar  
 32  15  17  ar  
 33  16  18  ar  
 34  16  44  1   
 35  17  19  ar  
 36  17  20  1   
 37  18  19  ar  
 38  18  21  1   
 39  20  22  1   
 40  20  23  1   
 41  21  24  1   
 42  21  25  1   
 43  21  26  1   
 44  22  27  1   
 45  22  45  1   
 46  22  46  1   
 47  23  28  1   
 48  23  47  1   
 49  23  48  1   
 50  27  28  1   
 51  27  49  1   
 52  27  50  1   
 53  28  51  1   
 54  28  52  1   
@<TRIPOS>SUBSTRUCTURE
  1 ****  14 GROUP 4 **** **** 0

# MOE 2024.06 (io_trps.svl 2023.06)
