@<TRIPOS>MOLECULE
NONAME
58 62 1 0 0 
SMALL
USER_CHARGES


@<TRIPOS>ATOM
  1 O       -2.9740    -1.3550     0.8600 O.2   1 <1>  -0.5700 
  2 C       -3.0930    -0.1440     0.7720 C.2   1 <1>   0.7670 
  3 N       -2.1840     0.5100    -0.0250 N.2   1 <1>  -0.6610 
  4 C       -4.1250     0.5710     1.4500 C.2   1 <1>   0.0290 
  5 C       -2.2560     1.7830    -0.1180 C.2   1 <1>   0.5000 
  6 C       -5.0780    -0.1330     2.2510 C.2   1 <1>   0.6160 
  7 C       -4.1410     1.9280     1.3210 C.2   1 <1>  -0.0500 
  8 N       -3.2020     2.5210     0.5330 N.pl3 1 <1>  -0.5500 
  9 C       -1.2550     2.5360    -0.9880 C.3   1 <1>  -0.1000 
 10 O       -5.1630     0.1690     3.4280 O.2   1 <1>  -0.5700 
 11 N       -5.9580    -1.0690     1.7380 N.am  1 <1>  -0.6600 
 12 C       -0.7200     3.8860    -0.6070 C.3   1 <1>  -0.2000 
 13 C       -1.6400     3.7490    -1.7850 C.3   1 <1>  -0.2000 
 14 C       -6.1610    -1.3290     0.2830 C.3   1 <1>   0.1400 
 15 C       -6.8460    -1.8770     2.6220 C.3   1 <1>   0.1400 
 16 C       -5.9480    -2.8160    -0.0110 C.3   1 <1>  -0.1600 
 17 C       -6.6280    -3.3650     2.3400 C.3   1 <1>  -0.1600 
 18 C       -6.8500    -3.7050     0.8560 C.3   1 <1>   0.4240 
 19 O       -8.1670    -3.3410     0.5120 O.3   1 <1>  -0.5600 
 20 C       -6.5820    -5.2000     0.5750 C.ar  1 <1>  -0.1430 
 21 C       -9.1820    -4.2480     0.8070 C.3   1 <1>   0.1200 
 22 C       -7.5960    -6.0460     0.1430 C.ar  1 <1>  -0.1430 
 23 C       -5.3120    -5.7350     0.7570 C.ar  1 <1>  -0.1500 
 24 C       -8.9930    -5.4930    -0.0540 C.3   1 <1>  -0.0170 
 25 C       -7.3430    -7.3860    -0.1040 C.ar  1 <1>  -0.1500 
 26 C       -5.0430    -7.0700     0.5090 C.ar  1 <1>   0.0830 
 27 C       -6.0710    -7.9210     0.0810 C.ar  1 <1>   0.0830 
 28 O       -3.7550    -7.4590     0.7190 O.3   1 <1>  -0.3620 
 29 O       -5.8120    -9.2470    -0.1250 O.3   1 <1>  -0.3620 
 30 C       -3.1180    -8.2950    -0.2220 C.3   1 <1>   0.0400 
 31 C       -6.8410   -10.1800    -0.3680 C.3   1 <1>   0.0400 
 32 H       -4.8710     2.5420     1.8270 H     1 <1>   0.1500 
 33 H       -3.1640     3.5360     0.4060 H     1 <1>   0.4000 
 34 H       -0.5590     1.8570    -1.4490 H     1 <1>   0.1000 
 35 H        0.3230     4.0860    -0.7850 H     1 <1>   0.1000 
 36 H       -1.0780     4.3660     0.2870 H     1 <1>   0.1000 
 37 H       -2.6410     4.1360    -1.7160 H     1 <1>   0.1000 
 38 H       -1.2310     3.8550    -2.7760 H     1 <1>   0.1000 
 39 H       -5.4890    -0.7450    -0.3170 H     1 <1>   0.0800 
 40 H       -7.1670    -1.0490     0.0180 H     1 <1>   0.0800 
 41 H       -7.8710    -1.6100     2.4300 H     1 <1>   0.0800 
 42 H       -6.6380    -1.6800     3.6600 H     1 <1>   0.0800 
 43 H       -4.9150    -3.0520     0.1660 H     1 <1>   0.0800 
 44 H       -6.1490    -3.0170    -1.0470 H     1 <1>   0.0800 
 45 H       -7.2770    -3.9570     2.9560 H     1 <1>   0.0800 
 46 H       -5.6200    -3.6130     2.6170 H     1 <1>   0.0800 
 47 H      -10.1220    -3.7750     0.5850 H     1 <1>   0.0800 
 48 H       -9.1480    -4.4910     1.8540 H     1 <1>   0.0800 
 49 H       -4.5010    -5.1170     1.0960 H     1 <1>   0.1500 
 50 H       -9.1400    -5.2370    -1.0880 H     1 <1>   0.0800 
 51 H       -9.7280    -6.2270     0.2220 H     1 <1>   0.0800 
 52 H       -8.1540    -8.0010    -0.4420 H     1 <1>   0.1500 
 53 H       -2.0570    -8.1410    -0.1410 H     1 <1>   0.0800 
 54 H       -3.4550    -8.0360    -1.2100 H     1 <1>   0.0800 
 55 H       -3.3550    -9.3180     0.0060 H     1 <1>   0.0800 
 56 H       -6.3990   -11.1580    -0.4160 H     1 <1>   0.0800 
 57 H       -7.3110    -9.9460    -1.3070 H     1 <1>   0.0800 
 58 H       -7.5490   -10.1390     0.4410 H     1 <1>   0.0800 
@<TRIPOS>BOND
  1   1   2  2   
  2   2   3  1   
  3   2   4  1   
  4   3   5  2   
  5   4   6  1   
  6   4   7  2   
  7   5   8  1   
  8   5   9  1   
  9   6  10  2   
 10   6  11  am  
 11   7   8  1   
 12   7  32  1   
 13   8  33  1   
 14   9  12  1   
 15   9  13  1   
 16   9  34  1   
 17  11  14  1   
 18  11  15  1   
 19  12  13  1   
 20  12  35  1   
 21  12  36  1   
 22  13  37  1   
 23  13  38  1   
 24  14  16  1   
 25  14  39  1   
 26  14  40  1   
 27  15  17  1   
 28  15  41  1   
 29  15  42  1   
 30  16  18  1   
 31  16  43  1   
 32  16  44  1   
 33  17  18  1   
 34  17  45  1   
 35  17  46  1   
 36  18  19  1   
 37  18  20  1   
 38  19  21  1   
 39  20  22  ar  
 40  20  23  ar  
 41  21  24  1   
 42  21  47  1   
 43  21  48  1   
 44  22  24  1   
 45  22  25  ar  
 46  23  26  ar  
 47  23  49  1   
 48  24  50  1   
 49  24  51  1   
 50  25  27  ar  
 51  25  52  1   
 52  26  27  ar  
 53  26  28  1   
 54  27  29  1   
 55  28  30  1   
 56  29  31  1   
 57  30  53  1   
 58  30  54  1   
 59  30  55  1   
 60  31  56  1   
 61  31  57  1   
 62  31  58  1   
@<TRIPOS>SUBSTRUCTURE
  1 ****  16 GROUP 4 **** **** 0

# MOE 2024.06 (io_trps.svl 2023.06)
