@<TRIPOS>MOLECULE
NONAME
41 42 1 0 0 
SMALL
USER_CHARGES


@<TRIPOS>ATOM
  1 O        3.1860    -0.2520     1.9190 O.2   1 <1>  -0.5700 
  2 C        2.1720    -0.7420     1.4800 C.2   1 <1>   0.5690 
  3 N        1.3970    -0.1320     0.5310 N.am  1 <1>  -0.4930 
  4 C        1.7700    -2.1270     1.9980 C.3   1 <1>   0.2370 
  5 C        1.6040     1.0810    -0.1660 C.2   1 <1>   0.0630 
  6 N        0.7220    -2.7100     1.1120 N.pl3 1 <1>   0.0480 
  7 C        1.3210    -2.0890     3.4710 C.3   1 <1>  -0.2400 
  8 C        0.9200     1.5100    -1.3050 C.2   1 <1>   0.1080 
  9 C        2.4780     2.0730     0.0950 C.2   1 <1>  -0.3020 
 10 C        0.8830    -3.1810    -0.1550 C.2   1 <1>   0.0060 
 11 C       -0.6150    -2.7000     1.3030 C.2   1 <1>  -0.3020 
 12 N        1.3290     2.6700    -1.7160 N.2   1 <1>  -0.7070 
 13 C       -0.1760     0.7420    -2.0130 C.3   1 <1>  -0.0590 
 14 N        2.2960     3.0180    -0.8490 N.pl3 1 <1>   0.3140 
 15 N       -0.2390    -3.4560    -0.7430 N.2   1 <1>  -0.5650 
 16 C        2.2520    -3.3600    -0.8250 C.3   1 <1>   0.1000 
 17 C       -1.1780    -3.1640     0.1700 C.2   1 <1>   0.0770 
 18 C        3.0270     4.2830    -0.9660 C.3   1 <1>   0.0160 
 19 C        2.1850    -3.1120    -2.3380 C.3   1 <1>  -0.2400 
 20 C        2.7840    -4.7690    -0.5450 C.3   1 <1>  -0.2400 
 21 H        0.5920    -0.6720     0.1980 H     1 <1>   0.3700 
 22 H        2.6360    -2.7590     1.9350 H     1 <1>   0.0800 
 23 H        0.5090    -1.3980     3.6060 H     1 <1>   0.0800 
 24 H        2.1410    -1.7600     4.0850 H     1 <1>   0.0800 
 25 H        1.0240    -3.0690     3.8000 H     1 <1>   0.0800 
 26 H        3.2020     2.1480     0.8850 H     1 <1>   0.1500 
 27 H       -1.0960    -2.3740     2.2060 H     1 <1>   0.1500 
 28 H        0.0280    -0.3120    -1.9950 H     1 <1>   0.0800 
 29 H       -0.2380     1.0640    -3.0360 H     1 <1>   0.0800 
 30 H       -1.1170     0.9320    -1.5320 H     1 <1>   0.0800 
 31 H        2.9490    -2.6470    -0.4230 H     1 <1>   0.0800 
 32 H       -2.2250    -3.3030    -0.0430 H     1 <1>   0.1500 
 33 H        4.0800     4.0930    -0.8750 H     1 <1>   0.0800 
 34 H        2.7040     4.9470    -0.1870 H     1 <1>   0.0800 
 35 H        2.8190     4.7210    -1.9250 H     1 <1>   0.0800 
 36 H        1.5270    -3.8230    -2.8060 H     1 <1>   0.0800 
 37 H        3.1610    -3.2010    -2.7780 H     1 <1>   0.0800 
 38 H        1.8100    -2.1230    -2.5310 H     1 <1>   0.0800 
 39 H        2.1100    -5.5020    -0.9510 H     1 <1>   0.0800 
 40 H        2.8690    -4.9340     0.5130 H     1 <1>   0.0800 
 41 H        3.7520    -4.9020    -0.9940 H     1 <1>   0.0800 
@<TRIPOS>BOND
  1   1   2  2   
  2   2   3  am  
  3   2   4  1   
  4   3   5  1   
  5   3  21  1   
  6   4   6  1   
  7   4   7  1   
  8   4  22  1   
  9   5   8  1   
 10   5   9  2   
 11   6  10  1   
 12   6  11  1   
 13   7  23  1   
 14   7  24  1   
 15   7  25  1   
 16   8  12  2   
 17   8  13  1   
 18   9  14  1   
 19   9  26  1   
 20  10  15  2   
 21  10  16  1   
 22  11  17  2   
 23  11  27  1   
 24  12  14  1   
 25  13  28  1   
 26  13  29  1   
 27  13  30  1   
 28  14  18  1   
 29  15  17  1   
 30  16  19  1   
 31  16  20  1   
 32  16  31  1   
 33  17  32  1   
 34  18  33  1   
 35  18  34  1   
 36  18  35  1   
 37  19  36  1   
 38  19  37  1   
 39  19  38  1   
 40  20  39  1   
 41  20  40  1   
 42  20  41  1   
@<TRIPOS>SUBSTRUCTURE
  1 ****   3 GROUP 4 **** **** 0

# MOE 2024.06 (io_trps.svl 2023.06)
