@<TRIPOS>MOLECULE
NONAME
44 45 1 0 0 
SMALL
USER_CHARGES


@<TRIPOS>ATOM
  1 S       -0.2660     0.0830    -0.1150 S.o2  1 <1>   1.3330 
  2 O       -0.2620    -0.5670     1.1760 O.2   1 <1>  -0.6500 
  3 O       -0.9270     1.3580    -0.2690 O.2   1 <1>  -0.6500 
  4 N       -0.9300    -1.0030    -1.2390 N.am  1 <1>  -0.8490 
  5 C        1.4190     0.2670    -0.7030 C.3   1 <1>  -0.0550 
  6 C       -2.3670    -0.7900    -1.4370 C.3   1 <1>   0.1160 
  7 C       -0.6740    -2.4100    -0.9130 C.3   1 <1>   0.1160 
  8 C        2.2430     1.2960     0.0970 C.3   1 <1>  -0.0800 
  9 C        3.5810     1.5620    -0.5720 C.3   1 <1>   0.2200 
 10 C        2.6580     0.7630     1.4770 C.3   1 <1>   0.1200 
 11 N        4.0540     2.9080    -0.1820 N.am  1 <1>  -0.7300 
 12 C        4.4670     0.5110     0.0790 C.3   1 <1>   0.1200 
 13 O        4.0030     0.3910     1.3880 O.3   1 <1>  -0.5600 
 14 C        4.3650     3.9190    -1.0440 C.2   1 <1>   0.5440 
 15 O        4.2500     3.7170    -2.2370 O.2   1 <1>  -0.5700 
 16 C        4.8440     5.1980    -0.5470 C.ar  1 <1>   0.0860 
 17 C        5.6910     5.9930    -1.3190 C.ar  1 <1>  -0.1500 
 18 C        4.4830     5.6810     0.7110 C.ar  1 <1>  -0.1500 
 19 C        6.1780     7.2160    -0.8700 C.ar  1 <1>  -0.1440 
 20 C        4.9570     6.8910     1.1790 C.ar  1 <1>  -0.1500 
 21 C        5.8030     7.6540     0.3950 C.ar  1 <1>  -0.1500 
 22 C        7.1180     8.0590    -1.7470 C.3   1 <1>   1.1630 
 23 F        8.3930     7.7610    -1.5320 F     1 <1>  -0.3400 
 24 F        6.9090     7.8870    -3.0470 F     1 <1>  -0.3400 
 25 F        6.9980     9.3630    -1.5230 F     1 <1>  -0.3400 
 26 H        1.9120    -0.6850    -0.6830 H     1 <1>   0.0800 
 27 H        1.3750     0.5910    -1.7250 H     1 <1>   0.0800 
 28 H       -2.7500    -1.4830    -2.1660 H     1 <1>   0.0800 
 29 H       -2.5460     0.2090    -1.7990 H     1 <1>   0.0800 
 30 H       -2.8960    -0.9210    -0.5080 H     1 <1>   0.0800 
 31 H       -1.0340    -3.0440    -1.7050 H     1 <1>   0.0800 
 32 H       -1.1700    -2.6800     0.0060 H     1 <1>   0.0800 
 33 H        0.3830    -2.5790    -0.7960 H     1 <1>   0.0800 
 34 H        1.6680     2.2030     0.1850 H     1 <1>   0.0800 
 35 H        3.5510     1.4630    -1.6440 H     1 <1>   0.0800 
 36 H        2.0900    -0.0950     1.7930 H     1 <1>   0.0800 
 37 H        2.5810     1.5320     2.2260 H     1 <1>   0.0800 
 38 H        4.2930     2.9900     0.8080 H     1 <1>   0.3700 
 39 H        5.5070     0.7890     0.0850 H     1 <1>   0.0800 
 40 H        4.3470    -0.4440    -0.4020 H     1 <1>   0.0800 
 41 H        5.9690     5.6300    -2.2960 H     1 <1>   0.1500 
 42 H        3.8160     5.1080     1.3310 H     1 <1>   0.1500 
 43 H        4.6670     7.2440     2.1550 H     1 <1>   0.1500 
 44 H        6.1640     8.5940     0.7790 H     1 <1>   0.1500 
@<TRIPOS>BOND
  1   1   2  2   
  2   1   3  2   
  3   1   4  am  
  4   1   5  1   
  5   4   6  1   
  6   4   7  1   
  7   5   8  1   
  8   5  26  1   
  9   5  27  1   
 10   6  28  1   
 11   6  29  1   
 12   6  30  1   
 13   7  31  1   
 14   7  32  1   
 15   7  33  1   
 16   8   9  1   
 17   8  10  1   
 18   8  34  1   
 19   9  11  1   
 20   9  12  1   
 21   9  35  1   
 22  10  13  1   
 23  10  36  1   
 24  10  37  1   
 25  11  14  am  
 26  11  38  1   
 27  12  13  1   
 28  12  39  1   
 29  12  40  1   
 30  14  15  2   
 31  14  16  1   
 32  16  17  ar  
 33  16  18  ar  
 34  17  19  ar  
 35  17  41  1   
 36  18  20  ar  
 37  18  42  1   
 38  19  21  ar  
 39  19  22  1   
 40  20  21  ar  
 41  20  43  1   
 42  21  44  1   
 43  22  23  1   
 44  22  24  1   
 45  22  25  1   
@<TRIPOS>SUBSTRUCTURE
  1 ****  11 GROUP 4 **** **** 0

# MOE 2024.06 (io_trps.svl 2023.06)
