@<TRIPOS>MOLECULE
NONAME
51 54 1 0 0 
SMALL
USER_CHARGES


@<TRIPOS>ATOM
  1 O       -0.1950     0.2250     0.7790 O.2   1 <1>  -0.5700 
  2 C       -1.1590     0.8380     0.3850 C.2   1 <1>   0.5690 
  3 N       -2.2440     0.2020    -0.1480 N.am  1 <1>  -0.6600 
  4 C       -1.1520     2.3490     0.5080 C.3   1 <1>  -0.0990 
  5 C       -3.5200     0.8300    -0.5720 C.3   1 <1>   0.1400 
  6 C       -2.3230    -1.2730    -0.2780 C.3   1 <1>   0.1400 
  7 C        0.2740     2.9130     0.5360 C.3   1 <1>   0.0960 
  8 C       -4.4440    -0.3350    -0.9360 C.3   1 <1>   0.2000 
  9 C       -3.8200    -1.5810    -0.3100 C.3   1 <1>  -0.0800 
 10 N        0.2450     4.3820     0.6550 N.pl3 1 <1>   0.3140 
 11 O       -5.7220    -0.1450    -0.4330 O.3   1 <1>  -0.6800 
 12 C       -4.1750    -2.8690    -1.0720 C.3   1 <1>  -0.0160 
 13 N       -0.3040     5.1630    -0.2940 N.2   1 <1>  -0.7070 
 14 C        0.7210     5.1190     1.6770 C.2   1 <1>  -0.3020 
 15 C       -3.5150    -4.0840    -0.4430 C.ar  1 <1>   0.1670 
 16 C       -0.1610     6.3730     0.1450 C.2   1 <1>   0.1080 
 17 C        0.4760     6.4110     1.3800 C.2   1 <1>  -0.1500 
 18 N       -2.3270    -4.4000    -0.8580 N.ar  1 <1>  -0.6200 
 19 C       -4.2060    -4.7940     0.5510 C.ar  1 <1>  -0.1500 
 20 C       -0.6450     7.5770    -0.6270 C.3   1 <1>  -0.0590 
 21 C       -1.7240    -5.4760    -0.2910 C.ar  1 <1>   0.3100 
 22 C       -3.6270    -5.8780     1.1360 C.ar  1 <1>  -0.1500 
 23 C       -2.3390    -6.2510     0.7170 C.ar  1 <1>   0.0000 
 24 C       -0.4360    -5.8360    -0.7180 C.ar  1 <1>  -0.1500 
 25 C       -1.6430    -7.3520     1.2550 C.ar  1 <1>  -0.1500 
 26 C        0.2240    -6.9100    -0.1820 C.ar  1 <1>  -0.1500 
 27 C       -0.3870    -7.6760     0.8160 C.ar  1 <1>  -0.1500 
 28 H       -1.6700     2.7780    -0.3290 H     1 <1>   0.0800 
 29 H       -1.6640     2.6180     1.4130 H     1 <1>   0.0800 
 30 H       -3.9260     1.4080     0.2400 H     1 <1>   0.0800 
 31 H       -3.3560     1.4580    -1.4300 H     1 <1>   0.0800 
 32 H       -1.8490    -1.5700    -1.1980 H     1 <1>   0.0800 
 33 H       -1.8340    -1.7670     0.5450 H     1 <1>   0.0800 
 34 H        0.7890     2.6580    -0.3720 H     1 <1>   0.0800 
 35 H        0.8210     2.5090     1.3680 H     1 <1>   0.0800 
 36 H       -4.5110    -0.4240    -2.0070 H     1 <1>   0.0800 
 37 H       -4.1430    -1.6730     0.7130 H     1 <1>   0.0800 
 38 H       -5.6970    -0.0870     0.5420 H     1 <1>   0.4000 
 39 H       -3.8530    -2.7890    -2.0960 H     1 <1>   0.0800 
 40 H       -5.2420    -3.0010    -1.0780 H     1 <1>   0.0800 
 41 H        1.1980     4.6920     2.5400 H     1 <1>   0.1500 
 42 H        0.7090     7.2920     1.9500 H     1 <1>   0.1500 
 43 H       -5.1890    -4.4710     0.8420 H     1 <1>   0.1500 
 44 H       -0.4390     8.4800    -0.0840 H     1 <1>   0.0800 
 45 H       -1.7030     7.4950    -0.7910 H     1 <1>   0.0800 
 46 H       -0.1470     7.6140    -1.5780 H     1 <1>   0.0800 
 47 H       -4.1240    -6.4470     1.9010 H     1 <1>   0.1500 
 48 H        0.0170    -5.2350    -1.4840 H     1 <1>   0.1500 
 49 H       -2.1180    -7.9360     2.0220 H     1 <1>   0.1500 
 50 H        1.2120    -7.1740    -0.5180 H     1 <1>   0.1500 
 51 H        0.1430    -8.5170     1.2290 H     1 <1>   0.1500 
@<TRIPOS>BOND
  1   1   2  2   
  2   2   3  am  
  3   2   4  1   
  4   3   5  1   
  5   3   6  1   
  6   4   7  1   
  7   4  28  1   
  8   4  29  1   
  9   5   8  1   
 10   5  30  1   
 11   5  31  1   
 12   6   9  1   
 13   6  32  1   
 14   6  33  1   
 15   7  10  1   
 16   7  34  1   
 17   7  35  1   
 18   8   9  1   
 19   8  11  1   
 20   8  36  1   
 21   9  12  1   
 22   9  37  1   
 23  10  13  1   
 24  10  14  1   
 25  11  38  1   
 26  12  15  1   
 27  12  39  1   
 28  12  40  1   
 29  13  16  2   
 30  14  17  2   
 31  14  41  1   
 32  15  18  ar  
 33  15  19  ar  
 34  16  17  1   
 35  16  20  1   
 36  17  42  1   
 37  18  21  ar  
 38  19  22  ar  
 39  19  43  1   
 40  20  44  1   
 41  20  45  1   
 42  20  46  1   
 43  21  23  ar  
 44  21  24  ar  
 45  22  23  ar  
 46  22  47  1   
 47  23  25  ar  
 48  24  26  ar  
 49  24  48  1   
 50  25  27  ar  
 51  25  49  1   
 52  26  27  ar  
 53  26  50  1   
 54  27  51  1   
@<TRIPOS>SUBSTRUCTURE
  1 ****   6 GROUP 4 **** **** 0

# MOE 2024.06 (io_trps.svl 2023.06)
