@<TRIPOS>MOLECULE
NONAME
47 49 1 0 0 
SMALL
USER_CHARGES


@<TRIPOS>ATOM
  1 F       -0.6020    -0.4010    -0.1270 F     1 <1>  -0.1900 
  2 C       -1.7580    -0.9330     0.1540 C.ar  1 <1>   0.1900 
  3 C       -2.1750    -2.0420    -0.5560 C.ar  1 <1>  -0.1500 
  4 C       -2.5270    -0.3700     1.1530 C.ar  1 <1>  -0.1500 
  5 C       -3.4050    -2.6100    -0.2620 C.ar  1 <1>  -0.1440 
  6 C       -3.7520    -0.9430     1.4400 C.ar  1 <1>  -0.1500 
  7 C       -4.2160    -2.0630     0.7450 C.ar  1 <1>   0.0860 
  8 C       -3.8660    -3.8350    -1.0420 C.3   1 <1>  -0.0960 
  9 C       -5.5170    -2.6150     1.0740 C.2   1 <1>   0.5440 
 10 O       -5.5910    -3.6760     1.6650 O.2   1 <1>  -0.5700 
 11 N       -6.6780    -1.9560     0.7280 N.am  1 <1>  -0.6600 
 12 C       -6.6810    -0.7660    -0.1730 C.3   1 <1>   0.1400 
 13 C       -8.0030    -2.4490     1.2070 C.3   1 <1>   0.1400 
 14 C       -7.9950    -0.7150    -0.9510 C.3   1 <1>  -0.1600 
 15 C       -8.9980    -1.2910     1.3200 C.3   1 <1>  -0.1600 
 16 C       -9.2010    -0.5180    -0.0080 C.3   1 <1>   0.2800 
 17 O       -9.2490     0.8380     0.3680 O.3   1 <1>  -0.5600 
 18 C      -10.5230    -0.9310    -0.7050 C.3   1 <1>  -0.1600 
 19 C       -9.8480     1.7500    -0.5100 C.3   1 <1>   0.1200 
 20 C      -11.6950    -0.0130    -0.3450 C.3   1 <1>   0.2800 
 21 C      -11.3410     1.4340    -0.6990 C.3   1 <1>  -0.1600 
 22 O      -11.8710    -0.0600     1.0130 O.3   1 <1>  -0.6800 
 23 C      -13.0110    -0.4610    -0.9750 C.3   1 <1>  -0.2400 
 24 H       -1.5380    -2.4460    -1.3220 H     1 <1>   0.1500 
 25 H       -2.1690     0.4910     1.6880 H     1 <1>   0.1500 
 26 H       -4.3690    -0.5250     2.2170 H     1 <1>   0.1500 
 27 H       -3.1650    -4.0900    -1.8160 H     1 <1>   0.0800 
 28 H       -4.8230    -3.6490    -1.4960 H     1 <1>   0.0800 
 29 H       -3.9590    -4.6770    -0.3770 H     1 <1>   0.0800 
 30 H       -5.8590    -0.8240    -0.8650 H     1 <1>   0.0800 
 31 H       -6.5720     0.1290     0.4170 H     1 <1>   0.0800 
 32 H       -7.8890    -2.9170     2.1700 H     1 <1>   0.0800 
 33 H       -8.3710    -3.1890     0.5180 H     1 <1>   0.0800 
 34 H       -8.0950    -1.6440    -1.4850 H     1 <1>   0.0800 
 35 H       -7.9500     0.0650    -1.6860 H     1 <1>   0.0800 
 36 H       -8.6230    -0.6240     2.0770 H     1 <1>   0.0800 
 37 H       -9.9300    -1.6840     1.6790 H     1 <1>   0.0800 
 38 H      -10.7660    -1.9530    -0.4800 H     1 <1>   0.0800 
 39 H      -10.3890    -0.8840    -1.7700 H     1 <1>   0.0800 
 40 H       -9.3310     1.7130    -1.4520 H     1 <1>   0.0800 
 41 H       -9.7250     2.7350    -0.0940 H     1 <1>   0.0800 
 42 H      -11.5790     1.6190    -1.7300 H     1 <1>   0.0800 
 43 H      -11.9400     2.1130    -0.1180 H     1 <1>   0.0800 
 44 H      -11.0510     0.3000     1.4130 H     1 <1>   0.4000 
 45 H      -12.9340    -0.4530    -2.0460 H     1 <1>   0.0800 
 46 H      -13.8060     0.2010    -0.6840 H     1 <1>   0.0800 
 47 H      -13.2520    -1.4600    -0.6570 H     1 <1>   0.0800 
@<TRIPOS>BOND
  1   1   2  1   
  2   2   3  ar  
  3   2   4  ar  
  4   3   5  ar  
  5   3  24  1   
  6   4   6  ar  
  7   4  25  1   
  8   5   7  ar  
  9   5   8  1   
 10   6   7  ar  
 11   6  26  1   
 12   7   9  1   
 13   8  27  1   
 14   8  28  1   
 15   8  29  1   
 16   9  10  2   
 17   9  11  am  
 18  11  12  1   
 19  11  13  1   
 20  12  14  1   
 21  12  30  1   
 22  12  31  1   
 23  13  15  1   
 24  13  32  1   
 25  13  33  1   
 26  14  16  1   
 27  14  34  1   
 28  14  35  1   
 29  15  16  1   
 30  15  36  1   
 31  15  37  1   
 32  16  17  1   
 33  16  18  1   
 34  17  19  1   
 35  18  20  1   
 36  18  38  1   
 37  18  39  1   
 38  19  21  1   
 39  19  40  1   
 40  19  41  1   
 41  20  21  1   
 42  20  22  1   
 43  20  23  1   
 44  21  42  1   
 45  21  43  1   
 46  22  44  1   
 47  23  45  1   
 48  23  46  1   
 49  23  47  1   
@<TRIPOS>SUBSTRUCTURE
  1 ****  12 GROUP 4 **** **** 0

# MOE 2024.06 (io_trps.svl 2023.06)
