@<TRIPOS>MOLECULE
NONAME
48 50 1 0 0 
SMALL
USER_CHARGES


@<TRIPOS>ATOM
  1 F       -1.3550    -0.3280    -0.0310 F     1 <1>  -0.1900 
  2 C       -1.6050    -1.5980     0.1660 C.ar  1 <1>   0.1900 
  3 C       -0.7430    -2.6030    -0.2890 C.ar  1 <1>   0.0820 
  4 C       -2.7650    -1.8980     0.8520 C.ar  1 <1>  -0.1500 
  5 O        0.4240    -2.4350    -0.9760 O.3   1 <1>  -0.3630 
  6 C       -1.0940    -3.9170    -0.0260 C.ar  1 <1>  -0.1500 
  7 C       -3.0830    -3.2210     1.0970 C.ar  1 <1>  -0.1500 
  8 C        0.8950    -1.1740    -1.3950 C.3   1 <1>   0.0400 
  9 C       -2.2600    -4.2620     0.6630 C.ar  1 <1>   0.0530 
 10 C       -2.5860    -5.6470     0.9150 C.2   1 <1>   0.0870 
 11 O       -1.6320    -6.5530     0.9130 O.3   1 <1>  -0.0190 
 12 C       -3.7470    -6.3100     1.1610 C.2   1 <1>  -0.2330 
 13 N       -2.0740    -7.7630     1.1420 N.2   1 <1>  -0.4100 
 14 C       -3.3360    -7.6290     1.3160 C.2   1 <1>   0.3720 
 15 C       -5.1190    -5.9160     1.1610 C.2   1 <1>   1.0330 
 16 N       -4.2010    -8.6730     1.5920 N.pl3 1 <1>  -0.8520 
 17 O       -5.5150    -5.0050     0.4230 O.co2 1 <1>  -0.9000 
 18 O       -5.9880    -6.6190     1.7130 O.co2 1 <1>  -0.9000 
 19 C       -4.6900    -9.3860     0.3880 C.3   1 <1>   0.2890 
 20 C       -6.2400    -9.2510     0.2560 C.3   1 <1>   0.4230 
 21 C       -4.4060   -10.8760     0.5700 C.3   1 <1>  -0.1600 
 22 N       -6.7470    -8.6940    -1.0540 N.4   1 <1>  -0.9590 
 23 C       -6.8000   -10.6650     0.4830 C.3   1 <1>  -0.1600 
 24 C       -5.6840   -11.4550     1.1650 C.3   1 <1>  -0.1600 
 25 C       -6.1970    -7.3250    -1.3170 C.3   1 <1>   0.2630 
 26 C       -8.2340    -8.5590    -1.0160 C.3   1 <1>   0.2630 
 27 H       -3.4130    -1.1090     1.1870 H     1 <1>   0.1500 
 28 H       -0.4380    -4.6950    -0.3720 H     1 <1>   0.1500 
 29 H       -3.9890    -3.4460     1.6310 H     1 <1>   0.1500 
 30 H        1.8050    -1.3240    -1.9470 H     1 <1>   0.0800 
 31 H        1.0920    -0.5680    -0.5280 H     1 <1>   0.0800 
 32 H        0.1560    -0.7160    -2.0280 H     1 <1>   0.0800 
 33 H       -5.0170    -8.2110     2.0440 H     1 <1>   0.4000 
 34 H       -4.1790    -9.0230    -0.4880 H     1 <1>   0.0800 
 35 H       -6.5830    -8.6210     1.0590 H     1 <1>   0.0800 
 36 H       -4.2300   -11.3200    -0.3940 H     1 <1>   0.0800 
 37 H       -3.5450   -11.0500     1.1930 H     1 <1>   0.0800 
 38 H       -6.4600    -9.3260    -1.8100 H     1 <1>   0.4500 
 39 H       -7.6800   -10.6410     1.1020 H     1 <1>   0.0800 
 40 H       -7.0270   -11.1400    -0.4540 H     1 <1>   0.0800 
 41 H       -5.6970   -11.2640     2.2270 H     1 <1>   0.0800 
 42 H       -5.7670   -12.5160     0.9980 H     1 <1>   0.0800 
 43 H       -6.6360    -6.6180    -0.6300 H     1 <1>   0.0800 
 44 H       -6.4330    -7.0050    -2.3170 H     1 <1>   0.0800 
 45 H       -5.1270    -7.3000    -1.1900 H     1 <1>   0.0800 
 46 H       -8.5200    -7.9040    -0.2070 H     1 <1>   0.0800 
 47 H       -8.7000    -9.5190    -0.8650 H     1 <1>   0.0800 
 48 H       -8.5960    -8.1400    -1.9400 H     1 <1>   0.0800 
@<TRIPOS>BOND
  1   1   2  1   
  2   2   3  ar  
  3   2   4  ar  
  4   3   5  1   
  5   3   6  ar  
  6   4   7  ar  
  7   4  27  1   
  8   5   8  1   
  9   6   9  ar  
 10   6  28  1   
 11   7   9  ar  
 12   7  29  1   
 13   8  30  1   
 14   8  31  1   
 15   8  32  1   
 16   9  10  1   
 17  10  11  1   
 18  10  12  2   
 19  11  13  1   
 20  12  14  1   
 21  12  15  1   
 22  13  14  2   
 23  14  16  1   
 24  15  17  ar  
 25  15  18  ar  
 26  16  19  1   
 27  16  33  1   
 28  19  20  1   
 29  19  21  1   
 30  19  34  1   
 31  20  22  1   
 32  20  23  1   
 33  20  35  1   
 34  21  24  1   
 35  21  36  1   
 36  21  37  1   
 37  22  25  1   
 38  22  26  1   
 39  22  38  1   
 40  23  24  1   
 41  23  39  1   
 42  23  40  1   
 43  24  41  1   
 44  24  42  1   
 45  25  43  1   
 46  25  44  1   
 47  25  45  1   
 48  26  46  1   
 49  26  47  1   
 50  26  48  1   
@<TRIPOS>SUBSTRUCTURE
  1 ****  12 GROUP 4 **** **** 0

# MOE 2024.06 (io_trps.svl 2023.06)
