@<TRIPOS>MOLECULE
NONAME
53 56 1 0 0 
SMALL
USER_CHARGES


@<TRIPOS>ATOM
  1 O        3.5480    -1.4690    -0.0230 O.2   1 <1>  -0.5700 
  2 C        2.4390    -1.3700     0.4590 C.2   1 <1>   0.5690 
  3 N        1.7640    -0.1780     0.5210 N.am  1 <1>  -0.4940 
  4 C        1.7280    -2.6160     1.0430 C.3   1 <1>   0.2810 
  5 C        1.9950     1.1270     0.0130 C.2   1 <1>  -0.0880 
  6 N        0.4640    -2.9380     0.3140 N.am  1 <1>  -0.6600 
  7 C        2.5260    -3.9220     0.9380 C.3   1 <1>  -0.1600 
  8 N        3.1680     1.7790    -0.2430 N.pl3 1 <1>   0.3140 
  9 C        1.0090     1.9940    -0.3140 C.2   1 <1>  -0.1500 
 10 C       -0.7000    -2.2540     0.5090 C.2   1 <1>   0.6300 
 11 C        0.6200    -4.1460    -0.5280 C.3   1 <1>   0.1400 
 12 C        2.0870    -4.5380    -0.3880 C.3   1 <1>  -0.1600 
 13 N        2.9400     3.0210    -0.7410 N.2   1 <1>  -0.7070 
 14 C        4.5610     1.3070    -0.0380 C.3   1 <1>   0.1760 
 15 C        1.6500     3.1340    -0.7730 C.2   1 <1>   0.1390 
 16 O       -0.7320    -1.2690     1.2110 O.2   1 <1>  -0.5700 
 17 C       -1.9770    -2.7100    -0.1860 C.3   1 <1>  -0.1000 
 18 C        5.4600     2.3930     0.5770 C.3   1 <1>  -0.1600 
 19 C        5.1470     0.8390    -1.3770 C.3   1 <1>  -0.1600 
 20 C       -3.3110    -2.6180     0.4990 C.3   1 <1>  -0.2000 
 21 C       -2.6950    -3.9580     0.2470 C.3   1 <1>  -0.2000 
 22 C        6.8880     1.8770     0.7290 C.3   1 <1>   0.3430 
 23 C        6.5660     0.3270    -1.1800 C.3   1 <1>   0.3430 
 24 N        7.4040     1.4150    -0.5940 N.4   1 <1>  -0.9590 
 25 C        8.8330     0.9890    -0.4940 C.3   1 <1>   0.2630 
 26 H        0.7980    -0.3090     0.8670 H     1 <1>   0.3700 
 27 H        1.5060    -2.4160     2.0770 H     1 <1>   0.0800 
 28 H        3.5900    -3.7740     0.9920 H     1 <1>   0.0800 
 29 H        2.2340    -4.5680     1.7480 H     1 <1>   0.0800 
 30 H       -0.0550     1.8510    -0.2460 H     1 <1>   0.1500 
 31 H       -0.0130    -4.9310    -0.1480 H     1 <1>   0.0800 
 32 H        0.3660    -3.9370    -1.5540 H     1 <1>   0.0800 
 33 H        2.2210    -5.6060    -0.4090 H     1 <1>   0.0800 
 34 H        2.6470    -4.1010    -1.1970 H     1 <1>   0.0800 
 35 H        4.5320     0.4960     0.6620 H     1 <1>   0.0800 
 36 H        1.1400     4.0190    -1.1210 H     1 <1>   0.1500 
 37 H       -1.9580    -2.4760    -1.2350 H     1 <1>   0.1000 
 38 H        5.4680     3.2750    -0.0390 H     1 <1>   0.0800 
 39 H        5.0770     2.6660     1.5440 H     1 <1>   0.0800 
 40 H        4.5440     0.0470    -1.7830 H     1 <1>   0.0800 
 41 H        5.1460     1.6480    -2.0880 H     1 <1>   0.0800 
 42 H       -3.3420    -2.2390     1.5070 H     1 <1>   0.1000 
 43 H       -4.1670    -2.3180    -0.0790 H     1 <1>   0.1000 
 44 H       -3.1330    -4.5930    -0.5030 H     1 <1>   0.1000 
 45 H       -2.3240    -4.5110     1.0920 H     1 <1>   0.1000 
 46 H        6.9030     1.0590     1.4320 H     1 <1>   0.0800 
 47 H        7.5140     2.6670     1.1150 H     1 <1>   0.0800 
 48 H        6.9700     0.0160    -2.1310 H     1 <1>   0.0800 
 49 H        6.5510    -0.5280    -0.5210 H     1 <1>   0.0800 
 50 H        7.3450     2.2180    -1.2390 H     1 <1>   0.4500 
 51 H        8.9270     0.1460     0.1710 H     1 <1>   0.0800 
 52 H        9.4390     1.7970    -0.1160 H     1 <1>   0.0800 
 53 H        9.2080     0.7060    -1.4640 H     1 <1>   0.0800 
@<TRIPOS>BOND
  1   1   2  2   
  2   2   3  am  
  3   2   4  1   
  4   3   5  1   
  5   3  26  1   
  6   4   6  1   
  7   4   7  1   
  8   4  27  1   
  9   5   8  1   
 10   5   9  2   
 11   6  10  am  
 12   6  11  1   
 13   7  12  1   
 14   7  28  1   
 15   7  29  1   
 16   8  13  1   
 17   8  14  1   
 18   9  15  1   
 19   9  30  1   
 20  10  16  2   
 21  10  17  1   
 22  11  12  1   
 23  11  31  1   
 24  11  32  1   
 25  12  33  1   
 26  12  34  1   
 27  13  15  2   
 28  14  18  1   
 29  14  19  1   
 30  14  35  1   
 31  15  36  1   
 32  17  20  1   
 33  17  21  1   
 34  17  37  1   
 35  18  22  1   
 36  18  38  1   
 37  18  39  1   
 38  19  23  1   
 39  19  40  1   
 40  19  41  1   
 41  20  21  1   
 42  20  42  1   
 43  20  43  1   
 44  21  44  1   
 45  21  45  1   
 46  22  24  1   
 47  22  46  1   
 48  22  47  1   
 49  23  24  1   
 50  23  48  1   
 51  23  49  1   
 52  24  25  1   
 53  24  50  1   
 54  25  51  1   
 55  25  52  1   
 56  25  53  1   
@<TRIPOS>SUBSTRUCTURE
  1 ****   2 GROUP 4 **** **** 0

# MOE 2024.06 (io_trps.svl 2023.06)
