@<TRIPOS>MOLECULE
NONAME
48 50 1 0 0 
SMALL
USER_CHARGES


@<TRIPOS>ATOM
  1 O       -0.5270    -0.1210    -0.0510 O.2   1 <1>  -0.5700 
  2 C       -1.4790     0.6090     0.1470 C.2   1 <1>   0.5440 
  3 N       -2.7320     0.0580     0.2970 N.am  1 <1>  -0.6600 
  4 C       -1.2560     2.0270     0.2110 C.ar  1 <1>   0.0860 
  5 C       -3.0360    -1.3500    -0.1080 C.3   1 <1>   0.1400 
  6 C       -3.8680     0.7160     1.0050 C.3   1 <1>   0.1400 
  7 C       -2.0410     2.9430    -0.4660 C.ar  1 <1>   0.1600 
  8 C       -0.2200     2.5730     0.9450 C.ar  1 <1>   0.1600 
  9 C       -4.2650    -1.3530    -1.0300 C.3   1 <1>   0.2000 
 10 C       -5.1110     0.7110     0.1030 C.3   1 <1>  -0.1600 
 11 N       -1.8500     4.2390    -0.4090 N.ar  1 <1>  -0.6200 
 12 N        0.0020     3.8630     1.0280 N.ar  1 <1>  -0.6200 
 13 O       -4.5360    -2.6510    -1.4290 O.3   1 <1>  -0.6800 
 14 C       -5.5110    -0.7240    -0.3540 C.3   1 <1>  -0.1060 
 15 C       -0.8330     4.6380     0.3430 C.ar  1 <1>   0.7200 
 16 C       -5.9340    -1.6070     0.8380 C.2   1 <1>   0.9060 
 17 C       -6.6710    -0.6620    -1.3860 C.3   1 <1>  -0.0160 
 18 N       -0.6640     5.9750     0.3880 N.pl3 1 <1>  -0.8690 
 19 O       -6.1540    -1.1080     1.9470 O.co2 1 <1>  -0.9000 
 20 O       -6.0310    -2.8310     0.6630 O.co2 1 <1>  -0.9000 
 21 C       -7.7950     0.3130    -1.0440 C.ar  1 <1>  -0.1430 
 22 C        0.4040     6.7320     1.0870 C.3   1 <1>   0.1290 
 23 C       -7.9840     1.4600    -1.8010 C.ar  1 <1>  -0.1500 
 24 C       -8.6430     0.0640     0.0250 C.ar  1 <1>  -0.1500 
 25 C       -9.0050     2.3450    -1.4950 C.ar  1 <1>  -0.1500 
 26 C       -9.6620     0.9470     0.3340 C.ar  1 <1>  -0.1500 
 27 C       -9.8450     2.0880    -0.4260 C.ar  1 <1>  -0.1500 
 28 H       -2.2020    -1.7790    -0.6330 H     1 <1>   0.0800 
 29 H       -3.2330    -1.9380     0.7720 H     1 <1>   0.0800 
 30 H       -4.0720     0.1720     1.9130 H     1 <1>   0.0800 
 31 H       -3.6250     1.7240     1.2880 H     1 <1>   0.0800 
 32 H       -2.8510     2.5790    -1.0730 H     1 <1>   0.1500 
 33 H        0.4400     1.9080     1.4770 H     1 <1>   0.1500 
 34 H       -4.0110    -0.8060    -1.9210 H     1 <1>   0.0800 
 35 H       -5.9220     1.1500     0.6590 H     1 <1>   0.0800 
 36 H       -4.9320     1.3350    -0.7520 H     1 <1>   0.0800 
 37 H       -5.1060    -3.0440    -0.6970 H     1 <1>   0.4000 
 38 H       -6.2700    -0.3920    -2.3460 H     1 <1>   0.0800 
 39 H       -7.0950    -1.6460    -1.5010 H     1 <1>   0.0800 
 40 H       -1.3240     6.5010    -0.1840 H     1 <1>   0.4000 
 41 H        1.0240     6.0730     1.6710 H     1 <1>   0.0800 
 42 H       -0.0400     7.4600     1.7440 H     1 <1>   0.0800 
 43 H        1.0210     7.2370     0.3640 H     1 <1>   0.0800 
 44 H       -7.3350     1.6700    -2.6320 H     1 <1>   0.1500 
 45 H       -8.5050    -0.8190     0.6280 H     1 <1>   0.1500 
 46 H       -9.1450     3.2310    -2.0880 H     1 <1>   0.1500 
 47 H      -10.3060     0.7400     1.1700 H     1 <1>   0.1500 
 48 H      -10.6370     2.7740    -0.1840 H     1 <1>   0.1500 
@<TRIPOS>BOND
  1   1   2  2   
  2   2   3  am  
  3   2   4  1   
  4   3   5  1   
  5   3   6  1   
  6   4   7  ar  
  7   4   8  ar  
  8   5   9  1   
  9   5  28  1   
 10   5  29  1   
 11   6  10  1   
 12   6  30  1   
 13   6  31  1   
 14   7  11  ar  
 15   7  32  1   
 16   8  12  ar  
 17   8  33  1   
 18   9  13  1   
 19   9  14  1   
 20   9  34  1   
 21  10  14  1   
 22  10  35  1   
 23  10  36  1   
 24  11  15  ar  
 25  12  15  ar  
 26  13  37  1   
 27  14  16  1   
 28  14  17  1   
 29  15  18  1   
 30  16  19  ar  
 31  16  20  ar  
 32  17  21  1   
 33  17  38  1   
 34  17  39  1   
 35  18  22  1   
 36  18  40  1   
 37  21  23  ar  
 38  21  24  ar  
 39  22  41  1   
 40  22  42  1   
 41  22  43  1   
 42  23  25  ar  
 43  23  44  1   
 44  24  26  ar  
 45  24  45  1   
 46  25  27  ar  
 47  25  46  1   
 48  26  27  ar  
 49  26  47  1   
 50  27  48  1   
@<TRIPOS>SUBSTRUCTURE
  1 ****  10 GROUP 4 **** **** 0

# MOE 2024.06 (io_trps.svl 2023.06)
