@<TRIPOS>MOLECULE
NONAME
49 50 1 0 0 
SMALL
USER_CHARGES


@<TRIPOS>ATOM
  1 O        2.4510    -1.9160    -1.9690 O.2   1 <1>  -0.5700 
  2 C        2.2530    -1.7310    -0.7910 C.2   1 <1>   0.5690 
  3 N        2.1360    -0.4800    -0.2700 N.am  1 <1>  -0.7300 
  4 C        2.1350    -2.9490     0.1370 C.3   1 <1>   0.1710 
  5 C        2.2230     0.7790    -1.0470 C.3   1 <1>   0.1400 
  6 N        0.7540    -3.3720     0.5070 N.3   1 <1>  -0.8100 
  7 C        3.1970     1.7640    -0.3830 C.3   1 <1>  -0.0800 
  8 C       -0.0690    -3.6110    -0.7060 C.3   1 <1>   0.2900 
  9 C        0.0900    -2.4190     1.4090 C.3   1 <1>   0.0300 
 10 C        3.1730     3.1080    -1.1340 C.3   1 <1>  -0.1600 
 11 C        4.6330     1.2060    -0.3350 C.3   1 <1>  -0.1600 
 12 C       -1.4140    -4.2480    -0.3730 C.2   1 <1>   0.0070 
 13 C        4.1490     4.1180    -0.5160 C.3   1 <1>  -0.1600 
 14 C        5.6130     2.2160     0.2780 C.3   1 <1>  -0.1600 
 15 N       -2.5530    -3.6730    -0.6120 N.2   1 <1>  -0.5650 
 16 N       -1.5350    -5.4730     0.1980 N.pl3 1 <1>   0.0480 
 17 C        5.5740     3.5530    -0.4710 C.3   1 <1>  -0.1600 
 18 C       -3.4620    -4.5630    -0.1780 C.2   1 <1>   0.0770 
 19 C       -2.8620    -5.6650     0.3180 C.2   1 <1>  -0.3020 
 20 C       -0.4790    -6.4190     0.6200 C.3   1 <1>   0.0960 
 21 C       -0.0830    -7.3390    -0.5400 C.3   1 <1>  -0.2400 
 22 H        1.9340    -0.3700     0.7230 H     1 <1>   0.3700 
 23 H        2.6930    -2.7510     1.0330 H     1 <1>   0.0800 
 24 H        2.6180    -3.7750    -0.3550 H     1 <1>   0.0800 
 25 H        1.2410     1.2170    -1.1030 H     1 <1>   0.0800 
 26 H        2.5490     0.5660    -2.0520 H     1 <1>   0.0800 
 27 H        2.8600     1.9440     0.6240 H     1 <1>   0.0800 
 28 H        0.4610    -4.2610    -1.3800 H     1 <1>   0.0800 
 29 H       -0.2470    -2.6810    -1.2190 H     1 <1>   0.0800 
 30 H        0.7140    -2.2190     2.2630 H     1 <1>   0.0800 
 31 H       -0.8380    -2.8350     1.7640 H     1 <1>   0.0800 
 32 H       -0.1270    -1.4970     0.8970 H     1 <1>   0.0800 
 33 H        2.1790     3.5200    -1.1120 H     1 <1>   0.0800 
 34 H        3.4410     2.9480    -2.1650 H     1 <1>   0.0800 
 35 H        4.9550     0.9610    -1.3330 H     1 <1>   0.0800 
 36 H        4.6590     0.3000     0.2450 H     1 <1>   0.0800 
 37 H        3.8300     4.3600     0.4830 H     1 <1>   0.0800 
 38 H        4.1420     5.0270    -1.0940 H     1 <1>   0.0800 
 39 H        6.6120     1.8140     0.2440 H     1 <1>   0.0800 
 40 H        5.3590     2.3780     1.3110 H     1 <1>   0.0800 
 41 H        6.2270     4.2580     0.0140 H     1 <1>   0.0800 
 42 H        5.9320     3.4090    -1.4760 H     1 <1>   0.0800 
 43 H       -4.5170    -4.3610    -0.2480 H     1 <1>   0.1500 
 44 H       -3.2960    -6.5530     0.7380 H     1 <1>   0.1500 
 45 H       -0.8520    -7.0040     1.4410 H     1 <1>   0.0800 
 46 H        0.3750    -5.8660     0.9640 H     1 <1>   0.0800 
 47 H       -0.9360    -7.9020    -0.8760 H     1 <1>   0.0800 
 48 H        0.6760    -8.0270    -0.2150 H     1 <1>   0.0800 
 49 H        0.3080    -6.7620    -1.3590 H     1 <1>   0.0800 
@<TRIPOS>BOND
  1   1   2  2   
  2   2   3  am  
  3   2   4  1   
  4   3   5  1   
  5   3  22  1   
  6   4   6  1   
  7   4  23  1   
  8   4  24  1   
  9   5   7  1   
 10   5  25  1   
 11   5  26  1   
 12   6   8  1   
 13   6   9  1   
 14   7  10  1   
 15   7  11  1   
 16   7  27  1   
 17   8  12  1   
 18   8  28  1   
 19   8  29  1   
 20   9  30  1   
 21   9  31  1   
 22   9  32  1   
 23  10  13  1   
 24  10  33  1   
 25  10  34  1   
 26  11  14  1   
 27  11  35  1   
 28  11  36  1   
 29  12  15  2   
 30  12  16  1   
 31  13  17  1   
 32  13  37  1   
 33  13  38  1   
 34  14  17  1   
 35  14  39  1   
 36  14  40  1   
 37  15  18  1   
 38  16  19  1   
 39  16  20  1   
 40  17  41  1   
 41  17  42  1   
 42  18  19  2   
 43  18  43  1   
 44  19  44  1   
 45  20  21  1   
 46  20  45  1   
 47  20  46  1   
 48  21  47  1   
 49  21  48  1   
 50  21  49  1   
@<TRIPOS>SUBSTRUCTURE
  1 ****   2 GROUP 4 **** **** 0

# MOE 2024.06 (io_trps.svl 2023.06)
