@<TRIPOS>MOLECULE
NONAME
47 49 1 0 0 
SMALL
USER_CHARGES


@<TRIPOS>ATOM
  1 O       -1.1070     0.5400     2.3670 O.2   1 <1>  -0.5700 
  2 C       -1.5330     1.0710     1.3570 C.2   1 <1>   0.5440 
  3 N       -2.2540     0.2970     0.4780 N.am  1 <1>  -0.6600 
  4 C       -1.3290     2.4880     1.1480 C.ar  1 <1>   0.0860 
  5 C       -2.9660     0.7820    -0.7290 C.3   1 <1>   0.1400 
  6 C       -2.4500    -1.1610     0.6500 C.3   1 <1>   0.1400 
  7 C       -0.6160     3.0010     0.0540 C.ar  1 <1>   0.0830 
  8 C       -1.8530     3.3940     2.0690 C.ar  1 <1>  -0.1500 
  9 C       -3.9760    -0.3240    -1.0320 C.3   1 <1>   0.2000 
 10 C       -3.2580    -1.6010    -0.5780 C.3   1 <1>  -0.0800 
 11 O       -0.0790     2.1160    -0.8230 O.3   1 <1>  -0.3630 
 12 C       -0.4660     4.3760    -0.1080 C.ar  1 <1>  -0.1500 
 13 C       -1.7000     4.7560     1.9090 C.ar  1 <1>  -0.1500 
 14 O       -5.0930    -0.1140    -0.2370 O.3   1 <1>  -0.6800 
 15 C       -4.1810    -2.8070    -0.3200 C.3   1 <1>   0.0200 
 16 C        0.8860     2.4860    -1.7830 C.3   1 <1>   0.0400 
 17 C       -1.0100     5.2580     0.8180 C.ar  1 <1>   0.0830 
 18 C       -3.4200    -4.0890    -0.0210 C.2   1 <1>  -0.0400 
 19 O       -0.9100     6.6040     0.7310 O.3   1 <1>  -0.3630 
 20 O       -4.0970    -5.1540     0.3190 O.3   1 <1>  -0.0190 
 21 C       -2.1180    -4.4180    -0.0250 C.2   1 <1>  -0.1500 
 22 C       -0.2110     7.2380    -0.3170 C.3   1 <1>   0.0400 
 23 N       -3.3210    -6.1740     0.5450 N.2   1 <1>  -0.4100 
 24 C       -2.1220    -5.7600     0.3470 C.2   1 <1>   0.1080 
 25 C       -0.8880    -6.6200     0.4990 C.3   1 <1>  -0.0590 
 26 H       -3.4450     1.7320    -0.5640 H     1 <1>   0.0800 
 27 H       -2.2630     0.8660    -1.5390 H     1 <1>   0.0800 
 28 H       -1.4990    -1.6610     0.7080 H     1 <1>   0.0800 
 29 H       -2.9980    -1.3360     1.5610 H     1 <1>   0.0800 
 30 H       -2.3840     3.0120     2.9240 H     1 <1>   0.1500 
 31 H       -4.2860    -0.3460    -2.0620 H     1 <1>   0.0800 
 32 H       -2.5580    -1.8670    -1.3510 H     1 <1>   0.0800 
 33 H        0.0690     4.7620    -0.9500 H     1 <1>   0.1500 
 34 H       -2.1120     5.4420     2.6270 H     1 <1>   0.1500 
 35 H       -4.7920     0.0730     0.6760 H     1 <1>   0.4000 
 36 H       -4.7980    -2.9740    -1.1850 H     1 <1>   0.0800 
 37 H       -4.8340    -2.6000     0.5090 H     1 <1>   0.0800 
 38 H        1.2400     1.5910    -2.2620 H     1 <1>   0.0800 
 39 H        1.7030     2.9790    -1.2850 H     1 <1>   0.0800 
 40 H        0.4290     3.1320    -2.5100 H     1 <1>   0.0800 
 41 H       -1.2490    -3.8310    -0.2520 H     1 <1>   0.1500 
 42 H       -0.2680     8.3000    -0.1610 H     1 <1>   0.0800 
 43 H       -0.6750     6.9810    -1.2520 H     1 <1>   0.0800 
 44 H        0.8160     6.9200    -0.2930 H     1 <1>   0.0800 
 45 H       -0.2340    -6.1930     1.2370 H     1 <1>   0.0800 
 46 H       -0.3700    -6.6860    -0.4400 H     1 <1>   0.0800 
 47 H       -1.1670    -7.6100     0.8130 H     1 <1>   0.0800 
@<TRIPOS>BOND
  1   1   2  2   
  2   2   3  am  
  3   2   4  1   
  4   3   5  1   
  5   3   6  1   
  6   4   7  ar  
  7   4   8  ar  
  8   5   9  1   
  9   5  26  1   
 10   5  27  1   
 11   6  10  1   
 12   6  28  1   
 13   6  29  1   
 14   7  11  1   
 15   7  12  ar  
 16   8  13  ar  
 17   8  30  1   
 18   9  10  1   
 19   9  14  1   
 20   9  31  1   
 21  10  15  1   
 22  10  32  1   
 23  11  16  1   
 24  12  17  ar  
 25  12  33  1   
 26  13  17  ar  
 27  13  34  1   
 28  14  35  1   
 29  15  18  1   
 30  15  36  1   
 31  15  37  1   
 32  16  38  1   
 33  16  39  1   
 34  16  40  1   
 35  17  19  1   
 36  18  20  1   
 37  18  21  2   
 38  19  22  1   
 39  20  23  1   
 40  21  24  1   
 41  21  41  1   
 42  22  42  1   
 43  22  43  1   
 44  22  44  1   
 45  23  24  2   
 46  24  25  1   
 47  25  45  1   
 48  25  46  1   
 49  25  47  1   
@<TRIPOS>SUBSTRUCTURE
  1 ****   3 GROUP 4 **** **** 0

# MOE 2024.06 (io_trps.svl 2023.06)
