@<TRIPOS>MOLECULE
NONAME
52 54 1 0 0 
SMALL
USER_CHARGES


@<TRIPOS>ATOM
  1 O       -0.1870     1.5740    -0.4470 O.2   1 <1>  -0.5700 
  2 C       -1.3210     1.7330    -0.8580 C.2   1 <1>   0.5440 
  3 N       -1.5790     2.7930    -1.7070 N.am  1 <1>  -0.6600 
  4 C       -2.3620     0.8200    -0.4280 C.ar  1 <1>   0.0860 
  5 C       -2.9260     3.4000    -1.8790 C.3   1 <1>   0.1400 
  6 C       -0.4760     3.5690    -2.3370 C.3   1 <1>   0.1400 
  7 C       -2.5440     0.5300     0.9250 C.ar  1 <1>  -0.1500 
  8 C       -3.2110     0.1920    -1.3400 C.ar  1 <1>  -0.1500 
  9 C       -2.9250     4.8040    -1.2690 C.3   1 <1>  -0.1600 
 10 C       -0.4340     4.9700    -1.7250 C.3   1 <1>  -0.1600 
 11 C       -3.5390    -0.3290     1.3550 C.ar  1 <1>  -0.1500 
 12 C       -4.2090    -0.6670    -0.9190 C.ar  1 <1>  -0.1500 
 13 C       -1.7970     5.6800    -1.8510 C.3   1 <1>  -0.0190 
 14 C       -4.3850    -0.9330     0.4290 C.ar  1 <1>   0.0830 
 15 C       -1.7680     7.0630    -1.2080 C.2   1 <1>   0.5690 
 16 O       -5.3850    -1.7800     0.7620 O.3   1 <1>  -0.3630 
 17 O       -1.9270     8.0390    -1.9010 O.2   1 <1>  -0.5700 
 18 N       -1.5420     7.1680     0.1210 N.am  1 <1>  -0.7300 
 19 C       -5.6310    -2.1480     2.1010 C.3   1 <1>   0.0400 
 20 C       -1.4370     8.4300     0.8640 C.3   1 <1>   0.4000 
 21 C        0.0330     8.6830     1.1880 C.2   1 <1>   0.0060 
 22 C       -2.3130     8.3100     2.1100 C.3   1 <1>  -0.2400 
 23 N        0.6050     8.4410     2.3210 N.2   1 <1>  -0.3380 
 24 N        0.9050     9.1810     0.3010 N.pl3 1 <1>   0.0480 
 25 N        1.8880     8.7830     2.1980 N.2   1 <1>  -0.3380 
 26 C        2.0430     9.2150     0.9960 C.2   1 <1>   0.0360 
 27 C        0.7040     9.5820    -1.1060 C.3   1 <1>   0.0160 
 28 H       -3.6840     2.8070    -1.3970 H     1 <1>   0.0800 
 29 H       -3.1580     3.4520    -2.9300 H     1 <1>   0.0800 
 30 H       -0.6520     3.6310    -3.3970 H     1 <1>   0.0800 
 31 H        0.4710     3.0760    -2.1880 H     1 <1>   0.0800 
 32 H       -1.8850     0.9900     1.6410 H     1 <1>   0.1500 
 33 H       -3.0790     0.3810    -2.3910 H     1 <1>   0.1500 
 34 H       -2.8100     4.7110    -0.2030 H     1 <1>   0.0800 
 35 H       -3.8750     5.2720    -1.4560 H     1 <1>   0.0800 
 36 H        0.3230     5.5500    -2.2220 H     1 <1>   0.0800 
 37 H       -0.1500     4.8780    -0.6910 H     1 <1>   0.0800 
 38 H       -3.6400    -0.5180     2.4070 H     1 <1>   0.1500 
 39 H       -4.8580    -1.1440    -1.6310 H     1 <1>   0.1500 
 40 H       -1.9990     5.8210    -2.8990 H     1 <1>   0.0800 
 41 H       -1.2810     6.3460     0.6670 H     1 <1>   0.3700 
 42 H       -6.4590    -2.8340     2.1110 H     1 <1>   0.0800 
 43 H       -5.8790    -1.2670     2.6650 H     1 <1>   0.0800 
 44 H       -4.7540    -2.6270     2.4980 H     1 <1>   0.0800 
 45 H       -1.8120     9.2410     0.2630 H     1 <1>   0.0800 
 46 H       -1.9820     7.4960     2.7290 H     1 <1>   0.0800 
 47 H       -3.3390     8.1560     1.8290 H     1 <1>   0.0800 
 48 H       -2.2470     9.2170     2.6820 H     1 <1>   0.0800 
 49 H        2.9730     9.5630     0.5860 H     1 <1>   0.1500 
 50 H       -0.2260    10.1110    -1.2050 H     1 <1>   0.0800 
 51 H        0.6800     8.7030    -1.7250 H     1 <1>   0.0800 
 52 H        1.5100    10.2190    -1.4200 H     1 <1>   0.0800 
@<TRIPOS>BOND
  1   1   2  2   
  2   2   3  am  
  3   2   4  1   
  4   3   5  1   
  5   3   6  1   
  6   4   7  ar  
  7   4   8  ar  
  8   5   9  1   
  9   5  28  1   
 10   5  29  1   
 11   6  10  1   
 12   6  30  1   
 13   6  31  1   
 14   7  11  ar  
 15   7  32  1   
 16   8  12  ar  
 17   8  33  1   
 18   9  13  1   
 19   9  34  1   
 20   9  35  1   
 21  10  13  1   
 22  10  36  1   
 23  10  37  1   
 24  11  14  ar  
 25  11  38  1   
 26  12  14  ar  
 27  12  39  1   
 28  13  15  1   
 29  13  40  1   
 30  14  16  1   
 31  15  17  2   
 32  15  18  am  
 33  16  19  1   
 34  18  20  1   
 35  18  41  1   
 36  19  42  1   
 37  19  43  1   
 38  19  44  1   
 39  20  21  1   
 40  20  22  1   
 41  20  45  1   
 42  21  23  2   
 43  21  24  1   
 44  22  46  1   
 45  22  47  1   
 46  22  48  1   
 47  23  25  1   
 48  24  26  1   
 49  24  27  1   
 50  25  26  2   
 51  26  49  1   
 52  27  50  1   
 53  27  51  1   
 54  27  52  1   
@<TRIPOS>SUBSTRUCTURE
  1 ****   9 GROUP 4 **** **** 0

# MOE 2024.06 (io_trps.svl 2023.06)
