@<TRIPOS>MOLECULE
NONAME
50 52 1 0 0 
SMALL
USER_CHARGES


@<TRIPOS>ATOM
  1 S       -0.4770    -0.4980     2.4500 S.3   1 <1>  -0.0800 
  2 C       -1.7300    -0.0360     1.3060 C.2   1 <1>  -0.1400 
  3 C        0.7230     0.4420     1.5830 C.2   1 <1>  -0.1100 
  4 C       -1.2250     0.7740     0.3540 C.2   1 <1>  -0.1810 
  5 C       -3.1270    -0.5840     1.5510 C.3   1 <1>   0.3200 
  6 C        0.1720     1.0440     0.5150 C.2   1 <1>  -0.1500 
  7 C       -1.9890     1.3780    -0.8100 C.3   1 <1>  -0.0590 
  8 N       -3.3910    -1.7700     0.6800 N.am  1 <1>  -0.6600 
  9 C       -4.3450    -1.7030    -0.3150 C.2   1 <1>   0.5690 
 10 C       -2.4180    -2.8900     0.8550 C.3   1 <1>   0.0600 
 11 O       -5.0310    -0.7140    -0.4460 O.2   1 <1>  -0.5700 
 12 C       -4.6240    -2.8600    -1.2870 C.3   1 <1>   0.2610 
 13 O       -3.4350    -3.3470    -1.8870 O.3   1 <1>  -0.5600 
 14 C       -5.4190    -3.9750    -0.5590 C.3   1 <1>   0.3640 
 15 C       -3.6560    -4.3600    -2.8350 C.3   1 <1>   0.1810 
 16 N       -5.2700    -5.3320    -1.1860 N.am  1 <1>  -0.6600 
 17 C       -6.9060    -3.6030    -0.4790 C.ar  1 <1>  -0.1430 
 18 C       -4.4430    -5.5360    -2.2580 C.2   1 <1>   0.5690 
 19 C       -6.0260    -6.4440    -0.5400 C.3   1 <1>   0.0600 
 20 C       -7.5140    -3.1880     0.7070 C.ar  1 <1>  -0.1430 
 21 C       -7.6730    -3.6810    -1.6370 C.ar  1 <1>  -0.1500 
 22 O       -4.3180    -6.6180    -2.7820 O.2   1 <1>  -0.5700 
 23 C       -8.8620    -2.8620     0.7060 C.ar  1 <1>  -0.1500 
 24 C       -6.7540    -3.0700     2.0220 C.3   1 <1>  -0.0970 
 25 C       -9.0160    -3.3550    -1.6280 C.ar  1 <1>  -0.1500 
 26 C       -9.6120    -2.9440    -0.4530 C.ar  1 <1>  -0.1500 
 27 H        1.7260     0.4440     1.9710 H     1 <1>   0.1500 
 28 H       -3.8410     0.1970     1.3610 H     1 <1>   0.0800 
 29 H       -3.2300    -0.8690     2.5830 H     1 <1>   0.0800 
 30 H        0.6960     1.6770    -0.1800 H     1 <1>   0.1500 
 31 H       -1.5700     1.0340    -1.7380 H     1 <1>   0.0800 
 32 H       -1.9290     2.4500    -0.7730 H     1 <1>   0.0800 
 33 H       -3.0250     1.0910    -0.7800 H     1 <1>   0.0800 
 34 H       -2.1830    -3.0150     1.8980 H     1 <1>   0.0800 
 35 H       -1.5120    -2.6610     0.3200 H     1 <1>   0.0800 
 36 H       -2.8090    -3.8180     0.4840 H     1 <1>   0.0800 
 37 H       -5.2310    -2.4650    -2.0810 H     1 <1>   0.0800 
 38 H       -5.0230    -4.0560     0.4350 H     1 <1>   0.0800 
 39 H       -4.1870    -3.9410    -3.6700 H     1 <1>   0.0800 
 40 H       -2.6960    -4.7060    -3.1720 H     1 <1>   0.0800 
 41 H       -5.8420    -6.4470     0.5200 H     1 <1>   0.0800 
 42 H       -5.7240    -7.3950    -0.9440 H     1 <1>   0.0800 
 43 H       -7.0810    -6.3200    -0.7130 H     1 <1>   0.0800 
 44 H       -7.2270    -4.0050    -2.5610 H     1 <1>   0.1500 
 45 H       -9.3440    -2.5380     1.6110 H     1 <1>   0.1500 
 46 H       -7.4070    -2.7590     2.8170 H     1 <1>   0.0800 
 47 H       -5.9720    -2.3380     1.9340 H     1 <1>   0.0800 
 48 H       -6.3280    -4.0180     2.2950 H     1 <1>   0.0800 
 49 H       -9.5950    -3.4220    -2.5320 H     1 <1>   0.1500 
 50 H      -10.6570    -2.6870    -0.4380 H     1 <1>   0.1500 
@<TRIPOS>BOND
  1   1   2  1   
  2   1   3  1   
  3   2   4  2   
  4   2   5  1   
  5   3   6  2   
  6   3  27  1   
  7   4   6  1   
  8   4   7  1   
  9   5   8  1   
 10   5  28  1   
 11   5  29  1   
 12   6  30  1   
 13   7  31  1   
 14   7  32  1   
 15   7  33  1   
 16   8   9  am  
 17   8  10  1   
 18   9  11  2   
 19   9  12  1   
 20  10  34  1   
 21  10  35  1   
 22  10  36  1   
 23  12  13  1   
 24  12  14  1   
 25  12  37  1   
 26  13  15  1   
 27  14  16  1   
 28  14  17  1   
 29  14  38  1   
 30  15  18  1   
 31  15  39  1   
 32  15  40  1   
 33  16  18  am  
 34  16  19  1   
 35  17  20  ar  
 36  17  21  ar  
 37  18  22  2   
 38  19  41  1   
 39  19  42  1   
 40  19  43  1   
 41  20  23  ar  
 42  20  24  1   
 43  21  25  ar  
 44  21  44  1   
 45  23  26  ar  
 46  23  45  1   
 47  24  46  1   
 48  24  47  1   
 49  24  48  1   
 50  25  26  ar  
 51  25  49  1   
 52  26  50  1   
@<TRIPOS>SUBSTRUCTURE
  1 ****   9 GROUP 4 **** **** 0

# MOE 2024.06 (io_trps.svl 2023.06)
