@<TRIPOS>MOLECULE
NONAME
52 54 1 0 0 
SMALL
USER_CHARGES


@<TRIPOS>ATOM
  1 O        1.1930    -0.4390     0.8000 O.3   1 <1>  -0.6800 
  2 C        1.6880     0.3940    -0.1860 C.3   1 <1>   0.2000 
  3 C        3.1360    -0.0250    -0.5490 C.3   1 <1>   0.0000 
  4 C        1.5370     1.8540     0.2720 C.3   1 <1>  -0.1600 
  5 C        3.6370     1.0070    -1.5870 C.3   1 <1>   0.3430 
  6 C        3.0410    -1.3920    -1.2670 C.3   1 <1>   0.1200 
  7 C        4.0700    -0.1800     0.7090 C.3   1 <1>  -0.0170 
  8 C        2.8170     2.6740     0.1180 C.3   1 <1>   0.3430 
  9 N        3.4460     2.4630    -1.2220 N.4   1 <1>  -0.9590 
 10 O        4.2260    -1.6550    -1.9400 O.3   1 <1>  -0.6800 
 11 C        5.3760     0.6170     0.7140 C.ar  1 <1>  -0.1440 
 12 C        4.7950     3.1290    -1.3370 C.3   1 <1>   0.3430 
 13 C        6.3780     0.3490    -0.2080 C.ar  1 <1>  -0.1500 
 14 C        5.5870     1.6130     1.6600 C.ar  1 <1>  -0.1500 
 15 C        4.7930     4.6310    -1.0480 C.3   1 <1>   0.0960 
 16 C        7.5360     1.1050    -0.2300 C.ar  1 <1>  -0.1500 
 17 C        6.7460     2.3680     1.6430 C.ar  1 <1>  -0.1500 
 18 N        6.1380     5.1380    -1.3450 N.pl3 1 <1>   0.3140 
 19 C        7.7170     2.1230     0.6880 C.ar  1 <1>  -0.1500 
 20 N        6.7230     4.8320    -2.5160 N.2   1 <1>  -0.7070 
 21 C        6.9450     5.9010    -0.5730 C.2   1 <1>  -0.3320 
 22 C        7.8850     5.4090    -2.4680 C.2   1 <1>   0.1390 
 23 C        8.0810     6.0920    -1.2760 C.2   1 <1>  -0.1500 
 24 C        6.6110     6.4320     0.8120 C.3   1 <1>  -0.0600 
 25 H        0.2340    -0.2980     0.9470 H     1 <1>   0.4000 
 26 H        1.0610     0.2530    -1.0520 H     1 <1>   0.0800 
 27 H        0.7590     2.3230    -0.3020 H     1 <1>   0.0800 
 28 H        1.2440     1.8960     1.3070 H     1 <1>   0.0800 
 29 H        3.1110     0.8200    -2.5090 H     1 <1>   0.0800 
 30 H        4.6740     0.8090    -1.7950 H     1 <1>   0.0800 
 31 H        2.2490    -1.3970    -1.9970 H     1 <1>   0.0800 
 32 H        2.8600    -2.1860    -0.5620 H     1 <1>   0.0800 
 33 H        3.5250     0.0740     1.6000 H     1 <1>   0.0800 
 34 H        4.3380    -1.2150     0.8370 H     1 <1>   0.0800 
 35 H        3.5060     2.3760     0.8850 H     1 <1>   0.0800 
 36 H        2.5930     3.7180     0.2650 H     1 <1>   0.0800 
 37 H        2.8350     2.8760    -1.9390 H     1 <1>   0.4500 
 38 H        4.2420    -2.5810    -2.2660 H     1 <1>   0.4000 
 39 H        5.4870     2.6610    -0.6590 H     1 <1>   0.0800 
 40 H        5.1730     2.9790    -2.3360 H     1 <1>   0.0800 
 41 H        6.2650    -0.4540    -0.9180 H     1 <1>   0.1500 
 42 H        4.8550     1.8030     2.4260 H     1 <1>   0.1500 
 43 H        4.5670     4.8250    -0.0180 H     1 <1>   0.0800 
 44 H        4.0990     5.1410    -1.6880 H     1 <1>   0.0800 
 45 H        8.3030     0.8980    -0.9580 H     1 <1>   0.1500 
 46 H        6.9040     3.1390     2.3780 H     1 <1>   0.1500 
 47 H        8.6180     2.7130     0.6680 H     1 <1>   0.1500 
 48 H        8.6080     5.3580    -3.2660 H     1 <1>   0.1500 
 49 H        8.9630     6.6460    -1.0050 H     1 <1>   0.1500 
 50 H        7.4290     7.0220     1.1860 H     1 <1>   0.0800 
 51 H        6.4400     5.6190     1.4950 H     1 <1>   0.0800 
 52 H        5.7360     7.0560     0.7730 H     1 <1>   0.0800 
@<TRIPOS>BOND
  1   1   2  1   
  2   1  25  1   
  3   2   3  1   
  4   2   4  1   
  5   2  26  1   
  6   3   5  1   
  7   3   6  1   
  8   3   7  1   
  9   4   8  1   
 10   4  27  1   
 11   4  28  1   
 12   5   9  1   
 13   5  29  1   
 14   5  30  1   
 15   6  10  1   
 16   6  31  1   
 17   6  32  1   
 18   7  11  1   
 19   7  33  1   
 20   7  34  1   
 21   8   9  1   
 22   8  35  1   
 23   8  36  1   
 24   9  12  1   
 25   9  37  1   
 26  10  38  1   
 27  11  13  ar  
 28  11  14  ar  
 29  12  15  1   
 30  12  39  1   
 31  12  40  1   
 32  13  16  ar  
 33  13  41  1   
 34  14  17  ar  
 35  14  42  1   
 36  15  18  1   
 37  15  43  1   
 38  15  44  1   
 39  16  19  ar  
 40  16  45  1   
 41  17  19  ar  
 42  17  46  1   
 43  18  20  1   
 44  18  21  1   
 45  19  47  1   
 46  20  22  2   
 47  21  23  2   
 48  21  24  1   
 49  22  23  1   
 50  22  48  1   
 51  23  49  1   
 52  24  50  1   
 53  24  51  1   
 54  24  52  1   
@<TRIPOS>SUBSTRUCTURE
  1 ****  12 GROUP 4 **** **** 0

# MOE 2024.06 (io_trps.svl 2023.06)
