@<TRIPOS>MOLECULE
NONAME
46 49 1 0 0 
SMALL
USER_CHARGES


@<TRIPOS>ATOM
  1 S       -3.1870    -2.3210     3.5030 S.3   1 <1>  -0.4600 
  2 C       -2.6440    -0.9180     2.4730 C.3   1 <1>   0.2510 
  3 C       -3.9590    -3.3380     2.2090 C.3   1 <1>   0.2510 
  4 C       -3.1080    -1.3070     1.0900 C.2   1 <1>   0.1080 
  5 C       -3.7640    -2.5130     0.9600 C.2   1 <1>  -0.1810 
  6 N       -2.9860    -0.6730    -0.0320 N.2   1 <1>  -0.7070 
  7 C       -4.0730    -2.6210    -0.3530 C.2   1 <1>  -0.0880 
  8 N       -3.5850    -1.4850    -0.9410 N.pl3 1 <1>   0.3140 
  9 N       -4.7500    -3.7170    -0.9430 N.am  1 <1>  -0.4940 
 10 C       -3.5730    -1.1100    -2.3610 C.3   1 <1>   0.0160 
 11 C       -5.4820    -3.8830    -2.0830 C.2   1 <1>   0.5690 
 12 O       -5.6710    -3.0240    -2.9110 O.2   1 <1>  -0.5700 
 13 C       -6.0960    -5.2700    -2.2840 C.3   1 <1>   0.1710 
 14 N       -6.2710    -6.0280    -1.0070 N.3   1 <1>  -0.8100 
 15 C       -7.4560    -5.5330    -0.2600 C.3   1 <1>   0.1100 
 16 C       -6.4440    -7.4740    -1.2750 C.3   1 <1>   0.1100 
 17 C       -7.6710    -6.2820     1.0680 C.3   1 <1>   0.2090 
 18 C       -6.6190    -8.2960     0.0170 C.3   1 <1>   0.2090 
 19 N       -7.7390    -7.7610     0.8530 N.pl3 1 <1>  -0.8380 
 20 C       -8.6200    -8.5790     1.5300 C.ar  1 <1>   0.7200 
 21 N       -8.3770    -9.8890     1.5050 N.ar  1 <1>  -0.6200 
 22 N       -9.6410    -7.9900     2.1550 N.ar  1 <1>  -0.6200 
 23 C       -9.2220   -10.6540     2.1520 C.ar  1 <1>   0.1600 
 24 C      -10.4700    -8.7790     2.7920 C.ar  1 <1>   0.1600 
 25 C      -10.3040   -10.1410     2.8230 C.ar  1 <1>  -0.1500 
 26 H       -1.5740    -0.8410     2.5330 H     1 <1>   0.0800 
 27 H       -3.1290    -0.0260     2.8250 H     1 <1>   0.0800 
 28 H       -4.9970    -3.4670     2.4580 H     1 <1>   0.0800 
 29 H       -3.4390    -4.2780     2.1660 H     1 <1>   0.0800 
 30 H       -4.8140    -4.5640    -0.3660 H     1 <1>   0.3700 
 31 H       -2.8480    -0.3330    -2.5150 H     1 <1>   0.0800 
 32 H       -4.5470    -0.7520    -2.6360 H     1 <1>   0.0800 
 33 H       -3.3150    -1.9660    -2.9530 H     1 <1>   0.0800 
 34 H       -5.4340    -5.8130    -2.9340 H     1 <1>   0.0800 
 35 H       -7.0410    -5.1670    -2.7880 H     1 <1>   0.0800 
 36 H       -8.3430    -5.6500    -0.8600 H     1 <1>   0.0800 
 37 H       -7.3400    -4.4840    -0.0460 H     1 <1>   0.0800 
 38 H       -5.5830    -7.8470    -1.8010 H     1 <1>   0.0800 
 39 H       -7.3090    -7.6310    -1.8980 H     1 <1>   0.0800 
 40 H       -8.5720    -5.9130     1.5250 H     1 <1>   0.0800 
 41 H       -6.8550    -6.0650     1.7340 H     1 <1>   0.0800 
 42 H       -5.7080    -8.2620     0.5870 H     1 <1>   0.0800 
 43 H       -6.7990    -9.3200    -0.2580 H     1 <1>   0.0800 
 44 H       -9.0470   -11.7160     2.1460 H     1 <1>   0.1500 
 45 H      -11.3040    -8.3280     3.3030 H     1 <1>   0.1500 
 46 H      -10.9900   -10.7770     3.3490 H     1 <1>   0.1500 
@<TRIPOS>BOND
  1   1   2  1   
  2   1   3  1   
  3   2   4  1   
  4   2  26  1   
  5   2  27  1   
  6   3   5  1   
  7   3  28  1   
  8   3  29  1   
  9   4   5  1   
 10   4   6  2   
 11   5   7  2   
 12   6   8  1   
 13   7   8  1   
 14   7   9  1   
 15   8  10  1   
 16   9  11  am  
 17   9  30  1   
 18  10  31  1   
 19  10  32  1   
 20  10  33  1   
 21  11  12  2   
 22  11  13  1   
 23  13  14  1   
 24  13  34  1   
 25  13  35  1   
 26  14  15  1   
 27  14  16  1   
 28  15  17  1   
 29  15  36  1   
 30  15  37  1   
 31  16  18  1   
 32  16  38  1   
 33  16  39  1   
 34  17  19  1   
 35  17  40  1   
 36  17  41  1   
 37  18  19  1   
 38  18  42  1   
 39  18  43  1   
 40  19  20  1   
 41  20  21  ar  
 42  20  22  ar  
 43  21  23  ar  
 44  22  24  ar  
 45  23  25  ar  
 46  23  44  1   
 47  24  25  ar  
 48  24  45  1   
 49  25  46  1   
@<TRIPOS>SUBSTRUCTURE
  1 ****  15 GROUP 4 **** **** 0

# MOE 2024.06 (io_trps.svl 2023.06)
