@<TRIPOS>MOLECULE
NONAME
46 49 1 0 0 
SMALL
USER_CHARGES


@<TRIPOS>ATOM
  1 F       -0.5050    -0.3630    -1.2220 F     1 <1>  -0.3400 
  2 C        0.4900    -1.1200    -0.7730 C.3   1 <1>   1.2000 
  3 F        1.0540    -0.4250     0.2090 F     1 <1>  -0.3400 
  4 F        1.3860    -1.1850    -1.7510 F     1 <1>  -0.3400 
  5 C       -0.0210    -2.4860    -0.2750 C.2   1 <1>   0.0060 
  6 N        0.3120    -3.6670    -0.7010 N.2   1 <1>  -0.5650 
  7 N       -0.9350    -2.5250     0.7330 N.pl3 1 <1>   0.0330 
  8 C       -0.4140    -4.5310     0.0610 C.ar  1 <1>   0.2270 
  9 C       -1.1990    -3.8340     0.9580 C.ar  1 <1>  -0.1520 
 10 C       -0.4490    -5.9190     0.0340 C.ar  1 <1>  -0.1500 
 11 C       -2.0390    -4.5030     1.8500 C.ar  1 <1>  -0.1500 
 12 C       -1.2820    -6.6140     0.8960 C.ar  1 <1>   0.0860 
 13 C       -2.0680    -5.8770     1.8080 C.ar  1 <1>  -0.1500 
 14 C       -1.3510    -8.0580     0.8630 C.2   1 <1>   0.5440 
 15 O       -0.3740    -8.7210     1.1510 O.2   1 <1>  -0.5700 
 16 N       -2.5070    -8.7080     0.5020 N.am  1 <1>  -0.6600 
 17 C       -3.7100    -8.0690    -0.0910 C.3   1 <1>   0.1400 
 18 C       -2.5860   -10.1840     0.3480 C.3   1 <1>   0.1400 
 19 C       -4.7460    -9.1900    -0.1310 C.3   1 <1>   0.2000 
 20 C       -3.9030   -10.4400    -0.3960 C.3   1 <1>  -0.0800 
 21 O       -5.3230    -9.2790     1.1270 O.3   1 <1>  -0.6800 
 22 C       -4.5690   -11.7810    -0.0380 C.3   1 <1>   0.0210 
 23 C       -3.6430   -12.9400    -0.3480 C.2   1 <1>   0.1080 
 24 N       -3.2430   -13.2200    -1.5490 N.2   1 <1>  -0.7070 
 25 C       -3.1140   -13.8120     0.5990 C.2   1 <1>  -0.1500 
 26 N       -2.4400   -14.2910    -1.4000 N.pl3 1 <1>   0.3000 
 27 C       -2.3450   -14.6670    -0.1070 C.2   1 <1>  -0.3320 
 28 C       -1.5120   -15.8370     0.3810 C.3   1 <1>  -0.0600 
 29 H       -1.3450    -1.7290     1.2320 H     1 <1>   0.2700 
 30 H        0.1790    -6.4420    -0.6640 H     1 <1>   0.1500 
 31 H       -2.6420    -3.9510     2.5500 H     1 <1>   0.1500 
 32 H       -2.7000    -6.4240     2.4870 H     1 <1>   0.1500 
 33 H       -4.0570    -7.2320     0.4880 H     1 <1>   0.0800 
 34 H       -3.4780    -7.7470    -1.0910 H     1 <1>   0.0800 
 35 H       -1.7440   -10.5590    -0.2100 H     1 <1>   0.0800 
 36 H       -2.5940   -10.6390     1.3230 H     1 <1>   0.0800 
 37 H       -5.5220    -9.0310    -0.8590 H     1 <1>   0.0800 
 38 H       -3.6710   -10.4590    -1.4470 H     1 <1>   0.0800 
 39 H       -4.6040    -9.3010     1.7910 H     1 <1>   0.4000 
 40 H       -5.4700   -11.8990    -0.6120 H     1 <1>   0.0800 
 41 H       -4.8320   -11.8100     1.0030 H     1 <1>   0.0800 
 42 H       -3.2950   -13.7850     1.6580 H     1 <1>   0.1500 
 43 H       -1.9740   -14.7390    -2.1970 H     1 <1>   0.2700 
 44 H       -1.5990   -15.9330     1.4490 H     1 <1>   0.0800 
 45 H       -0.4760   -15.6850     0.1350 H     1 <1>   0.0800 
 46 H       -1.8510   -16.7510    -0.0740 H     1 <1>   0.0800 
@<TRIPOS>BOND
  1   1   2  1   
  2   2   3  1   
  3   2   4  1   
  4   2   5  1   
  5   5   6  2   
  6   5   7  1   
  7   6   8  1   
  8   7   9  1   
  9   7  29  1   
 10   8   9  ar  
 11   8  10  ar  
 12   9  11  ar  
 13  10  12  ar  
 14  10  30  1   
 15  11  13  ar  
 16  11  31  1   
 17  12  13  ar  
 18  12  14  1   
 19  13  32  1   
 20  14  15  2   
 21  14  16  am  
 22  16  17  1   
 23  16  18  1   
 24  17  19  1   
 25  17  33  1   
 26  17  34  1   
 27  18  20  1   
 28  18  35  1   
 29  18  36  1   
 30  19  20  1   
 31  19  21  1   
 32  19  37  1   
 33  20  22  1   
 34  20  38  1   
 35  21  39  1   
 36  22  23  1   
 37  22  40  1   
 38  22  41  1   
 39  23  24  2   
 40  23  25  1   
 41  24  26  1   
 42  25  27  2   
 43  25  42  1   
 44  26  27  1   
 45  26  43  1   
 46  27  28  1   
 47  28  44  1   
 48  28  45  1   
 49  28  46  1   
@<TRIPOS>SUBSTRUCTURE
  1 ****  14 GROUP 4 **** **** 0

# MOE 2024.06 (io_trps.svl 2023.06)
