@<TRIPOS>MOLECULE
NONAME
53 56 1 0 0 
SMALL
USER_CHARGES


@<TRIPOS>ATOM
  1 F        0.5140     1.1850     0.4220 F     1 <1>  -0.1900 
  2 C        1.4520     2.0070     0.8070 C.ar  1 <1>   0.1900 
  3 C        1.6810     3.1480     0.0600 C.ar  1 <1>  -0.1500 
  4 C        2.1780     1.7020     1.9390 C.ar  1 <1>  -0.1500 
  5 C        2.6750     4.0420     0.4520 C.ar  1 <1>  -0.1440 
  6 C        3.1710     2.5790     2.3320 C.ar  1 <1>  -0.1500 
  7 C        3.4140     3.7280     1.5950 C.ar  1 <1>  -0.1500 
  8 C        3.0050     5.3350    -0.3320 C.3   1 <1>   0.1440 
  9 C        1.8960     5.6860    -1.3580 C.3   1 <1>  -0.1600 
 10 C        3.1190     6.5210     0.6690 C.3   1 <1>  -0.1600 
 11 C        4.3530     5.0440    -1.0540 C.3   1 <1>   0.2090 
 12 C        2.0290     7.0780    -2.0040 C.3   1 <1>   0.1200 
 13 C        2.5790     7.8620     0.1490 C.3   1 <1>   0.1200 
 14 N        4.9820     6.2370    -1.6740 N.pl3 1 <1>  -0.8690 
 15 O        2.7900     7.9490    -1.2210 O.3   1 <1>  -0.5600 
 16 C        6.2270     6.6250    -1.2630 C.ar  1 <1>   0.4100 
 17 N        6.2390     7.7910    -0.6610 N.ar  1 <1>  -0.6200 
 18 C        7.3780     5.8500    -1.4610 C.ar  1 <1>   0.1600 
 19 C        7.4570     8.1840    -0.2540 C.ar  1 <1>   0.3960 
 20 N        8.5860     6.1910    -1.0620 N.ar  1 <1>  -0.6200 
 21 C        7.6450     9.4670     0.4300 C.2   1 <1>   0.5440 
 22 C        8.5810     7.3740    -0.4590 C.ar  1 <1>   0.1600 
 23 O        8.6000     9.6020     1.1780 O.2   1 <1>  -0.5700 
 24 N        6.8120    10.5630     0.2760 N.am  1 <1>  -0.6600 
 25 C        5.6740    10.6770    -0.6680 C.3   1 <1>   0.1400 
 26 C        7.0050    11.8260     1.0210 C.3   1 <1>   0.1400 
 27 C        5.3140    12.1580    -0.6700 C.3   1 <1>  -0.1600 
 28 C        5.7770    12.6680     0.6920 C.3   1 <1>  -0.1600 
 29 H        1.0700     3.2970    -0.8090 H     1 <1>   0.1500 
 30 H        1.9680     0.8050     2.4930 H     1 <1>   0.1500 
 31 H        3.7570     2.3680     3.2110 H     1 <1>   0.1500 
 32 H        4.2000     4.3830     1.9300 H     1 <1>   0.1500 
 33 H        0.9450     5.6620    -0.8560 H     1 <1>   0.0800 
 34 H        1.8600     4.9520    -2.1430 H     1 <1>   0.0800 
 35 H        4.1430     6.6540     0.9690 H     1 <1>   0.0800 
 36 H        2.5650     6.3000     1.5640 H     1 <1>   0.0800 
 37 H        4.1900     4.3040    -1.8180 H     1 <1>   0.0800 
 38 H        5.0440     4.6220    -0.3450 H     1 <1>   0.0800 
 39 H        1.0600     7.5210    -2.1570 H     1 <1>   0.0800 
 40 H        2.5240     7.0000    -2.9570 H     1 <1>   0.0800 
 41 H        3.0910     8.6830     0.6200 H     1 <1>   0.0800 
 42 H        1.5220     7.9570     0.3350 H     1 <1>   0.0800 
 43 H        4.3320     7.0410    -1.5850 H     1 <1>   0.4000 
 44 H        7.2630     4.9140    -1.9750 H     1 <1>   0.1500 
 45 H        9.5310     7.7330    -0.1020 H     1 <1>   0.1500 
 46 H        4.8490    10.0910    -0.3000 H     1 <1>   0.0800 
 47 H        5.9470    10.3350    -1.6520 H     1 <1>   0.0800 
 48 H        7.9020    12.3060     0.6680 H     1 <1>   0.0800 
 49 H        7.0890    11.6380     2.0780 H     1 <1>   0.0800 
 50 H        4.2620    12.3110    -0.8320 H     1 <1>   0.0800 
 51 H        5.8660    12.6490    -1.4520 H     1 <1>   0.0800 
 52 H        6.0040    13.7190     0.6830 H     1 <1>   0.0800 
 53 H        5.0180    12.4790     1.4300 H     1 <1>   0.0800 
@<TRIPOS>BOND
  1   1   2  1   
  2   2   3  ar  
  3   2   4  ar  
  4   3   5  ar  
  5   3  29  1   
  6   4   6  ar  
  7   4  30  1   
  8   5   7  ar  
  9   5   8  1   
 10   6   7  ar  
 11   6  31  1   
 12   7  32  1   
 13   8   9  1   
 14   8  10  1   
 15   8  11  1   
 16   9  12  1   
 17   9  33  1   
 18   9  34  1   
 19  10  13  1   
 20  10  35  1   
 21  10  36  1   
 22  11  14  1   
 23  11  37  1   
 24  11  38  1   
 25  12  15  1   
 26  12  39  1   
 27  12  40  1   
 28  13  15  1   
 29  13  41  1   
 30  13  42  1   
 31  14  16  1   
 32  14  43  1   
 33  16  17  ar  
 34  16  18  ar  
 35  17  19  ar  
 36  18  20  ar  
 37  18  44  1   
 38  19  21  1   
 39  19  22  ar  
 40  20  22  ar  
 41  21  23  2   
 42  21  24  am  
 43  22  45  1   
 44  24  25  1   
 45  24  26  1   
 46  25  27  1   
 47  25  46  1   
 48  25  47  1   
 49  26  28  1   
 50  26  48  1   
 51  26  49  1   
 52  27  28  1   
 53  27  50  1   
 54  27  51  1   
 55  28  52  1   
 56  28  53  1   
@<TRIPOS>SUBSTRUCTURE
  1 ****  14 GROUP 4 **** **** 0

# MOE 2024.06 (io_trps.svl 2023.06)
