@<TRIPOS>MOLECULE
NONAME
51 54 1 0 0 
SMALL
USER_CHARGES


@<TRIPOS>ATOM
  1 O       -1.3700     0.2100     2.4340 O.2   1 <1>  -0.5700 
  2 C       -2.0360     0.7690     1.5850 C.2   1 <1>   0.7150 
  3 N       -3.2440     0.2300     1.2220 N.am  1 <1>  -0.6600 
  4 C       -1.5670     1.9650     0.9590 C.2   1 <1>  -0.2370 
  5 C       -4.1370     0.7900     0.1780 C.3   1 <1>   0.1400 
  6 C       -3.5970    -1.1830     1.5030 C.3   1 <1>   0.1400 
  7 N       -0.5250     2.0320     0.0830 N.pl3 1 <1>   0.3140 
  8 C       -2.0390     3.2370     1.0700 C.2   1 <1>  -0.1500 
  9 C       -5.2710    -0.2300     0.0550 C.3   1 <1>   0.2000 
 10 C       -4.6250    -1.5660     0.4260 C.3   1 <1>  -0.0800 
 11 N       -0.3470     3.2890    -0.3690 N.2   1 <1>  -0.7070 
 12 C        0.3710     0.9450    -0.4290 C.3   1 <1>   0.1760 
 13 C       -1.2500     4.0000     0.2330 C.2   1 <1>   0.1390 
 14 O       -6.2290     0.0630     1.0110 O.3   1 <1>  -0.6800 
 15 C       -3.9710    -2.2080    -0.8160 C.3   1 <1>  -0.0170 
 16 C       -0.4030    -0.2640    -0.9740 C.3   1 <1>  -0.2400 
 17 C        1.4080     0.5240     0.6210 C.3   1 <1>  -0.2400 
 18 C       -3.2330    -3.4940    -0.4870 C.ar  1 <1>   0.1670 
 19 N       -1.9390    -3.4350    -0.4140 N.ar  1 <1>  -0.6200 
 20 C       -3.9710    -4.6700    -0.2760 C.ar  1 <1>  -0.1500 
 21 C       -1.2690    -4.5740    -0.1050 C.ar  1 <1>   0.3100 
 22 C       -3.3240    -5.8290     0.0280 C.ar  1 <1>  -0.1500 
 23 C       -1.9230    -5.8040     0.1240 C.ar  1 <1>   0.0000 
 24 C        0.1310    -4.5310    -0.0030 C.ar  1 <1>  -0.1500 
 25 C       -1.1510    -6.9410     0.4380 C.ar  1 <1>  -0.1500 
 26 C        0.8630    -5.6470     0.3050 C.ar  1 <1>  -0.1500 
 27 C        0.2130    -6.8650     0.5270 C.ar  1 <1>  -0.1500 
 28 H       -4.5050     1.7640     0.4500 H     1 <1>   0.0800 
 29 H       -3.5950     0.8570    -0.7500 H     1 <1>   0.0800 
 30 H       -2.7200    -1.8090     1.4890 H     1 <1>   0.0800 
 31 H       -4.0420    -1.2400     2.4820 H     1 <1>   0.0800 
 32 H       -2.8520     3.5920     1.6770 H     1 <1>   0.1500 
 33 H       -5.7460    -0.2240    -0.9120 H     1 <1>   0.0800 
 34 H       -5.3520    -2.2530     0.8230 H     1 <1>   0.0800 
 35 H        0.9120     1.3730    -1.2560 H     1 <1>   0.0800 
 36 H       -1.3570     5.0620     0.0850 H     1 <1>   0.1500 
 37 H       -5.7860     0.1940     1.8730 H     1 <1>   0.4000 
 38 H       -3.2760    -1.5200    -1.2640 H     1 <1>   0.0800 
 39 H       -4.7260    -2.4240    -1.5490 H     1 <1>   0.0800 
 40 H       -0.8490    -0.8340    -0.1790 H     1 <1>   0.0800 
 41 H        0.2690    -0.9170    -1.5000 H     1 <1>   0.0800 
 42 H       -1.1650     0.0580    -1.6600 H     1 <1>   0.0800 
 43 H        0.9420     0.0290     1.4520 H     1 <1>   0.0800 
 44 H        1.9390     1.3880     0.9780 H     1 <1>   0.0800 
 45 H        2.1180    -0.1530     0.1830 H     1 <1>   0.0800 
 46 H       -5.0420    -4.6410    -0.3580 H     1 <1>   0.1500 
 47 H       -3.8530    -6.7500     0.1960 H     1 <1>   0.1500 
 48 H        0.6100    -3.5850    -0.1760 H     1 <1>   0.1500 
 49 H       -1.6560    -7.8750     0.6090 H     1 <1>   0.1500 
 50 H        1.9350    -5.6010     0.3800 H     1 <1>   0.1500 
 51 H        0.8000    -7.7350     0.7680 H     1 <1>   0.1500 
@<TRIPOS>BOND
  1   1   2  2   
  2   2   3  am  
  3   2   4  1   
  4   3   5  1   
  5   3   6  1   
  6   4   7  1   
  7   4   8  2   
  8   5   9  1   
  9   5  28  1   
 10   5  29  1   
 11   6  10  1   
 12   6  30  1   
 13   6  31  1   
 14   7  11  1   
 15   7  12  1   
 16   8  13  1   
 17   8  32  1   
 18   9  10  1   
 19   9  14  1   
 20   9  33  1   
 21  10  15  1   
 22  10  34  1   
 23  11  13  2   
 24  12  16  1   
 25  12  17  1   
 26  12  35  1   
 27  13  36  1   
 28  14  37  1   
 29  15  18  1   
 30  15  38  1   
 31  15  39  1   
 32  16  40  1   
 33  16  41  1   
 34  16  42  1   
 35  17  43  1   
 36  17  44  1   
 37  17  45  1   
 38  18  19  ar  
 39  18  20  ar  
 40  19  21  ar  
 41  20  22  ar  
 42  20  46  1   
 43  21  23  ar  
 44  21  24  ar  
 45  22  23  ar  
 46  22  47  1   
 47  23  25  ar  
 48  24  26  ar  
 49  24  48  1   
 50  25  27  ar  
 51  25  49  1   
 52  26  27  ar  
 53  26  50  1   
 54  27  51  1   
@<TRIPOS>SUBSTRUCTURE
  1 ****   6 GROUP 4 **** **** 0

# MOE 2024.06 (io_trps.svl 2023.06)
