@<TRIPOS>MOLECULE
NONAME
50 54 1 0 0 
SMALL
USER_CHARGES


@<TRIPOS>ATOM
  1 O       -0.4480     0.2260    -0.2920 O.2   1 <1>  -0.5700 
  2 C       -1.4930     0.8550    -0.3720 C.2   1 <1>   0.7160 
  3 N       -2.6520     0.1170    -0.5430 N.am  1 <1>  -0.6600 
  4 C       -1.4650     2.3190    -0.2790 C.2   1 <1>   0.2030 
  5 C       -4.0300     0.6650    -0.5880 C.3   1 <1>   0.1400 
  6 C       -2.6810    -1.3640    -0.5790 C.3   1 <1>   0.1400 
  7 N       -2.4570     3.1630    -0.5440 N.2   1 <1>  -0.7070 
  8 C       -0.3340     3.0540     0.1150 C.2   1 <1>  -0.1810 
  9 C       -4.9510    -0.5570    -0.6270 C.3   1 <1>   0.2000 
 10 C       -4.1020    -1.7350    -0.1540 C.3   1 <1>  -0.0800 
 11 N       -1.9650     4.3940    -0.3300 N.pl3 1 <1>   0.3000 
 12 C       -0.6820     4.3460     0.0610 C.2   1 <1>  -0.3320 
 13 C        1.0570     2.6010     0.5390 C.3   1 <1>   0.3010 
 14 O       -6.0440    -0.4010     0.2120 O.3   1 <1>  -0.6800 
 15 C       -4.5860    -3.0820    -0.7140 C.3   1 <1>  -0.0170 
 16 C        0.2780     5.4640     0.4110 C.3   1 <1>   0.0200 
 17 O        1.7400     3.6730     1.1480 O.3   1 <1>  -0.5600 
 18 C       -3.6990    -4.2220    -0.2440 C.ar  1 <1>   0.1670 
 19 C        1.7080     4.8890     0.4450 C.3   1 <1>   0.1200 
 20 N       -2.6660    -4.5160    -0.9720 N.ar  1 <1>  -0.6200 
 21 C       -4.0250    -4.8880     0.9490 C.ar  1 <1>  -0.1500 
 22 C       -1.8570    -5.5200    -0.5480 C.ar  1 <1>   0.3100 
 23 C       -3.2320    -5.9010     1.3970 C.ar  1 <1>  -0.1500 
 24 C       -2.1010    -6.2450     0.6390 C.ar  1 <1>   0.0000 
 25 C       -0.7280    -5.8510    -1.3140 C.ar  1 <1>  -0.1500 
 26 C       -1.2080    -7.2700     1.0100 C.ar  1 <1>  -0.1500 
 27 C        0.1280    -6.8510    -0.9350 C.ar  1 <1>  -0.1500 
 28 C       -0.1160    -7.5680     0.2410 C.ar  1 <1>  -0.1500 
 29 H       -4.2080     1.2610     0.2910 H     1 <1>   0.0800 
 30 H       -4.1590     1.2660    -1.4710 H     1 <1>   0.0800 
 31 H       -2.4790    -1.6950    -1.5840 H     1 <1>   0.0800 
 32 H       -1.9470    -1.7890     0.0870 H     1 <1>   0.0800 
 33 H       -5.3110    -0.7090    -1.6310 H     1 <1>   0.0800 
 34 H       -4.1080    -1.7730     0.9210 H     1 <1>   0.0800 
 35 H       -2.5250     5.2460    -0.4590 H     1 <1>   0.2700 
 36 H        1.6240     2.2690    -0.3130 H     1 <1>   0.0800 
 37 H        0.9950     1.8020     1.2560 H     1 <1>   0.0800 
 38 H       -5.7430    -0.1910     1.1170 H     1 <1>   0.4000 
 39 H       -4.5800    -3.0560    -1.7900 H     1 <1>   0.0800 
 40 H       -5.5990    -3.2590    -0.4000 H     1 <1>   0.0800 
 41 H        0.0320     5.8700     1.3760 H     1 <1>   0.0800 
 42 H        0.2270     6.2530    -0.3180 H     1 <1>   0.0800 
 43 H        2.3770     5.5730     0.9360 H     1 <1>   0.0800 
 44 H        2.0660     4.7060    -0.5540 H     1 <1>   0.0800 
 45 H       -4.8990    -4.5870     1.4970 H     1 <1>   0.1500 
 46 H       -3.4490    -6.4350     2.3050 H     1 <1>   0.1500 
 47 H       -0.5580    -5.2880    -2.2120 H     1 <1>   0.1500 
 48 H       -1.4010    -7.8170     1.9160 H     1 <1>   0.1500 
 49 H        0.9910    -7.0950    -1.5310 H     1 <1>   0.1500 
 50 H        0.5650    -8.3510     0.5270 H     1 <1>   0.1500 
@<TRIPOS>BOND
  1   1   2  2   
  2   2   3  am  
  3   2   4  1   
  4   3   5  1   
  5   3   6  1   
  6   4   7  2   
  7   4   8  1   
  8   5   9  1   
  9   5  29  1   
 10   5  30  1   
 11   6  10  1   
 12   6  31  1   
 13   6  32  1   
 14   7  11  1   
 15   8  12  2   
 16   8  13  1   
 17   9  10  1   
 18   9  14  1   
 19   9  33  1   
 20  10  15  1   
 21  10  34  1   
 22  11  12  1   
 23  11  35  1   
 24  12  16  1   
 25  13  17  1   
 26  13  36  1   
 27  13  37  1   
 28  14  38  1   
 29  15  18  1   
 30  15  39  1   
 31  15  40  1   
 32  16  19  1   
 33  16  41  1   
 34  16  42  1   
 35  17  19  1   
 36  18  20  ar  
 37  18  21  ar  
 38  19  43  1   
 39  19  44  1   
 40  20  22  ar  
 41  21  23  ar  
 42  21  45  1   
 43  22  24  ar  
 44  22  25  ar  
 45  23  24  ar  
 46  23  46  1   
 47  24  26  ar  
 48  25  27  ar  
 49  25  47  1   
 50  26  28  ar  
 51  26  48  1   
 52  27  28  ar  
 53  27  49  1   
 54  28  50  1   
@<TRIPOS>SUBSTRUCTURE
  1 ****   6 GROUP 4 **** **** 0

# MOE 2024.06 (io_trps.svl 2023.06)
