@<TRIPOS>MOLECULE
NONAME
39 40 1 0 0 
SMALL
USER_CHARGES


@<TRIPOS>ATOM
  1 S       -0.2140     0.8800     1.1360 S.3   1 <1>  -0.0800 
  2 C        1.3430     1.4090     0.5520 C.2   1 <1>  -0.1400 
  3 C        0.2430    -0.7720     0.8200 C.2   1 <1>   0.2280 
  4 C        2.0450     0.3150     0.1830 C.2   1 <1>   0.0460 
  5 C        1.5160     2.9250     0.6040 C.3   1 <1>   0.0200 
  6 N        1.4110    -0.9070     0.3400 N.2   1 <1>  -0.5650 
  7 C        3.4450     0.1910    -0.3880 C.3   1 <1>  -0.0590 
  8 C        2.8530     3.4430     0.0690 C.3   1 <1>   0.1100 
  9 N        2.8970     4.9170     0.0870 N.3   1 <1>  -0.8100 
 10 C        3.8140     5.4340    -0.9760 C.3   1 <1>   0.1710 
 11 C        3.2100     5.4400     1.4280 C.3   1 <1>   0.0300 
 12 C        3.7550     6.9400    -1.2690 C.2   1 <1>   0.5690 
 13 O        3.2440     7.3130    -2.3000 O.2   1 <1>  -0.5700 
 14 N        4.3320     7.7910    -0.3790 N.am  1 <1>  -0.4930 
 15 C        4.4300     9.1750    -0.3800 C.2   1 <1>   0.3520 
 16 N        5.0090     9.7570     0.6210 N.2   1 <1>  -0.7070 
 17 C        3.9800    10.0820    -1.3350 C.2   1 <1>  -0.1500 
 18 N        4.9450    11.0730     0.3300 N.pl3 1 <1>   0.3140 
 19 C        4.3280    11.2910    -0.8470 C.2   1 <1>  -0.3020 
 20 C        5.5020    12.0840     1.2360 C.3   1 <1>   0.0160 
 21 H       -0.4790    -1.5350     1.0490 H     1 <1>   0.1500 
 22 H        1.3930     3.2330     1.6240 H     1 <1>   0.0800 
 23 H        0.7280     3.3730     0.0240 H     1 <1>   0.0800 
 24 H        3.9410     1.1320    -0.4850 H     1 <1>   0.0800 
 25 H        3.3910    -0.2690    -1.3580 H     1 <1>   0.0800 
 26 H        4.0330    -0.4390     0.2540 H     1 <1>   0.0800 
 27 H        2.9470     3.0960    -0.9460 H     1 <1>   0.0800 
 28 H        3.6680     3.0440     0.6490 H     1 <1>   0.0800 
 29 H        3.5720     4.9420    -1.9020 H     1 <1>   0.0800 
 30 H        4.8280     5.1730    -0.7320 H     1 <1>   0.0800 
 31 H        2.5660     4.9970     2.1670 H     1 <1>   0.0800 
 32 H        3.0420     6.5020     1.4600 H     1 <1>   0.0800 
 33 H        4.2330     5.2280     1.6900 H     1 <1>   0.0800 
 34 H        4.7230     7.3970     0.4690 H     1 <1>   0.3700 
 35 H        3.4700     9.8340    -2.2480 H     1 <1>   0.1500 
 36 H        4.1720    12.2680    -1.2650 H     1 <1>   0.1500 
 37 H        5.0100    12.0060     2.1870 H     1 <1>   0.0800 
 38 H        5.3470    13.0630     0.8240 H     1 <1>   0.0800 
 39 H        6.5530    11.9000     1.3580 H     1 <1>   0.0800 
@<TRIPOS>BOND
  1   1   2  1   
  2   1   3  1   
  3   2   4  2   
  4   2   5  1   
  5   3   6  2   
  6   3  21  1   
  7   4   6  1   
  8   4   7  1   
  9   5   8  1   
 10   5  22  1   
 11   5  23  1   
 12   7  24  1   
 13   7  25  1   
 14   7  26  1   
 15   8   9  1   
 16   8  27  1   
 17   8  28  1   
 18   9  10  1   
 19   9  11  1   
 20  10  12  1   
 21  10  29  1   
 22  10  30  1   
 23  11  31  1   
 24  11  32  1   
 25  11  33  1   
 26  12  13  2   
 27  12  14  am  
 28  14  15  1   
 29  14  34  1   
 30  15  16  2   
 31  15  17  1   
 32  16  18  1   
 33  17  19  2   
 34  17  35  1   
 35  18  19  1   
 36  18  20  1   
 37  19  36  1   
 38  20  37  1   
 39  20  38  1   
 40  20  39  1   
@<TRIPOS>SUBSTRUCTURE
  1 ****   9 GROUP 4 **** **** 0

# MOE 2024.06 (io_trps.svl 2023.06)
