@<TRIPOS>MOLECULE
NONAME
43 45 1 0 0 
SMALL
USER_CHARGES


@<TRIPOS>ATOM
  1 F        0.5640     0.1540     0.8410 F     1 <1>  -0.1900 
  2 C        1.5110     0.9580     0.4020 C.ar  1 <1>   0.1900 
  3 C        2.7910     0.4920     0.1020 C.ar  1 <1>   0.4100 
  4 C        1.2310     2.2870     0.2490 C.ar  1 <1>   0.1600 
  5 N        3.7070     1.3440    -0.3190 N.ar  1 <1>  -0.6200 
  6 N        3.1800    -0.8420     0.2210 N.pl3 1 <1>  -0.8380 
  7 N        2.1420     3.1420    -0.1740 N.ar  1 <1>  -0.6200 
  8 C        3.3320     2.6070    -0.4370 C.ar  1 <1>   0.7200 
  9 C        2.3380    -1.9290    -0.3460 C.3   1 <1>   0.1290 
 10 C        4.6190    -1.1880     0.3980 C.3   1 <1>   0.1290 
 11 N        4.2970     3.4360    -0.8810 N.pl3 1 <1>  -0.8690 
 12 C        4.4330     4.8030    -0.3470 C.3   1 <1>   0.3900 
 13 C        5.9080     5.1310    -0.1020 C.2   1 <1>   0.1080 
 14 N        6.8600     4.2390    -0.1150 N.2   1 <1>  -0.7070 
 15 C        6.4030     6.4100     0.1660 C.2   1 <1>  -0.1810 
 16 N        7.9830     4.9320     0.1390 N.pl3 1 <1>   0.3000 
 17 C        7.7320     6.2450     0.3130 C.2   1 <1>  -0.3320 
 18 C        5.6350     7.7150     0.2790 C.3   1 <1>   0.0210 
 19 C        8.7960     7.2830     0.6150 C.3   1 <1>   0.0200 
 20 C        6.1940     8.7910    -0.6610 C.3   1 <1>  -0.1600 
 21 C        8.7500     8.4450    -0.3860 C.3   1 <1>  -0.1600 
 22 C        7.5430     9.3840    -0.2150 C.3   1 <1>  -0.1600 
 23 H        0.2480     2.6570     0.4790 H     1 <1>   0.1500 
 24 H        1.5000    -1.5190    -0.8810 H     1 <1>   0.0800 
 25 H        1.9740    -2.5550     0.4510 H     1 <1>   0.0800 
 26 H        2.9160    -2.5270    -1.0290 H     1 <1>   0.0800 
 27 H        5.1080    -0.4360     0.9940 H     1 <1>   0.0800 
 28 H        5.1010    -1.2370    -0.5630 H     1 <1>   0.0800 
 29 H        4.7120    -2.1360     0.8970 H     1 <1>   0.0800 
 30 H        5.2210     2.9920    -0.8490 H     1 <1>   0.4000 
 31 H        3.8990     4.8960     0.5830 H     1 <1>   0.0800 
 32 H        4.0200     5.4960    -1.0570 H     1 <1>   0.0800 
 33 H        8.9030     4.4800     0.1860 H     1 <1>   0.2700 
 34 H        5.6720     8.0610     1.2960 H     1 <1>   0.0800 
 35 H        4.6030     7.5470     0.0310 H     1 <1>   0.0800 
 36 H        9.7670     6.8230     0.5630 H     1 <1>   0.0800 
 37 H        8.6620     7.6530     1.6160 H     1 <1>   0.0800 
 38 H        5.4790     9.5940    -0.7050 H     1 <1>   0.0800 
 39 H        6.2840     8.3870    -1.6550 H     1 <1>   0.0800 
 40 H        8.7660     8.0530    -1.3890 H     1 <1>   0.0800 
 41 H        9.6440     9.0280    -0.2550 H     1 <1>   0.0800 
 42 H        7.4780     9.7130     0.8080 H     1 <1>   0.0800 
 43 H        7.7260    10.2590    -0.8150 H     1 <1>   0.0800 
@<TRIPOS>BOND
  1   1   2  1   
  2   2   3  ar  
  3   2   4  ar  
  4   3   5  ar  
  5   3   6  1   
  6   4   7  ar  
  7   4  23  1   
  8   5   8  ar  
  9   6   9  1   
 10   6  10  1   
 11   7   8  ar  
 12   8  11  1   
 13   9  24  1   
 14   9  25  1   
 15   9  26  1   
 16  10  27  1   
 17  10  28  1   
 18  10  29  1   
 19  11  12  1   
 20  11  30  1   
 21  12  13  1   
 22  12  31  1   
 23  12  32  1   
 24  13  14  2   
 25  13  15  1   
 26  14  16  1   
 27  15  17  2   
 28  15  18  1   
 29  16  17  1   
 30  16  33  1   
 31  17  19  1   
 32  18  20  1   
 33  18  34  1   
 34  18  35  1   
 35  19  21  1   
 36  19  36  1   
 37  19  37  1   
 38  20  22  1   
 39  20  38  1   
 40  20  39  1   
 41  21  22  1   
 42  21  40  1   
 43  21  41  1   
 44  22  42  1   
 45  22  43  1   
@<TRIPOS>SUBSTRUCTURE
  1 ****  11 GROUP 4 **** **** 0

# MOE 2024.06 (io_trps.svl 2023.06)
