@<TRIPOS>MOLECULE
NONAME
50 53 1 0 0 
SMALL
USER_CHARGES


@<TRIPOS>ATOM
  1 O        0.3630    -0.1380    -0.4260 O.3   1 <1>  -0.6800 
  2 C        1.6790    -0.2480    -0.8460 C.3   1 <1>   0.2000 
  3 C        2.3620    -1.4180    -0.1530 C.3   1 <1>  -0.0800 
  4 C        2.4860     0.9730    -0.4060 C.3   1 <1>   0.2090 
  5 C        3.8340    -1.0120    -0.1440 C.3   1 <1>   0.2090 
  6 C        2.1130    -2.7760    -0.8330 C.3   1 <1>  -0.0170 
  7 N        3.8830     0.4860    -0.1480 N.pl3 1 <1>  -0.8380 
  8 C        2.8990    -3.8970    -0.1670 C.ar  1 <1>   0.1660 
  9 C        5.0200     1.2220    -0.0430 C.ar  1 <1>   0.4610 
 10 N        4.1920    -3.9710    -0.4580 N.ar  1 <1>  -0.6200 
 11 C        2.2460    -4.7720     0.6890 C.ar  1 <1>  -0.1500 
 12 N        6.1720     0.5470    -0.1510 N.ar  1 <1>  -0.1790 
 13 C        5.1270     2.6420     0.1420 C.ar  1 <1>  -0.1440 
 14 C        4.8490    -4.9710     0.1120 C.ar  1 <1>   0.1600 
 15 C        2.9470    -5.7980     1.2830 C.ar  1 <1>  -0.1500 
 16 C        7.4340     1.1010    -0.1950 C.ar  1 <1>   0.3610 
 17 C        6.3560     3.2420     0.0870 C.ar  1 <1>  -0.1500 
 18 C        3.8790     3.4840     0.4230 C.3   1 <1>   0.2630 
 19 C        4.2860    -5.8930     0.9770 C.ar  1 <1>  -0.1500 
 20 C        7.5460     2.4920    -0.0930 C.ar  1 <1>   0.0000 
 21 C        8.5820     0.3170    -0.3500 C.ar  1 <1>  -0.1500 
 22 O        4.2070     4.7210     0.9510 O.3   1 <1>  -0.6800 
 23 C        8.8200     3.0700    -0.1600 C.ar  1 <1>  -0.1500 
 24 C        9.8270     0.9010    -0.4110 C.ar  1 <1>  -0.1440 
 25 C        9.9380     2.2870    -0.3160 C.ar  1 <1>  -0.1500 
 26 C       11.0880     0.0690    -0.5810 C.3   1 <1>  -0.0970 
 27 H       -0.1820    -0.8760    -0.7660 H     1 <1>   0.4000 
 28 H        1.7010    -0.3400    -1.9190 H     1 <1>   0.0800 
 29 H        2.0350    -1.4640     0.8720 H     1 <1>   0.0800 
 30 H        2.0610     1.3560     0.5070 H     1 <1>   0.0800 
 31 H        2.4690     1.7220    -1.1780 H     1 <1>   0.0800 
 32 H        4.3110    -1.3840    -1.0370 H     1 <1>   0.0800 
 33 H        4.3230    -1.4210     0.7250 H     1 <1>   0.0800 
 34 H        2.3970    -2.7310    -1.8700 H     1 <1>   0.0800 
 35 H        1.0630    -3.0050    -0.7980 H     1 <1>   0.0800 
 36 H        1.1960    -4.6600     0.8910 H     1 <1>   0.1500 
 37 H        6.0940    -0.4560    -0.2690 H     1 <1>   0.4570 
 38 H        5.8960    -5.0660    -0.1210 H     1 <1>   0.1500 
 39 H        2.4700    -6.4950     1.9520 H     1 <1>   0.1500 
 40 H        6.4770     4.3090     0.1860 H     1 <1>   0.1500 
 41 H        3.2450     3.0010     1.1450 H     1 <1>   0.0800 
 42 H        3.3290     3.6610    -0.4850 H     1 <1>   0.0800 
 43 H        4.8880    -6.6770     1.4010 H     1 <1>   0.1500 
 44 H        8.4930    -0.7510    -0.4250 H     1 <1>   0.1500 
 45 H        4.5790     4.6240     1.8500 H     1 <1>   0.4000 
 46 H        8.9200     4.1400    -0.0860 H     1 <1>   0.1500 
 47 H       10.9130     2.7450    -0.3650 H     1 <1>   0.1500 
 48 H       11.7490     0.2300     0.2520 H     1 <1>   0.0800 
 49 H       11.5980     0.3560    -1.4840 H     1 <1>   0.0800 
 50 H       10.8610    -0.9800    -0.6380 H     1 <1>   0.0800 
@<TRIPOS>BOND
  1   1   2  1   
  2   1  27  1   
  3   2   3  1   
  4   2   4  1   
  5   2  28  1   
  6   3   5  1   
  7   3   6  1   
  8   3  29  1   
  9   4   7  1   
 10   4  30  1   
 11   4  31  1   
 12   5   7  1   
 13   5  32  1   
 14   5  33  1   
 15   6   8  1   
 16   6  34  1   
 17   6  35  1   
 18   7   9  1   
 19   8  10  ar  
 20   8  11  ar  
 21   9  12  ar  
 22   9  13  ar  
 23  10  14  ar  
 24  11  15  ar  
 25  11  36  1   
 26  12  16  ar  
 27  12  37  1   
 28  13  17  ar  
 29  13  18  1   
 30  14  19  ar  
 31  14  38  1   
 32  15  19  ar  
 33  15  39  1   
 34  16  20  ar  
 35  16  21  ar  
 36  17  20  ar  
 37  17  40  1   
 38  18  22  1   
 39  18  41  1   
 40  18  42  1   
 41  19  43  1   
 42  20  23  ar  
 43  21  24  ar  
 44  21  44  1   
 45  22  45  1   
 46  23  25  ar  
 47  23  46  1   
 48  24  25  ar  
 49  24  26  1   
 50  25  47  1   
 51  26  48  1   
 52  26  49  1   
 53  26  50  1   
@<TRIPOS>SUBSTRUCTURE
  1 ****  12 GROUP 4 **** **** 0

# MOE 2024.06 (io_trps.svl 2023.06)
