@<TRIPOS>MOLECULE
NONAME
57 61 1 0 0 
SMALL
USER_CHARGES


@<TRIPOS>ATOM
  1 O       -1.2140     0.4780     2.2060 O.2   1 <1>  -0.5700 
  2 C       -1.1240     0.1670     1.0430 C.2   1 <1>   0.5690 
  3 N       -1.3360    -1.1090     0.6370 N.am  1 <1>  -0.7300 
  4 C       -0.7610     1.2570     0.0330 C.3   1 <1>   0.0610 
  5 C       -2.1450    -2.0630     1.4190 C.3   1 <1>   0.2840 
  6 C       -1.5410     2.5610     0.3620 C.3   1 <1>   0.4230 
  7 C       -1.2510     1.0030    -1.4300 C.3   1 <1>  -0.1600 
  8 C        0.7860     1.4350     0.1080 C.3   1 <1>  -0.0170 
  9 C       -3.6020    -1.7320     1.1460 C.ar  1 <1>  -0.1440 
 10 N       -1.4960     3.2370    -0.9400 N.4   1 <1>  -0.9590 
 11 C       -3.0610     2.3180     0.4890 C.3   1 <1>  -0.1600 
 12 C       -2.1610     2.2020    -1.7260 C.3   1 <1>   0.4230 
 13 C        1.2950     2.7790    -0.3970 C.ar  1 <1>  -0.1440 
 14 C       -4.1370    -1.9170    -0.1130 C.ar  1 <1>  -0.1500 
 15 C       -4.4000    -1.2060     2.1730 C.ar  1 <1>  -0.1500 
 16 C       -2.0590     4.6420    -1.1270 C.3   1 <1>   0.2370 
 17 C       -3.4780     2.0210    -0.9600 C.3   1 <1>  -0.1600 
 18 C        1.4760     3.8220     0.5000 C.ar  1 <1>  -0.1500 
 19 C        1.5360     2.9950    -1.7460 C.ar  1 <1>  -0.1500 
 20 C       -5.4620    -1.5650    -0.3550 C.ar  1 <1>   0.2270 
 21 C       -5.7180    -0.8720     1.9480 C.ar  1 <1>  -0.1500 
 22 C       -1.9260     5.1990    -2.5560 C.2   1 <1>   0.9060 
 23 C        1.8530     5.0750     0.0510 C.ar  1 <1>  -0.1500 
 24 C        1.9000     4.2510    -2.1960 C.ar  1 <1>  -0.1500 
 25 N       -6.1740    -1.6330    -1.5120 N.2   1 <1>  -0.5650 
 26 C       -6.2410    -1.0590     0.6680 C.ar  1 <1>  -0.1520 
 27 O       -1.3710     4.4920    -3.4110 O.co2 1 <1>  -0.9000 
 28 O       -2.3910     6.3120    -2.8000 O.co2 1 <1>  -0.9000 
 29 C        2.0550     5.2920    -1.2990 C.ar  1 <1>  -0.1500 
 30 C       -7.3440    -1.2040    -1.1870 C.2   1 <1>   0.0360 
 31 N       -7.4600    -0.8420     0.1150 N.pl3 1 <1>   0.0330 
 32 H       -1.2440    -1.3570    -0.3470 H     1 <1>   0.3700 
 33 H       -1.9240    -3.0710     1.1120 H     1 <1>   0.0800 
 34 H       -1.9200    -1.9650     2.4680 H     1 <1>   0.0800 
 35 H       -1.1130     3.1310     1.1710 H     1 <1>   0.0800 
 36 H       -1.8060     0.0930    -1.5610 H     1 <1>   0.0800 
 37 H       -0.4420     0.9940    -2.1340 H     1 <1>   0.0800 
 38 H        1.1020     1.3340     1.1330 H     1 <1>   0.0800 
 39 H        1.2700     0.6400    -0.4330 H     1 <1>   0.0800 
 40 H       -0.5240     3.3050    -1.2930 H     1 <1>   0.4500 
 41 H       -3.3210     1.5170     1.1580 H     1 <1>   0.0800 
 42 H       -3.5410     3.2110     0.8470 H     1 <1>   0.0800 
 43 H       -2.2680     2.4390    -2.7750 H     1 <1>   0.0800 
 44 H       -3.5690    -2.3230    -0.9280 H     1 <1>   0.1500 
 45 H       -3.9730    -1.0590     3.1510 H     1 <1>   0.1500 
 46 H       -3.1020     4.6640    -0.8730 H     1 <1>   0.0800 
 47 H       -1.5410     5.3240    -0.4800 H     1 <1>   0.0800 
 48 H       -4.2110     2.7280    -1.3080 H     1 <1>   0.0800 
 49 H       -3.8790     1.0290    -1.0770 H     1 <1>   0.0800 
 50 H        1.3180     3.6730     1.5550 H     1 <1>   0.1500 
 51 H        1.4320     2.2040    -2.4680 H     1 <1>   0.1500 
 52 H       -6.3340    -0.4760     2.7370 H     1 <1>   0.1500 
 53 H        1.9870     5.8840     0.7480 H     1 <1>   0.1500 
 54 H        2.0520     4.4230    -3.2480 H     1 <1>   0.1500 
 55 H        2.3330     6.2690    -1.6580 H     1 <1>   0.1500 
 56 H       -8.1740    -1.1330    -1.8700 H     1 <1>   0.1500 
 57 H       -8.2970    -0.4950     0.5920 H     1 <1>   0.2700 
@<TRIPOS>BOND
  1   1   2  2   
  2   2   3  am  
  3   2   4  1   
  4   3   5  1   
  5   3  32  1   
  6   4   6  1   
  7   4   7  1   
  8   4   8  1   
  9   5   9  1   
 10   5  33  1   
 11   5  34  1   
 12   6  10  1   
 13   6  11  1   
 14   6  35  1   
 15   7  12  1   
 16   7  36  1   
 17   7  37  1   
 18   8  13  1   
 19   8  38  1   
 20   8  39  1   
 21   9  14  ar  
 22   9  15  ar  
 23  10  12  1   
 24  10  16  1   
 25  10  40  1   
 26  11  17  1   
 27  11  41  1   
 28  11  42  1   
 29  12  17  1   
 30  12  43  1   
 31  13  18  ar  
 32  13  19  ar  
 33  14  20  ar  
 34  14  44  1   
 35  15  21  ar  
 36  15  45  1   
 37  16  22  1   
 38  16  46  1   
 39  16  47  1   
 40  17  48  1   
 41  17  49  1   
 42  18  23  ar  
 43  18  50  1   
 44  19  24  ar  
 45  19  51  1   
 46  20  25  1   
 47  20  26  ar  
 48  21  26  ar  
 49  21  52  1   
 50  22  27  ar  
 51  22  28  ar  
 52  23  29  ar  
 53  23  53  1   
 54  24  29  ar  
 55  24  54  1   
 56  25  30  2   
 57  26  31  1   
 58  29  55  1   
 59  30  31  1   
 60  30  56  1   
 61  31  57  1   
@<TRIPOS>SUBSTRUCTURE
  1 ****   6 GROUP 4 **** **** 0

# MOE 2024.06 (io_trps.svl 2023.06)
