@<TRIPOS>MOLECULE
NONAME
55 58 1 0 0 
SMALL
USER_CHARGES


@<TRIPOS>ATOM
  1 O        0.4540    -0.1470    -0.9610 O.2   1 <1>  -0.5700 
  2 C        1.1150    -1.0650    -0.5410 C.2   1 <1>   0.5690 
  3 N        0.6230    -2.0280     0.2970 N.am  1 <1>  -0.6600 
  4 C        2.5680    -1.1750    -0.9540 C.3   1 <1>  -0.0990 
  5 C        1.5010    -3.1110     0.8010 C.3   1 <1>   0.1400 
  6 C       -0.7790    -2.0120     0.7960 C.3   1 <1>   0.0600 
  7 C        2.8980    -2.6270    -1.3500 C.3   1 <1>  -0.0800 
  8 C        2.3660    -3.6770    -0.3450 C.3   1 <1>  -0.0800 
  9 C        4.4040    -2.8810    -1.5070 C.3   1 <1>  -0.1600 
 10 C        3.5980    -4.4420     0.1570 C.3   1 <1>  -0.1600 
 11 C        4.6160    -4.2920    -0.9720 C.3   1 <1>   0.4230 
 12 N        6.0400    -4.5950    -0.6190 N.4   1 <1>  -0.9590 
 13 C        6.5390    -4.1830     0.7340 C.3   1 <1>   0.4860 
 14 C        6.3140    -6.0470    -0.8360 C.3   1 <1>   0.2630 
 15 C        6.7420    -2.6830     0.7870 C.ar  1 <1>  -0.1440 
 16 C        7.7150    -2.0700     0.0390 C.ar  1 <1>  -0.1500 
 17 C        5.9180    -1.9020     1.6130 C.ar  1 <1>  -0.1500 
 18 C        7.8890    -0.6720     0.0560 C.ar  1 <1>   0.0000 
 19 C        6.0630    -0.5440     1.6450 C.ar  1 <1>  -0.1500 
 20 C        7.0390     0.1080     0.8670 C.ar  1 <1>   0.0000 
 21 C        8.8780    -0.0190    -0.7090 C.ar  1 <1>  -0.1500 
 22 C        7.2010     1.5060     0.8720 C.ar  1 <1>  -0.1500 
 23 C        9.0170     1.3410    -0.6840 C.ar  1 <1>  -0.1500 
 24 C        8.1630     2.1220     0.1180 C.ar  1 <1>   0.0820 
 25 O        8.2430     3.4730     0.1880 O.3   1 <1>  -0.3620 
 26 C        9.2190     4.1990    -0.5240 C.3   1 <1>   0.0400 
 27 H        2.7560    -0.5130    -1.7800 H     1 <1>   0.0800 
 28 H        3.1710    -0.8560    -0.1240 H     1 <1>   0.0800 
 29 H        2.1230    -2.6960     1.5760 H     1 <1>   0.0800 
 30 H        0.9060    -3.8980     1.2320 H     1 <1>   0.0800 
 31 H       -1.2820    -2.9150     0.5000 H     1 <1>   0.0800 
 32 H       -1.3150    -1.1720     0.3880 H     1 <1>   0.0800 
 33 H       -0.7840    -1.9330     1.8690 H     1 <1>   0.0800 
 34 H        2.4150    -2.8160    -2.2960 H     1 <1>   0.0800 
 35 H        1.7470    -4.3650    -0.8980 H     1 <1>   0.0800 
 36 H        4.9460    -2.1530    -0.9380 H     1 <1>   0.0800 
 37 H        4.6950    -2.8040    -2.5400 H     1 <1>   0.0800 
 38 H        3.3620    -5.4740     0.3480 H     1 <1>   0.0800 
 39 H        3.9420    -3.9740     1.0570 H     1 <1>   0.0800 
 40 H        4.3100    -4.9590    -1.7630 H     1 <1>   0.0800 
 41 H        6.6050    -4.0550    -1.2880 H     1 <1>   0.4500 
 42 H        5.8590    -4.5000     1.5060 H     1 <1>   0.0800 
 43 H        7.4910    -4.6530     0.9250 H     1 <1>   0.0800 
 44 H        5.7340    -6.6450    -0.1510 H     1 <1>   0.0800 
 45 H        7.3600    -6.2610    -0.6810 H     1 <1>   0.0800 
 46 H        6.0550    -6.3310    -1.8430 H     1 <1>   0.0800 
 47 H        8.3810    -2.6370    -0.5860 H     1 <1>   0.1500 
 48 H        5.1660    -2.3660     2.2280 H     1 <1>   0.1500 
 49 H        5.4320     0.0610     2.2730 H     1 <1>   0.1500 
 50 H        9.5340    -0.6130    -1.3210 H     1 <1>   0.1500 
 51 H        6.5530     2.1040     1.4850 H     1 <1>   0.1500 
 52 H        9.7800     1.8060    -1.2790 H     1 <1>   0.1500 
 53 H        9.0880     5.2420    -0.3000 H     1 <1>   0.0800 
 54 H        9.0800     4.0320    -1.5780 H     1 <1>   0.0800 
 55 H       10.1950     3.8780    -0.2060 H     1 <1>   0.0800 
@<TRIPOS>BOND
  1   1   2  2   
  2   2   3  am  
  3   2   4  1   
  4   3   5  1   
  5   3   6  1   
  6   4   7  1   
  7   4  27  1   
  8   4  28  1   
  9   5   8  1   
 10   5  29  1   
 11   5  30  1   
 12   6  31  1   
 13   6  32  1   
 14   6  33  1   
 15   7   8  1   
 16   7   9  1   
 17   7  34  1   
 18   8  10  1   
 19   8  35  1   
 20   9  11  1   
 21   9  36  1   
 22   9  37  1   
 23  10  11  1   
 24  10  38  1   
 25  10  39  1   
 26  11  12  1   
 27  11  40  1   
 28  12  13  1   
 29  12  14  1   
 30  12  41  1   
 31  13  15  1   
 32  13  42  1   
 33  13  43  1   
 34  14  44  1   
 35  14  45  1   
 36  14  46  1   
 37  15  16  ar  
 38  15  17  ar  
 39  16  18  ar  
 40  16  47  1   
 41  17  19  ar  
 42  17  48  1   
 43  18  20  ar  
 44  18  21  ar  
 45  19  20  ar  
 46  19  49  1   
 47  20  22  ar  
 48  21  23  ar  
 49  21  50  1   
 50  22  24  ar  
 51  22  51  1   
 52  23  24  ar  
 53  23  52  1   
 54  24  25  1   
 55  25  26  1   
 56  26  53  1   
 57  26  54  1   
 58  26  55  1   
@<TRIPOS>SUBSTRUCTURE
  1 ****  17 GROUP 4 **** **** 0

# MOE 2024.06 (io_trps.svl 2023.06)
