@<TRIPOS>MOLECULE
NONAME
50 52 1 0 0 
SMALL
USER_CHARGES


@<TRIPOS>ATOM
  1 O       -0.5780     0.3400     1.8100 O.2   1 <1>  -0.5700 
  2 C       -1.4400     0.9520     1.2100 C.2   1 <1>   0.5440 
  3 N       -2.3980     0.2430     0.5230 N.am  1 <1>  -0.6600 
  4 C       -1.4350     2.4020     1.2150 C.ar  1 <1>   0.0860 
  5 C       -3.2860     0.8090    -0.5220 C.3   1 <1>   0.1400 
  6 C       -2.3960    -1.2390     0.4630 C.3   1 <1>   0.1400 
  7 C       -0.3090     3.1110     0.8050 C.ar  1 <1>  -0.1500 
  8 C       -2.5490     3.1340     1.6240 C.ar  1 <1>  -0.1500 
  9 C       -3.7500    -0.3970    -1.3390 C.3   1 <1>   0.2000 
 10 C       -3.5940    -1.6030    -0.4170 C.3   1 <1>  -0.0800 
 11 C       -0.2830     4.4960     0.7760 C.ar  1 <1>   0.0730 
 12 C       -2.5420     4.5160     1.6050 C.ar  1 <1>  -0.1500 
 13 O       -5.0730    -0.2700    -1.7340 O.3   1 <1>  -0.6800 
 14 C       -3.4320    -2.9230    -1.1900 C.3   1 <1>  -0.0170 
 15 C        0.8840     5.1980     0.3380 C.1   1 <1>  -0.0730 
 16 C       -1.4130     5.1920     1.1790 C.ar  1 <1>  -0.1500 
 17 C       -3.3330    -4.1160    -0.2530 C.ar  1 <1>   0.1670 
 18 C        1.8480     5.7950    -0.0270 C.1   1 <1>  -0.2000 
 19 N       -2.1360    -4.3750     0.2490 N.ar  1 <1>  -0.6200 
 20 C       -4.4690    -4.8690     0.0390 C.ar  1 <1>   0.1600 
 21 C        3.0530     6.5440    -0.4760 C.3   1 <1>   0.4800 
 22 C       -2.1510    -5.4230     1.0560 C.ar  1 <1>   0.1600 
 23 N       -4.4870    -5.9170     0.8470 N.ar  1 <1>  -0.6200 
 24 O        2.6680     7.8320    -0.7380 O.3   1 <1>  -0.6800 
 25 C        4.1060     6.6010     0.6240 C.3   1 <1>  -0.2400 
 26 C        3.6100     5.9660    -1.7720 C.3   1 <1>  -0.2400 
 27 C       -3.2880    -6.1680     1.3450 C.ar  1 <1>   0.1600 
 28 H       -4.1220     1.2960    -0.0510 H     1 <1>   0.0800 
 29 H       -2.7480     1.5060    -1.1410 H     1 <1>   0.0800 
 30 H       -1.4730    -1.5720     0.0190 H     1 <1>   0.0800 
 31 H       -2.4820    -1.6630     1.4500 H     1 <1>   0.0800 
 32 H        0.5660     2.5610     0.5040 H     1 <1>   0.1500 
 33 H       -3.4230     2.6080     1.9650 H     1 <1>   0.1500 
 34 H       -3.1380    -0.4950    -2.2210 H     1 <1>   0.0800 
 35 H       -4.4510    -1.6710     0.2310 H     1 <1>   0.0800 
 36 H       -3.4100     5.0680     1.9220 H     1 <1>   0.1500 
 37 H       -5.6560    -0.1870    -0.9550 H     1 <1>   0.4000 
 38 H       -2.5490    -2.8850    -1.8040 H     1 <1>   0.0800 
 39 H       -4.2740    -3.0530    -1.8470 H     1 <1>   0.0800 
 40 H       -1.4020     6.2680     1.1590 H     1 <1>   0.1500 
 41 H       -5.4040    -4.5930    -0.4130 H     1 <1>   0.1500 
 42 H       -1.2190    -5.7050     1.5110 H     1 <1>   0.1500 
 43 H        3.4420     8.3400    -1.0320 H     1 <1>   0.4000 
 44 H        4.4200     5.6040     0.8750 H     1 <1>   0.0800 
 45 H        3.6920     7.0540     1.5070 H     1 <1>   0.0800 
 46 H        4.9670     7.1590     0.3040 H     1 <1>   0.0800 
 47 H        3.9080     4.9460    -1.6130 H     1 <1>   0.0800 
 48 H        4.4660     6.5230    -2.1050 H     1 <1>   0.0800 
 49 H        2.8530     5.9790    -2.5350 H     1 <1>   0.0800 
 50 H       -3.2010    -7.0040     2.0160 H     1 <1>   0.1500 
@<TRIPOS>BOND
  1   1   2  2   
  2   2   3  am  
  3   2   4  1   
  4   3   5  1   
  5   3   6  1   
  6   4   7  ar  
  7   4   8  ar  
  8   5   9  1   
  9   5  28  1   
 10   5  29  1   
 11   6  10  1   
 12   6  30  1   
 13   6  31  1   
 14   7  11  ar  
 15   7  32  1   
 16   8  12  ar  
 17   8  33  1   
 18   9  10  1   
 19   9  13  1   
 20   9  34  1   
 21  10  14  1   
 22  10  35  1   
 23  11  15  1   
 24  11  16  ar  
 25  12  16  ar  
 26  12  36  1   
 27  13  37  1   
 28  14  17  1   
 29  14  38  1   
 30  14  39  1   
 31  15  18  3   
 32  16  40  1   
 33  17  19  ar  
 34  17  20  ar  
 35  18  21  1   
 36  19  22  ar  
 37  20  23  ar  
 38  20  41  1   
 39  21  24  1   
 40  21  25  1   
 41  21  26  1   
 42  22  27  ar  
 43  22  42  1   
 44  23  27  ar  
 45  24  43  1   
 46  25  44  1   
 47  25  45  1   
 48  25  46  1   
 49  26  47  1   
 50  26  48  1   
 51  26  49  1   
 52  27  50  1   
@<TRIPOS>SUBSTRUCTURE
  1 ****   2 GROUP 4 **** **** 0

# MOE 2024.06 (io_trps.svl 2023.06)
