@<TRIPOS>MOLECULE
NONAME
53 56 1 0 0 
SMALL
USER_CHARGES


@<TRIPOS>ATOM
  1 O        1.8150    -1.0080    -0.2540 O.co2 1 <1>  -0.9000 
  2 C        1.6020     0.2100    -0.2690 C.2   1 <1>   0.9060 
  3 O        1.1150     0.7990     0.7040 O.co2 1 <1>  -0.9000 
  4 C        1.9320     0.9980    -1.5140 C.3   1 <1>  -0.0850 
  5 C        3.2380     1.7630    -1.4060 C.2   1 <1>   0.1080 
  6 N        3.7960     2.3480    -2.4240 N.2   1 <1>  -0.7070 
  7 C        3.9780     1.9350    -0.2410 C.2   1 <1>  -0.1500 
  8 N        4.9120     2.9030    -1.9290 N.pl3 1 <1>   0.3000 
  9 C        5.0500     2.6690    -0.6050 C.2   1 <1>  -0.3320 
 10 C        6.1780     3.1350     0.2890 C.3   1 <1>   0.1000 
 11 C        6.2660     4.6620     0.3230 C.3   1 <1>  -0.1600 
 12 C        7.5150     2.5290    -0.1460 C.3   1 <1>  -0.1600 
 13 C        7.4120     5.1170     1.2240 C.3   1 <1>   0.3430 
 14 C        8.6470     3.0070     0.7610 C.3   1 <1>   0.3430 
 15 N        8.6970     4.4990     0.7670 N.4   1 <1>  -0.9590 
 16 C        9.8550     5.0020     1.5530 C.3   1 <1>   0.5240 
 17 C        9.9940     6.4790     1.2670 C.2   1 <1>  -0.1810 
 18 C        9.7340     7.5080     2.1650 C.2   1 <1>   0.1390 
 19 C       10.3620     7.1100     0.1290 C.2   1 <1>  -0.3020 
 20 N        9.9020     8.6710     1.6280 N.2   1 <1>  -0.7070 
 21 N       10.3170     8.4480     0.3560 N.pl3 1 <1>   0.5930 
 22 C       10.5590     9.4750    -0.5960 C.ar  1 <1>  -0.0230 
 23 C       11.8150     9.6640    -1.1820 C.ar  1 <1>  -0.1440 
 24 C        9.5100    10.3110    -0.9670 C.ar  1 <1>  -0.1500 
 25 C       11.9830    10.6540    -2.1370 C.ar  1 <1>  -0.1500 
 26 C       13.0200     8.8180    -0.7900 C.3   1 <1>  -0.0970 
 27 C        9.6880    11.2980    -1.9170 C.ar  1 <1>  -0.1500 
 28 C       10.9260    11.4670    -2.5070 C.ar  1 <1>  -0.1500 
 29 H        1.1330     1.6880    -1.6930 H     1 <1>   0.0800 
 30 H        1.9890     0.3160    -2.3380 H     1 <1>   0.0800 
 31 H        3.7030     1.5410     0.7240 H     1 <1>   0.1500 
 32 H        5.5480     3.4320    -2.5330 H     1 <1>   0.2700 
 33 H        5.9580     2.7870     1.2860 H     1 <1>   0.0800 
 34 H        5.3390     5.0570     0.7030 H     1 <1>   0.0800 
 35 H        6.4050     5.0580    -0.6670 H     1 <1>   0.0800 
 36 H        7.7320     2.7860    -1.1670 H     1 <1>   0.0800 
 37 H        7.4450     1.4560    -0.0900 H     1 <1>   0.0800 
 38 H        7.2040     4.8230     2.2410 H     1 <1>   0.0800 
 39 H        7.4820     6.1940     1.1910 H     1 <1>   0.0800 
 40 H        9.5820     2.6030     0.4060 H     1 <1>   0.0800 
 41 H        8.4780     2.6420     1.7610 H     1 <1>   0.0800 
 42 H        8.8560     4.8240    -0.1950 H     1 <1>   0.4500 
 43 H       10.7580     4.4960     1.2520 H     1 <1>   0.0800 
 44 H        9.6990     4.8370     2.6070 H     1 <1>   0.0800 
 45 H        9.4220     7.3830     3.1900 H     1 <1>   0.1500 
 46 H       10.6530     6.7250    -0.8310 H     1 <1>   0.1500 
 47 H        8.5450    10.1910    -0.5030 H     1 <1>   0.1500 
 48 H       12.9420    10.8060    -2.6000 H     1 <1>   0.1500 
 49 H       13.0790     8.7200     0.2790 H     1 <1>   0.0800 
 50 H       13.9330     9.2760    -1.1280 H     1 <1>   0.0800 
 51 H       12.9490     7.8410    -1.2330 H     1 <1>   0.0800 
 52 H        8.8670    11.9360    -2.1960 H     1 <1>   0.1500 
 53 H       11.0700    12.2330    -3.2490 H     1 <1>   0.1500 
@<TRIPOS>BOND
  1   1   2  ar  
  2   2   3  ar  
  3   2   4  1   
  4   4   5  1   
  5   4  29  1   
  6   4  30  1   
  7   5   6  2   
  8   5   7  1   
  9   6   8  1   
 10   7   9  2   
 11   7  31  1   
 12   8   9  1   
 13   8  32  1   
 14   9  10  1   
 15  10  11  1   
 16  10  12  1   
 17  10  33  1   
 18  11  13  1   
 19  11  34  1   
 20  11  35  1   
 21  12  14  1   
 22  12  36  1   
 23  12  37  1   
 24  13  15  1   
 25  13  38  1   
 26  13  39  1   
 27  14  15  1   
 28  14  40  1   
 29  14  41  1   
 30  15  16  1   
 31  15  42  1   
 32  16  17  1   
 33  16  43  1   
 34  16  44  1   
 35  17  18  1   
 36  17  19  2   
 37  18  20  2   
 38  18  45  1   
 39  19  21  1   
 40  19  46  1   
 41  20  21  1   
 42  21  22  1   
 43  22  23  ar  
 44  22  24  ar  
 45  23  25  ar  
 46  23  26  1   
 47  24  27  ar  
 48  24  47  1   
 49  25  28  ar  
 50  25  48  1   
 51  26  49  1   
 52  26  50  1   
 53  26  51  1   
 54  27  28  ar  
 55  27  52  1   
 56  28  53  1   
@<TRIPOS>SUBSTRUCTURE
  1 ****  13 GROUP 4 **** **** 0

# MOE 2024.06 (io_trps.svl 2023.06)
