@<TRIPOS>MOLECULE
NONAME
40 42 1 0 0 
SMALL
USER_CHARGES


@<TRIPOS>ATOM
  1 CL       0.9480     0.8480    -1.8100 Cl    1 <1>  -0.1770 
  2 C        2.0730     1.4170    -0.6010 C.ar  1 <1>   0.1770 
  3 C        2.9000     0.5240     0.0650 C.ar  1 <1>  -0.1440 
  4 C        2.1110     2.7740    -0.3370 C.ar  1 <1>  -0.1500 
  5 C        3.7780     1.0220     1.0150 C.ar  1 <1>  -0.1500 
  6 C        2.8490    -0.9680    -0.2310 C.3   1 <1>  -0.0960 
  7 C        2.9960     3.2660     0.6120 C.ar  1 <1>  -0.1430 
  8 C        3.8250     2.3800     1.2880 C.ar  1 <1>  -0.1500 
  9 C        3.0610     4.7550     0.8960 C.3   1 <1>   0.4870 
 10 N        4.3820     5.2670     0.4460 N.4   1 <1>  -0.9590 
 11 C        4.6960     6.6350     0.9980 C.3   1 <1>   0.3430 
 12 C        4.6110     5.0680    -1.0270 C.3   1 <1>   0.3430 
 13 C        6.1680     7.1010     0.8110 C.3   1 <1>   0.2200 
 14 C        6.0810     5.1960    -1.4530 C.3   1 <1>  -0.0190 
 15 N        6.4140     7.4860    -0.5980 N.am  1 <1>  -0.7300 
 16 C        7.2150     6.0570     1.2750 C.3   1 <1>   0.1200 
 17 C        6.3950     6.6540    -1.6530 C.2   1 <1>   0.5690 
 18 C        7.1310     4.5060    -0.5540 C.3   1 <1>   0.1200 
 19 O        6.9380     4.7570     0.8140 O.3   1 <1>  -0.5600 
 20 O        6.5950     7.0730    -2.7600 O.2   1 <1>  -0.5700 
 21 H        1.4440     3.4190    -0.8800 H     1 <1>   0.1500 
 22 H        4.4280     0.3510     1.5510 H     1 <1>   0.1500 
 23 H        3.5520    -1.5090     0.3770 H     1 <1>   0.0800 
 24 H        3.0830    -1.1480    -1.2650 H     1 <1>   0.0800 
 25 H        1.8630    -1.3480    -0.0290 H     1 <1>   0.0800 
 26 H        4.5170     2.7270     2.0370 H     1 <1>   0.1500 
 27 H        2.9400     4.9160     1.9550 H     1 <1>   0.0800 
 28 H        2.2660     5.2670     0.3780 H     1 <1>   0.0800 
 29 H        5.1010     4.6480     0.8730 H     1 <1>   0.4500 
 30 H        4.0440     7.3670     0.5510 H     1 <1>   0.0800 
 31 H        4.4940     6.6270     2.0560 H     1 <1>   0.0800 
 32 H        4.2880     4.0750    -1.2960 H     1 <1>   0.0800 
 33 H        4.0140     5.7670    -1.5910 H     1 <1>   0.0800 
 34 H        6.3100     7.9890     1.4050 H     1 <1>   0.0800 
 35 H        6.1630     4.7450    -2.4260 H     1 <1>   0.0800 
 36 H        6.6910     8.4550    -0.7950 H     1 <1>   0.3700 
 37 H        7.2120     6.0080     2.3500 H     1 <1>   0.0800 
 38 H        8.2070     6.3380     0.9610 H     1 <1>   0.0800 
 39 H        8.1290     4.8090    -0.8250 H     1 <1>   0.0800 
 40 H        7.0640     3.4390    -0.6840 H     1 <1>   0.0800 
@<TRIPOS>BOND
  1   1   2  1   
  2   2   3  ar  
  3   2   4  ar  
  4   3   5  ar  
  5   3   6  1   
  6   4   7  ar  
  7   4  21  1   
  8   5   8  ar  
  9   5  22  1   
 10   6  23  1   
 11   6  24  1   
 12   6  25  1   
 13   7   8  ar  
 14   7   9  1   
 15   8  26  1   
 16   9  10  1   
 17   9  27  1   
 18   9  28  1   
 19  10  11  1   
 20  10  12  1   
 21  10  29  1   
 22  11  13  1   
 23  11  30  1   
 24  11  31  1   
 25  12  14  1   
 26  12  32  1   
 27  12  33  1   
 28  13  15  1   
 29  13  16  1   
 30  13  34  1   
 31  14  17  1   
 32  14  18  1   
 33  14  35  1   
 34  15  17  am  
 35  15  36  1   
 36  16  19  1   
 37  16  37  1   
 38  16  38  1   
 39  17  20  2   
 40  18  19  1   
 41  18  39  1   
 42  18  40  1   
@<TRIPOS>SUBSTRUCTURE
  1 ****  12 GROUP 4 **** **** 0

# MOE 2024.06 (io_trps.svl 2023.06)
