@<TRIPOS>MOLECULE
NONAME
34 35 1 0 0 
SMALL
USER_CHARGES


@<TRIPOS>ATOM
  1 O        0.0200    -0.2180     0.3250 O.2   1 <1>  -0.5700 
  2 C        1.0230    -0.6920    -0.1800 C.2   1 <1>   0.7160 
  3 N        2.1410     0.0790    -0.3390 N.am  1 <1>  -0.4930 
  4 C        1.0770    -2.0720    -0.6300 C.2   1 <1>   0.1410 
  5 C        2.3810     1.4340    -0.0020 C.2   1 <1>   0.0630 
  6 N        2.2020    -2.6130    -1.1990 N.2   1 <1>  -0.5650 
  7 C        0.1350    -3.0470    -0.5930 C.2   1 <1>  -0.0400 
  8 C        1.5290     2.3680     0.5900 C.2   1 <1>   0.1390 
  9 C        3.5330     2.1070    -0.2000 C.2   1 <1>  -0.3020 
 10 C        1.8650    -3.8230    -1.4500 C.2   1 <1>   0.3280 
 11 O        0.6400    -4.1300    -1.1070 O.3   1 <1>  -0.2800 
 12 C       -1.3010    -3.0810    -0.0930 C.3   1 <1>   0.0200 
 13 N        2.0990     3.5260     0.7480 N.2   1 <1>  -0.7070 
 14 N        3.3460     3.3670     0.2570 N.pl3 1 <1>   0.3140 
 15 C       -1.4250    -3.9640     1.1510 C.3   1 <1>  -0.2400 
 16 C        4.3620     4.4600     0.2380 C.3   1 <1>   0.1760 
 17 C        4.6860     4.9250     1.6650 C.3   1 <1>  -0.2400 
 18 C        3.8770     5.6360    -0.6220 C.3   1 <1>  -0.2400 
 19 H        2.9160    -0.4280    -0.7710 H     1 <1>   0.3700 
 20 H        0.5150     2.1610     0.8840 H     1 <1>   0.1500 
 21 H        4.4550     1.7710    -0.6310 H     1 <1>   0.1500 
 22 H        2.4780    -4.5830    -1.9030 H     1 <1>   0.1500 
 23 H       -1.9340    -3.4650    -0.8740 H     1 <1>   0.0800 
 24 H       -1.6390    -2.0890     0.1430 H     1 <1>   0.0800 
 25 H       -1.1210    -4.9710     0.9260 H     1 <1>   0.0800 
 26 H       -2.4440    -3.9780     1.4940 H     1 <1>   0.0800 
 27 H       -0.8000    -3.5810     1.9390 H     1 <1>   0.0800 
 28 H        5.2580     4.0610    -0.2030 H     1 <1>   0.0800 
 29 H        3.8070     5.3340     2.1320 H     1 <1>   0.0800 
 30 H        5.4490     5.6810     1.6460 H     1 <1>   0.0800 
 31 H        5.0400     4.0960     2.2520 H     1 <1>   0.0800 
 32 H        2.9820     6.0600    -0.2020 H     1 <1>   0.0800 
 33 H        3.6690     5.3010    -1.6230 H     1 <1>   0.0800 
 34 H        4.6310     6.4000    -0.6670 H     1 <1>   0.0800 
@<TRIPOS>BOND
  1   1   2  2   
  2   2   3  am  
  3   2   4  1   
  4   3   5  1   
  5   3  19  1   
  6   4   6  1   
  7   4   7  2   
  8   5   8  1   
  9   5   9  2   
 10   6  10  2   
 11   7  11  1   
 12   7  12  1   
 13   8  13  2   
 14   8  20  1   
 15   9  14  1   
 16   9  21  1   
 17  10  11  1   
 18  10  22  1   
 19  12  15  1   
 20  12  23  1   
 21  12  24  1   
 22  13  14  1   
 23  14  16  1   
 24  15  25  1   
 25  15  26  1   
 26  15  27  1   
 27  16  17  1   
 28  16  18  1   
 29  16  28  1   
 30  17  29  1   
 31  17  30  1   
 32  17  31  1   
 33  18  32  1   
 34  18  33  1   
 35  18  34  1   
@<TRIPOS>SUBSTRUCTURE
  1 ****   3 GROUP 4 **** **** 0

# MOE 2024.06 (io_trps.svl 2023.06)
