@<TRIPOS>MOLECULE
NONAME
44 46 1 0 0 
SMALL
USER_CHARGES


@<TRIPOS>ATOM
  1 O       -0.3950     0.8680     0.9380 O.2   1 <1>  -0.5700 
  2 C       -0.1160     2.0410     0.7550 C.2   1 <1>   0.7150 
  3 N       -1.1260     2.9800     0.7610 N.am  1 <1>  -0.6600 
  4 C        1.2560     2.4160     0.5210 C.2   1 <1>  -0.2370 
  5 C       -2.5300     2.6160     1.1120 C.3   1 <1>   0.1400 
  6 C       -0.9420     4.3540     0.2060 C.3   1 <1>   0.1400 
  7 N        2.1040     1.7170    -0.3030 N.pl3 1 <1>   0.0480 
  8 C        1.9670     3.4720     1.0370 C.2   1 <1>  -0.1500 
  9 C       -3.4700     2.6720    -0.1260 C.3   1 <1>   0.0000 
 10 C       -2.2490     4.9150    -0.3770 C.3   1 <1>  -0.1600 
 11 C        3.3070     2.3400    -0.3010 C.2   1 <1>  -0.3020 
 12 C        1.7810     0.4970    -1.0670 C.3   1 <1>   0.0160 
 13 C        3.2560     3.4250     0.5150 C.2   1 <1>  -0.1500 
 14 C       -4.9250     2.7660     0.3870 C.3   1 <1>   0.2000 
 15 C       -3.0420     3.8150    -1.0950 C.3   1 <1>  -0.1600 
 16 C       -3.4650     1.3120    -0.8450 C.3   1 <1>  -0.1600 
 17 O       -5.7890     3.1220    -0.6560 O.3   1 <1>  -0.5600 
 18 C       -5.2730     1.3370     0.8180 C.3   1 <1>  -0.1600 
 19 C       -4.4290     0.4080    -0.0670 C.3   1 <1>  -0.1600 
 20 C       -6.9770     3.7300    -0.2610 C.3   1 <1>   0.0400 
 21 H       -2.5650     1.6420     1.5680 H     1 <1>   0.0800 
 22 H       -2.8690     3.3180     1.8520 H     1 <1>   0.0800 
 23 H       -0.5780     5.0080     0.9790 H     1 <1>   0.0800 
 24 H       -0.2060     4.3160    -0.5790 H     1 <1>   0.0800 
 25 H        1.6120     4.2120     1.7310 H     1 <1>   0.1500 
 26 H       -2.8460     5.3400     0.4110 H     1 <1>   0.0800 
 27 H       -2.0140     5.7070    -1.0660 H     1 <1>   0.0800 
 28 H        4.1440     1.9850    -0.8750 H     1 <1>   0.1500 
 29 H        2.5930     0.2560    -1.7280 H     1 <1>   0.0800 
 30 H        0.8860     0.6610    -1.6390 H     1 <1>   0.0800 
 31 H        1.6210    -0.3150    -0.3820 H     1 <1>   0.0800 
 32 H        4.0470     4.1220     0.7330 H     1 <1>   0.1500 
 33 H       -5.0230     3.4820     1.1860 H     1 <1>   0.0800 
 34 H       -2.4040     3.4030    -1.8580 H     1 <1>   0.0800 
 35 H       -3.8870     4.2470    -1.6000 H     1 <1>   0.0800 
 36 H       -3.8510     1.4390    -1.8420 H     1 <1>   0.0800 
 37 H       -2.4780     0.8880    -0.9090 H     1 <1>   0.0800 
 38 H       -4.9850     1.1990     1.8440 H     1 <1>   0.0800 
 39 H       -6.3240     1.1260     0.7270 H     1 <1>   0.0800 
 40 H       -3.8810    -0.2900     0.5430 H     1 <1>   0.0800 
 41 H       -5.0540    -0.1410    -0.7510 H     1 <1>   0.0800 
 42 H       -7.5620     3.9220    -1.1430 H     1 <1>   0.0800 
 43 H       -6.7520     4.6580     0.2340 H     1 <1>   0.0800 
 44 H       -7.5190     3.0720     0.3960 H     1 <1>   0.0800 
@<TRIPOS>BOND
  1   1   2  2   
  2   2   3  am  
  3   2   4  1   
  4   3   5  1   
  5   3   6  1   
  6   4   7  1   
  7   4   8  2   
  8   5   9  1   
  9   5  21  1   
 10   5  22  1   
 11   6  10  1   
 12   6  23  1   
 13   6  24  1   
 14   7  11  1   
 15   7  12  1   
 16   8  13  1   
 17   8  25  1   
 18   9  14  1   
 19   9  15  1   
 20   9  16  1   
 21  10  15  1   
 22  10  26  1   
 23  10  27  1   
 24  11  13  2   
 25  11  28  1   
 26  12  29  1   
 27  12  30  1   
 28  12  31  1   
 29  13  32  1   
 30  14  17  1   
 31  14  18  1   
 32  14  33  1   
 33  15  34  1   
 34  15  35  1   
 35  16  19  1   
 36  16  36  1   
 37  16  37  1   
 38  17  20  1   
 39  18  19  1   
 40  18  38  1   
 41  18  39  1   
 42  19  40  1   
 43  19  41  1   
 44  20  42  1   
 45  20  43  1   
 46  20  44  1   
@<TRIPOS>SUBSTRUCTURE
  1 ****   3 GROUP 4 **** **** 0

# MOE 2024.06 (io_trps.svl 2023.06)
