@<TRIPOS>MOLECULE
NONAME
37 38 1 0 0 
SMALL
USER_CHARGES


@<TRIPOS>ATOM
  1 O       -0.6420     0.0610    -0.1860 O.2   1 <1>  -0.5700 
  2 C       -1.5630     0.8140    -0.0090 C.2   1 <1>   0.5690 
  3 N       -2.5640     0.4870     0.8360 N.am  1 <1>  -0.7300 
  4 C       -1.5980     2.1470    -0.7340 C.3   1 <1>  -0.0990 
  5 C       -3.7660     1.3050     1.1270 C.3   1 <1>   0.2200 
  6 C       -3.0320     2.6670    -0.9230 C.3   1 <1>  -0.1600 
  7 C       -3.7890     2.6720     0.4150 C.3   1 <1>   0.2200 
  8 C       -5.0220     0.5920     0.6370 C.3   1 <1>  -0.1600 
  9 N       -5.2200     2.9230     0.1540 N.am  1 <1>  -0.6600 
 10 C       -6.0300     1.7060     0.3630 C.3   1 <1>   0.1400 
 11 C       -5.7750     4.1630     0.0250 C.2   1 <1>   0.7800 
 12 O       -6.9780     4.3190    -0.0440 O.2   1 <1>  -0.5700 
 13 O       -4.9320     5.1980    -0.0140 O.3   1 <1>  -0.4300 
 14 C       -5.2620     6.5630    -0.1490 C.3   1 <1>   0.2800 
 15 C       -6.0980     7.0280     1.0490 C.3   1 <1>  -0.2400 
 16 C       -3.9200     7.2980    -0.1430 C.3   1 <1>  -0.2400 
 17 C       -5.9670     6.8090    -1.4880 C.3   1 <1>  -0.2400 
 18 H       -2.4950    -0.4250     1.2900 H     1 <1>   0.3700 
 19 H       -1.0240     2.8520    -0.1620 H     1 <1>   0.0800 
 20 H       -1.1250     2.0320    -1.6930 H     1 <1>   0.0800 
 21 H       -3.8350     1.4730     2.1880 H     1 <1>   0.0800 
 22 H       -3.5430     2.0260    -1.6200 H     1 <1>   0.0800 
 23 H       -3.0060     3.6620    -1.3310 H     1 <1>   0.0800 
 24 H       -3.3920     3.4310     1.0680 H     1 <1>   0.0800 
 25 H       -4.8220     0.0780    -0.2870 H     1 <1>   0.0800 
 26 H       -5.4000    -0.1070     1.3610 H     1 <1>   0.0800 
 27 H       -6.6770     1.8550     1.2120 H     1 <1>   0.0800 
 28 H       -6.6270     1.4970    -0.5090 H     1 <1>   0.0800 
 29 H       -6.2280     8.0940     1.0130 H     1 <1>   0.0800 
 30 H       -5.6060     6.7750     1.9700 H     1 <1>   0.0800 
 31 H       -7.0760     6.5830     1.0360 H     1 <1>   0.0800 
 32 H       -4.0740     8.3570    -0.2440 H     1 <1>   0.0800 
 33 H       -3.3100     6.9650    -0.9630 H     1 <1>   0.0800 
 34 H       -3.4000     7.1170     0.7790 H     1 <1>   0.0800 
 35 H       -6.0900     7.8640    -1.6490 H     1 <1>   0.0800 
 36 H       -6.9450     6.3640    -1.4990 H     1 <1>   0.0800 
 37 H       -5.3860     6.4050    -2.2970 H     1 <1>   0.0800 
@<TRIPOS>BOND
  1   1   2  2   
  2   2   3  am  
  3   2   4  1   
  4   3   5  1   
  5   3  18  1   
  6   4   6  1   
  7   4  19  1   
  8   4  20  1   
  9   5   7  1   
 10   5   8  1   
 11   5  21  1   
 12   6   7  1   
 13   6  22  1   
 14   6  23  1   
 15   7   9  1   
 16   7  24  1   
 17   8  10  1   
 18   8  25  1   
 19   8  26  1   
 20   9  10  1   
 21   9  11  am  
 22  10  27  1   
 23  10  28  1   
 24  11  12  2   
 25  11  13  1   
 26  13  14  1   
 27  14  15  1   
 28  14  16  1   
 29  14  17  1   
 30  15  29  1   
 31  15  30  1   
 32  15  31  1   
 33  16  32  1   
 34  16  33  1   
 35  16  34  1   
 36  17  35  1   
 37  17  36  1   
 38  17  37  1   
@<TRIPOS>SUBSTRUCTURE
  1 ****   7 GROUP 4 **** **** 0

# MOE 2024.06 (io_trps.svl 2023.06)
