@<TRIPOS>MOLECULE
NONAME
39 41 1 0 0 
SMALL
USER_CHARGES


@<TRIPOS>ATOM
  1 O       -0.9740     0.6450    -0.4150 O.co2 1 <1>  -0.9000 
  2 C       -1.3450     1.4470     0.4570 C.2   1 <1>   0.9060 
  3 O       -1.7690     1.0520     1.5520 O.co2 1 <1>  -0.9000 
  4 C       -1.1540     2.9560     0.2350 C.3   1 <1>   0.0940 
  5 O       -2.2520     3.6150    -0.3940 O.3   1 <1>  -0.5600 
  6 C        0.1390     3.1760    -0.5680 C.3   1 <1>   0.2090 
  7 C       -2.0700     4.9940    -0.5170 C.3   1 <1>   0.1200 
  8 N        0.3750     4.6340    -0.8490 N.pl3 1 <1>  -0.7880 
  9 C       -0.8470     5.3000    -1.3950 C.3   1 <1>   0.2090 
 10 C        1.5160     5.3110    -0.5180 C.2   1 <1>   0.4860 
 11 N        1.4190     6.6190    -0.3110 N.2   1 <1>  -0.6210 
 12 C        2.7520     4.6440    -0.4080 C.2   1 <1>  -0.1360 
 13 C        2.5080     7.3070     0.0400 C.2   1 <1>   0.2710 
 14 C        3.8600     5.3390    -0.0580 C.2   1 <1>  -0.0380 
 15 N        3.7010     6.6590     0.1600 N.pl3 1 <1>  -0.6000 
 16 C        2.4210     8.7120     0.2890 C.2   1 <1>   0.0140 
 17 C        5.2430     4.7450     0.0960 C.3   1 <1>  -0.1020 
 18 C        3.5430     9.5210     0.6390 C.2   1 <1>   0.5410 
 19 C        1.1800     9.3800     0.1970 C.2   1 <1>  -0.1500 
 20 O        4.7070     9.0760     0.7670 O.2   1 <1>  -0.5700 
 21 C        3.3670    10.9030     0.8640 C.2   1 <1>  -0.1360 
 22 C        1.0340    10.7260     0.4210 C.2   1 <1>  -0.1500 
 23 C        2.1440    11.5020     0.7600 C.2   1 <1>  -0.1500 
 24 H       -1.0350     3.3900     1.2100 H     1 <1>   0.0800 
 25 H        0.0700     2.6410    -1.5000 H     1 <1>   0.0800 
 26 H        0.9490     2.7540    -0.0040 H     1 <1>   0.0800 
 27 H       -1.9420     5.4150     0.4650 H     1 <1>   0.0800 
 28 H       -2.9580     5.4030    -0.9620 H     1 <1>   0.0800 
 29 H       -0.7130     6.3640    -1.4620 H     1 <1>   0.0800 
 30 H       -1.0300     4.9300    -2.3880 H     1 <1>   0.0800 
 31 H        2.8010     3.5950    -0.6140 H     1 <1>   0.1500 
 32 H        4.5040     7.2510     0.4280 H     1 <1>   0.4000 
 33 H        5.9220     5.2200    -0.5880 H     1 <1>   0.0800 
 34 H        5.2260     3.6900    -0.1080 H     1 <1>   0.0800 
 35 H        5.5940     4.8970     1.1010 H     1 <1>   0.0800 
 36 H        0.3050     8.8080    -0.0610 H     1 <1>   0.1500 
 37 H        4.2430    11.4680     1.1230 H     1 <1>   0.1500 
 38 H        0.0680    11.1950     0.3400 H     1 <1>   0.1500 
 39 H        2.0200    12.5570     0.9330 H     1 <1>   0.1500 
@<TRIPOS>BOND
  1   1   2  ar  
  2   2   3  ar  
  3   2   4  1   
  4   4   5  1   
  5   4   6  1   
  6   4  24  1   
  7   5   7  1   
  8   6   8  1   
  9   6  25  1   
 10   6  26  1   
 11   7   9  1   
 12   7  27  1   
 13   7  28  1   
 14   8   9  1   
 15   8  10  1   
 16   9  29  1   
 17   9  30  1   
 18  10  11  2   
 19  10  12  1   
 20  11  13  1   
 21  12  14  2   
 22  12  31  1   
 23  13  15  1   
 24  13  16  2   
 25  14  15  1   
 26  14  17  1   
 27  15  32  1   
 28  16  18  1   
 29  16  19  1   
 30  17  33  1   
 31  17  34  1   
 32  17  35  1   
 33  18  20  2   
 34  18  21  1   
 35  19  22  2   
 36  19  36  1   
 37  21  23  2   
 38  21  37  1   
 39  22  23  1   
 40  22  38  1   
 41  23  39  1   
@<TRIPOS>SUBSTRUCTURE
  1 ****  11 GROUP 4 **** **** 0

# MOE 2024.06 (io_trps.svl 2023.06)
