@<TRIPOS>MOLECULE
NONAME
40 41 1 0 0 
SMALL
USER_CHARGES


@<TRIPOS>ATOM
  1 S       -0.2880    -0.3110     0.0880 S.3   1 <1>  -0.0800 
  2 C       -1.8860    -0.7390    -0.4040 C.2   1 <1>   0.4420 
  3 C       -0.6460     1.3400    -0.3360 C.2   1 <1>   0.3250 
  4 N       -2.5490     0.2770    -0.8200 N.2   1 <1>  -0.3380 
  5 N       -2.2370    -2.0660    -0.2850 N.am  1 <1>  -0.4940 
  6 N       -1.8490     1.4430    -0.7810 N.2   1 <1>  -0.3380 
  7 C        0.3530     2.3720    -0.1680 C.ar  1 <1>   0.0530 
  8 C       -3.4010    -2.6840    -0.6460 C.2   1 <1>   0.5690 
  9 C        0.0530     3.6930    -0.5060 C.ar  1 <1>  -0.1500 
 10 C        1.6380     2.1270     0.3270 C.ar  1 <1>  -0.1500 
 11 O       -4.3140    -2.1280    -1.1960 O.2   1 <1>  -0.5700 
 12 C       -3.5440    -4.1560    -0.3320 C.3   1 <1>  -0.0990 
 13 C        0.9760     4.7120    -0.3610 C.ar  1 <1>  -0.1500 
 14 C        2.5640     3.1430     0.4740 C.ar  1 <1>  -0.1500 
 15 C       -4.2300    -4.3570     1.0250 C.3   1 <1>   0.2200 
 16 C        2.2400     4.4440     0.1330 C.ar  1 <1>  -0.1430 
 17 N       -3.9370    -5.6910     1.5910 N.am  1 <1>  -0.7300 
 18 C       -5.7430    -4.1480     0.9860 C.3   1 <1>  -0.2400 
 19 C        3.2570     5.5590     0.2930 C.3   1 <1>  -0.0970 
 20 C       -3.9960    -6.9500     1.0960 C.2   1 <1>   0.5690 
 21 O       -3.7000    -7.8690     1.8110 O.2   1 <1>  -0.5700 
 22 C       -4.4130    -7.2570    -0.3230 C.3   1 <1>  -0.1790 
 23 H       -1.5200    -2.6600     0.1190 H     1 <1>   0.3700 
 24 H       -0.9250     3.9270    -0.8920 H     1 <1>   0.1500 
 25 H        1.9340     1.1330     0.6050 H     1 <1>   0.1500 
 26 H       -2.5700    -4.6090    -0.3230 H     1 <1>   0.0800 
 27 H       -4.1250    -4.6070    -1.1150 H     1 <1>   0.0800 
 28 H        0.7050     5.7170    -0.6350 H     1 <1>   0.1500 
 29 H        3.5450     2.9170     0.8570 H     1 <1>   0.1500 
 30 H       -3.8190    -3.6330     1.7100 H     1 <1>   0.0800 
 31 H       -3.7150    -5.6760     2.5890 H     1 <1>   0.3700 
 32 H       -6.2130    -4.8160     0.2890 H     1 <1>   0.0800 
 33 H       -5.9700    -3.1410     0.6840 H     1 <1>   0.0800 
 34 H       -6.1650    -4.3040     1.9620 H     1 <1>   0.0800 
 35 H        2.7630     6.4920     0.4970 H     1 <1>   0.0800 
 36 H        3.8300     5.6610    -0.6110 H     1 <1>   0.0800 
 37 H        3.9260     5.3460     1.1070 H     1 <1>   0.0800 
 38 H       -5.3020    -6.7170    -0.5830 H     1 <1>   0.0800 
 39 H       -4.6190    -8.3080    -0.4120 H     1 <1>   0.0800 
 40 H       -3.6180    -7.0070    -0.9980 H     1 <1>   0.0800 
@<TRIPOS>BOND
  1   1   2  1   
  2   1   3  1   
  3   2   4  2   
  4   2   5  1   
  5   3   6  2   
  6   3   7  1   
  7   4   6  1   
  8   5   8  am  
  9   5  23  1   
 10   7   9  ar  
 11   7  10  ar  
 12   8  11  2   
 13   8  12  1   
 14   9  13  ar  
 15   9  24  1   
 16  10  14  ar  
 17  10  25  1   
 18  12  15  1   
 19  12  26  1   
 20  12  27  1   
 21  13  16  ar  
 22  13  28  1   
 23  14  16  ar  
 24  14  29  1   
 25  15  17  1   
 26  15  18  1   
 27  15  30  1   
 28  16  19  1   
 29  17  20  am  
 30  17  31  1   
 31  18  32  1   
 32  18  33  1   
 33  18  34  1   
 34  19  35  1   
 35  19  36  1   
 36  19  37  1   
 37  20  21  2   
 38  20  22  1   
 39  22  38  1   
 40  22  39  1   
 41  22  40  1   
@<TRIPOS>SUBSTRUCTURE
  1 ****   2 GROUP 4 **** **** 0

# MOE 2024.06 (io_trps.svl 2023.06)
