@<TRIPOS>MOLECULE
NONAME
53 55 1 0 0 
SMALL
USER_CHARGES


@<TRIPOS>ATOM
  1 O        0.0450    -0.8110    -3.4010 O.2   1 <1>  -0.5700 
  2 C       -0.5550     0.1710    -3.0270 C.2   1 <1>   0.5690 
  3 N       -1.7960     0.0710    -2.4540 N.am  1 <1>  -0.6600 
  4 C        0.1430     1.5320    -3.1470 C.3   1 <1>   0.1710 
  5 C       -2.6410     1.2130    -2.0210 C.3   1 <1>   0.1400 
  6 C       -2.1110    -1.1010    -1.6040 C.3   1 <1>   0.1400 
  7 N        0.3780     2.2060    -1.8320 N.3   1 <1>  -0.8100 
  8 C       -2.8310     0.9740    -0.5300 C.3   1 <1>   0.2000 
  9 C       -2.9330    -0.5560    -0.4230 C.3   1 <1>  -0.0800 
 10 C        0.8600     3.5840    -2.0460 C.3   1 <1>   0.2530 
 11 C        1.3350     1.4300    -1.0190 C.3   1 <1>   0.0300 
 12 O       -1.7010     1.4370     0.1330 O.3   1 <1>  -0.6800 
 13 C       -2.5100    -1.1320     0.9420 C.3   1 <1>   0.0200 
 14 C        1.0120     4.3410    -0.7330 C.ar  1 <1>  -0.1440 
 15 C       -2.7850    -2.6210     1.0760 C.2   1 <1>  -0.0400 
 16 C        2.2300     4.9030    -0.3840 C.ar  1 <1>  -0.1500 
 17 C       -0.0650     4.4820     0.1290 C.ar  1 <1>  -0.1500 
 18 O       -2.4020    -3.2330     2.1660 O.3   1 <1>  -0.0190 
 19 C       -3.3770    -3.5320     0.2860 C.2   1 <1>  -0.1500 
 20 C        2.3690     5.5950     0.8070 C.ar  1 <1>  -0.1500 
 21 C        0.0730     5.1720     1.3200 C.ar  1 <1>  -0.1500 
 22 N       -2.7020    -4.4990     2.1470 N.2   1 <1>  -0.4100 
 23 C       -3.2900    -4.7080     1.0250 C.2   1 <1>   0.1080 
 24 C        1.2910     5.7320     1.6660 C.ar  1 <1>  -0.1440 
 25 C       -3.8130    -6.0550     0.5780 C.3   1 <1>  -0.0590 
 26 C        1.4410     6.4900     2.9730 C.3   1 <1>  -0.0970 
 27 H       -0.4700     2.1580    -3.7690 H     1 <1>   0.0800 
 28 H        1.0830     1.3880    -3.6510 H     1 <1>   0.0800 
 29 H       -2.2050     2.1760    -2.2170 H     1 <1>   0.0800 
 30 H       -3.5900     1.1500    -2.5240 H     1 <1>   0.0800 
 31 H       -2.6700    -1.8260    -2.1710 H     1 <1>   0.0800 
 32 H       -1.1970    -1.5550    -1.2580 H     1 <1>   0.0800 
 33 H       -3.6900     1.4810    -0.1270 H     1 <1>   0.0800 
 34 H       -3.9610    -0.8190    -0.5970 H     1 <1>   0.0800 
 35 H        1.8020     3.5620    -2.5670 H     1 <1>   0.0800 
 36 H        0.1530     4.1170    -2.6590 H     1 <1>   0.0800 
 37 H        1.4540     1.8810    -0.0480 H     1 <1>   0.0800 
 38 H        2.2970     1.3860    -1.5020 H     1 <1>   0.0800 
 39 H        0.9770     0.4250    -0.8710 H     1 <1>   0.0800 
 40 H       -0.9620     1.5810    -0.5160 H     1 <1>   0.4000 
 41 H       -3.0380    -0.6170     1.7240 H     1 <1>   0.0800 
 42 H       -1.4580    -0.9650     1.0970 H     1 <1>   0.0800 
 43 H        3.0800     4.8060    -1.0360 H     1 <1>   0.1500 
 44 H       -1.0150     4.0460    -0.1250 H     1 <1>   0.1500 
 45 H       -3.8250    -3.4300    -0.6840 H     1 <1>   0.1500 
 46 H        3.3200     6.0260     1.0620 H     1 <1>   0.1500 
 47 H       -0.7740     5.2680     1.9760 H     1 <1>   0.1500 
 48 H       -3.3750    -6.3220    -0.3660 H     1 <1>   0.0800 
 49 H       -4.8820    -6.0160     0.4760 H     1 <1>   0.0800 
 50 H       -3.5600    -6.8060     1.3040 H     1 <1>   0.0800 
 51 H        2.4540     6.4310     3.3290 H     1 <1>   0.0800 
 52 H        0.7930     6.0740     3.7230 H     1 <1>   0.0800 
 53 H        1.1830     7.5230     2.8250 H     1 <1>   0.0800 
@<TRIPOS>BOND
  1   1   2  2   
  2   2   3  am  
  3   2   4  1   
  4   3   5  1   
  5   3   6  1   
  6   4   7  1   
  7   4  27  1   
  8   4  28  1   
  9   5   8  1   
 10   5  29  1   
 11   5  30  1   
 12   6   9  1   
 13   6  31  1   
 14   6  32  1   
 15   7  10  1   
 16   7  11  1   
 17   8   9  1   
 18   8  12  1   
 19   8  33  1   
 20   9  13  1   
 21   9  34  1   
 22  10  14  1   
 23  10  35  1   
 24  10  36  1   
 25  11  37  1   
 26  11  38  1   
 27  11  39  1   
 28  12  40  1   
 29  13  15  1   
 30  13  41  1   
 31  13  42  1   
 32  14  16  ar  
 33  14  17  ar  
 34  15  18  1   
 35  15  19  2   
 36  16  20  ar  
 37  16  43  1   
 38  17  21  ar  
 39  17  44  1   
 40  18  22  1   
 41  19  23  1   
 42  19  45  1   
 43  20  24  ar  
 44  20  46  1   
 45  21  24  ar  
 46  21  47  1   
 47  22  23  2   
 48  23  25  1   
 49  24  26  1   
 50  25  48  1   
 51  25  49  1   
 52  25  50  1   
 53  26  51  1   
 54  26  52  1   
 55  26  53  1   
@<TRIPOS>SUBSTRUCTURE
  1 ****  12 GROUP 4 **** **** 0

# MOE 2024.06 (io_trps.svl 2023.06)
