@<TRIPOS>MOLECULE
NONAME
49 52 1 0 0 
SMALL
USER_CHARGES


@<TRIPOS>ATOM
  1 O        0.0160    -0.3660     1.4420 O.2   1 <1>  -0.5700 
  2 C        1.1090    -0.8270     1.1920 C.2   1 <1>   0.5690 
  3 N        2.2230    -0.0440     0.9370 N.am  1 <1>  -0.4770 
  4 C        1.1720    -2.3580     1.1340 C.3   1 <1>   0.1710 
  5 C        2.2760     1.3690     1.0680 C.ar  1 <1>   0.1170 
  6 C        3.4230    -0.6140     0.2580 C.3   1 <1>   0.1400 
  7 N        1.1230    -2.9580    -0.2390 N.3   1 <1>  -0.8100 
  8 C        3.0970     2.1260     0.2160 C.ar  1 <1>   0.0820 
  9 C        1.5550     2.0520     2.0440 C.ar  1 <1>  -0.1500 
 10 C        3.6880     0.1720    -1.0280 C.3   1 <1>   0.1200 
 11 C        0.0950    -2.3490    -1.1090 C.3   1 <1>   0.1100 
 12 C        0.6950    -4.3580    -0.1490 C.3   1 <1>   0.1100 
 13 O        3.8700     1.5460    -0.7430 O.3   1 <1>  -0.3630 
 14 C        3.1660     3.5030     0.3320 C.ar  1 <1>  -0.1500 
 15 C        1.6250     3.4300     2.1590 C.ar  1 <1>  -0.1500 
 16 C       -1.2380    -3.0000    -0.7360 C.3   1 <1>   0.2000 
 17 C       -0.8430    -4.3390    -0.1030 C.3   1 <1>  -0.0800 
 18 C        2.4290     4.1590     1.3020 C.ar  1 <1>  -0.1500 
 19 O       -1.9070    -2.2240     0.2010 O.3   1 <1>  -0.6800 
 20 C       -1.4740    -5.5410    -0.8230 C.3   1 <1>  -0.0160 
 21 C       -1.0180    -6.8510    -0.2010 C.ar  1 <1>  -0.1440 
 22 C       -1.5050    -7.2800     1.0170 C.ar  1 <1>  -0.1500 
 23 C       -0.0930    -7.6750    -0.8110 C.ar  1 <1>  -0.1500 
 24 C       -1.0530    -8.4740     1.5540 C.ar  1 <1>   0.1600 
 25 C        0.2930    -8.8500    -0.1880 C.ar  1 <1>   0.1600 
 26 N       -0.1630    -9.2680     0.9810 N.ar  1 <1>  -0.6200 
 27 H        0.3490    -2.7240     1.7210 H     1 <1>   0.0800 
 28 H        2.0700    -2.6860     1.6250 H     1 <1>   0.0800 
 29 H        4.2740    -0.5330     0.9110 H     1 <1>   0.0800 
 30 H        3.2950    -1.6490     0.0040 H     1 <1>   0.0800 
 31 H        0.9290     1.5090     2.7280 H     1 <1>   0.1500 
 32 H        2.8540     0.0790    -1.7010 H     1 <1>   0.0800 
 33 H        4.5770    -0.1830    -1.5160 H     1 <1>   0.0800 
 34 H        0.0600    -1.2750    -1.0560 H     1 <1>   0.0800 
 35 H        0.3260    -2.6170    -2.1250 H     1 <1>   0.0800 
 36 H        1.0290    -4.8710    -1.0350 H     1 <1>   0.0800 
 37 H        1.1160    -4.8560     0.7090 H     1 <1>   0.0800 
 38 H        3.8000     4.0570    -0.3370 H     1 <1>   0.1500 
 39 H        1.0510     3.9340     2.9180 H     1 <1>   0.1500 
 40 H       -1.8800    -3.1080    -1.5940 H     1 <1>   0.0800 
 41 H       -1.1530    -4.3600     0.9270 H     1 <1>   0.0800 
 42 H        2.4820     5.2300     1.3890 H     1 <1>   0.1500 
 43 H       -1.2860    -1.5990     0.6470 H     1 <1>   0.4000 
 44 H       -1.2130    -5.5220    -1.8670 H     1 <1>   0.0800 
 45 H       -2.5460    -5.4730    -0.7540 H     1 <1>   0.0800 
 46 H       -2.2320    -6.6970     1.5530 H     1 <1>   0.1500 
 47 H        0.3320    -7.4160    -1.7630 H     1 <1>   0.1500 
 48 H       -1.4450    -8.7920     2.5050 H     1 <1>   0.1500 
 49 H        1.0150    -9.4810    -0.6790 H     1 <1>   0.1500 
@<TRIPOS>BOND
  1   1   2  2   
  2   2   3  am  
  3   2   4  1   
  4   3   5  1   
  5   3   6  1   
  6   4   7  1   
  7   4  27  1   
  8   4  28  1   
  9   5   8  ar  
 10   5   9  ar  
 11   6  10  1   
 12   6  29  1   
 13   6  30  1   
 14   7  11  1   
 15   7  12  1   
 16   8  13  1   
 17   8  14  ar  
 18   9  15  ar  
 19   9  31  1   
 20  10  13  1   
 21  10  32  1   
 22  10  33  1   
 23  11  16  1   
 24  11  34  1   
 25  11  35  1   
 26  12  17  1   
 27  12  36  1   
 28  12  37  1   
 29  14  18  ar  
 30  14  38  1   
 31  15  18  ar  
 32  15  39  1   
 33  16  17  1   
 34  16  19  1   
 35  16  40  1   
 36  17  20  1   
 37  17  41  1   
 38  18  42  1   
 39  19  43  1   
 40  20  21  1   
 41  20  44  1   
 42  20  45  1   
 43  21  22  ar  
 44  21  23  ar  
 45  22  24  ar  
 46  22  46  1   
 47  23  25  ar  
 48  23  47  1   
 49  24  26  ar  
 50  24  48  1   
 51  25  26  ar  
 52  25  49  1   
@<TRIPOS>SUBSTRUCTURE
  1 ****   4 GROUP 4 **** **** 0

# MOE 2024.06 (io_trps.svl 2023.06)
