@<TRIPOS>MOLECULE
NONAME
56 60 1 0 0 
SMALL
USER_CHARGES


@<TRIPOS>ATOM
  1 O       -1.5140     0.1780    -1.5820 O.3   1 <1>  -0.3630 
  2 C       -2.1200    -0.8920    -1.0090 C.ar  1 <1>   0.0830 
  3 C       -0.1210     0.4040    -1.5980 C.3   1 <1>   0.0400 
  4 C       -1.4950    -1.9610    -0.3220 C.ar  1 <1>   0.0830 
  5 C       -3.4900    -0.8870    -1.1400 C.ar  1 <1>  -0.1500 
  6 O       -0.1390    -1.9740    -0.1860 O.3   1 <1>  -0.3630 
  7 C       -2.2790    -2.9750     0.2000 C.ar  1 <1>  -0.1500 
  8 C       -4.2680    -1.9090    -0.6100 C.ar  1 <1>   0.3610 
  9 C        0.5580    -3.0030     0.4860 C.3   1 <1>   0.0400 
 10 C       -3.6770    -2.9720     0.0680 C.ar  1 <1>   0.0000 
 11 N       -5.6340    -1.9220    -0.7250 N.ar  1 <1>  -0.1790 
 12 C       -4.5650    -3.9740     0.5710 C.ar  1 <1>   0.4100 
 13 C       -6.3990    -2.8900    -0.2150 C.ar  1 <1>   0.7710 
 14 N       -5.8600    -3.9230     0.4290 N.ar  1 <1>  -0.6200 
 15 N       -4.1170    -5.0460     1.2300 N.pl3 1 <1>  -0.9000 
 16 N       -7.7430    -2.8190    -0.3590 N.pl3 1 <1>  -0.8380 
 17 C       -8.5370    -1.6520    -0.8850 C.3   1 <1>   0.2090 
 18 C       -8.6530    -3.9540     0.0230 C.3   1 <1>   0.2090 
 19 C       -9.5040    -1.1100     0.1870 C.3   1 <1>   0.1430 
 20 C       -9.6510    -3.4960     1.0930 C.3   1 <1>  -0.1600 
 21 C      -10.3090     0.0400    -0.3840 C.ar  1 <1>   0.1670 
 22 C      -10.4370    -2.2420     0.6640 C.3   1 <1>  -0.1600 
 23 C       -8.7750    -0.4310     1.3800 C.3   1 <1>  -0.1600 
 24 N      -10.8730     0.0510    -1.5670 N.ar  1 <1>  -0.6200 
 25 C      -10.3640     1.0940     0.4800 C.ar  1 <1>  -0.1430 
 26 C       -9.6070     0.8110     1.7530 C.3   1 <1>  -0.0170 
 27 C      -11.5070     1.1800    -1.8490 C.ar  1 <1>   0.7200 
 28 C      -11.0600     2.2100     0.0820 C.ar  1 <1>   0.1600 
 29 N      -11.6420     2.2620    -1.0950 N.ar  1 <1>  -0.6200 
 30 N      -12.0990     1.2310    -3.0420 N.pl3 1 <1>  -0.9000 
 31 H        0.0650     1.3220    -2.1250 H     1 <1>   0.0800 
 32 H        0.3600    -0.4130    -2.1060 H     1 <1>   0.0800 
 33 H        0.2320     0.4870    -0.5850 H     1 <1>   0.0800 
 34 H       -3.9460    -0.0670    -1.6650 H     1 <1>   0.1500 
 35 H       -1.8330    -3.7960     0.7250 H     1 <1>   0.1500 
 36 H        1.6080    -2.7720     0.4500 H     1 <1>   0.0800 
 37 H        0.3760    -3.9370    -0.0150 H     1 <1>   0.0800 
 38 H        0.2320    -3.0380     1.5100 H     1 <1>   0.0800 
 39 H       -6.1050    -1.1980    -1.2470 H     1 <1>   0.4570 
 40 H       -4.7820    -5.7450     1.5760 H     1 <1>   0.4000 
 41 H       -3.1400    -5.2590     1.4350 H     1 <1>   0.4000 
 42 H       -9.1150    -1.9820    -1.7340 H     1 <1>   0.0800 
 43 H       -7.9100    -0.8480    -1.2220 H     1 <1>   0.0800 
 44 H       -8.1070    -4.8060     0.3920 H     1 <1>   0.0800 
 45 H       -9.1940    -4.2780    -0.8510 H     1 <1>   0.0800 
 46 H       -9.1160    -3.3130     2.0080 H     1 <1>   0.0800 
 47 H      -10.3430    -4.2960     1.2880 H     1 <1>   0.0800 
 48 H      -11.0960    -2.5090    -0.1450 H     1 <1>   0.0800 
 49 H      -11.0540    -1.8980     1.4780 H     1 <1>   0.0800 
 50 H       -7.8040    -0.0950     1.0650 H     1 <1>   0.0800 
 51 H       -8.6480    -1.0830     2.2250 H     1 <1>   0.0800 
 52 H       -8.9830     1.6390     2.0440 H     1 <1>   0.0800 
 53 H      -10.3020     0.5820     2.5420 H     1 <1>   0.0800 
 54 H      -11.1380     3.0670     0.7290 H     1 <1>   0.1500 
 55 H      -12.7950     1.9660    -3.1400 H     1 <1>   0.4000 
 56 H      -12.3290     0.3340    -3.4560 H     1 <1>   0.4000 
@<TRIPOS>BOND
  1   1   2  1   
  2   1   3  1   
  3   2   4  ar  
  4   2   5  ar  
  5   3  31  1   
  6   3  32  1   
  7   3  33  1   
  8   4   6  1   
  9   4   7  ar  
 10   5   8  ar  
 11   5  34  1   
 12   6   9  1   
 13   7  10  ar  
 14   7  35  1   
 15   8  10  ar  
 16   8  11  ar  
 17   9  36  1   
 18   9  37  1   
 19   9  38  1   
 20  10  12  ar  
 21  11  13  ar  
 22  11  39  1   
 23  12  14  ar  
 24  12  15  1   
 25  13  14  ar  
 26  13  16  1   
 27  15  40  1   
 28  15  41  1   
 29  16  17  1   
 30  16  18  1   
 31  17  19  1   
 32  17  42  1   
 33  17  43  1   
 34  18  20  1   
 35  18  44  1   
 36  18  45  1   
 37  19  21  1   
 38  19  22  1   
 39  19  23  1   
 40  20  22  1   
 41  20  46  1   
 42  20  47  1   
 43  21  24  ar  
 44  21  25  ar  
 45  22  48  1   
 46  22  49  1   
 47  23  26  1   
 48  23  50  1   
 49  23  51  1   
 50  24  27  ar  
 51  25  26  1   
 52  25  28  ar  
 53  26  52  1   
 54  26  53  1   
 55  27  29  ar  
 56  27  30  1   
 57  28  29  ar  
 58  28  54  1   
 59  30  55  1   
 60  30  56  1   
@<TRIPOS>SUBSTRUCTURE
  1 ****  11 GROUP 4 **** **** 0

# MOE 2024.06 (io_trps.svl 2023.06)
