@<TRIPOS>MOLECULE
NONAME
51 54 1 0 0 
SMALL
USER_CHARGES


@<TRIPOS>ATOM
  1 O        1.2790     0.5800    -0.4200 O.2   1 <1>  -0.5700 
  2 C        1.9570    -0.2220     0.1950 C.2   1 <1>   0.5440 
  3 N        2.8320     0.2940     1.1480 N.am  1 <1>  -0.6600 
  4 C        1.8170    -1.6420    -0.1290 C.ar  1 <1>   0.3960 
  5 C        4.0270    -0.4390     1.6530 C.3   1 <1>   0.1400 
  6 C        2.7610     1.7210     1.5730 C.3   1 <1>   0.1400 
  7 N        2.8930    -2.4390    -0.2730 N.ar  1 <1>  -0.6200 
  8 C        0.5210    -2.1390    -0.3050 C.ar  1 <1>   0.1600 
  9 C        5.1410    -0.4460     0.5870 C.3   1 <1>   0.3430 
 10 C        3.9590     2.5210     1.0460 C.3   1 <1>  -0.1600 
 11 C        2.5750    -3.6860    -0.5760 C.ar  1 <1>   0.1600 
 12 N        0.2090    -3.3890    -0.6010 N.ar  1 <1>  -0.6200 
 13 N        5.6720     0.9140     0.2100 N.4   1 <1>  -0.9590 
 14 C        4.6260     1.9150    -0.1920 C.3   1 <1>   0.3430 
 15 C        1.2730    -4.1550    -0.7350 C.ar  1 <1>   0.1670 
 16 C        6.6910     0.7740    -0.8640 C.3   1 <1>   0.4860 
 17 C        1.0050    -5.6060    -1.0800 C.3   1 <1>  -0.0970 
 18 C        7.4790     2.0660    -0.9520 C.ar  1 <1>  -0.1430 
 19 C        8.4100     2.3840     0.0330 C.ar  1 <1>  -0.1500 
 20 C        7.2660     2.9380    -2.0180 C.ar  1 <1>  -0.1500 
 21 C        9.0990     3.5780    -0.0610 C.ar  1 <1>  -0.1430 
 22 C        7.9630     4.1330    -2.1000 C.ar  1 <1>  -0.1500 
 23 C        8.8730     4.4320    -1.1070 C.ar  1 <1>   0.0830 
 24 C       10.1460     4.1830     0.8280 C.3   1 <1>  -0.0170 
 25 O        9.6200     5.5440    -1.0480 O.3   1 <1>  -0.3630 
 26 C       10.4650     5.4980     0.0930 C.3   1 <1>   0.1200 
 27 H        3.7530    -1.4500     1.8980 H     1 <1>   0.0800 
 28 H        4.3880     0.0160     2.5590 H     1 <1>   0.0800 
 29 H        2.7250     1.7740     2.6490 H     1 <1>   0.0800 
 30 H        1.8500     2.1690     1.2110 H     1 <1>   0.0800 
 31 H       -0.3000    -1.4500    -0.1930 H     1 <1>   0.1500 
 32 H        4.7550    -0.9310    -0.2950 H     1 <1>   0.0800 
 33 H        5.9520    -1.0520     0.9540 H     1 <1>   0.0800 
 34 H        4.6800     2.6720     1.8280 H     1 <1>   0.0800 
 35 H        3.5910     3.4970     0.7810 H     1 <1>   0.0800 
 36 H        3.3850    -4.3830    -0.7080 H     1 <1>   0.1500 
 37 H        6.1650     1.3220     1.0120 H     1 <1>   0.4500 
 38 H        5.0920     2.7190    -0.7370 H     1 <1>   0.0800 
 39 H        3.8860     1.4630    -0.8330 H     1 <1>   0.0800 
 40 H        6.2150     0.5610    -1.8070 H     1 <1>   0.0800 
 41 H        7.3680    -0.0330    -0.6330 H     1 <1>   0.0800 
 42 H        1.9180    -6.1640    -1.1720 H     1 <1>   0.0800 
 43 H        0.4690    -5.6600    -2.0110 H     1 <1>   0.0800 
 44 H        0.4010    -6.0520    -0.3110 H     1 <1>   0.0800 
 45 H        8.6120     1.7250     0.8590 H     1 <1>   0.1500 
 46 H        6.5600     2.7010    -2.7970 H     1 <1>   0.1500 
 47 H        7.8150     4.8230    -2.9120 H     1 <1>   0.1500 
 48 H       11.0190     3.5590     0.8920 H     1 <1>   0.0800 
 49 H        9.7620     4.3800     1.8130 H     1 <1>   0.0800 
 50 H       11.4860     5.5240    -0.2480 H     1 <1>   0.0800 
 51 H       10.2540     6.3590     0.7030 H     1 <1>   0.0800 
@<TRIPOS>BOND
  1   1   2  2   
  2   2   3  am  
  3   2   4  1   
  4   3   5  1   
  5   3   6  1   
  6   4   7  ar  
  7   4   8  ar  
  8   5   9  1   
  9   5  27  1   
 10   5  28  1   
 11   6  10  1   
 12   6  29  1   
 13   6  30  1   
 14   7  11  ar  
 15   8  12  ar  
 16   8  31  1   
 17   9  13  1   
 18   9  32  1   
 19   9  33  1   
 20  10  14  1   
 21  10  34  1   
 22  10  35  1   
 23  11  15  ar  
 24  11  36  1   
 25  12  15  ar  
 26  13  14  1   
 27  13  16  1   
 28  13  37  1   
 29  14  38  1   
 30  14  39  1   
 31  15  17  1   
 32  16  18  1   
 33  16  40  1   
 34  16  41  1   
 35  17  42  1   
 36  17  43  1   
 37  17  44  1   
 38  18  19  ar  
 39  18  20  ar  
 40  19  21  ar  
 41  19  45  1   
 42  20  22  ar  
 43  20  46  1   
 44  21  23  ar  
 45  21  24  1   
 46  22  23  ar  
 47  22  47  1   
 48  23  25  1   
 49  24  26  1   
 50  24  48  1   
 51  24  49  1   
 52  25  26  1   
 53  26  50  1   
 54  26  51  1   
@<TRIPOS>SUBSTRUCTURE
  1 ****  13 GROUP 4 **** **** 0

# MOE 2024.06 (io_trps.svl 2023.06)
