@<TRIPOS>MOLECULE
NONAME
55 58 1 0 0 
SMALL
USER_CHARGES


@<TRIPOS>ATOM
  1 O        2.3330     1.8580    -1.0970 O.3   1 <1>  -0.0190 
  2 N        3.2000     0.9980    -0.6560 N.2   1 <1>  -0.4100 
  3 C        1.2580     1.8900    -0.3550 C.2   1 <1>  -0.0400 
  4 C        2.6660     0.4470     0.3750 C.2   1 <1>   0.1080 
  5 C        1.4070     0.9860     0.6240 C.2   1 <1>  -0.1500 
  6 C        0.1450     2.8680    -0.6810 C.3   1 <1>   0.0200 
  7 C        3.3260    -0.6390     1.1960 C.3   1 <1>  -0.0590 
  8 C        0.7300     4.2680    -0.9560 C.3   1 <1>  -0.0800 
  9 C       -0.2690     5.4200    -1.0580 C.3   1 <1>   0.2000 
 10 C        1.7270     4.7410     0.1000 C.3   1 <1>   0.3430 
 11 O       -1.2110     5.3310    -0.0370 O.3   1 <1>  -0.6800 
 12 C        0.5930     6.6700    -0.8440 C.3   1 <1>   0.3430 
 13 N        1.7970     6.2170    -0.0720 N.4   1 <1>  -0.9590 
 14 C        2.0460     6.9850     1.1720 C.3   1 <1>   0.4860 
 15 C        2.3380     8.4180     0.7820 C.ar  1 <1>  -0.1430 
 16 C        3.4260     8.7080    -0.0440 C.ar  1 <1>   0.0830 
 17 C        1.5210     9.4400     1.2460 C.ar  1 <1>  -0.1500 
 18 O        4.1790     7.6610    -0.4760 O.3   1 <1>  -0.3630 
 19 C        3.6940    10.0280    -0.4010 C.ar  1 <1>  -0.1500 
 20 C        1.8000    10.7420     0.8790 C.ar  1 <1>  -0.1430 
 21 C        5.4150     7.8660    -1.1260 C.3   1 <1>   0.1200 
 22 C        2.8680    11.0300     0.0690 C.ar  1 <1>  -0.1430 
 23 C        1.0520    11.9950     1.2670 C.3   1 <1>  -0.0170 
 24 C        6.0440     6.5000    -1.3780 C.3   1 <1>  -0.2400 
 25 C        2.9750    12.5130    -0.1920 C.3   1 <1>  -0.0170 
 26 C        1.9970    13.1250     0.8250 C.3   1 <1>  -0.1600 
 27 H        0.7450     0.7120     1.4260 H     1 <1>   0.1500 
 28 H       -0.3850     2.5230    -1.5520 H     1 <1>   0.0800 
 29 H       -0.5480     2.8820     0.1420 H     1 <1>   0.0800 
 30 H        3.4200    -0.3220     2.2180 H     1 <1>   0.0800 
 31 H        4.3050    -0.8510     0.8060 H     1 <1>   0.0800 
 32 H        2.7360    -1.5360     1.1560 H     1 <1>   0.0800 
 33 H        1.2660     4.2160    -1.8880 H     1 <1>   0.0800 
 34 H       -0.7970     5.4430    -1.9970 H     1 <1>   0.0800 
 35 H        2.6930     4.2770    -0.0350 H     1 <1>   0.0800 
 36 H        1.3520     4.4990     1.0810 H     1 <1>   0.0800 
 37 H       -0.8100     5.3180     0.8520 H     1 <1>   0.4000 
 38 H        0.0390     7.4350    -0.3240 H     1 <1>   0.0800 
 39 H        0.9100     7.0570    -1.7980 H     1 <1>   0.0800 
 40 H        2.6310     6.4470    -0.6450 H     1 <1>   0.4500 
 41 H        1.1900     6.9410     1.8240 H     1 <1>   0.0800 
 42 H        2.9020     6.5830     1.6900 H     1 <1>   0.0800 
 43 H        0.6790     9.2450     1.8880 H     1 <1>   0.1500 
 44 H        4.5190    10.2950    -1.0340 H     1 <1>   0.1500 
 45 H        5.2360     8.3780    -2.0560 H     1 <1>   0.0800 
 46 H        6.0440     8.4640    -0.4880 H     1 <1>   0.0800 
 47 H        0.1240    12.0440     0.7250 H     1 <1>   0.0800 
 48 H        0.8610    12.0330     2.3250 H     1 <1>   0.0800 
 49 H        5.4130     5.9050    -2.0140 H     1 <1>   0.0800 
 50 H        6.2110     5.9870    -0.4480 H     1 <1>   0.0800 
 51 H        6.9940     6.6260    -1.8680 H     1 <1>   0.0800 
 52 H        3.9770    12.8730    -0.0400 H     1 <1>   0.0800 
 53 H        2.6580    12.7250    -1.1980 H     1 <1>   0.0800 
 54 H        2.5560    13.4630     1.6810 H     1 <1>   0.0800 
 55 H        1.4580    13.9590     0.4100 H     1 <1>   0.0800 
@<TRIPOS>BOND
  1   1   2  1   
  2   1   3  1   
  3   2   4  2   
  4   3   5  2   
  5   3   6  1   
  6   4   5  1   
  7   4   7  1   
  8   5  27  1   
  9   6   8  1   
 10   6  28  1   
 11   6  29  1   
 12   7  30  1   
 13   7  31  1   
 14   7  32  1   
 15   8   9  1   
 16   8  10  1   
 17   8  33  1   
 18   9  11  1   
 19   9  12  1   
 20   9  34  1   
 21  10  13  1   
 22  10  35  1   
 23  10  36  1   
 24  11  37  1   
 25  12  13  1   
 26  12  38  1   
 27  12  39  1   
 28  13  14  1   
 29  13  40  1   
 30  14  15  1   
 31  14  41  1   
 32  14  42  1   
 33  15  16  ar  
 34  15  17  ar  
 35  16  18  1   
 36  16  19  ar  
 37  17  20  ar  
 38  17  43  1   
 39  18  21  1   
 40  19  22  ar  
 41  19  44  1   
 42  20  22  ar  
 43  20  23  1   
 44  21  24  1   
 45  21  45  1   
 46  21  46  1   
 47  22  25  1   
 48  23  26  1   
 49  23  47  1   
 50  23  48  1   
 51  24  49  1   
 52  24  50  1   
 53  24  51  1   
 54  25  26  1   
 55  25  52  1   
 56  25  53  1   
 57  26  54  1   
 58  26  55  1   
@<TRIPOS>SUBSTRUCTURE
  1 ****  13 GROUP 4 **** **** 0

# MOE 2024.06 (io_trps.svl 2023.06)
