@<TRIPOS>MOLECULE
NONAME
44 46 1 0 0 
SMALL
USER_CHARGES


@<TRIPOS>ATOM
  1 F       -1.0340    -0.6940    -1.4110 F     1 <1>  -0.1900 
  2 C       -1.8990    -1.3510    -0.6660 C.ar  1 <1>   0.1900 
  3 C       -3.1960    -0.8820    -0.4560 C.ar  1 <1>   0.4100 
  4 C       -1.5150    -2.5330    -0.0970 C.ar  1 <1>   0.1600 
  5 N       -4.0290    -1.5920     0.2830 N.ar  1 <1>  -0.6200 
  6 N       -3.6890     0.3110    -0.9850 N.pl3 1 <1>  -0.8380 
  7 N       -2.3420    -3.2420     0.6460 N.ar  1 <1>  -0.6200 
  8 C       -3.5540    -2.7150     0.7920 C.ar  1 <1>   0.7200 
  9 C       -5.1550     0.5120    -1.1620 C.3   1 <1>   0.1290 
 10 C       -2.8880     1.5640    -0.9140 C.3   1 <1>   0.1290 
 11 N       -4.4460    -3.3910     1.5460 N.pl3 1 <1>  -0.8690 
 12 C       -4.5540    -4.8560     1.4850 C.3   1 <1>   0.3530 
 13 C       -5.9700    -5.2060     1.0620 C.ar  1 <1>  -0.1430 
 14 C       -6.8630    -5.7680     1.9600 C.ar  1 <1>  -0.1500 
 15 C       -6.3890    -4.9560    -0.2360 C.ar  1 <1>  -0.1500 
 16 C       -8.1500    -6.0840     1.5620 C.ar  1 <1>  -0.1500 
 17 C       -7.6770    -5.2720    -0.6300 C.ar  1 <1>  -0.1500 
 18 C       -8.5800    -5.8460     0.2610 C.ar  1 <1>   0.1170 
 19 N       -9.8860    -6.1860    -0.1480 N.am  1 <1>  -0.4770 
 20 C      -11.0400    -6.1320     0.5810 C.2   1 <1>   0.5690 
 21 C      -10.1420    -6.7330    -1.4960 C.3   1 <1>   0.1400 
 22 O      -11.1700    -5.7270     1.7100 O.2   1 <1>  -0.5700 
 23 C      -12.2100    -6.6570    -0.2070 C.3   1 <1>  -0.0990 
 24 C      -11.5560    -7.3190    -1.4250 C.3   1 <1>  -0.1600 
 25 H       -0.5190    -2.9050    -0.2530 H     1 <1>   0.1500 
 26 H       -5.6290    -0.4210    -1.4150 H     1 <1>   0.0800 
 27 H       -5.3370     1.2150    -1.9550 H     1 <1>   0.0800 
 28 H       -5.5830     0.8830    -0.2470 H     1 <1>   0.0800 
 29 H       -2.0060     1.4160    -0.3140 H     1 <1>   0.0800 
 30 H       -3.4710     2.3510    -0.4690 H     1 <1>   0.0800 
 31 H       -2.5930     1.8590    -1.9050 H     1 <1>   0.0800 
 32 H       -5.3590    -2.9410     1.5060 H     1 <1>   0.4000 
 33 H       -4.3350    -5.2660     2.4560 H     1 <1>   0.0800 
 34 H       -3.8540    -5.2680     0.7780 H     1 <1>   0.0800 
 35 H       -6.5650    -5.9610     2.9760 H     1 <1>   0.1500 
 36 H       -5.7100    -4.5070    -0.9410 H     1 <1>   0.1500 
 37 H       -8.8300    -6.5200     2.2720 H     1 <1>   0.1500 
 38 H       -7.9800    -5.0590    -1.6370 H     1 <1>   0.1500 
 39 H       -9.4140    -7.4870    -1.7430 H     1 <1>   0.0800 
 40 H      -10.1010    -5.9330    -2.2150 H     1 <1>   0.0800 
 41 H      -12.8310    -5.8300    -0.4980 H     1 <1>   0.0800 
 42 H      -12.7800    -7.3580     0.3760 H     1 <1>   0.0800 
 43 H      -11.4850    -8.3810    -1.2650 H     1 <1>   0.0800 
 44 H      -12.1080    -7.1410    -2.3320 H     1 <1>   0.0800 
@<TRIPOS>BOND
  1   1   2  1   
  2   2   3  ar  
  3   2   4  ar  
  4   3   5  ar  
  5   3   6  1   
  6   4   7  ar  
  7   4  25  1   
  8   5   8  ar  
  9   6   9  1   
 10   6  10  1   
 11   7   8  ar  
 12   8  11  1   
 13   9  26  1   
 14   9  27  1   
 15   9  28  1   
 16  10  29  1   
 17  10  30  1   
 18  10  31  1   
 19  11  12  1   
 20  11  32  1   
 21  12  13  1   
 22  12  33  1   
 23  12  34  1   
 24  13  14  ar  
 25  13  15  ar  
 26  14  16  ar  
 27  14  35  1   
 28  15  17  ar  
 29  15  36  1   
 30  16  18  ar  
 31  16  37  1   
 32  17  18  ar  
 33  17  38  1   
 34  18  19  1   
 35  19  20  am  
 36  19  21  1   
 37  20  22  2   
 38  20  23  1   
 39  21  24  1   
 40  21  39  1   
 41  21  40  1   
 42  23  24  1   
 43  23  41  1   
 44  23  42  1   
 45  24  43  1   
 46  24  44  1   
@<TRIPOS>SUBSTRUCTURE
  1 ****  15 GROUP 4 **** **** 0

# MOE 2024.06 (io_trps.svl 2023.06)
