@<TRIPOS>MOLECULE
NONAME
46 48 1 0 0 
SMALL
USER_CHARGES


@<TRIPOS>ATOM
  1 O        3.7400    -1.4000    -2.2930 O.2   1 <1>  -0.5700 
  2 C        2.9750    -1.3450    -1.3470 C.2   1 <1>   0.5440 
  3 N        3.0090    -0.1970    -0.5980 N.am  1 <1>  -0.6600 
  4 C        2.1370    -2.4750    -0.9770 C.ar  1 <1>   0.0860 
  5 C        3.6930    -0.2870     0.7430 C.3   1 <1>   0.2200 
  6 C        2.9910     1.1240    -1.3060 C.3   1 <1>   0.1400 
  7 C        1.0770    -2.3350    -0.0800 C.ar  1 <1>  -0.1500 
  8 C        2.3640    -3.7480    -1.5010 C.ar  1 <1>  -0.1500 
  9 C        3.2460     0.8210     1.7110 C.3   1 <1>   0.1200 
 10 C        5.2360    -0.3170     0.5850 C.3   1 <1>   0.3430 
 11 C        4.0740     2.1280    -0.8620 C.3   1 <1>  -0.0800 
 12 C        0.2920    -3.4080     0.2970 C.ar  1 <1>   0.0820 
 13 C        1.5830    -4.8300    -1.1370 C.ar  1 <1>  -0.1500 
 14 O        4.0240     1.9680     1.5600 O.3   1 <1>  -0.5600 
 15 N        5.6830     0.1460    -0.7730 N.4   1 <1>  -0.9590 
 16 C        3.7290     2.7900     0.4820 C.3   1 <1>   0.1200 
 17 C        5.5320     1.6250    -0.9210 C.3   1 <1>   0.3430 
 18 O       -0.6980    -3.1510     1.1860 O.3   1 <1>  -0.3630 
 19 C        0.5470    -4.6670    -0.2360 C.ar  1 <1>  -0.1500 
 20 C        7.1440    -0.2280    -0.9630 C.3   1 <1>   0.2370 
 21 C       -1.5980    -4.1580     1.5950 C.3   1 <1>   0.0400 
 22 C        8.0910     0.3740     0.0800 C.2   1 <1>   0.9060 
 23 O        8.5540     1.4970    -0.1390 O.co2 1 <1>  -0.9000 
 24 O        8.2380    -0.2350     1.1440 O.co2 1 <1>  -0.9000 
 25 H        3.4020    -1.2170     1.2000 H     1 <1>   0.0800 
 26 H        3.0980     0.9580    -2.3660 H     1 <1>   0.0800 
 27 H        2.0210     1.5680    -1.1620 H     1 <1>   0.0800 
 28 H        0.8470    -1.3720     0.3360 H     1 <1>   0.1500 
 29 H        3.1660    -3.8910    -2.2050 H     1 <1>   0.1500 
 30 H        3.4020     0.4840     2.7210 H     1 <1>   0.0800 
 31 H        2.2040     1.0620     1.5910 H     1 <1>   0.0800 
 32 H        5.5730    -1.3280     0.7380 H     1 <1>   0.0800 
 33 H        5.6990     0.2850     1.3520 H     1 <1>   0.0800 
 34 H        4.0230     2.9340    -1.5710 H     1 <1>   0.0800 
 35 H        1.7820    -5.8020    -1.5570 H     1 <1>   0.1500 
 36 H        5.0820    -0.3340    -1.4730 H     1 <1>   0.4500 
 37 H        2.6910     3.0710     0.5330 H     1 <1>   0.0800 
 38 H        4.3230     3.6800     0.6060 H     1 <1>   0.0800 
 39 H        6.1130     2.1220    -0.1580 H     1 <1>   0.0800 
 40 H        5.9520     1.9100    -1.8710 H     1 <1>   0.0800 
 41 H       -0.0440    -5.5220     0.0340 H     1 <1>   0.1500 
 42 H        7.2530    -1.2950    -0.9110 H     1 <1>   0.0800 
 43 H        7.4820     0.1010    -1.9280 H     1 <1>   0.0800 
 44 H       -2.3040    -3.7190     2.2770 H     1 <1>   0.0800 
 45 H       -1.0480    -4.9380     2.0900 H     1 <1>   0.0800 
 46 H       -2.1140    -4.5380     0.7310 H     1 <1>   0.0800 
@<TRIPOS>BOND
  1   1   2  2   
  2   2   3  am  
  3   2   4  1   
  4   3   5  1   
  5   3   6  1   
  6   4   7  ar  
  7   4   8  ar  
  8   5   9  1   
  9   5  10  1   
 10   5  25  1   
 11   6  11  1   
 12   6  26  1   
 13   6  27  1   
 14   7  12  ar  
 15   7  28  1   
 16   8  13  ar  
 17   8  29  1   
 18   9  14  1   
 19   9  30  1   
 20   9  31  1   
 21  10  15  1   
 22  10  32  1   
 23  10  33  1   
 24  11  16  1   
 25  11  17  1   
 26  11  34  1   
 27  12  18  1   
 28  12  19  ar  
 29  13  19  ar  
 30  13  35  1   
 31  14  16  1   
 32  15  17  1   
 33  15  20  1   
 34  15  36  1   
 35  16  37  1   
 36  16  38  1   
 37  17  39  1   
 38  17  40  1   
 39  18  21  1   
 40  19  41  1   
 41  20  22  1   
 42  20  42  1   
 43  20  43  1   
 44  21  44  1   
 45  21  45  1   
 46  21  46  1   
 47  22  23  ar  
 48  22  24  ar  
@<TRIPOS>SUBSTRUCTURE
  1 ****   3 GROUP 4 **** **** 0

# MOE 2024.06 (io_trps.svl 2023.06)
