@<TRIPOS>MOLECULE
NONAME
50 53 1 0 0 
SMALL
USER_CHARGES


@<TRIPOS>ATOM
  1 O        1.1830    -0.4400    -2.1280 O.2   1 <1>  -0.5700 
  2 C        1.7760    -0.7450    -1.1100 C.2   1 <1>   0.7160 
  3 N        2.6640     0.1860    -0.5920 N.am  1 <1>  -0.6600 
  4 C        1.5740    -2.0660    -0.5180 C.2   1 <1>   0.2030 
  5 C        3.0990     0.1470     0.8530 C.3   1 <1>   0.2200 
  6 C        3.2190     1.2470    -1.4890 C.3   1 <1>   0.1400 
  7 N        2.4230    -2.7330     0.2550 N.2   1 <1>  -0.7070 
  8 C        0.4200    -2.8250    -0.7220 C.2   1 <1>  -0.1500 
  9 C        3.1040     1.5330     1.5200 C.3   1 <1>   0.1200 
 10 C        4.4820    -0.5330     0.9920 C.3   1 <1>   0.3430 
 11 C        4.5900     1.8020    -1.0580 C.3   1 <1>  -0.0800 
 12 N        1.7980    -3.8920     0.5300 N.pl3 1 <1>   0.3000 
 13 C        0.5790    -3.9860    -0.0440 C.2   1 <1>  -0.2050 
 14 O        4.3240     2.1790     1.3110 O.3   1 <1>  -0.5600 
 15 N        5.2250    -0.5810    -0.3160 N.4   1 <1>  -0.9590 
 16 C        4.4640     2.8180     0.0870 C.3   1 <1>   0.1200 
 17 C        5.7000     0.7590    -0.7930 C.3   1 <1>   0.3430 
 18 C       -0.3030    -5.1160     0.1000 C.ar  1 <1>   0.0530 
 19 C        6.3270    -1.5830    -0.2690 C.3   1 <1>   0.2630 
 20 C       -1.6750    -4.9280     0.2280 C.ar  1 <1>  -0.1500 
 21 C        0.1770    -6.4230     0.1200 C.ar  1 <1>  -0.1500 
 22 C       -2.5350    -5.9990     0.3820 C.ar  1 <1>  -0.1500 
 23 C       -0.6790    -7.4980     0.2750 C.ar  1 <1>  -0.1500 
 24 C       -2.0420    -7.2930     0.4110 C.ar  1 <1>  -0.1430 
 25 C       -2.9840    -8.4710     0.5790 C.3   1 <1>  -0.0970 
 26 H        2.3840    -0.4350     1.4090 H     1 <1>   0.0800 
 27 H        3.3130     0.8400    -2.4830 H     1 <1>   0.0800 
 28 H        2.5040     2.0510    -1.5500 H     1 <1>   0.0800 
 29 H       -0.4220    -2.5200    -1.3190 H     1 <1>   0.1500 
 30 H        3.0060     1.4100     2.5850 H     1 <1>   0.0800 
 31 H        2.2880     2.1470     1.1780 H     1 <1>   0.0800 
 32 H        4.3160    -1.5390     1.3390 H     1 <1>   0.0800 
 33 H        5.0670    -0.0230     1.7390 H     1 <1>   0.0800 
 34 H        4.9340     2.3880    -1.8910 H     1 <1>   0.0800 
 35 H        2.2000    -4.6260     1.1270 H     1 <1>   0.2700 
 36 H        4.5050    -0.9000    -0.9860 H     1 <1>   0.4500 
 37 H        3.6310     3.4870    -0.0590 H     1 <1>   0.0800 
 38 H        5.3600     3.4130     0.1490 H     1 <1>   0.0800 
 39 H        6.3950     1.1680    -0.0770 H     1 <1>   0.0800 
 40 H        6.2390     0.6140    -1.7150 H     1 <1>   0.0800 
 41 H        7.0710    -1.2860     0.4530 H     1 <1>   0.0800 
 42 H        6.7950    -1.6700    -1.2360 H     1 <1>   0.0800 
 43 H        5.9380    -2.5480     0.0110 H     1 <1>   0.0800 
 44 H       -2.0730    -3.9290     0.2100 H     1 <1>   0.1500 
 45 H        1.2280    -6.6100     0.0020 H     1 <1>   0.1500 
 46 H       -3.5920    -5.8220     0.4790 H     1 <1>   0.1500 
 47 H       -0.2830    -8.4980     0.2860 H     1 <1>   0.1500 
 48 H       -3.8410    -8.1860     1.1630 H     1 <1>   0.0800 
 49 H       -2.4870    -9.2820     1.0800 H     1 <1>   0.0800 
 50 H       -3.3180    -8.8100    -0.3850 H     1 <1>   0.0800 
@<TRIPOS>BOND
  1   1   2  2   
  2   2   3  am  
  3   2   4  1   
  4   3   5  1   
  5   3   6  1   
  6   4   7  2   
  7   4   8  1   
  8   5   9  1   
  9   5  10  1   
 10   5  26  1   
 11   6  11  1   
 12   6  27  1   
 13   6  28  1   
 14   7  12  1   
 15   8  13  2   
 16   8  29  1   
 17   9  14  1   
 18   9  30  1   
 19   9  31  1   
 20  10  15  1   
 21  10  32  1   
 22  10  33  1   
 23  11  16  1   
 24  11  17  1   
 25  11  34  1   
 26  12  13  1   
 27  12  35  1   
 28  13  18  1   
 29  14  16  1   
 30  15  17  1   
 31  15  19  1   
 32  15  36  1   
 33  16  37  1   
 34  16  38  1   
 35  17  39  1   
 36  17  40  1   
 37  18  20  ar  
 38  18  21  ar  
 39  19  41  1   
 40  19  42  1   
 41  19  43  1   
 42  20  22  ar  
 43  20  44  1   
 44  21  23  ar  
 45  21  45  1   
 46  22  24  ar  
 47  22  46  1   
 48  23  24  ar  
 49  23  47  1   
 50  24  25  1   
 51  25  48  1   
 52  25  49  1   
 53  25  50  1   
@<TRIPOS>SUBSTRUCTURE
  1 ****   4 GROUP 4 **** **** 0

# MOE 2024.06 (io_trps.svl 2023.06)
