@<TRIPOS>MOLECULE
NONAME
38 40 1 0 0 
SMALL
USER_CHARGES


@<TRIPOS>ATOM
  1 S       -0.8230     0.9010     0.6490 S.3   1 <1>  -0.0800 
  2 C        0.0410     2.4000     0.9910 C.ar  1 <1>   0.2970 
  3 C        0.2030     0.5700    -0.7480 C.2   1 <1>  -0.1100 
  4 N       -0.2800     3.2030     1.9820 N.ar  1 <1>  -0.5670 
  5 C        1.0560     2.5880     0.0870 C.ar  1 <1>   0.0000 
  6 C        1.1200     1.5410    -0.9020 C.2   1 <1>  -0.1500 
  7 C        0.4970     4.2680     2.0330 C.ar  1 <1>   0.4700 
  8 C        1.8150     3.7440     0.2820 C.ar  1 <1>   0.4100 
  9 N        1.5150     4.5940     1.2490 N.ar  1 <1>  -0.6200 
 10 N        2.9080     4.0560    -0.4980 N.pl3 1 <1>  -0.8380 
 11 C        2.9390     5.3470    -1.2630 C.3   1 <1>   0.2090 
 12 C        4.0890     3.1610    -0.6290 C.3   1 <1>   0.2090 
 13 C        3.3680     6.5610    -0.4180 C.3   1 <1>   0.2000 
 14 C        4.4920     2.5960     0.7310 C.3   1 <1>  -0.2400 
 15 O        3.4150     7.6830    -1.2520 O.3   1 <1>  -0.5600 
 16 C        4.7450     6.4150     0.2630 C.3   1 <1>  -0.1600 
 17 C        3.4580     8.9160    -0.5870 C.3   1 <1>   0.1200 
 18 C        5.4140     7.7690     0.5580 C.3   1 <1>  -0.1600 
 19 C        4.3560     8.8720     0.6660 C.3   1 <1>  -0.1600 
 20 H       -0.0050    -0.3250    -1.3070 H     1 <1>   0.1500 
 21 H        1.8530     1.5830    -1.6860 H     1 <1>   0.1500 
 22 H        0.2760     4.9690     2.8200 H     1 <1>   0.1500 
 23 H        1.9510     5.5400    -1.6420 H     1 <1>   0.0800 
 24 H        3.6040     5.2510    -2.1020 H     1 <1>   0.0800 
 25 H        4.9190     3.7150    -1.0330 H     1 <1>   0.0800 
 26 H        3.8680     2.3610    -1.3120 H     1 <1>   0.0800 
 27 H        2.6100     6.7460     0.3220 H     1 <1>   0.0800 
 28 H        4.6580     3.3970     1.4290 H     1 <1>   0.0800 
 29 H        5.4000     2.0310     0.6330 H     1 <1>   0.0800 
 30 H        3.7280     1.9440     1.1130 H     1 <1>   0.0800 
 31 H        5.4010     5.8330    -0.3570 H     1 <1>   0.0800 
 32 H        4.5980     5.8710     1.1790 H     1 <1>   0.0800 
 33 H        2.4520     9.1930    -0.3230 H     1 <1>   0.0800 
 34 H        3.8400     9.6350    -1.2910 H     1 <1>   0.0800 
 35 H        6.0760     8.0140    -0.2550 H     1 <1>   0.0800 
 36 H        5.9990     7.7100     1.4600 H     1 <1>   0.0800 
 37 H        3.7390     8.6880     1.5280 H     1 <1>   0.0800 
 38 H        4.8240     9.8300     0.8060 H     1 <1>   0.0800 
@<TRIPOS>BOND
  1   1   2  1   
  2   1   3  1   
  3   2   4  ar  
  4   2   5  ar  
  5   3   6  2   
  6   3  20  1   
  7   4   7  ar  
  8   5   6  1   
  9   5   8  ar  
 10   6  21  1   
 11   7   9  ar  
 12   7  22  1   
 13   8   9  ar  
 14   8  10  1   
 15  10  11  1   
 16  10  12  1   
 17  11  13  1   
 18  11  23  1   
 19  11  24  1   
 20  12  14  1   
 21  12  25  1   
 22  12  26  1   
 23  13  15  1   
 24  13  16  1   
 25  13  27  1   
 26  14  28  1   
 27  14  29  1   
 28  14  30  1   
 29  15  17  1   
 30  16  18  1   
 31  16  31  1   
 32  16  32  1   
 33  17  19  1   
 34  17  33  1   
 35  17  34  1   
 36  18  19  1   
 37  18  35  1   
 38  18  36  1   
 39  19  37  1   
 40  19  38  1   
@<TRIPOS>SUBSTRUCTURE
  1 ****   8 GROUP 4 **** **** 0

# MOE 2024.06 (io_trps.svl 2023.06)
