@<TRIPOS>MOLECULE
NONAME
49 52 1 0 0 
SMALL
USER_CHARGES


@<TRIPOS>ATOM
  1 S       -0.0430     0.4860    -0.1370 S.3   1 <1>  -0.0800 
  2 C        1.0010    -0.9140     0.0910 C.2   1 <1>   0.4620 
  3 C        1.3560     1.5190    -0.0570 C.2   1 <1>  -0.1100 
  4 N        2.2440    -0.6120     0.2120 N.2   1 <1>  -0.5650 
  5 N        0.4440    -2.1690     0.1260 N.pl3 1 <1>  -0.8220 
  6 C        2.4460     0.7570     0.1310 C.2   1 <1>   0.0460 
  7 C       -0.9650    -2.4760    -0.1890 C.3   1 <1>   0.2090 
  8 C        1.2720    -3.3890     0.1780 C.3   1 <1>   0.2090 
  9 C        3.8810     1.2550     0.2600 C.3   1 <1>   0.3900 
 10 C       -1.0500    -3.9960    -0.1060 C.3   1 <1>  -0.1600 
 11 C        0.3710    -4.4820    -0.3850 C.3   1 <1>  -0.1600 
 12 N        3.9180     2.6980     0.6240 N.pl3 1 <1>  -0.8690 
 13 C        5.0710     3.4310     0.5800 C.ar  1 <1>   0.4100 
 14 N        6.1310     2.8730     0.0120 N.ar  1 <1>  -0.6200 
 15 C        5.0950     4.7110     1.1280 C.ar  1 <1>  -0.1500 
 16 C        7.2340     3.6010    -0.0090 C.ar  1 <1>   0.1600 
 17 C        6.2490     5.4560     1.0920 C.ar  1 <1>  -0.1500 
 18 C        7.3710     4.8930     0.4910 C.ar  1 <1>   0.0860 
 19 C        8.6350     5.5810     0.3890 C.2   1 <1>   0.5440 
 20 O        9.6450     5.0080     0.7510 O.2   1 <1>  -0.5700 
 21 N        8.7440     6.8610    -0.1120 N.am  1 <1>  -0.6600 
 22 C       10.0150     7.6380    -0.0010 C.3   1 <1>   0.1400 
 23 C        7.7370     7.5220    -0.9960 C.3   1 <1>   0.1400 
 24 C        9.7220     9.1130     0.3220 C.3   1 <1>   0.1200 
 25 C        7.5670     9.0000    -0.6060 C.3   1 <1>   0.1200 
 26 O        8.8050     9.6520    -0.5890 O.3   1 <1>  -0.5600 
 27 H        1.2120     2.5780    -0.1630 H     1 <1>   0.1500 
 28 H       -1.1880    -2.1390    -1.1870 H     1 <1>   0.0800 
 29 H       -1.6290    -2.0040     0.5160 H     1 <1>   0.0800 
 30 H        1.5270    -3.5940     1.2030 H     1 <1>   0.0800 
 31 H        2.1710    -3.2730    -0.4040 H     1 <1>   0.0800 
 32 H        4.3930     1.0920    -0.6720 H     1 <1>   0.0800 
 33 H        4.3840     0.6900     1.0250 H     1 <1>   0.0800 
 34 H       -1.7660    -4.3940    -0.8030 H     1 <1>   0.0800 
 35 H       -1.3400    -4.2720     0.8920 H     1 <1>   0.0800 
 36 H        0.5760    -5.4370     0.0640 H     1 <1>   0.0800 
 37 H        0.5330    -4.5490    -1.4470 H     1 <1>   0.0800 
 38 H        3.2430     2.9350     1.3500 H     1 <1>   0.4000 
 39 H        4.2030     5.1020     1.5770 H     1 <1>   0.1500 
 40 H        8.1050     3.1500    -0.4550 H     1 <1>   0.1500 
 41 H        6.2980     6.4430     1.5160 H     1 <1>   0.1500 
 42 H       10.5520     7.5760    -0.9310 H     1 <1>   0.0800 
 43 H       10.6410     7.2260     0.7720 H     1 <1>   0.0800 
 44 H        6.7870     7.0240    -0.9450 H     1 <1>   0.0800 
 45 H        8.0800     7.4710    -2.0150 H     1 <1>   0.0800 
 46 H       10.6260     9.6920     0.2600 H     1 <1>   0.0800 
 47 H        9.3180     9.2070     1.3150 H     1 <1>   0.0800 
 48 H        7.1180     9.0880     0.3680 H     1 <1>   0.0800 
 49 H        6.9420     9.5040    -1.3220 H     1 <1>   0.0800 
@<TRIPOS>BOND
  1   1   2  1   
  2   1   3  1   
  3   2   4  2   
  4   2   5  1   
  5   3   6  2   
  6   3  27  1   
  7   4   6  1   
  8   5   7  1   
  9   5   8  1   
 10   6   9  1   
 11   7  10  1   
 12   7  28  1   
 13   7  29  1   
 14   8  11  1   
 15   8  30  1   
 16   8  31  1   
 17   9  12  1   
 18   9  32  1   
 19   9  33  1   
 20  10  11  1   
 21  10  34  1   
 22  10  35  1   
 23  11  36  1   
 24  11  37  1   
 25  12  13  1   
 26  12  38  1   
 27  13  14  ar  
 28  13  15  ar  
 29  14  16  ar  
 30  15  17  ar  
 31  15  39  1   
 32  16  18  ar  
 33  16  40  1   
 34  17  18  ar  
 35  17  41  1   
 36  18  19  1   
 37  19  20  2   
 38  19  21  am  
 39  21  22  1   
 40  21  23  1   
 41  22  24  1   
 42  22  42  1   
 43  22  43  1   
 44  23  25  1   
 45  23  44  1   
 46  23  45  1   
 47  24  26  1   
 48  24  46  1   
 49  24  47  1   
 50  25  26  1   
 51  25  48  1   
 52  25  49  1   
@<TRIPOS>SUBSTRUCTURE
  1 ****  13 GROUP 4 **** **** 0

# MOE 2024.06 (io_trps.svl 2023.06)
