@<TRIPOS>MOLECULE
NONAME
54 57 1 0 0 
SMALL
USER_CHARGES


@<TRIPOS>ATOM
  1 O       -0.3020     1.0520    -1.8450 O.2   1 <1>  -0.5700 
  2 C       -0.4480     2.2450    -1.7170 C.2   1 <1>   0.5690 
  3 N       -0.7760     2.8220    -0.5200 N.am  1 <1>  -0.6600 
  4 C       -0.2780     3.1300    -2.9510 C.3   1 <1>   0.1810 
  5 C       -1.0050     4.3010    -0.4030 C.3   1 <1>   0.3640 
  6 C       -0.8850     2.0370     0.7430 C.3   1 <1>   0.0600 
  7 O        0.0750     4.4490    -2.6180 O.3   1 <1>  -0.5600 
  8 C       -2.3630     4.5940     0.2590 C.ar  1 <1>  -0.1430 
  9 C       -0.8330     5.0900    -1.7290 C.3   1 <1>   0.2610 
 10 C       -3.5880     4.0600    -0.1570 C.ar  1 <1>  -0.1430 
 11 C       -2.3480     5.4560     1.3500 C.ar  1 <1>  -0.1500 
 12 C       -0.3350     6.5010    -1.4100 C.2   1 <1>   0.5690 
 13 C       -4.7460     4.3930     0.5310 C.ar  1 <1>  -0.1500 
 14 C       -3.7390     3.1080    -1.3390 C.3   1 <1>  -0.0960 
 15 C       -3.5080     5.7820     2.0250 C.ar  1 <1>  -0.1500 
 16 O       -1.0910     7.2940    -0.8980 O.2   1 <1>  -0.5700 
 17 N        0.9620     6.8030    -1.6960 N.am  1 <1>  -0.5790 
 18 C       -4.7120     5.2480     1.6160 C.ar  1 <1>  -0.1500 
 19 C        1.6910     8.0480    -1.3990 C.3   1 <1>   0.0540 
 20 C        2.4280     7.9630    -0.0430 C.3   1 <1>   0.0150 
 21 C        1.1010     9.3090    -1.9440 C.3   1 <1>  -0.2000 
 22 C        2.3170     8.7060    -2.5860 C.3   1 <1>  -0.2000 
 23 C        1.4800     7.8530     1.1540 C.3   1 <1>  -0.1600 
 24 C        3.3300     9.1410     0.3320 C.3   1 <1>  -0.1600 
 25 C        2.2750     8.3300     2.3750 C.3   1 <1>  -0.1600 
 26 C        3.5510     8.9850     1.8350 C.3   1 <1>  -0.1600 
 27 H       -1.1920     3.1480    -3.5160 H     1 <1>   0.0800 
 28 H        0.5040     2.7280    -3.5680 H     1 <1>   0.0800 
 29 H       -0.2390     4.6600     0.2610 H     1 <1>   0.0800 
 30 H       -0.2510     2.4660     1.4980 H     1 <1>   0.0800 
 31 H       -0.5860     1.0150     0.5840 H     1 <1>   0.0800 
 32 H       -1.9030     2.0440     1.0940 H     1 <1>   0.0800 
 33 H       -1.7780     5.1810    -2.2310 H     1 <1>   0.0800 
 34 H       -1.4250     5.8970     1.6860 H     1 <1>   0.1500 
 35 H       -5.6950     3.9870     0.2260 H     1 <1>   0.1500 
 36 H       -4.7730     2.9970    -1.6120 H     1 <1>   0.0800 
 37 H       -3.3590     2.1360    -1.0800 H     1 <1>   0.0800 
 38 H       -3.2160     3.4750    -2.1990 H     1 <1>   0.0800 
 39 H       -3.4730     6.4550     2.8640 H     1 <1>   0.1500 
 40 H        1.4990     6.0830    -2.1880 H     1 <1>   0.3700 
 41 H       -5.6190     5.4980     2.1370 H     1 <1>   0.1500 
 42 H        3.0510     7.0850    -0.0590 H     1 <1>   0.0800 
 43 H        0.1530     9.2480    -2.4480 H     1 <1>   0.1000 
 44 H        1.2080    10.2280    -1.3980 H     1 <1>   0.1000 
 45 H        3.2440     9.2410    -2.4850 H     1 <1>   0.1000 
 46 H        2.2070     8.2550    -3.5560 H     1 <1>   0.1000 
 47 H        0.6370     8.5060     1.0010 H     1 <1>   0.0800 
 48 H        1.1190     6.8480     1.2790 H     1 <1>   0.0800 
 49 H        4.2580     9.1300    -0.2120 H     1 <1>   0.0800 
 50 H        2.8260    10.0740     0.1540 H     1 <1>   0.0800 
 51 H        1.6930     9.0390     2.9380 H     1 <1>   0.0800 
 52 H        2.5270     7.5010     3.0140 H     1 <1>   0.0800 
 53 H        4.3880     8.3310     2.0070 H     1 <1>   0.0800 
 54 H        3.7450     9.9320     2.3070 H     1 <1>   0.0800 
@<TRIPOS>BOND
  1   1   2  2   
  2   2   3  am  
  3   2   4  1   
  4   3   5  1   
  5   3   6  1   
  6   4   7  1   
  7   4  27  1   
  8   4  28  1   
  9   5   8  1   
 10   5   9  1   
 11   5  29  1   
 12   6  30  1   
 13   6  31  1   
 14   6  32  1   
 15   7   9  1   
 16   8  10  ar  
 17   8  11  ar  
 18   9  12  1   
 19   9  33  1   
 20  10  13  ar  
 21  10  14  1   
 22  11  15  ar  
 23  11  34  1   
 24  12  16  2   
 25  12  17  am  
 26  13  18  ar  
 27  13  35  1   
 28  14  36  1   
 29  14  37  1   
 30  14  38  1   
 31  15  18  ar  
 32  15  39  1   
 33  17  19  1   
 34  17  40  1   
 35  18  41  1   
 36  19  20  1   
 37  19  21  1   
 38  19  22  1   
 39  20  23  1   
 40  20  24  1   
 41  20  42  1   
 42  21  22  1   
 43  21  43  1   
 44  21  44  1   
 45  22  45  1   
 46  22  46  1   
 47  23  25  1   
 48  23  47  1   
 49  23  48  1   
 50  24  26  1   
 51  24  49  1   
 52  24  50  1   
 53  25  26  1   
 54  25  51  1   
 55  25  52  1   
 56  26  53  1   
 57  26  54  1   
@<TRIPOS>SUBSTRUCTURE
  1 ****  12 GROUP 4 **** **** 0

# MOE 2024.06 (io_trps.svl 2023.06)
