@<TRIPOS>MOLECULE
NONAME
46 48 1 0 0 
SMALL
USER_CHARGES


@<TRIPOS>ATOM
  1 O       -0.2520     0.3910    -0.4060 O.2   1 <1>  -0.5700 
  2 C       -1.3610     0.8860    -0.4580 C.2   1 <1>   0.5440 
  3 N       -2.4530     0.0660    -0.5920 N.am  1 <1>  -0.6600 
  4 C       -1.5190     2.3160    -0.3710 C.ar  1 <1>   0.0860 
  5 C       -3.8690     0.5160    -0.6070 C.3   1 <1>   0.1400 
  6 C       -2.3850    -1.3790    -0.2740 C.3   1 <1>   0.1400 
  7 C       -1.7740     2.9450     0.8390 C.ar  1 <1>   0.1660 
  8 C       -1.4640     3.1390    -1.4850 C.ar  1 <1>   0.1660 
  9 C       -4.6560    -0.6130     0.0660 C.3   1 <1>   0.2000 
 10 C       -3.8380    -1.8650    -0.2710 C.3   1 <1>  -0.0800 
 11 N       -1.9880     4.2400     0.9310 N.ar  1 <1>  -0.6200 
 12 C       -1.8310     2.1570     2.1380 C.3   1 <1>  -0.0960 
 13 N       -1.6740     4.4360    -1.4160 N.ar  1 <1>  -0.6200 
 14 C       -1.1670     2.5840    -2.8680 C.3   1 <1>  -0.0970 
 15 O       -4.6520    -0.4280     1.4540 O.3   1 <1>  -0.5600 
 16 C       -4.0850    -3.0580     0.6700 C.3   1 <1>   0.0200 
 17 C       -1.9220     4.9100    -0.2070 C.ar  1 <1>   0.4700 
 18 C       -5.6650     0.3910     1.9480 C.3   1 <1>   0.0400 
 19 C       -3.3930    -4.3330     0.2170 C.2   1 <1>  -0.0400 
 20 O       -3.4660    -5.3910     0.9810 O.3   1 <1>  -0.0190 
 21 C       -2.6700    -4.6630    -0.8660 C.2   1 <1>  -0.1500 
 22 N       -2.8320    -6.4070     0.4710 N.2   1 <1>  -0.4100 
 23 C       -2.3410    -5.9970    -0.6420 C.2   1 <1>   0.1080 
 24 C       -1.5170    -6.8550    -1.5760 C.3   1 <1>  -0.0590 
 25 H       -4.0050     1.4520    -0.0960 H     1 <1>   0.0800 
 26 H       -4.1840     0.6180    -1.6300 H     1 <1>   0.0800 
 27 H       -1.7850    -1.8960    -1.0020 H     1 <1>   0.0800 
 28 H       -1.9410    -1.4980     0.7010 H     1 <1>   0.0800 
 29 H       -5.6710    -0.6860    -0.2850 H     1 <1>   0.0800 
 30 H       -4.0890    -2.1580    -1.2750 H     1 <1>   0.0800 
 31 H       -0.9750     1.5130     2.2210 H     1 <1>   0.0800 
 32 H       -2.7230     1.5580     2.1680 H     1 <1>   0.0800 
 33 H       -1.8350     2.8240     2.9820 H     1 <1>   0.0800 
 34 H       -0.4110     1.8200    -2.8190 H     1 <1>   0.0800 
 35 H       -0.8090     3.3660    -3.5130 H     1 <1>   0.0800 
 36 H       -2.0610     2.1680    -3.2930 H     1 <1>   0.0800 
 37 H       -5.1410    -3.2510     0.7310 H     1 <1>   0.0800 
 38 H       -3.7410    -2.8170     1.6620 H     1 <1>   0.0800 
 39 H       -2.0900     5.9730    -0.1410 H     1 <1>   0.1500 
 40 H       -5.5510     0.4540     3.0160 H     1 <1>   0.0800 
 41 H       -6.6210    -0.0450     1.7140 H     1 <1>   0.0800 
 42 H       -5.5800     1.3740     1.5190 H     1 <1>   0.0800 
 43 H       -2.3880    -4.0800    -1.7220 H     1 <1>   0.1500 
 44 H       -0.5510    -6.4100    -1.7230 H     1 <1>   0.0800 
 45 H       -2.0160    -6.9460    -2.5230 H     1 <1>   0.0800 
 46 H       -1.3880    -7.8360    -1.1540 H     1 <1>   0.0800 
@<TRIPOS>BOND
  1   1   2  2   
  2   2   3  am  
  3   2   4  1   
  4   3   5  1   
  5   3   6  1   
  6   4   7  ar  
  7   4   8  ar  
  8   5   9  1   
  9   5  25  1   
 10   5  26  1   
 11   6  10  1   
 12   6  27  1   
 13   6  28  1   
 14   7  11  ar  
 15   7  12  1   
 16   8  13  ar  
 17   8  14  1   
 18   9  10  1   
 19   9  15  1   
 20   9  29  1   
 21  10  16  1   
 22  10  30  1   
 23  11  17  ar  
 24  12  31  1   
 25  12  32  1   
 26  12  33  1   
 27  13  17  ar  
 28  14  34  1   
 29  14  35  1   
 30  14  36  1   
 31  15  18  1   
 32  16  19  1   
 33  16  37  1   
 34  16  38  1   
 35  17  39  1   
 36  18  40  1   
 37  18  41  1   
 38  18  42  1   
 39  19  20  1   
 40  19  21  2   
 41  20  22  1   
 42  21  23  1   
 43  21  43  1   
 44  22  23  2   
 45  23  24  1   
 46  24  44  1   
 47  24  45  1   
 48  24  46  1   
@<TRIPOS>SUBSTRUCTURE
  1 ****   3 GROUP 4 **** **** 0

# MOE 2024.06 (io_trps.svl 2023.06)
