@<TRIPOS>MOLECULE
NONAME
35 36 1 0 0 
SMALL
USER_CHARGES


@<TRIPOS>ATOM
  1 O        2.4000    -0.3490     2.1480 O.2   1 <1>  -0.5700 
  2 C        2.0680    -0.6760     1.0240 C.2   1 <1>   0.7150 
  3 N        2.0510     0.2570     0.0450 N.am  1 <1>  -0.7300 
  4 C        1.6940    -2.0290     0.7320 C.2   1 <1>  -0.2370 
  5 C        2.2690     1.6960     0.2280 C.3   1 <1>   0.4000 
  6 N        1.7200    -2.9980     1.6950 N.pl3 1 <1>   0.0330 
  7 C        1.2710    -2.6190    -0.4330 C.2   1 <1>  -0.1500 
  8 C        1.2450     2.4300    -0.6400 C.2   1 <1>   0.0060 
  9 C        3.7430     2.0450    -0.1040 C.3   1 <1>  -0.0800 
 10 C        1.3220    -4.1700     1.1430 C.2   1 <1>  -0.3020 
 11 C        1.0370    -3.9670    -0.1710 C.2   1 <1>  -0.1500 
 12 N        0.8530     2.0520    -1.8120 N.2   1 <1>  -0.5650 
 13 N        0.6150     3.5530    -0.2630 N.pl3 1 <1>   0.3140 
 14 C        4.0680     3.5190     0.1850 C.3   1 <1>  -0.2400 
 15 C        4.1560     1.7150    -1.5520 C.3   1 <1>  -0.2400 
 16 C       -0.0280     3.0100    -2.1220 C.2   1 <1>   0.3660 
 17 N       -0.2040     3.9270    -1.2320 N.2   1 <1>  -0.7070 
 18 C        0.7030     4.3180     0.9910 C.3   1 <1>   0.0160 
 19 H        1.6430     0.0370    -0.8640 H     1 <1>   0.3700 
 20 H        2.0890     1.9350     1.2610 H     1 <1>   0.0800 
 21 H        2.0030    -2.8280     2.6680 H     1 <1>   0.2700 
 22 H        1.1340    -2.1500    -1.3920 H     1 <1>   0.1500 
 23 H        4.3560     1.4520     0.5540 H     1 <1>   0.0800 
 24 H        1.2610    -5.0850     1.7060 H     1 <1>   0.1500 
 25 H        0.6960    -4.6930    -0.8900 H     1 <1>   0.1500 
 26 H        3.5220     4.1690    -0.4760 H     1 <1>   0.0800 
 27 H        5.1190     3.7000     0.0400 H     1 <1>   0.0800 
 28 H        3.8270     3.7660     1.2040 H     1 <1>   0.0800 
 29 H        3.5930     2.3020    -2.2550 H     1 <1>   0.0800 
 30 H        3.9910     0.6750    -1.7670 H     1 <1>   0.0800 
 31 H        5.2020     1.9210    -1.6980 H     1 <1>   0.0800 
 32 H       -0.5490     2.9950    -3.0670 H     1 <1>   0.1500 
 33 H        0.6930     3.6450     1.8280 H     1 <1>   0.0800 
 34 H       -0.1430     4.9770     1.0580 H     1 <1>   0.0800 
 35 H        1.6050     4.8990     0.9910 H     1 <1>   0.0800 
@<TRIPOS>BOND
  1   1   2  2   
  2   2   3  am  
  3   2   4  1   
  4   3   5  1   
  5   3  19  1   
  6   4   6  1   
  7   4   7  2   
  8   5   8  1   
  9   5   9  1   
 10   5  20  1   
 11   6  10  1   
 12   6  21  1   
 13   7  11  1   
 14   7  22  1   
 15   8  12  2   
 16   8  13  1   
 17   9  14  1   
 18   9  15  1   
 19   9  23  1   
 20  10  11  2   
 21  10  24  1   
 22  11  25  1   
 23  12  16  1   
 24  13  17  1   
 25  13  18  1   
 26  14  26  1   
 27  14  27  1   
 28  14  28  1   
 29  15  29  1   
 30  15  30  1   
 31  15  31  1   
 32  16  17  2   
 33  16  32  1   
 34  18  33  1   
 35  18  34  1   
 36  18  35  1   
@<TRIPOS>SUBSTRUCTURE
  1 ****   3 GROUP 4 **** **** 0

# MOE 2024.06 (io_trps.svl 2023.06)
