@<TRIPOS>MOLECULE
NONAME
51 53 1 0 0 
SMALL
USER_CHARGES


@<TRIPOS>ATOM
  1 O       -0.9420    -0.0480     1.9860 O.2   1 <1>  -0.5700 
  2 C       -1.6150     0.6990     1.2990 C.2   1 <1>   0.5440 
  3 N       -2.6460     0.1690     0.5450 N.am  1 <1>  -0.6600 
  4 C       -1.3250     2.1190     1.3090 C.ar  1 <1>   0.0860 
  5 C       -3.7580     1.0240     0.0300 C.3   1 <1>   0.2200 
  6 C       -2.7590    -1.3130     0.3870 C.3   1 <1>   0.0600 
  7 C       -1.0340     2.8100     0.1340 C.ar  1 <1>  -0.1500 
  8 C       -1.3390     2.8470     2.4960 C.ar  1 <1>  -0.1500 
  9 C       -5.1540     0.5550     0.4330 C.3   1 <1>  -0.1600 
 10 C       -3.8090     1.0910    -1.4930 C.3   1 <1>  -0.1600 
 11 C       -0.7990     4.1740     0.1220 C.ar  1 <1>  -0.1430 
 12 C       -1.1030     4.2080     2.5070 C.ar  1 <1>  -0.1500 
 13 C       -6.0870     1.2470    -0.5690 C.3   1 <1>  -0.0800 
 14 C       -5.2290     1.5830    -1.8040 C.3   1 <1>  -0.0800 
 15 C       -0.8370     4.8860     1.3190 C.ar  1 <1>   0.0820 
 16 C       -0.4920     4.8580    -1.2070 C.3   1 <1>   0.1220 
 17 C       -6.6500     2.5810    -0.0580 C.3   1 <1>  -0.1600 
 18 C       -5.3160     3.1050    -1.9920 C.3   1 <1>  -0.1600 
 19 O       -0.6100     6.2210     1.2790 O.3   1 <1>  -0.3630 
 20 C        0.9840     4.7250    -1.5440 C.2   1 <1>  -0.2880 
 21 C       -6.5850     3.5100    -1.2590 C.3   1 <1>   0.2000 
 22 C       -0.4750     6.9980     2.4480 C.3   1 <1>   0.0400 
 23 C        1.8210     5.7460    -1.7510 C.2   1 <1>  -0.3000 
 24 O       -6.4970     4.8200    -0.8440 O.3   1 <1>  -0.6800 
 25 H       -3.6500     2.0290     0.4000 H     1 <1>   0.0800 
 26 H       -3.2150    -1.5660    -0.5520 H     1 <1>   0.0800 
 27 H       -3.3500    -1.7160     1.1910 H     1 <1>   0.0800 
 28 H       -1.7820    -1.7650     0.4210 H     1 <1>   0.0800 
 29 H       -0.9890     2.2510    -0.7840 H     1 <1>   0.1500 
 30 H       -1.5390     2.3260     3.4160 H     1 <1>   0.1500 
 31 H       -5.2540    -0.5060     0.3010 H     1 <1>   0.0800 
 32 H       -5.3810     0.8080     1.4530 H     1 <1>   0.0800 
 33 H       -3.0540     1.7420    -1.8950 H     1 <1>   0.0800 
 34 H       -3.6850     0.1100    -1.9120 H     1 <1>   0.0800 
 35 H       -1.1290     4.7230     3.4480 H     1 <1>   0.1500 
 36 H       -6.8980     0.5950    -0.8470 H     1 <1>   0.0800 
 37 H       -5.6210     1.0860    -2.6760 H     1 <1>   0.0800 
 38 H       -1.0720     4.4010    -1.9880 H     1 <1>   0.0800 
 39 H       -0.7710     5.8970    -1.1740 H     1 <1>   0.0800 
 40 H       -6.0320     2.9670     0.7340 H     1 <1>   0.0800 
 41 H       -7.6610     2.4710     0.2950 H     1 <1>   0.0800 
 42 H       -5.3670     3.3700    -3.0330 H     1 <1>   0.0800 
 43 H       -4.4670     3.5860    -1.5380 H     1 <1>   0.0800 
 44 H        1.3030     3.6980    -1.5980 H     1 <1>   0.1500 
 45 H       -7.4520     3.3960    -1.8880 H     1 <1>   0.0800 
 46 H       -0.2370     8.0040     2.1540 H     1 <1>   0.0800 
 47 H        0.3240     6.5930     3.0440 H     1 <1>   0.0800 
 48 H       -1.4050     6.9840     2.9870 H     1 <1>   0.0800 
 49 H        2.8650     5.6280    -1.9860 H     1 <1>   0.1500 
 50 H        1.5350     6.7820    -1.6980 H     1 <1>   0.1500 
 51 H       -5.7150     4.9360    -0.2720 H     1 <1>   0.4000 
@<TRIPOS>BOND
  1   1   2  2   
  2   2   3  am  
  3   2   4  1   
  4   3   5  1   
  5   3   6  1   
  6   4   7  ar  
  7   4   8  ar  
  8   5   9  1   
  9   5  10  1   
 10   5  25  1   
 11   6  26  1   
 12   6  27  1   
 13   6  28  1   
 14   7  11  ar  
 15   7  29  1   
 16   8  12  ar  
 17   8  30  1   
 18   9  13  1   
 19   9  31  1   
 20   9  32  1   
 21  10  14  1   
 22  10  33  1   
 23  10  34  1   
 24  11  15  ar  
 25  11  16  1   
 26  12  15  ar  
 27  12  35  1   
 28  13  14  1   
 29  13  17  1   
 30  13  36  1   
 31  14  18  1   
 32  14  37  1   
 33  15  19  1   
 34  16  20  1   
 35  16  38  1   
 36  16  39  1   
 37  17  21  1   
 38  17  40  1   
 39  17  41  1   
 40  18  21  1   
 41  18  42  1   
 42  18  43  1   
 43  19  22  1   
 44  20  23  2   
 45  20  44  1   
 46  21  24  1   
 47  21  45  1   
 48  22  46  1   
 49  22  47  1   
 50  22  48  1   
 51  23  49  1   
 52  23  50  1   
 53  24  51  1   
@<TRIPOS>SUBSTRUCTURE
  1 ****   7 GROUP 4 **** **** 0

# MOE 2024.06 (io_trps.svl 2023.06)
