@<TRIPOS>MOLECULE
NONAME
50 53 1 0 0 
SMALL
USER_CHARGES


@<TRIPOS>ATOM
  1 O        1.8180     0.5130    -2.4130 O.2   1 <1>  -0.5700 
  2 C        1.9600     0.7910    -1.2350 C.2   1 <1>   0.5440 
  3 N        1.3630     1.9360    -0.7550 N.am  1 <1>  -0.6600 
  4 C        2.7490    -0.0450    -0.3680 C.ar  1 <1>   0.0860 
  5 C        0.5090     2.8040    -1.5930 C.3   1 <1>   0.1400 
  6 C        1.3250     2.3520     0.6630 C.3   1 <1>   0.1400 
  7 C        2.3210    -1.3230     0.0470 C.ar  1 <1>   0.4100 
  8 C        3.9810     0.4090     0.0830 C.ar  1 <1>  -0.1500 
  9 C        0.0460     3.9160    -0.6580 C.3   1 <1>  -0.1600 
 10 C        0.1490     3.3180     0.7430 C.3   1 <1>  -0.1600 
 11 N        3.0410    -2.1090     0.8490 N.ar  1 <1>  -0.6200 
 12 N        1.1180    -1.8820    -0.3430 N.pl3 1 <1>  -0.8380 
 13 C        4.7160    -0.4070     0.9100 C.ar  1 <1>  -0.1500 
 14 C        4.2030    -1.6430     1.2570 C.ar  1 <1>   0.1600 
 15 C        1.1150    -3.1660    -1.0850 C.3   1 <1>   0.2090 
 16 C       -0.1770    -1.1590    -0.3070 C.3   1 <1>   0.2090 
 17 C        0.0710    -4.0940    -0.4690 C.3   1 <1>  -0.1600 
 18 C       -1.2390    -2.0710     0.3080 C.3   1 <1>  -0.1600 
 19 C       -1.3120    -3.4210    -0.4250 C.3   1 <1>   0.0630 
 20 C       -2.3630    -4.3370     0.1980 C.ar  1 <1>   0.1670 
 21 N       -3.3960    -4.6660    -0.5450 N.ar  1 <1>  -0.6200 
 22 C       -2.2390    -4.8000     1.4910 C.ar  1 <1>  -0.1500 
 23 C       -4.2890    -5.4500     0.0320 C.ar  1 <1>   0.7200 
 24 C       -3.2300    -5.6210     1.9740 C.ar  1 <1>   0.1600 
 25 N       -4.2680    -5.9620     1.2500 N.ar  1 <1>  -0.6200 
 26 N       -5.3340    -5.7900    -0.7220 N.pl3 1 <1>  -0.9000 
 27 H       -0.3280     2.2310    -1.9520 H     1 <1>   0.0800 
 28 H        1.0660     3.1890    -2.4310 H     1 <1>   0.0800 
 29 H        2.2430     2.8600     0.9040 H     1 <1>   0.0800 
 30 H        1.1910     1.5080     1.3190 H     1 <1>   0.0800 
 31 H        4.3460     1.3760    -0.2180 H     1 <1>   0.1500 
 32 H       -0.9500     4.2450    -0.8930 H     1 <1>   0.0800 
 33 H        0.7200     4.7500    -0.7500 H     1 <1>   0.0800 
 34 H        0.2970     4.0670     1.5000 H     1 <1>   0.0800 
 35 H       -0.7450     2.7630     0.9690 H     1 <1>   0.0800 
 36 H        5.6760    -0.0970     1.2820 H     1 <1>   0.1500 
 37 H        4.7830    -2.2810     1.9030 H     1 <1>   0.1500 
 38 H        2.0890    -3.6250    -1.0400 H     1 <1>   0.0800 
 39 H        0.8820    -2.9730    -2.1190 H     1 <1>   0.0800 
 40 H       -0.4550    -0.8800    -1.3100 H     1 <1>   0.0800 
 41 H       -0.0850    -0.2660     0.2850 H     1 <1>   0.0800 
 42 H        0.3970    -4.3520     0.5220 H     1 <1>   0.0800 
 43 H        0.0140    -4.9980    -1.0480 H     1 <1>   0.0800 
 44 H       -2.1960    -1.5840     0.2600 H     1 <1>   0.0800 
 45 H       -0.9940    -2.2230     1.3430 H     1 <1>   0.0800 
 46 H       -1.6080    -3.2230    -1.4420 H     1 <1>   0.0800 
 47 H       -1.3990    -4.5330     2.1040 H     1 <1>   0.1500 
 48 H       -3.1670    -6.0050     2.9780 H     1 <1>   0.1500 
 49 H       -5.8380    -6.6150    -0.4100 H     1 <1>   0.4000 
 50 H       -5.2010    -5.6800    -1.7220 H     1 <1>   0.4000 
@<TRIPOS>BOND
  1   1   2  2   
  2   2   3  am  
  3   2   4  1   
  4   3   5  1   
  5   3   6  1   
  6   4   7  ar  
  7   4   8  ar  
  8   5   9  1   
  9   5  27  1   
 10   5  28  1   
 11   6  10  1   
 12   6  29  1   
 13   6  30  1   
 14   7  11  ar  
 15   7  12  1   
 16   8  13  ar  
 17   8  31  1   
 18   9  10  1   
 19   9  32  1   
 20   9  33  1   
 21  10  34  1   
 22  10  35  1   
 23  11  14  ar  
 24  12  15  1   
 25  12  16  1   
 26  13  14  ar  
 27  13  36  1   
 28  14  37  1   
 29  15  17  1   
 30  15  38  1   
 31  15  39  1   
 32  16  18  1   
 33  16  40  1   
 34  16  41  1   
 35  17  19  1   
 36  17  42  1   
 37  17  43  1   
 38  18  19  1   
 39  18  44  1   
 40  18  45  1   
 41  19  20  1   
 42  19  46  1   
 43  20  21  ar  
 44  20  22  ar  
 45  21  23  ar  
 46  22  24  ar  
 47  22  47  1   
 48  23  25  ar  
 49  23  26  1   
 50  24  25  ar  
 51  24  48  1   
 52  26  49  1   
 53  26  50  1   
@<TRIPOS>SUBSTRUCTURE
  1 ****  16 GROUP 4 **** **** 0

# MOE 2024.06 (io_trps.svl 2023.06)
