@<TRIPOS>MOLECULE
NONAME
25 26 1 0 0 
SMALL
USER_CHARGES


@<TRIPOS>ATOM
  1 O       -2.1630     3.1430    -0.9090 O.2   1 <1>  -0.5700 
  2 C       -3.0930     2.5020    -0.4720 C.2   1 <1>   0.5690 
  3 N       -4.2110     3.1210     0.0180 N.am  1 <1>  -0.6600 
  4 C       -3.0400     0.9480    -0.5360 C.3   1 <1>   0.2510 
  5 C       -5.4060     2.3680     0.4440 C.3   1 <1>   0.2200 
  6 C       -4.4920     4.5620    -0.1130 C.3   1 <1>   0.1400 
  7 N       -4.2230     0.2330     0.0130 N.3   1 <1>  -0.9000 
  8 C       -1.8210     0.3850     0.1960 C.3   1 <1>  -0.2400 
  9 C       -5.4710     0.9770    -0.2190 C.3   1 <1>   0.1100 
 10 C       -6.5590     3.2990     0.0800 C.3   1 <1>  -0.1600 
 11 C       -5.9720     4.7030     0.2430 C.3   1 <1>  -0.1600 
 12 H       -2.9530     0.6980    -1.5790 H     1 <1>   0.0800 
 13 H       -5.3650     2.2500     1.5130 H     1 <1>   0.0800 
 14 H       -3.8640     5.1300     0.5530 H     1 <1>   0.0800 
 15 H       -4.3080     4.8680    -1.1290 H     1 <1>   0.0800 
 16 H       -4.2750    -0.6930    -0.4260 H     1 <1>   0.3600 
 17 H       -1.8800     0.6290     1.2420 H     1 <1>   0.0800 
 18 H       -0.9230     0.8200    -0.2040 H     1 <1>   0.0800 
 19 H       -1.7690    -0.6810     0.0780 H     1 <1>   0.0800 
 20 H       -5.6390     1.0860    -1.2780 H     1 <1>   0.0800 
 21 H       -6.2960     0.4250     0.1970 H     1 <1>   0.0800 
 22 H       -6.8410     3.1440    -0.9470 H     1 <1>   0.0800 
 23 H       -7.4160     3.1380     0.7100 H     1 <1>   0.0800 
 24 H       -6.0530     5.0160     1.2700 H     1 <1>   0.0800 
 25 H       -6.4630     5.4280    -0.3810 H     1 <1>   0.0800 
@<TRIPOS>BOND
  1   1   2  2   
  2   2   3  am  
  3   2   4  1   
  4   3   5  1   
  5   3   6  1   
  6   4   7  1   
  7   4   8  1   
  8   4  12  1   
  9   5   9  1   
 10   5  10  1   
 11   5  13  1   
 12   6  11  1   
 13   6  14  1   
 14   6  15  1   
 15   7   9  1   
 16   7  16  1   
 17   8  17  1   
 18   8  18  1   
 19   8  19  1   
 20   9  20  1   
 21   9  21  1   
 22  10  11  1   
 23  10  22  1   
 24  10  23  1   
 25  11  24  1   
 26  11  25  1   
@<TRIPOS>SUBSTRUCTURE
  1 ****   3 GROUP 4 **** **** 0

# MOE 2024.06 (io_trps.svl 2023.06)
