@<TRIPOS>MOLECULE
NONAME
47 50 1 0 0 
SMALL
USER_CHARGES


@<TRIPOS>ATOM
  1 S       -0.5630     0.2980     0.3940 S.o2  1 <1>   1.0900 
  2 O        0.8040    -0.1120     0.1720 O.2   1 <1>  -0.6500 
  3 O       -0.8970     1.4130     1.2470 O.2   1 <1>  -0.6500 
  4 C       -1.4820    -1.1420     0.8520 C.3   1 <1>  -0.0550 
  5 C       -1.3500     0.4680    -1.2020 C.3   1 <1>  -0.0550 
  6 C       -1.6860    -1.8880    -0.4630 C.3   1 <1>   0.1760 
  7 C       -2.0910    -0.8430    -1.5230 C.3   1 <1>  -0.1600 
  8 N       -2.7030    -2.9600    -0.3220 N.pl3 1 <1>   0.3140 
  9 N       -3.9270    -2.6900     0.1670 N.2   1 <1>  -0.7070 
 10 C       -2.5690    -4.2770    -0.6230 C.2   1 <1>  -0.3320 
 11 C       -4.5430    -3.8310     0.1830 C.2   1 <1>   0.1080 
 12 C       -3.7410    -4.8690    -0.3020 C.2   1 <1>   0.0630 
 13 C       -1.3050    -4.9070    -1.1950 C.3   1 <1>  -0.0600 
 14 C       -5.9700    -3.9510     0.6700 C.3   1 <1>  -0.0590 
 15 N       -4.0530    -6.2420    -0.4660 N.am  1 <1>  -0.4930 
 16 C       -4.6420    -7.1080     0.4180 C.2   1 <1>   0.5440 
 17 O       -4.9990    -6.7100     1.5100 O.2   1 <1>  -0.5700 
 18 C       -4.8550    -8.4960     0.0470 C.ar  1 <1>   0.0860 
 19 C       -5.9050    -9.2240     0.5700 C.ar  1 <1>  -0.1500 
 20 C       -3.9990    -9.1610    -0.8590 C.ar  1 <1>  -0.1500 
 21 C       -6.1510   -10.5630     0.2190 C.ar  1 <1>   0.0000 
 22 C       -4.2180   -10.4630    -1.2180 C.ar  1 <1>  -0.1500 
 23 C       -5.2930   -11.2010    -0.7020 C.ar  1 <1>   0.3100 
 24 C       -7.2210   -11.3090     0.7430 C.ar  1 <1>  -0.1500 
 25 N       -5.4630   -12.4850    -1.1010 N.ar  1 <1>  -0.6200 
 26 C       -7.3710   -12.5980     0.3300 C.ar  1 <1>  -0.1500 
 27 C       -6.4650   -13.1380    -0.5940 C.ar  1 <1>   0.1600 
 28 H       -2.4330    -0.8500     1.2580 H     1 <1>   0.0800 
 29 H       -0.9500    -1.7400     1.5670 H     1 <1>   0.0800 
 30 H       -0.6110     0.6770    -1.9520 H     1 <1>   0.0800 
 31 H       -2.0520     1.2810    -1.1830 H     1 <1>   0.0800 
 32 H       -0.7490    -2.3300    -0.7500 H     1 <1>   0.0800 
 33 H       -1.8520    -1.1890    -2.5140 H     1 <1>   0.0800 
 34 H       -3.1510    -0.6590    -1.4650 H     1 <1>   0.0800 
 35 H       -1.0660    -4.4670    -2.1470 H     1 <1>   0.0800 
 36 H       -1.4370    -5.9650    -1.3310 H     1 <1>   0.0800 
 37 H       -0.4800    -4.7580    -0.5210 H     1 <1>   0.0800 
 38 H       -6.4870    -3.0210     0.5200 H     1 <1>   0.0800 
 39 H       -5.9690    -4.1860     1.7180 H     1 <1>   0.0800 
 40 H       -6.4820    -4.7280     0.1350 H     1 <1>   0.0800 
 41 H       -3.7740    -6.6260    -1.3650 H     1 <1>   0.3700 
 42 H       -6.5680    -8.7540     1.2750 H     1 <1>   0.1500 
 43 H       -3.1530    -8.6370    -1.2660 H     1 <1>   0.1500 
 44 H       -3.5660   -10.9680    -1.9090 H     1 <1>   0.1500 
 45 H       -7.8930   -10.8560     1.4510 H     1 <1>   0.1500 
 46 H       -8.1700   -13.2160     0.6970 H     1 <1>   0.1500 
 47 H       -6.6110   -14.1590    -0.9020 H     1 <1>   0.1500 
@<TRIPOS>BOND
  1   1   2  2   
  2   1   3  2   
  3   1   4  1   
  4   1   5  1   
  5   4   6  1   
  6   4  28  1   
  7   4  29  1   
  8   5   7  1   
  9   5  30  1   
 10   5  31  1   
 11   6   7  1   
 12   6   8  1   
 13   6  32  1   
 14   7  33  1   
 15   7  34  1   
 16   8   9  1   
 17   8  10  1   
 18   9  11  2   
 19  10  12  2   
 20  10  13  1   
 21  11  12  1   
 22  11  14  1   
 23  12  15  1   
 24  13  35  1   
 25  13  36  1   
 26  13  37  1   
 27  14  38  1   
 28  14  39  1   
 29  14  40  1   
 30  15  16  am  
 31  15  41  1   
 32  16  17  2   
 33  16  18  1   
 34  18  19  ar  
 35  18  20  ar  
 36  19  21  ar  
 37  19  42  1   
 38  20  22  ar  
 39  20  43  1   
 40  21  23  ar  
 41  21  24  ar  
 42  22  23  ar  
 43  22  44  1   
 44  23  25  ar  
 45  24  26  ar  
 46  24  45  1   
 47  25  27  ar  
 48  26  27  ar  
 49  26  46  1   
 50  27  47  1   
@<TRIPOS>SUBSTRUCTURE
  1 ****  15 GROUP 4 **** **** 0

# MOE 2024.06 (io_trps.svl 2023.06)
