@<TRIPOS>MOLECULE
NONAME
47 49 1 0 0 
SMALL
USER_CHARGES


@<TRIPOS>ATOM
  1 N       -0.4340    -0.0680     0.4500 N.ar  1 <1>  -0.6200 
  2 C        0.6510     0.5100    -0.0340 C.ar  1 <1>   0.7710 
  3 C       -1.5150     0.6680     0.5960 C.ar  1 <1>   0.4100 
  4 N        0.6730     1.8090    -0.3620 N.ar  1 <1>  -0.1790 
  5 N        1.7760    -0.2260    -0.2010 N.pl3 1 <1>  -0.8380 
  6 N       -2.6080     0.0640     1.1130 N.pl3 1 <1>  -0.8690 
  7 C       -1.5570     2.0400     0.2390 C.ar  1 <1>  -0.1430 
  8 C       -0.4110     2.6100    -0.2340 C.ar  1 <1>   0.2170 
  9 C        1.8260    -1.6670     0.1770 C.3   1 <1>   0.2090 
 10 C        3.0850     0.1910    -0.7770 C.3   1 <1>   0.2090 
 11 C       -2.7450    -1.3490     1.5370 C.3   1 <1>   0.2090 
 12 C       -2.8800     2.8000     0.3960 C.3   1 <1>  -0.0970 
 13 C       -0.2290     4.0690    -0.6370 C.3   1 <1>  -0.0970 
 14 C        3.2860    -2.0690     0.0330 C.3   1 <1>  -0.1600 
 15 C        3.8470    -1.1070    -1.0070 C.3   1 <1>  -0.1600 
 16 C       -3.7300    -2.0410     0.6010 C.3   1 <1>  -0.1600 
 17 C       -3.8890    -3.5220     0.9680 C.3   1 <1>   0.0960 
 18 N       -4.9020    -4.1600     0.1100 N.pl3 1 <1>   0.3140 
 19 N       -6.2120    -4.1130     0.4100 N.2   1 <1>  -0.7070 
 20 C       -4.6870    -4.8380    -1.0350 C.2   1 <1>  -0.3020 
 21 C       -6.7980    -4.7620    -0.5500 C.2   1 <1>   0.1390 
 22 C       -5.8930    -5.2410    -1.4880 C.2   1 <1>  -0.1500 
 23 H        1.5600     2.1500    -0.7050 H     1 <1>   0.4570 
 24 H       -3.4680     0.6040     1.2320 H     1 <1>   0.4000 
 25 H        1.2120    -2.2350    -0.5040 H     1 <1>   0.0800 
 26 H        1.4770    -1.8200     1.1860 H     1 <1>   0.0800 
 27 H        3.6160     0.7970    -0.0610 H     1 <1>   0.0800 
 28 H        2.9640     0.7250    -1.7040 H     1 <1>   0.0800 
 29 H       -3.1090    -1.3800     2.5510 H     1 <1>   0.0800 
 30 H       -1.7920    -1.8510     1.5070 H     1 <1>   0.0800 
 31 H       -3.6810     2.2430    -0.0580 H     1 <1>   0.0800 
 32 H       -2.8690     3.7640    -0.0750 H     1 <1>   0.0800 
 33 H       -3.1050     2.9340     1.4400 H     1 <1>   0.0800 
 34 H        0.7640     4.4090    -0.4020 H     1 <1>   0.0800 
 35 H       -0.9120     4.7110    -0.1130 H     1 <1>   0.0800 
 36 H       -0.3930     4.1820    -1.6950 H     1 <1>   0.0800 
 37 H        3.3900    -3.0990    -0.2630 H     1 <1>   0.0800 
 38 H        3.7850    -1.9260     0.9760 H     1 <1>   0.0800 
 39 H        4.9100    -0.9730    -0.9080 H     1 <1>   0.0800 
 40 H        3.6320    -1.4730    -1.9960 H     1 <1>   0.0800 
 41 H       -3.3700    -1.9630    -0.4100 H     1 <1>   0.0800 
 42 H       -4.6890    -1.5580     0.6750 H     1 <1>   0.0800 
 43 H       -4.2130    -3.6200     1.9880 H     1 <1>   0.0800 
 44 H       -2.9580    -4.0440     0.8480 H     1 <1>   0.0800 
 45 H       -3.7110    -4.9920    -1.4560 H     1 <1>   0.1500 
 46 H       -7.8640    -4.9050    -0.6020 H     1 <1>   0.1500 
 47 H       -6.1330    -5.8060    -2.3710 H     1 <1>   0.1500 
@<TRIPOS>BOND
  1   1   2  ar  
  2   1   3  ar  
  3   2   4  ar  
  4   2   5  1   
  5   3   6  1   
  6   3   7  ar  
  7   4   8  ar  
  8   4  23  1   
  9   5   9  1   
 10   5  10  1   
 11   6  11  1   
 12   6  24  1   
 13   7   8  ar  
 14   7  12  1   
 15   8  13  1   
 16   9  14  1   
 17   9  25  1   
 18   9  26  1   
 19  10  15  1   
 20  10  27  1   
 21  10  28  1   
 22  11  16  1   
 23  11  29  1   
 24  11  30  1   
 25  12  31  1   
 26  12  32  1   
 27  12  33  1   
 28  13  34  1   
 29  13  35  1   
 30  13  36  1   
 31  14  15  1   
 32  14  37  1   
 33  14  38  1   
 34  15  39  1   
 35  15  40  1   
 36  16  17  1   
 37  16  41  1   
 38  16  42  1   
 39  17  18  1   
 40  17  43  1   
 41  17  44  1   
 42  18  19  1   
 43  18  20  1   
 44  19  21  2   
 45  20  22  2   
 46  20  45  1   
 47  21  22  1   
 48  21  46  1   
 49  22  47  1   
@<TRIPOS>SUBSTRUCTURE
  1 ****   1 GROUP 4 **** **** 0

# MOE 2024.06 (io_trps.svl 2023.06)
