@<TRIPOS>MOLECULE
NONAME
47 49 1 0 0 
SMALL
USER_CHARGES


@<TRIPOS>ATOM
  1 CL      -0.2310     1.9280     0.0700 Cl    1 <1>  -0.1770 
  2 C        1.4530     2.3360    -0.1400 C.ar  1 <1>   0.1770 
  3 C        2.4150     1.6140     0.5400 C.ar  1 <1>  -0.1500 
  4 C        1.7980     3.3760    -0.9810 C.ar  1 <1>  -0.1500 
  5 C        3.7510     1.9400     0.3710 C.ar  1 <1>  -0.1500 
  6 C        3.1350     3.6980    -1.1460 C.ar  1 <1>  -0.1500 
  7 C        4.1150     2.9800    -0.4730 C.ar  1 <1>  -0.1430 
  8 C        5.5820     3.3370    -0.6570 C.3   1 <1>  -0.0160 
  9 C        6.0250     4.3600     0.3950 C.3   1 <1>  -0.1600 
 10 C        7.5040     4.7540     0.2180 C.3   1 <1>  -0.0990 
 11 C        7.9960     5.8110     1.2020 C.2   1 <1>   0.5690 
 12 O        7.3120     6.0580     2.1690 O.2   1 <1>  -0.5700 
 13 N        9.1810     6.4700     0.9770 N.am  1 <1>  -0.6600 
 14 C        9.4810     7.7330     1.7300 C.3   1 <1>   0.1400 
 15 C       10.1100     6.1900    -0.1630 C.3   1 <1>   0.1400 
 16 C        9.2650     9.0220     0.8930 C.3   1 <1>   0.2200 
 17 C        9.9940     7.2240    -1.3050 C.3   1 <1>  -0.0190 
 18 N        8.3510     8.8210    -0.2820 N.am  1 <1>  -0.6600 
 19 C       10.6010     9.6490     0.4430 C.3   1 <1>   0.1200 
 20 C        8.6650     7.9610    -1.3030 C.2   1 <1>   0.5690 
 21 C       11.1670     8.2140    -1.3560 C.3   1 <1>   0.1200 
 22 C        6.9830     9.3890    -0.1340 C.3   1 <1>   0.0600 
 23 O       11.4880     8.7100    -0.0940 O.3   1 <1>  -0.5600 
 24 O        7.9110     7.7480    -2.2250 O.2   1 <1>  -0.5700 
 25 H        2.1210     0.8100     1.1900 H     1 <1>   0.1500 
 26 H        1.0320     3.9250    -1.4970 H     1 <1>   0.1500 
 27 H        4.5050     1.3840     0.9000 H     1 <1>   0.1500 
 28 H        3.4110     4.5090    -1.7980 H     1 <1>   0.1500 
 29 H        6.1810     2.4460    -0.5750 H     1 <1>   0.0800 
 30 H        5.7310     3.7410    -1.6440 H     1 <1>   0.0800 
 31 H        5.8770     3.9490     1.3790 H     1 <1>   0.0800 
 32 H        5.4120     5.2420     0.3130 H     1 <1>   0.0800 
 33 H        7.6270     5.1380    -0.7780 H     1 <1>   0.0800 
 34 H        8.1200     3.8810     0.3290 H     1 <1>   0.0800 
 35 H        8.8510     7.7950     2.5990 H     1 <1>   0.0800 
 36 H       10.4920     7.6940     2.0930 H     1 <1>   0.0800 
 37 H       11.1200     6.1690     0.2100 H     1 <1>   0.0800 
 38 H        9.9110     5.2120    -0.5600 H     1 <1>   0.0800 
 39 H        8.8070     9.7460     1.5440 H     1 <1>   0.0800 
 40 H       10.0390     6.6760    -2.2280 H     1 <1>   0.0800 
 41 H       11.0910    10.0720     1.3010 H     1 <1>   0.0800 
 42 H       10.4360    10.4360    -0.2720 H     1 <1>   0.0800 
 43 H       10.9560     9.0380    -2.0190 H     1 <1>   0.0800 
 44 H       12.0440     7.7070    -1.7180 H     1 <1>   0.0800 
 45 H        7.0410    10.4510     0.0220 H     1 <1>   0.0800 
 46 H        6.4920     8.9280     0.7060 H     1 <1>   0.0800 
 47 H        6.3950     9.2040    -1.0170 H     1 <1>   0.0800 
@<TRIPOS>BOND
  1   1   2  1   
  2   2   3  ar  
  3   2   4  ar  
  4   3   5  ar  
  5   3  25  1   
  6   4   6  ar  
  7   4  26  1   
  8   5   7  ar  
  9   5  27  1   
 10   6   7  ar  
 11   6  28  1   
 12   7   8  1   
 13   8   9  1   
 14   8  29  1   
 15   8  30  1   
 16   9  10  1   
 17   9  31  1   
 18   9  32  1   
 19  10  11  1   
 20  10  33  1   
 21  10  34  1   
 22  11  12  2   
 23  11  13  am  
 24  13  14  1   
 25  13  15  1   
 26  14  16  1   
 27  14  35  1   
 28  14  36  1   
 29  15  17  1   
 30  15  37  1   
 31  15  38  1   
 32  16  18  1   
 33  16  19  1   
 34  16  39  1   
 35  17  20  1   
 36  17  21  1   
 37  17  40  1   
 38  18  20  am  
 39  18  22  1   
 40  19  23  1   
 41  19  41  1   
 42  19  42  1   
 43  20  24  2   
 44  21  23  1   
 45  21  43  1   
 46  21  44  1   
 47  22  45  1   
 48  22  46  1   
 49  22  47  1   
@<TRIPOS>SUBSTRUCTURE
  1 ****  10 GROUP 4 **** **** 0

# MOE 2024.06 (io_trps.svl 2023.06)
