@<TRIPOS>MOLECULE
NONAME
52 55 1 0 0 
SMALL
USER_CHARGES


@<TRIPOS>ATOM
  1 CL      -1.7510    -3.7300    -0.0980 Cl    1 <1>  -0.1240 
  2 C       -3.2780    -4.3180     0.5080 C.2   1 <1>   0.2640 
  3 O       -4.1790    -4.7220    -0.3610 O.3   1 <1>  -0.2800 
  4 C       -3.7120    -4.4290     1.7780 C.2   1 <1>  -0.1500 
  5 C       -5.2330    -5.1120     0.3370 C.2   1 <1>  -0.0400 
  6 C       -5.0080    -4.9520     1.6640 C.2   1 <1>  -0.1500 
  7 C       -6.4430    -5.6290    -0.4260 C.3   1 <1>   0.5230 
  8 N       -7.4190    -4.5280    -0.6890 N.4   1 <1>  -0.9590 
  9 C       -8.5650    -4.9680    -1.5440 C.3   1 <1>   0.3430 
 10 C       -6.8370    -3.2330    -1.1390 C.3   1 <1>   0.3430 
 11 C       -9.7340    -3.9560    -1.4890 C.3   1 <1>   0.1400 
 12 C       -7.3830    -2.1220    -0.2380 C.3   1 <1>  -0.1600 
 13 N       -9.6760    -3.1380    -0.2350 N.am  1 <1>  -0.6600 
 14 C       -8.8950    -1.8720    -0.3540 C.3   1 <1>   0.1400 
 15 C      -10.1270    -3.5760     0.9900 C.2   1 <1>   0.5690 
 16 O       -9.6890    -3.0880     2.0040 O.2   1 <1>  -0.5700 
 17 C      -11.1410    -4.7100     1.1240 C.3   1 <1>   0.0820 
 18 C      -10.5950    -6.0610     0.6660 C.2   1 <1>  -0.1810 
 19 C       -9.4490    -6.6630     1.2360 C.ar  1 <1>   0.0000 
 20 C      -11.0660    -6.9010    -0.2930 C.2   1 <1>  -0.3320 
 21 C       -9.2490    -7.8550     0.5480 C.ar  1 <1>  -0.1520 
 22 C       -8.5860    -6.3240     2.2840 C.ar  1 <1>  -0.1500 
 23 N      -10.2570    -8.0000    -0.3680 N.pl3 1 <1>   0.0330 
 24 C      -12.2950    -6.7910    -1.1830 C.3   1 <1>  -0.0600 
 25 C       -8.1810    -8.7000     0.8610 C.ar  1 <1>  -0.1500 
 26 C       -7.5460    -7.1660     2.6050 C.ar  1 <1>  -0.1500 
 27 C       -7.3350    -8.3480     1.8860 C.ar  1 <1>  -0.1500 
 28 H       -3.1970    -4.1770     2.6890 H     1 <1>   0.1500 
 29 H       -5.6530    -5.1600     2.4990 H     1 <1>   0.1500 
 30 H       -6.9240    -6.4010     0.1520 H     1 <1>   0.0800 
 31 H       -6.1090    -6.0620    -1.3540 H     1 <1>   0.0800 
 32 H       -7.8520    -4.3080     0.2230 H     1 <1>   0.4500 
 33 H       -8.9250    -5.9180    -1.1910 H     1 <1>   0.0800 
 34 H       -8.2480    -5.1020    -2.5650 H     1 <1>   0.0800 
 35 H       -7.0930    -3.0400    -2.1670 H     1 <1>   0.0800 
 36 H       -5.7630    -3.2460    -1.0610 H     1 <1>   0.0800 
 37 H      -10.6720    -4.4770    -1.5590 H     1 <1>   0.0800 
 38 H       -9.6780    -3.3060    -2.3440 H     1 <1>   0.0800 
 39 H       -6.8780    -1.2070    -0.4890 H     1 <1>   0.0800 
 40 H       -7.1360    -2.3350     0.7880 H     1 <1>   0.0800 
 41 H       -9.1210    -1.4000    -1.2960 H     1 <1>   0.0800 
 42 H       -9.2000    -1.1890     0.4230 H     1 <1>   0.0800 
 43 H      -12.0190    -4.4460     0.5690 H     1 <1>   0.0800 
 44 H      -11.4300    -4.7920     2.1560 H     1 <1>   0.0800 
 45 H       -8.7600    -5.4210     2.8450 H     1 <1>   0.1500 
 46 H      -10.4200    -8.8390    -0.9360 H     1 <1>   0.2700 
 47 H      -12.8340    -5.8810    -0.9960 H     1 <1>   0.0800 
 48 H      -12.9600    -7.6150    -0.9900 H     1 <1>   0.0800 
 49 H      -12.0130    -6.8140    -2.2210 H     1 <1>   0.0800 
 50 H       -8.0400    -9.6190     0.3170 H     1 <1>   0.1500 
 51 H       -6.8900    -6.9340     3.4270 H     1 <1>   0.1500 
 52 H       -6.5140    -8.9900     2.1600 H     1 <1>   0.1500 
@<TRIPOS>BOND
  1   1   2  1   
  2   2   3  1   
  3   2   4  2   
  4   3   5  1   
  5   4   6  1   
  6   4  28  1   
  7   5   6  2   
  8   5   7  1   
  9   6  29  1   
 10   7   8  1   
 11   7  30  1   
 12   7  31  1   
 13   8   9  1   
 14   8  10  1   
 15   8  32  1   
 16   9  11  1   
 17   9  33  1   
 18   9  34  1   
 19  10  12  1   
 20  10  35  1   
 21  10  36  1   
 22  11  13  1   
 23  11  37  1   
 24  11  38  1   
 25  12  14  1   
 26  12  39  1   
 27  12  40  1   
 28  13  14  1   
 29  13  15  am  
 30  14  41  1   
 31  14  42  1   
 32  15  16  2   
 33  15  17  1   
 34  17  18  1   
 35  17  43  1   
 36  17  44  1   
 37  18  19  1   
 38  18  20  2   
 39  19  21  ar  
 40  19  22  ar  
 41  20  23  1   
 42  20  24  1   
 43  21  23  1   
 44  21  25  ar  
 45  22  26  ar  
 46  22  45  1   
 47  23  46  1   
 48  24  47  1   
 49  24  48  1   
 50  24  49  1   
 51  25  27  ar  
 52  25  50  1   
 53  26  27  ar  
 54  26  51  1   
 55  27  52  1   
@<TRIPOS>SUBSTRUCTURE
  1 ****   8 GROUP 4 **** **** 0

# MOE 2024.06 (io_trps.svl 2023.06)
