@<TRIPOS>MOLECULE
NONAME
51 52 1 0 0 
SMALL
USER_CHARGES


@<TRIPOS>ATOM
  1 O       -1.8290     0.3720    -1.9360 O.2   1 <1>  -0.5700 
  2 C       -2.7140     0.8620    -1.2660 C.2   1 <1>   0.5690 
  3 N       -3.9200     0.2030    -1.1460 N.am  1 <1>  -0.6600 
  4 C       -2.4640     2.2690    -0.6330 C.3   1 <1>   0.6280 
  5 C       -4.0750    -1.1650    -1.7220 C.3   1 <1>   0.3200 
  6 C       -5.0820     0.6520    -0.3070 C.3   1 <1>   0.1400 
  7 N       -2.4490     3.4080    -1.6500 N.4   1 <1>  -0.9590 
  8 C       -1.2200     2.3610     0.2690 C.ar  1 <1>  -0.1440 
  9 C       -3.6740    -2.1650    -0.6640 C.2   1 <1>  -0.3320 
 10 C       -4.9010     0.3250     1.1840 C.3   1 <1>   0.1200 
 11 C       -1.3310     3.2690    -2.6370 C.3   1 <1>   0.2630 
 12 C       -2.3770     4.7410    -0.9770 C.3   1 <1>   0.2630 
 13 C        0.0350     1.8880    -0.1030 C.ar  1 <1>  -0.1500 
 14 C       -1.3530     2.9570     1.5180 C.ar  1 <1>  -0.1500 
 15 N       -2.4230    -2.2400    -0.1730 N.pl3 1 <1>   0.0330 
 16 C       -4.3930    -3.1080    -0.0180 C.2   1 <1>   0.0770 
 17 O       -3.8600     1.0790     1.7080 O.3   1 <1>  -0.6800 
 18 C        1.1210     2.0210     0.7430 C.ar  1 <1>  -0.1500 
 19 C       -0.2650     3.0900     2.3630 C.ar  1 <1>  -0.1500 
 20 C       -2.4660    -3.2160     0.7580 C.2   1 <1>   0.0060 
 21 N       -3.6330    -3.7590     0.8820 N.2   1 <1>  -0.5650 
 22 C        0.9790     2.6260     1.9780 C.ar  1 <1>  -0.1440 
 23 C       -1.2560    -3.6250     1.5680 C.3   1 <1>  -0.0600 
 24 C        2.1730     2.7690     2.9050 C.3   1 <1>  -0.0970 
 25 H       -3.3050     2.4450     0.0110 H     1 <1>   0.0800 
 26 H       -3.4550    -1.2880    -2.5940 H     1 <1>   0.0800 
 27 H       -5.0960    -1.3300    -2.0220 H     1 <1>   0.0800 
 28 H       -5.9750     0.1600    -0.6520 H     1 <1>   0.0800 
 29 H       -5.2440     1.7080    -0.4230 H     1 <1>   0.0800 
 30 H       -3.3330     3.3390    -2.1700 H     1 <1>   0.4500 
 31 H       -4.6790    -0.7180     1.3290 H     1 <1>   0.0800 
 32 H       -5.7950     0.5690     1.7330 H     1 <1>   0.0800 
 33 H       -0.3790     3.3470    -2.1380 H     1 <1>   0.0800 
 34 H       -1.3900     4.0470    -3.3820 H     1 <1>   0.0800 
 35 H       -1.3790     2.3150    -3.1370 H     1 <1>   0.0800 
 36 H       -1.4460     4.8380    -0.4400 H     1 <1>   0.0800 
 37 H       -3.1890     4.8560    -0.2780 H     1 <1>   0.0800 
 38 H       -2.4340     5.5330    -1.7060 H     1 <1>   0.0800 
 39 H        0.1970     1.4060    -1.0510 H     1 <1>   0.1500 
 40 H       -2.3080     3.3210     1.8560 H     1 <1>   0.1500 
 41 H       -1.6170    -1.6700    -0.4510 H     1 <1>   0.2700 
 42 H       -5.4330    -3.3590    -0.1440 H     1 <1>   0.1500 
 43 H       -3.6180     0.7340     2.5960 H     1 <1>   0.4000 
 44 H        2.0840     1.6470     0.4360 H     1 <1>   0.1500 
 45 H       -0.3910     3.5530     3.3270 H     1 <1>   0.1500 
 46 H       -0.8820    -2.7850     2.1250 H     1 <1>   0.0800 
 47 H       -0.4850    -3.9950     0.9180 H     1 <1>   0.0800 
 48 H       -1.5280    -4.4030     2.2590 H     1 <1>   0.0800 
 49 H        3.0810     2.8740     2.3380 H     1 <1>   0.0800 
 50 H        2.2550     1.8980     3.5310 H     1 <1>   0.0800 
 51 H        2.0640     3.6370     3.5310 H     1 <1>   0.0800 
@<TRIPOS>BOND
  1   1   2  2   
  2   2   3  am  
  3   2   4  1   
  4   3   5  1   
  5   3   6  1   
  6   4   7  1   
  7   4   8  1   
  8   4  25  1   
  9   5   9  1   
 10   5  26  1   
 11   5  27  1   
 12   6  10  1   
 13   6  28  1   
 14   6  29  1   
 15   7  11  1   
 16   7  12  1   
 17   7  30  1   
 18   8  13  ar  
 19   8  14  ar  
 20   9  15  1   
 21   9  16  2   
 22  10  17  1   
 23  10  31  1   
 24  10  32  1   
 25  11  33  1   
 26  11  34  1   
 27  11  35  1   
 28  12  36  1   
 29  12  37  1   
 30  12  38  1   
 31  13  18  ar  
 32  13  39  1   
 33  14  19  ar  
 34  14  40  1   
 35  15  20  1   
 36  15  41  1   
 37  16  21  1   
 38  16  42  1   
 39  17  43  1   
 40  18  22  ar  
 41  18  44  1   
 42  19  22  ar  
 43  19  45  1   
 44  20  21  2   
 45  20  23  1   
 46  22  24  1   
 47  23  46  1   
 48  23  47  1   
 49  23  48  1   
 50  24  49  1   
 51  24  50  1   
 52  24  51  1   
@<TRIPOS>SUBSTRUCTURE
  1 ****   2 GROUP 4 **** **** 0

# MOE 2024.06 (io_trps.svl 2023.06)
