@<TRIPOS>MOLECULE
NONAME
50 53 1 0 0 
SMALL
USER_CHARGES


@<TRIPOS>ATOM
  1 O       -0.8210     0.4340    -2.1030 O.2   1 <1>  -0.5700 
  2 C       -1.7540     0.9830    -1.5490 C.2   1 <1>   0.5440 
  3 N       -2.9580     0.3220    -1.4350 N.am  1 <1>  -0.6600 
  4 C       -1.5840     2.3230    -1.0240 C.ar  1 <1>   0.0860 
  5 C       -4.1560     0.8720    -0.7280 C.3   1 <1>   0.1400 
  6 C       -3.1580    -1.0740    -1.9290 C.3   1 <1>   0.1400 
  7 C       -1.1280     2.5630     0.2790 C.ar  1 <1>  -0.1440 
  8 C       -1.9030     3.4160    -1.8260 C.ar  1 <1>  -0.1500 
  9 C       -4.6250    -0.0880     0.3820 C.3   1 <1>   0.1900 
 10 C       -3.6700    -1.9870    -0.8020 C.3   1 <1>   0.1100 
 11 C       -1.0200     3.8600     0.7560 C.ar  1 <1>  -0.1500 
 12 C       -0.7390     1.3990     1.1820 C.3   1 <1>  -0.0960 
 13 C       -1.7900     4.7060    -1.3410 C.ar  1 <1>   0.0820 
 14 N       -4.8920    -1.4400    -0.1680 N.3   1 <1>  -0.8100 
 15 C       -5.8790     0.4700     1.0830 C.3   1 <1>   0.1200 
 16 C       -1.3530     4.9330    -0.0500 C.ar  1 <1>  -0.1500 
 17 O       -2.1010     5.7520    -2.1200 O.3   1 <1>  -0.5320 
 18 C       -5.4040    -2.3290     0.9030 C.3   1 <1>   0.3330 
 19 O       -6.3030    -0.4010     2.0920 O.3   1 <1>  -0.5600 
 20 C       -5.8170    -3.6890     0.3400 C.ar  1 <1>  -0.1430 
 21 C       -6.6120    -1.6850     1.6180 C.3   1 <1>   0.1200 
 22 C       -5.4130    -4.8560     0.9740 C.ar  1 <1>  -0.1500 
 23 C       -6.6020    -3.7790    -0.8020 C.ar  1 <1>  -0.1500 
 24 C       -5.7880    -6.0910     0.4750 C.ar  1 <1>  -0.1500 
 25 C       -6.9780    -5.0130    -1.3020 C.ar  1 <1>  -0.1500 
 26 C       -6.5710    -6.1710    -0.6630 C.ar  1 <1>  -0.1500 
 27 H       -3.9390     1.8310    -0.2940 H     1 <1>   0.0800 
 28 H       -4.9520     1.0020    -1.4410 H     1 <1>   0.0800 
 29 H       -3.8760    -1.0650    -2.7290 H     1 <1>   0.0800 
 30 H       -2.2380    -1.4760    -2.3170 H     1 <1>   0.0800 
 31 H       -2.2400     3.2380    -2.8300 H     1 <1>   0.1500 
 32 H       -3.8410    -0.1510     1.1170 H     1 <1>   0.0800 
 33 H       -2.8930    -2.1040    -0.0660 H     1 <1>   0.0800 
 34 H       -3.8780    -2.9550    -1.2220 H     1 <1>   0.0800 
 35 H       -0.6710     4.0470     1.7570 H     1 <1>   0.1500 
 36 H       -0.3670     1.7490     2.1280 H     1 <1>   0.0800 
 37 H        0.0330     0.8140     0.7110 H     1 <1>   0.0800 
 38 H       -1.5890     0.7670     1.3610 H     1 <1>   0.0800 
 39 H       -6.6830     0.5990     0.3790 H     1 <1>   0.0800 
 40 H       -5.6610     1.4170     1.5430 H     1 <1>   0.0800 
 41 H       -1.2720     5.9420     0.3130 H     1 <1>   0.1500 
 42 H       -2.3470     5.4980    -3.0270 H     1 <1>   0.4500 
 43 H       -4.6290    -2.4760     1.6350 H     1 <1>   0.0800 
 44 H       -6.9020    -2.2870     2.4600 H     1 <1>   0.0800 
 45 H       -7.4470    -1.6100     0.9450 H     1 <1>   0.0800 
 46 H       -4.8050    -4.8100     1.8600 H     1 <1>   0.1500 
 47 H       -6.9150    -2.8800    -1.3050 H     1 <1>   0.1500 
 48 H       -5.4710    -6.9910     0.9720 H     1 <1>   0.1500 
 49 H       -7.5850    -5.0710    -2.1880 H     1 <1>   0.1500 
 50 H       -6.8620    -7.1310    -1.0520 H     1 <1>   0.1500 
@<TRIPOS>BOND
  1   1   2  2   
  2   2   3  am  
  3   2   4  1   
  4   3   5  1   
  5   3   6  1   
  6   4   7  ar  
  7   4   8  ar  
  8   5   9  1   
  9   5  27  1   
 10   5  28  1   
 11   6  10  1   
 12   6  29  1   
 13   6  30  1   
 14   7  11  ar  
 15   7  12  1   
 16   8  13  ar  
 17   8  31  1   
 18   9  14  1   
 19   9  15  1   
 20   9  32  1   
 21  10  14  1   
 22  10  33  1   
 23  10  34  1   
 24  11  16  ar  
 25  11  35  1   
 26  12  36  1   
 27  12  37  1   
 28  12  38  1   
 29  13  16  ar  
 30  13  17  1   
 31  14  18  1   
 32  15  19  1   
 33  15  39  1   
 34  15  40  1   
 35  16  41  1   
 36  17  42  1   
 37  18  20  1   
 38  18  21  1   
 39  18  43  1   
 40  19  21  1   
 41  20  22  ar  
 42  20  23  ar  
 43  21  44  1   
 44  21  45  1   
 45  22  24  ar  
 46  22  46  1   
 47  23  25  ar  
 48  23  47  1   
 49  24  26  ar  
 50  24  48  1   
 51  25  26  ar  
 52  25  49  1   
 53  26  50  1   
@<TRIPOS>SUBSTRUCTURE
  1 ****   9 GROUP 4 **** **** 0

# MOE 2024.06 (io_trps.svl 2023.06)
