@<TRIPOS>MOLECULE
NONAME
52 54 1 0 0 
SMALL
USER_CHARGES


@<TRIPOS>ATOM
  1 O       -1.9350     0.9380     0.2550 O.2   1 <1>  -0.5700 
  2 C       -1.5270     2.0050     0.6510 C.2   1 <1>   0.5690 
  3 N       -2.2390     3.1640     0.4930 N.am  1 <1>  -0.6600 
  4 C       -0.1510     2.0400     1.3220 C.3   1 <1>   0.1810 
  5 C       -1.6910     4.4760     0.9690 C.3   1 <1>   0.3640 
  6 C       -3.6500     3.1760     0.0090 C.3   1 <1>   0.0600 
  7 O        0.0650     3.1910     2.1030 O.3   1 <1>  -0.5600 
  8 C       -1.8710     5.5820    -0.0880 C.ar  1 <1>  -0.1430 
  9 C       -0.2120     4.4020     1.4260 C.3   1 <1>   0.2610 
 10 C       -1.5000     5.4750    -1.4330 C.ar  1 <1>  -0.1430 
 11 C       -2.4420     6.7700     0.3530 C.ar  1 <1>  -0.1500 
 12 C        0.1750     5.6210     2.2800 C.2   1 <1>   0.5690 
 13 C       -1.7150     6.5480    -2.2870 C.ar  1 <1>  -0.1500 
 14 C       -0.8790     4.2240    -2.0500 C.3   1 <1>  -0.0960 
 15 C       -2.6490     7.8330    -0.5050 C.ar  1 <1>  -0.1500 
 16 O       -0.6800     6.1840     2.9290 O.2   1 <1>  -0.5700 
 17 N        1.4650     6.0930     2.2670 N.am  1 <1>  -0.6600 
 18 C       -2.2840     7.7220    -1.8310 C.ar  1 <1>  -0.1500 
 19 C        1.7360     7.5120     2.6210 C.3   1 <1>   0.3200 
 20 C        2.6320     5.3450     1.7190 C.3   1 <1>   0.0600 
 21 C        1.9190     8.2950     1.3380 C.2   1 <1>  -0.0400 
 22 O        3.1170     8.5530     0.8880 O.3   1 <1>  -0.0190 
 23 C        1.0310     8.8040     0.4710 C.2   1 <1>  -0.1500 
 24 N        3.0800     9.2070    -0.2370 N.2   1 <1>  -0.4100 
 25 C        1.8350     9.3710    -0.5140 C.2   1 <1>   0.1080 
 26 C        1.3180    10.0740    -1.7540 C.3   1 <1>   0.0210 
 27 C        1.2030     9.0980    -2.9290 C.3   1 <1>  -0.2400 
 28 H        0.6150     1.9900     0.5700 H     1 <1>   0.0800 
 29 H       -0.0540     1.1870     1.9690 H     1 <1>   0.0800 
 30 H       -2.2770     4.7390     1.8320 H     1 <1>   0.0800 
 31 H       -3.7270     3.7600    -0.8920 H     1 <1>   0.0800 
 32 H       -4.2900     3.6040     0.7600 H     1 <1>   0.0800 
 33 H       -3.9890     2.1760    -0.2020 H     1 <1>   0.0800 
 34 H        0.4100     4.4260     0.5540 H     1 <1>   0.0800 
 35 H       -2.7330     6.8830     1.3850 H     1 <1>   0.1500 
 36 H       -1.4420     6.4770    -3.3250 H     1 <1>   0.1500 
 37 H       -0.4230     4.4490    -2.9970 H     1 <1>   0.0800 
 38 H       -1.6400     3.4830    -2.2160 H     1 <1>   0.0800 
 39 H       -0.1220     3.8030    -1.4200 H     1 <1>   0.0800 
 40 H       -3.0950     8.7420    -0.1410 H     1 <1>   0.1500 
 41 H       -2.4450     8.5430    -2.5070 H     1 <1>   0.1500 
 42 H        0.9150     7.9300     3.1760 H     1 <1>   0.0800 
 43 H        2.6200     7.5810     3.2310 H     1 <1>   0.0800 
 44 H        3.5130     5.5680     2.2960 H     1 <1>   0.0800 
 45 H        2.8040     5.6350     0.6960 H     1 <1>   0.0800 
 46 H        2.4600     4.2840     1.7660 H     1 <1>   0.0800 
 47 H       -0.0430     8.7790     0.4930 H     1 <1>   0.1500 
 48 H        0.3560    10.5050    -1.5430 H     1 <1>   0.0800 
 49 H        1.9930    10.8720    -2.0110 H     1 <1>   0.0800 
 50 H        0.5480     8.2850    -2.6720 H     1 <1>   0.0800 
 51 H        2.1720     8.6960    -3.1660 H     1 <1>   0.0800 
 52 H        0.8130     9.6020    -3.7950 H     1 <1>   0.0800 
@<TRIPOS>BOND
  1   1   2  2   
  2   2   3  am  
  3   2   4  1   
  4   3   5  1   
  5   3   6  1   
  6   4   7  1   
  7   4  28  1   
  8   4  29  1   
  9   5   8  1   
 10   5   9  1   
 11   5  30  1   
 12   6  31  1   
 13   6  32  1   
 14   6  33  1   
 15   7   9  1   
 16   8  10  ar  
 17   8  11  ar  
 18   9  12  1   
 19   9  34  1   
 20  10  13  ar  
 21  10  14  1   
 22  11  15  ar  
 23  11  35  1   
 24  12  16  2   
 25  12  17  am  
 26  13  18  ar  
 27  13  36  1   
 28  14  37  1   
 29  14  38  1   
 30  14  39  1   
 31  15  18  ar  
 32  15  40  1   
 33  17  19  1   
 34  17  20  1   
 35  18  41  1   
 36  19  21  1   
 37  19  42  1   
 38  19  43  1   
 39  20  44  1   
 40  20  45  1   
 41  20  46  1   
 42  21  22  1   
 43  21  23  2   
 44  22  24  1   
 45  23  25  1   
 46  23  47  1   
 47  24  25  2   
 48  25  26  1   
 49  26  27  1   
 50  26  48  1   
 51  26  49  1   
 52  27  50  1   
 53  27  51  1   
 54  27  52  1   
@<TRIPOS>SUBSTRUCTURE
  1 ****   8 GROUP 4 **** **** 0

# MOE 2024.06 (io_trps.svl 2023.06)
