@<TRIPOS>MOLECULE
NONAME
41 43 1 0 0 
SMALL
USER_CHARGES


@<TRIPOS>ATOM
  1 O        1.7520     0.2200     1.4740 O.3   1 <1>  -0.6800 
  2 C        1.5810    -0.0140     0.1100 C.3   1 <1>   0.2000 
  3 C        2.1870    -1.3640    -0.2680 C.3   1 <1>  -0.0800 
  4 C        2.4760     0.9580    -0.6600 C.3   1 <1>   0.3430 
  5 C        3.6930    -1.0910    -0.3830 C.3   1 <1>   0.3430 
  6 C        1.8580    -2.5490     0.6600 C.3   1 <1>  -0.0170 
  7 N        3.8650     0.3880    -0.5630 N.4   1 <1>  -0.9590 
  8 C        2.6350    -3.7820     0.2290 C.ar  1 <1>  -0.1440 
  9 C        4.6140     0.9640     0.5970 C.3   1 <1>   0.4860 
 10 C        3.6950    -4.2740     0.9660 C.ar  1 <1>  -0.1500 
 11 C        2.3230    -4.4730    -0.9260 C.ar  1 <1>  -0.1500 
 12 C        4.7530     2.4600     0.4320 C.ar  1 <1>  -0.1440 
 13 C        4.3850    -5.3860     0.5140 C.ar  1 <1>   0.1600 
 14 C        3.0800    -5.5750    -1.2900 C.ar  1 <1>   0.1600 
 15 C        5.6490     3.0180    -0.4530 C.ar  1 <1>   0.1600 
 16 C        3.9760     3.3300     1.1660 C.ar  1 <1>   0.1600 
 17 N        4.1090    -6.0370    -0.6020 N.ar  1 <1>  -0.6200 
 18 N        5.7430     4.3110    -0.6230 N.ar  1 <1>  -0.6200 
 19 N        4.0520     4.6270     1.0120 N.ar  1 <1>  -0.6200 
 20 C        4.9270     5.0450     0.1140 C.ar  1 <1>   0.7200 
 21 N        5.0060     6.3630    -0.0580 N.pl3 1 <1>  -0.9000 
 22 H        1.0080    -0.1590     1.9920 H     1 <1>   0.4000 
 23 H        0.5380     0.0910    -0.1420 H     1 <1>   0.0800 
 24 H        1.8390    -1.6140    -1.2560 H     1 <1>   0.0800 
 25 H        2.4020     1.9580    -0.2650 H     1 <1>   0.0800 
 26 H        2.1670     0.9710    -1.6930 H     1 <1>   0.0800 
 27 H        4.1100    -1.6390    -1.2130 H     1 <1>   0.0800 
 28 H        4.1840    -1.4140     0.5220 H     1 <1>   0.0800 
 29 H        0.8030    -2.7630     0.6240 H     1 <1>   0.0800 
 30 H        2.1080    -2.3180     1.6810 H     1 <1>   0.0800 
 31 H        4.3800     0.5950    -1.4280 H     1 <1>   0.4500 
 32 H        4.0880     0.7520     1.5150 H     1 <1>   0.0800 
 33 H        5.5930     0.5190     0.6620 H     1 <1>   0.0800 
 34 H        3.9930    -3.8140     1.8910 H     1 <1>   0.1500 
 35 H        1.5000    -4.1760    -1.5490 H     1 <1>   0.1500 
 36 H        5.2080    -5.7620     1.1010 H     1 <1>   0.1500 
 37 H        2.8250    -6.1040    -2.1930 H     1 <1>   0.1500 
 38 H        6.3050     2.3980    -1.0410 H     1 <1>   0.1500 
 39 H        3.2690     2.9590     1.8920 H     1 <1>   0.1500 
 40 H        4.6170     6.9330     0.6880 H     1 <1>   0.4000 
 41 H        5.8540     6.7050    -0.5020 H     1 <1>   0.4000 
@<TRIPOS>BOND
  1   1   2  1   
  2   1  22  1   
  3   2   3  1   
  4   2   4  1   
  5   2  23  1   
  6   3   5  1   
  7   3   6  1   
  8   3  24  1   
  9   4   7  1   
 10   4  25  1   
 11   4  26  1   
 12   5   7  1   
 13   5  27  1   
 14   5  28  1   
 15   6   8  1   
 16   6  29  1   
 17   6  30  1   
 18   7   9  1   
 19   7  31  1   
 20   8  10  ar  
 21   8  11  ar  
 22   9  12  1   
 23   9  32  1   
 24   9  33  1   
 25  10  13  ar  
 26  10  34  1   
 27  11  14  ar  
 28  11  35  1   
 29  12  15  ar  
 30  12  16  ar  
 31  13  17  ar  
 32  13  36  1   
 33  14  17  ar  
 34  14  37  1   
 35  15  18  ar  
 36  15  38  1   
 37  16  19  ar  
 38  16  39  1   
 39  18  20  ar  
 40  19  20  ar  
 41  20  21  1   
 42  21  40  1   
 43  21  41  1   
@<TRIPOS>SUBSTRUCTURE
  1 ****   7 GROUP 4 **** **** 0

# MOE 2024.06 (io_trps.svl 2023.06)
