@<TRIPOS>MOLECULE
NONAME
49 50 1 0 0 
SMALL
USER_CHARGES


@<TRIPOS>ATOM
  1 S        1.8900    -0.0980     1.9810 S.o2  1 <1>   1.3330 
  2 O        2.6450     1.0460     2.4400 O.2   1 <1>  -0.6500 
  3 O        1.5220    -1.1430     2.9030 O.2   1 <1>  -0.6500 
  4 N        2.7770    -0.8000     0.6690 N.am  1 <1>  -0.6930 
  5 C        0.4320     0.4920     1.1490 C.3   1 <1>  -0.1350 
  6 C        2.3100    -1.9020    -0.0450 C.ar  1 <1>   0.1990 
  7 C        4.0200    -0.1040     0.2120 C.3   1 <1>   0.2570 
  8 C        2.0470    -3.1090     0.5920 C.ar  1 <1>  -0.1500 
  9 C        2.0960    -1.8190    -1.4170 C.ar  1 <1>  -0.1500 
 10 C        3.7680     1.1890    -0.5730 C.2   1 <1>   0.5690 
 11 C        1.5730    -4.2040    -0.1100 C.ar  1 <1>  -0.1440 
 12 C        1.6270    -2.9080    -2.1280 C.ar  1 <1>  -0.1500 
 13 O        3.8800     1.1820    -1.7770 O.2   1 <1>  -0.5700 
 14 N        3.4400     2.3200     0.0960 N.am  1 <1>  -0.7300 
 15 C        1.3650    -4.0990    -1.4750 C.ar  1 <1>  -0.1500 
 16 C        1.2870    -5.5130     0.6040 C.3   1 <1>  -0.0970 
 17 C        3.2520     3.6440    -0.4910 C.3   1 <1>   0.4000 
 18 C        4.4470     4.4780    -0.0670 C.2   1 <1>  -0.3320 
 19 C        1.9090     4.2010     0.0000 C.3   1 <1>  -0.1600 
 20 N        5.6350     4.4440    -0.7140 N.pl3 1 <1>   0.3140 
 21 C        4.5910     5.3500     0.9570 C.2   1 <1>  -0.1500 
 22 C        1.5540     5.5520    -0.6400 C.3   1 <1>  -0.2400 
 23 N        6.5280     5.2680    -0.1410 N.2   1 <1>  -0.7070 
 24 C        6.0090     3.6400    -1.8870 C.3   1 <1>   0.0160 
 25 C        5.8980     5.8050     0.8570 C.2   1 <1>   0.1390 
 26 H       -0.2090     0.9980     1.8430 H     1 <1>   0.0800 
 27 H       -0.1050    -0.3320     0.7210 H     1 <1>   0.0800 
 28 H        0.7010     1.1710     0.3650 H     1 <1>   0.0800 
 29 H        4.5840    -0.7720    -0.4140 H     1 <1>   0.0800 
 30 H        4.6300     0.1230     1.0680 H     1 <1>   0.0800 
 31 H        2.2210    -3.1900     1.6500 H     1 <1>   0.1500 
 32 H        2.2920    -0.8980    -1.9360 H     1 <1>   0.1500 
 33 H        1.4660    -2.8310    -3.1900 H     1 <1>   0.1500 
 34 H        3.3770     2.2950     1.1240 H     1 <1>   0.3700 
 35 H        1.0000    -4.9440    -2.0340 H     1 <1>   0.1500 
 36 H        1.1890    -5.3540     1.6640 H     1 <1>   0.0800 
 37 H        2.0900    -6.2050     0.4310 H     1 <1>   0.0800 
 38 H        0.3710    -5.9430     0.2400 H     1 <1>   0.0800 
 39 H        3.2180     3.5680    -1.5650 H     1 <1>   0.0800 
 40 H        1.9310     4.3070     1.0700 H     1 <1>   0.0800 
 41 H        1.1350     3.4990    -0.2530 H     1 <1>   0.0800 
 42 H        3.8810     5.6510     1.7050 H     1 <1>   0.1500 
 43 H        2.2890     6.2990    -0.3970 H     1 <1>   0.0800 
 44 H        0.5980     5.8900    -0.2810 H     1 <1>   0.0800 
 45 H        1.5020     5.4600    -1.7110 H     1 <1>   0.0800 
 46 H        5.2310     3.6890    -2.6250 H     1 <1>   0.0800 
 47 H        6.1580     2.6220    -1.5820 H     1 <1>   0.0800 
 48 H        6.9220     4.0270    -2.3020 H     1 <1>   0.0800 
 49 H        6.3480     6.5200     1.5250 H     1 <1>   0.1500 
@<TRIPOS>BOND
  1   1   2  2   
  2   1   3  2   
  3   1   4  am  
  4   1   5  1   
  5   4   6  1   
  6   4   7  1   
  7   5  26  1   
  8   5  27  1   
  9   5  28  1   
 10   6   8  ar  
 11   6   9  ar  
 12   7  10  1   
 13   7  29  1   
 14   7  30  1   
 15   8  11  ar  
 16   8  31  1   
 17   9  12  ar  
 18   9  32  1   
 19  10  13  2   
 20  10  14  am  
 21  11  15  ar  
 22  11  16  1   
 23  12  15  ar  
 24  12  33  1   
 25  14  17  1   
 26  14  34  1   
 27  15  35  1   
 28  16  36  1   
 29  16  37  1   
 30  16  38  1   
 31  17  18  1   
 32  17  19  1   
 33  17  39  1   
 34  18  20  1   
 35  18  21  2   
 36  19  22  1   
 37  19  40  1   
 38  19  41  1   
 39  20  23  1   
 40  20  24  1   
 41  21  25  1   
 42  21  42  1   
 43  22  43  1   
 44  22  44  1   
 45  22  45  1   
 46  23  25  2   
 47  24  46  1   
 48  24  47  1   
 49  24  48  1   
 50  25  49  1   
@<TRIPOS>SUBSTRUCTURE
  1 ****  10 GROUP 4 **** **** 0

# MOE 2024.06 (io_trps.svl 2023.06)
