@<TRIPOS>MOLECULE
NONAME
46 49 1 0 0 
SMALL
USER_CHARGES


@<TRIPOS>ATOM
  1 S        0.0750    -0.4170    -0.2300 S.3   1 <1>  -0.3320 
  2 C       -1.5540    -1.1620    -0.0330 C.ar  1 <1>   0.1020 
  3 C       -0.1810     1.2070    -1.0720 C.3   1 <1>  -0.0100 
  4 C       -1.6080    -2.3970     0.5850 C.ar  1 <1>  -0.1500 
  5 C       -2.7100    -0.5400    -0.4760 C.ar  1 <1>  -0.1500 
  6 C       -2.8320    -3.0210     0.7640 C.ar  1 <1>  -0.1430 
  7 C       -3.9310    -1.1670    -0.2900 C.ar  1 <1>  -0.1500 
  8 C       -3.9980    -2.4070     0.3310 C.ar  1 <1>  -0.1440 
  9 C       -2.9410    -4.3830     1.4190 C.3   1 <1>  -0.0170 
 10 C       -5.3490    -3.0820     0.5520 C.3   1 <1>   0.2840 
 11 C       -3.9490    -5.2390     0.6500 C.3   1 <1>   0.1400 
 12 N       -5.2860    -4.5770     0.5320 N.am  1 <1>  -0.6600 
 13 C       -6.4630    -5.2910     0.3800 C.2   1 <1>   0.7160 
 14 O       -7.5080    -4.6750     0.5310 O.2   1 <1>  -0.5700 
 15 C       -6.5270    -6.7200     0.0590 C.2   1 <1>   0.2030 
 16 N       -5.5620    -7.4980    -0.4090 N.2   1 <1>  -0.7070 
 17 C       -7.6890    -7.4750     0.2030 C.2   1 <1>  -0.1500 
 18 N       -6.1050    -8.7090    -0.5570 N.pl3 1 <1>   0.3140 
 19 C       -7.4040    -8.7440    -0.1860 C.2   1 <1>  -0.2370 
 20 C       -5.2910    -9.8220    -1.0620 C.3   1 <1>   0.0960 
 21 C       -8.2810    -9.8780    -0.2280 C.2   1 <1>   0.7150 
 22 C       -5.3540   -10.9840    -0.0750 C.3   1 <1>   0.2000 
 23 O       -9.4760    -9.7210    -0.1100 O.2   1 <1>  -0.5700 
 24 N       -7.8910   -11.1680    -0.3950 N.am  1 <1>  -0.7300 
 25 O       -4.2230   -11.7730    -0.2480 O.3   1 <1>  -0.6800 
 26 C       -6.5890   -11.8790    -0.2600 C.3   1 <1>   0.1400 
 27 H        0.7840     1.6640    -1.1940 H     1 <1>   0.0800 
 28 H       -0.8130     1.8100    -0.4460 H     1 <1>   0.0800 
 29 H       -0.6360     1.0170    -2.0280 H     1 <1>   0.0800 
 30 H       -0.6970    -2.8590     0.9170 H     1 <1>   0.1500 
 31 H       -2.6790     0.4160    -0.9580 H     1 <1>   0.1500 
 32 H       -4.8300    -0.6850    -0.6300 H     1 <1>   0.1500 
 33 H       -3.2600    -4.2740     2.4390 H     1 <1>   0.0800 
 34 H       -1.9850    -4.8760     1.4150 H     1 <1>   0.0800 
 35 H       -6.0350    -2.7540    -0.2100 H     1 <1>   0.0800 
 36 H       -5.7410    -2.7700     1.5040 H     1 <1>   0.0800 
 37 H       -4.0530    -6.1820     1.1580 H     1 <1>   0.0800 
 38 H       -3.5730    -5.4280    -0.3410 H     1 <1>   0.0800 
 39 H       -8.6340    -7.0970     0.5560 H     1 <1>   0.1500 
 40 H       -4.2780    -9.4720    -1.1500 H     1 <1>   0.0800 
 41 H       -5.6580   -10.1080    -2.0290 H     1 <1>   0.0800 
 42 H       -5.3150   -10.6120     0.9360 H     1 <1>   0.0800 
 43 H       -8.7010   -11.7920    -0.4270 H     1 <1>   0.3700 
 44 H       -4.1570   -12.1240    -1.1580 H     1 <1>   0.4000 
 45 H       -6.6530   -12.5460     0.5830 H     1 <1>   0.0800 
 46 H       -6.4550   -12.4760    -1.1460 H     1 <1>   0.0800 
@<TRIPOS>BOND
  1   1   2  1   
  2   1   3  1   
  3   2   4  ar  
  4   2   5  ar  
  5   3  27  1   
  6   3  28  1   
  7   3  29  1   
  8   4   6  ar  
  9   4  30  1   
 10   5   7  ar  
 11   5  31  1   
 12   6   8  ar  
 13   6   9  1   
 14   7   8  ar  
 15   7  32  1   
 16   8  10  1   
 17   9  11  1   
 18   9  33  1   
 19   9  34  1   
 20  10  12  1   
 21  10  35  1   
 22  10  36  1   
 23  11  12  1   
 24  11  37  1   
 25  11  38  1   
 26  12  13  am  
 27  13  14  2   
 28  13  15  1   
 29  15  16  2   
 30  15  17  1   
 31  16  18  1   
 32  17  19  2   
 33  17  39  1   
 34  18  19  1   
 35  18  20  1   
 36  19  21  1   
 37  20  22  1   
 38  20  40  1   
 39  20  41  1   
 40  21  23  2   
 41  21  24  am  
 42  22  25  1   
 43  22  26  1   
 44  22  42  1   
 45  24  26  1   
 46  24  43  1   
 47  25  44  1   
 48  26  45  1   
 49  26  46  1   
@<TRIPOS>SUBSTRUCTURE
  1 ****  11 GROUP 4 **** **** 0

# MOE 2024.06 (io_trps.svl 2023.06)
