@<TRIPOS>MOLECULE
NONAME
50 53 1 0 0 
SMALL
USER_CHARGES


@<TRIPOS>ATOM
  1 O        1.0250    -0.2380    -0.3730 O.3   1 <1>  -0.5600 
  2 C        1.8400    -1.0510     0.4400 C.3   1 <1>   0.4240 
  3 C       -0.3150    -0.5990    -0.5250 C.3   1 <1>   0.1200 
  4 C        1.4530    -2.5420     0.3660 C.ar  1 <1>  -0.1440 
  5 C        1.7330    -0.5010     1.8680 C.3   1 <1>  -0.1600 
  6 C        3.2710    -0.8370    -0.0860 C.3   1 <1>  -0.1600 
  7 C       -0.3870    -1.9490    -1.2310 C.3   1 <1>  -0.0160 
  8 C        0.4000    -2.9700    -0.4360 C.ar  1 <1>  -0.1440 
  9 C        2.1490    -3.4920     1.1070 C.ar  1 <1>  -0.1500 
 10 C        2.0240     1.0030     1.9300 C.3   1 <1>   0.3430 
 11 C        3.9420     0.4440     0.4210 C.3   1 <1>   0.3430 
 12 C        0.0620    -4.3120    -0.5080 C.ar  1 <1>  -0.1500 
 13 C        1.8100    -4.8310     1.0390 C.ar  1 <1>  -0.1500 
 14 N        2.9120     1.4370     0.8150 N.4   1 <1>  -0.9590 
 15 C        0.7690    -5.2530     0.2320 C.ar  1 <1>   0.0820 
 16 C        3.4360     2.8240     0.9320 C.3   1 <1>   0.5230 
 17 O        0.5040    -6.5820     0.2200 O.3   1 <1>  -0.3620 
 18 C        3.6980     3.3690    -0.4670 C.2   1 <1>   0.0060 
 19 C       -0.5240    -7.1200    -0.5820 C.3   1 <1>   0.0400 
 20 N        3.2260     2.8150    -1.5420 N.2   1 <1>  -0.5650 
 21 N        4.4370     4.4820    -0.7090 N.pl3 1 <1>   0.0480 
 22 C        3.6780     3.5990    -2.5360 C.2   1 <1>   0.0770 
 23 C        4.4170     4.6160    -2.0460 C.2   1 <1>  -0.3020 
 24 C        5.1250     5.3910     0.2300 C.3   1 <1>   0.0160 
 25 H       -0.7990     0.1590    -1.1150 H     1 <1>   0.0800 
 26 H       -0.7810    -0.6470     0.4440 H     1 <1>   0.0800 
 27 H        2.4340    -1.0140     2.5000 H     1 <1>   0.0800 
 28 H        0.7560    -0.7010     2.2670 H     1 <1>   0.0800 
 29 H        3.2480    -0.8320    -1.1620 H     1 <1>   0.0800 
 30 H        3.9000    -1.6590     0.1970 H     1 <1>   0.0800 
 31 H        0.0200    -1.8610    -2.2230 H     1 <1>   0.0800 
 32 H       -1.4160    -2.2510    -1.3130 H     1 <1>   0.0800 
 33 H        2.9650    -3.2090     1.7450 H     1 <1>   0.1500 
 34 H        2.4720     1.2370     2.8820 H     1 <1>   0.0800 
 35 H        1.0910     1.5390     1.8550 H     1 <1>   0.0800 
 36 H        4.5670     0.8460    -0.3610 H     1 <1>   0.0800 
 37 H        4.5630     0.2150     1.2710 H     1 <1>   0.0800 
 38 H       -0.7510    -4.6110    -1.1410 H     1 <1>   0.1500 
 39 H        2.3510    -5.5630     1.6120 H     1 <1>   0.1500 
 40 H        2.3140     1.4820    -0.0390 H     1 <1>   0.4500 
 41 H        4.3420     2.8330     1.5140 H     1 <1>   0.0800 
 42 H        2.7050     3.4520     1.4120 H     1 <1>   0.0800 
 43 H       -0.5400    -8.1840    -0.4340 H     1 <1>   0.0800 
 44 H       -0.3140    -6.8980    -1.6130 H     1 <1>   0.0800 
 45 H       -1.4630    -6.6940    -0.2780 H     1 <1>   0.0800 
 46 H        3.4450     3.3910    -3.5690 H     1 <1>   0.1500 
 47 H        4.9140     5.4110    -2.5750 H     1 <1>   0.1500 
 48 H        4.4150     5.7960     0.9280 H     1 <1>   0.0800 
 49 H        5.5750     6.1990    -0.3190 H     1 <1>   0.0800 
 50 H        5.8940     4.8540     0.7550 H     1 <1>   0.0800 
@<TRIPOS>BOND
  1   1   2  1   
  2   1   3  1   
  3   2   4  1   
  4   2   5  1   
  5   2   6  1   
  6   3   7  1   
  7   3  25  1   
  8   3  26  1   
  9   4   8  ar  
 10   4   9  ar  
 11   5  10  1   
 12   5  27  1   
 13   5  28  1   
 14   6  11  1   
 15   6  29  1   
 16   6  30  1   
 17   7   8  1   
 18   7  31  1   
 19   7  32  1   
 20   8  12  ar  
 21   9  13  ar  
 22   9  33  1   
 23  10  14  1   
 24  10  34  1   
 25  10  35  1   
 26  11  14  1   
 27  11  36  1   
 28  11  37  1   
 29  12  15  ar  
 30  12  38  1   
 31  13  15  ar  
 32  13  39  1   
 33  14  16  1   
 34  14  40  1   
 35  15  17  1   
 36  16  18  1   
 37  16  41  1   
 38  16  42  1   
 39  17  19  1   
 40  18  20  2   
 41  18  21  1   
 42  19  43  1   
 43  19  44  1   
 44  19  45  1   
 45  20  22  1   
 46  21  23  1   
 47  21  24  1   
 48  22  23  2   
 49  22  46  1   
 50  23  47  1   
 51  24  48  1   
 52  24  49  1   
 53  24  50  1   
@<TRIPOS>SUBSTRUCTURE
  1 ****   2 GROUP 4 **** **** 0

# MOE 2024.06 (io_trps.svl 2023.06)
