@<TRIPOS>MOLECULE
NONAME
51 52 1 0 0 
SMALL
USER_CHARGES


@<TRIPOS>ATOM
  1 O       -0.0950     1.3740    -1.5900 O.3   1 <1>  -0.6800 
  2 C       -0.5460     2.6990    -1.5370 C.3   1 <1>   0.2000 
  3 C       -1.2640     3.0200    -0.1850 C.3   1 <1>   0.0000 
  4 C        0.6950     3.5940    -1.7010 C.3   1 <1>   0.3430 
  5 C       -0.2360     3.5580     0.8590 C.3   1 <1>  -0.1600 
  6 C       -1.9480     1.7320     0.3630 C.3   1 <1>   0.1200 
  7 C       -2.3740     4.0910    -0.4190 C.3   1 <1>  -0.1600 
  8 N        1.7440     3.2480    -0.6760 N.4   1 <1>  -0.9590 
  9 C        1.1710     2.9690     0.6860 C.3   1 <1>   0.3430 
 10 O       -2.7480     1.9890     1.4670 O.3   1 <1>  -0.6800 
 11 C       -1.9770     5.3840    -1.1650 C.3   1 <1>  -0.1600 
 12 C        2.8580     4.2480    -0.6490 C.3   1 <1>   0.4860 
 13 C       -3.1640     6.3470    -1.2400 C.3   1 <1>  -0.2400 
 14 C        2.3380     5.6220    -0.2540 C.ar  1 <1>  -0.1440 
 15 C        1.8800     6.5050    -1.2220 C.ar  1 <1>  -0.1500 
 16 C        2.3090     6.0090     1.0770 C.ar  1 <1>  -0.1500 
 17 C        1.3580     7.7390    -0.8730 C.ar  1 <1>  -0.1440 
 18 C        1.7940     7.2410     1.4310 C.ar  1 <1>  -0.1500 
 19 C        1.3090     8.1090     0.4660 C.ar  1 <1>  -0.1440 
 20 C        0.8500     8.6680    -1.9670 C.3   1 <1>  -0.0970 
 21 C        0.7410     9.4530     0.9010 C.3   1 <1>  -0.0970 
 22 H       -0.8370     0.7600    -1.7830 H     1 <1>   0.4000 
 23 H       -1.2190     2.8420    -2.3660 H     1 <1>   0.0800 
 24 H        0.3920     4.6190    -1.5790 H     1 <1>   0.0800 
 25 H        1.0920     3.4780    -2.6950 H     1 <1>   0.0800 
 26 H       -0.5730     3.3510     1.8580 H     1 <1>   0.0800 
 27 H       -0.1500     4.6260     0.8020 H     1 <1>   0.0800 
 28 H       -1.2210     0.9920     0.6530 H     1 <1>   0.0800 
 29 H       -2.5890     1.3050    -0.3890 H     1 <1>   0.0800 
 30 H       -3.1810     3.6330    -0.9660 H     1 <1>   0.0800 
 31 H       -2.7830     4.3780     0.5350 H     1 <1>   0.0800 
 32 H        2.1190     2.3440    -0.9970 H     1 <1>   0.4500 
 33 H        1.1040     1.9010     0.8210 H     1 <1>   0.0800 
 34 H        1.8230     3.3560     1.4500 H     1 <1>   0.0800 
 35 H       -2.2290     2.2800     2.2400 H     1 <1>   0.4000 
 36 H       -1.1720     5.8910    -0.6630 H     1 <1>   0.0800 
 37 H       -1.6680     5.1630    -2.1710 H     1 <1>   0.0800 
 38 H        3.6130     3.9380     0.0540 H     1 <1>   0.0800 
 39 H        3.3160     4.3120    -1.6220 H     1 <1>   0.0800 
 40 H       -3.4890     6.6230    -0.2510 H     1 <1>   0.0800 
 41 H       -3.9900     5.8930    -1.7590 H     1 <1>   0.0800 
 42 H       -2.8820     7.2420    -1.7650 H     1 <1>   0.0800 
 43 H        1.9270     6.2360    -2.2630 H     1 <1>   0.1500 
 44 H        2.6840     5.3650     1.8530 H     1 <1>   0.1500 
 45 H        1.7740     7.5260     2.4690 H     1 <1>   0.1500 
 46 H        0.9820     8.2350    -2.9420 H     1 <1>   0.0800 
 47 H        1.3880     9.5980    -1.9390 H     1 <1>   0.0800 
 48 H       -0.1970     8.8670    -1.8260 H     1 <1>   0.0800 
 49 H        0.7630     9.5550     1.9710 H     1 <1>   0.0800 
 50 H       -0.2790     9.5470     0.5760 H     1 <1>   0.0800 
 51 H        1.3200    10.2530     0.4760 H     1 <1>   0.0800 
@<TRIPOS>BOND
  1   1   2  1   
  2   1  22  1   
  3   2   3  1   
  4   2   4  1   
  5   2  23  1   
  6   3   5  1   
  7   3   6  1   
  8   3   7  1   
  9   4   8  1   
 10   4  24  1   
 11   4  25  1   
 12   5   9  1   
 13   5  26  1   
 14   5  27  1   
 15   6  10  1   
 16   6  28  1   
 17   6  29  1   
 18   7  11  1   
 19   7  30  1   
 20   7  31  1   
 21   8   9  1   
 22   8  12  1   
 23   8  32  1   
 24   9  33  1   
 25   9  34  1   
 26  10  35  1   
 27  11  13  1   
 28  11  36  1   
 29  11  37  1   
 30  12  14  1   
 31  12  38  1   
 32  12  39  1   
 33  13  40  1   
 34  13  41  1   
 35  13  42  1   
 36  14  15  ar  
 37  14  16  ar  
 38  15  17  ar  
 39  15  43  1   
 40  16  18  ar  
 41  16  44  1   
 42  17  19  ar  
 43  17  20  1   
 44  18  19  ar  
 45  18  45  1   
 46  19  21  1   
 47  20  46  1   
 48  20  47  1   
 49  20  48  1   
 50  21  49  1   
 51  21  50  1   
 52  21  51  1   
@<TRIPOS>SUBSTRUCTURE
  1 ****   5 GROUP 4 **** **** 0

# MOE 2024.06 (io_trps.svl 2023.06)
