@<TRIPOS>MOLECULE
NONAME
52 54 1 0 0 
SMALL
USER_CHARGES


@<TRIPOS>ATOM
  1 O        0.2620     1.6090     1.5500 O.2   1 <1>  -0.5700 
  2 C        0.2110     2.7050     1.0230 C.2   1 <1>   0.5440 
  3 N       -1.0160     3.3020     0.8240 N.am  1 <1>  -0.6600 
  4 C        1.4590     3.3220     0.6120 C.ar  1 <1>   0.0860 
  5 C       -2.2490     2.7970     1.5020 C.3   1 <1>   0.1400 
  6 C       -1.2820     4.3500    -0.1990 C.3   1 <1>   0.1400 
  7 C        2.4280     2.5610    -0.0390 C.ar  1 <1>  -0.1500 
  8 C        1.7600     4.6580     0.8740 C.ar  1 <1>  -0.1500 
  9 C       -3.2250     2.1820     0.4800 C.3   1 <1>   0.0000 
 10 C       -2.2470     3.8080    -1.2600 C.3   1 <1>  -0.1600 
 11 C        3.6510     3.0950    -0.4110 C.ar  1 <1>  -0.1430 
 12 C        2.9680     5.2100     0.4890 C.ar  1 <1>  -0.1500 
 13 C       -4.4900     1.6650     1.1920 C.3   1 <1>   0.2000 
 14 C       -3.5280     3.2240    -0.6350 C.3   1 <1>  -0.1600 
 15 C       -2.6770     0.8750    -0.1230 C.3   1 <1>  -0.1600 
 16 C        3.9140     4.4320    -0.1530 C.ar  1 <1>  -0.1500 
 17 C        4.6920     2.2130    -1.0730 C.3   1 <1>   0.4860 
 18 O       -5.4320     2.6540     1.4100 O.3   1 <1>  -0.6800 
 19 C       -5.0710     0.5670     0.3020 C.3   1 <1>  -0.1600 
 20 C       -3.9050     0.0710    -0.5640 C.3   1 <1>  -0.1600 
 21 N        5.1860     1.2290    -0.0660 N.4   1 <1>  -0.9590 
 22 C        5.8990     1.9050     1.0640 C.3   1 <1>   0.2630 
 23 C        6.0360     0.1740    -0.6940 C.3   1 <1>   0.2630 
 24 H       -1.9940     2.0690     2.2520 H     1 <1>   0.0800 
 25 H       -2.7310     3.6190     2.0020 H     1 <1>   0.0800 
 26 H       -1.7180     5.2070     0.2860 H     1 <1>   0.0800 
 27 H       -0.3730     4.6600    -0.6810 H     1 <1>   0.0800 
 28 H        2.1920     1.5290    -0.2390 H     1 <1>   0.1500 
 29 H        1.0360     5.2640     1.3910 H     1 <1>   0.1500 
 30 H       -2.5110     4.6050    -1.9310 H     1 <1>   0.0800 
 31 H       -1.7400     3.0600    -1.8420 H     1 <1>   0.0800 
 32 H        3.1720     6.2480     0.6960 H     1 <1>   0.1500 
 33 H       -4.2260     1.2440     2.1490 H     1 <1>   0.0800 
 34 H       -4.1370     2.7880    -1.4060 H     1 <1>   0.0800 
 35 H       -4.0760     4.0480    -0.2110 H     1 <1>   0.0800 
 36 H       -1.9860     1.0300    -0.9310 H     1 <1>   0.0800 
 37 H       -2.1620     0.3210     0.6450 H     1 <1>   0.0800 
 38 H        4.8500     4.8820    -0.4420 H     1 <1>   0.1500 
 39 H        5.5080     2.8130    -1.4420 H     1 <1>   0.0800 
 40 H        4.2420     1.6970    -1.9060 H     1 <1>   0.0800 
 41 H       -5.7310     3.0090     0.5530 H     1 <1>   0.4000 
 42 H       -5.4620    -0.2300     0.9090 H     1 <1>   0.0800 
 43 H       -5.8520     0.9500    -0.3310 H     1 <1>   0.0800 
 44 H       -3.7380    -0.9850    -0.4360 H     1 <1>   0.0800 
 45 H       -4.1160     0.2660    -1.6010 H     1 <1>   0.0800 
 46 H        4.3430     0.7870     0.3330 H     1 <1>   0.4500 
 47 H        6.7730     2.4230     0.7040 H     1 <1>   0.0800 
 48 H        6.2060     1.1800     1.8010 H     1 <1>   0.0800 
 49 H        5.2480     2.6200     1.5430 H     1 <1>   0.0800 
 50 H        6.9230     0.6120    -1.1230 H     1 <1>   0.0800 
 51 H        5.4900    -0.3350    -1.4710 H     1 <1>   0.0800 
 52 H        6.3350    -0.5520     0.0450 H     1 <1>   0.0800 
@<TRIPOS>BOND
  1   1   2  2   
  2   2   3  am  
  3   2   4  1   
  4   3   5  1   
  5   3   6  1   
  6   4   7  ar  
  7   4   8  ar  
  8   5   9  1   
  9   5  24  1   
 10   5  25  1   
 11   6  10  1   
 12   6  26  1   
 13   6  27  1   
 14   7  11  ar  
 15   7  28  1   
 16   8  12  ar  
 17   8  29  1   
 18   9  13  1   
 19   9  14  1   
 20   9  15  1   
 21  10  14  1   
 22  10  30  1   
 23  10  31  1   
 24  11  16  ar  
 25  11  17  1   
 26  12  16  ar  
 27  12  32  1   
 28  13  18  1   
 29  13  19  1   
 30  13  33  1   
 31  14  34  1   
 32  14  35  1   
 33  15  20  1   
 34  15  36  1   
 35  15  37  1   
 36  16  38  1   
 37  17  21  1   
 38  17  39  1   
 39  17  40  1   
 40  18  41  1   
 41  19  20  1   
 42  19  42  1   
 43  19  43  1   
 44  20  44  1   
 45  20  45  1   
 46  21  22  1   
 47  21  23  1   
 48  21  46  1   
 49  22  47  1   
 50  22  48  1   
 51  22  49  1   
 52  23  50  1   
 53  23  51  1   
 54  23  52  1   
@<TRIPOS>SUBSTRUCTURE
  1 ****   2 GROUP 4 **** **** 0

# MOE 2024.06 (io_trps.svl 2023.06)
