@<TRIPOS>MOLECULE
NONAME
48 50 1 0 0 
SMALL
USER_CHARGES


@<TRIPOS>ATOM
  1 O       -2.7000     0.6590    -1.8320 O.2   1 <1>  -0.5700 
  2 C       -2.4460     0.6010    -0.6540 C.2   1 <1>   0.5690 
  3 N       -2.2470    -0.5820    -0.0260 N.am  1 <1>  -0.7300 
  4 C       -2.3570     1.8770     0.1480 C.3   1 <1>  -0.0990 
  5 C       -2.2620    -1.9100    -0.6840 C.3   1 <1>   0.2200 
  6 C       -1.2380     2.7600    -0.3920 C.3   1 <1>   0.1200 
  7 C       -3.5580    -2.6610    -0.4000 C.3   1 <1>  -0.0800 
  8 C       -1.2610    -2.8120     0.0240 C.3   1 <1>   0.1200 
  9 O       -1.1320     3.8670     0.4420 O.3   1 <1>  -0.5600 
 10 C       -3.2940    -3.2660     0.9860 C.3   1 <1>   0.1200 
 11 C       -4.8430    -1.8120    -0.4970 C.3   1 <1>  -0.0160 
 12 O       -1.9100    -3.2280     1.1880 O.3   1 <1>  -0.5600 
 13 C       -0.1720     4.7840     0.0390 C.3   1 <1>   0.1200 
 14 C       -6.1750    -2.5550    -0.3330 C.ar  1 <1>  -0.1440 
 15 C       -0.1720     5.9220     1.0520 C.3   1 <1>  -0.2400 
 16 C       -7.3790    -1.8150    -0.2330 C.ar  1 <1>   0.0000 
 17 C       -6.2810    -3.9180    -0.2830 C.ar  1 <1>  -0.1500 
 18 C       -8.5890    -2.5320    -0.0550 C.ar  1 <1>   0.3100 
 19 C       -7.4570    -0.4040    -0.3070 C.ar  1 <1>  -0.1500 
 20 C       -7.5300    -4.5280    -0.1140 C.ar  1 <1>   0.1600 
 21 N       -8.6460    -3.8850     0.0040 N.ar  1 <1>  -0.6200 
 22 C       -9.7930    -1.8200     0.0630 C.ar  1 <1>  -0.1500 
 23 C       -8.6480     0.2600    -0.1920 C.ar  1 <1>  -0.1500 
 24 C       -9.8330    -0.4540    -0.0020 C.ar  1 <1>  -0.1500 
 25 H       -2.0690    -0.6210     0.9810 H     1 <1>   0.3700 
 26 H       -3.2920     2.3980     0.0690 H     1 <1>   0.0800 
 27 H       -2.1670     1.6480     1.1800 H     1 <1>   0.0800 
 28 H       -2.0570    -1.8150    -1.7370 H     1 <1>   0.0800 
 29 H       -1.4680     3.0900    -1.3910 H     1 <1>   0.0800 
 30 H       -0.3000     2.2310    -0.3860 H     1 <1>   0.0800 
 31 H       -3.6200    -3.4620    -1.1130 H     1 <1>   0.0800 
 32 H       -0.3460    -2.3060     0.2760 H     1 <1>   0.0800 
 33 H       -1.0480    -3.6860    -0.5670 H     1 <1>   0.0800 
 34 H       -3.6240    -4.2880     1.0530 H     1 <1>   0.0800 
 35 H       -3.7540    -2.6840     1.7660 H     1 <1>   0.0800 
 36 H       -4.8510    -1.3170    -1.4540 H     1 <1>   0.0800 
 37 H       -4.7990    -1.0500     0.2610 H     1 <1>   0.0800 
 38 H        0.7890     4.2960     0.0150 H     1 <1>   0.0800 
 39 H       -0.4270     5.1480    -0.9420 H     1 <1>   0.0800 
 40 H        0.0680     5.5450     2.0290 H     1 <1>   0.0800 
 41 H       -1.1390     6.3920     1.0760 H     1 <1>   0.0800 
 42 H        0.5620     6.6560     0.7750 H     1 <1>   0.0800 
 43 H       -5.4370    -4.5720    -0.3710 H     1 <1>   0.1500 
 44 H       -6.5620     0.1700    -0.4620 H     1 <1>   0.1500 
 45 H       -7.5620    -5.6030    -0.0770 H     1 <1>   0.1500 
 46 H      -10.6920    -2.3910     0.2050 H     1 <1>   0.1500 
 47 H       -8.6880     1.3350    -0.2490 H     1 <1>   0.1500 
 48 H      -10.7640     0.0790     0.0900 H     1 <1>   0.1500 
@<TRIPOS>BOND
  1   1   2  2   
  2   2   3  am  
  3   2   4  1   
  4   3   5  1   
  5   3  25  1   
  6   4   6  1   
  7   4  26  1   
  8   4  27  1   
  9   5   7  1   
 10   5   8  1   
 11   5  28  1   
 12   6   9  1   
 13   6  29  1   
 14   6  30  1   
 15   7  10  1   
 16   7  11  1   
 17   7  31  1   
 18   8  12  1   
 19   8  32  1   
 20   8  33  1   
 21   9  13  1   
 22  10  12  1   
 23  10  34  1   
 24  10  35  1   
 25  11  14  1   
 26  11  36  1   
 27  11  37  1   
 28  13  15  1   
 29  13  38  1   
 30  13  39  1   
 31  14  16  ar  
 32  14  17  ar  
 33  15  40  1   
 34  15  41  1   
 35  15  42  1   
 36  16  18  ar  
 37  16  19  ar  
 38  17  20  ar  
 39  17  43  1   
 40  18  21  ar  
 41  18  22  ar  
 42  19  23  ar  
 43  19  44  1   
 44  20  21  ar  
 45  20  45  1   
 46  22  24  ar  
 47  22  46  1   
 48  23  24  ar  
 49  23  47  1   
 50  24  48  1   
@<TRIPOS>SUBSTRUCTURE
  1 ****  11 GROUP 4 **** **** 0

# MOE 2024.06 (io_trps.svl 2023.06)
