@<TRIPOS>MOLECULE
NONAME
44 46 1 0 0 
SMALL
USER_CHARGES


@<TRIPOS>ATOM
  1 O       -1.6260     0.5560     2.5740 O.2   1 <1>  -0.5700 
  2 C       -2.0440     0.9890     1.5180 C.2   1 <1>   0.5440 
  3 N       -2.8970     0.2110     0.7740 N.am  1 <1>  -0.6600 
  4 C       -1.6550     2.3070     1.0550 C.ar  1 <1>   0.0860 
  5 C       -3.7040     0.6820    -0.3750 C.3   1 <1>   0.1400 
  6 C       -3.2470    -1.1860     1.1270 C.3   1 <1>   0.1400 
  7 C       -0.6550     2.4970     0.0900 C.ar  1 <1>  -0.1440 
  8 C       -2.3080     3.4260     1.5700 C.ar  1 <1>  -0.1500 
  9 C       -4.8670    -0.3080    -0.4420 C.3   1 <1>   0.2000 
 10 C       -4.2810    -1.6250     0.0760 C.3   1 <1>  -0.0800 
 11 C       -0.3610     3.7840    -0.3430 C.ar  1 <1>  -0.1500 
 12 C        0.0850     1.2630    -0.4450 C.3   1 <1>  -0.0160 
 13 C       -2.0050     4.7010     1.1350 C.ar  1 <1>  -0.1500 
 14 O       -5.8410     0.1030     0.4510 O.3   1 <1>  -0.6800 
 15 C       -3.6370    -2.4250    -1.0750 C.3   1 <1>  -0.0170 
 16 C       -1.0310     4.8790     0.1730 C.ar  1 <1>  -0.1500 
 17 C        1.2510     1.5440    -1.4000 C.3   1 <1>  -0.2400 
 18 C       -3.1220    -3.7800    -0.6170 C.ar  1 <1>   0.1670 
 19 N       -1.8240    -3.8730    -0.3800 N.ar  1 <1>  -0.6200 
 20 C       -4.0080    -4.8460    -0.4680 C.ar  1 <1>   0.1600 
 21 C       -1.4750    -5.0850     0.0160 C.ar  1 <1>   0.1600 
 22 N       -3.6620    -6.0600    -0.0730 N.ar  1 <1>  -0.6200 
 23 C       -2.3640    -6.1430     0.1640 C.ar  1 <1>   0.1600 
 24 H       -4.0480     1.6940    -0.2420 H     1 <1>   0.0800 
 25 H       -3.1100     0.6180    -1.2700 H     1 <1>   0.0800 
 26 H       -2.3640    -1.8010     1.1310 H     1 <1>   0.0800 
 27 H       -3.6820    -1.1990     2.1120 H     1 <1>   0.0800 
 28 H       -3.0630     3.2840     2.3230 H     1 <1>   0.1500 
 29 H       -5.3120    -0.3760    -1.4200 H     1 <1>   0.0800 
 30 H       -5.0470    -2.2320     0.5270 H     1 <1>   0.0800 
 31 H        0.3960     3.9640    -1.0840 H     1 <1>   0.1500 
 32 H        0.4710     0.7090     0.3940 H     1 <1>   0.0800 
 33 H       -0.6190     0.6260    -0.9510 H     1 <1>   0.0800 
 34 H       -2.5220     5.5510     1.5450 H     1 <1>   0.1500 
 35 H       -5.4160     0.2910     1.3130 H     1 <1>   0.4000 
 36 H       -2.8240    -1.8670    -1.5060 H     1 <1>   0.0800 
 37 H       -4.3660    -2.5830    -1.8510 H     1 <1>   0.0800 
 38 H       -0.7890     5.8700    -0.1720 H     1 <1>   0.1500 
 39 H        1.9890     2.1610    -0.9180 H     1 <1>   0.0800 
 40 H        0.9010     2.0340    -2.2910 H     1 <1>   0.0800 
 41 H        1.7180     0.6180    -1.6840 H     1 <1>   0.0800 
 42 H       -5.0500    -4.6880    -0.6840 H     1 <1>   0.1500 
 43 H       -0.4340    -5.2510     0.2330 H     1 <1>   0.1500 
 44 H       -1.9840    -7.0940     0.4920 H     1 <1>   0.1500 
@<TRIPOS>BOND
  1   1   2  2   
  2   2   3  am  
  3   2   4  1   
  4   3   5  1   
  5   3   6  1   
  6   4   7  ar  
  7   4   8  ar  
  8   5   9  1   
  9   5  24  1   
 10   5  25  1   
 11   6  10  1   
 12   6  26  1   
 13   6  27  1   
 14   7  11  ar  
 15   7  12  1   
 16   8  13  ar  
 17   8  28  1   
 18   9  10  1   
 19   9  14  1   
 20   9  29  1   
 21  10  15  1   
 22  10  30  1   
 23  11  16  ar  
 24  11  31  1   
 25  12  17  1   
 26  12  32  1   
 27  12  33  1   
 28  13  16  ar  
 29  13  34  1   
 30  14  35  1   
 31  15  18  1   
 32  15  36  1   
 33  15  37  1   
 34  16  38  1   
 35  17  39  1   
 36  17  40  1   
 37  17  41  1   
 38  18  19  ar  
 39  18  20  ar  
 40  19  21  ar  
 41  20  22  ar  
 42  20  42  1   
 43  21  23  ar  
 44  21  43  1   
 45  22  23  ar  
 46  23  44  1   
@<TRIPOS>SUBSTRUCTURE
  1 ****   3 GROUP 4 **** **** 0

# MOE 2024.06 (io_trps.svl 2023.06)
