@<TRIPOS>MOLECULE
NONAME
47 48 1 0 0 
SMALL
USER_CHARGES


@<TRIPOS>ATOM
  1 F       -1.0430    -0.5790    -0.6040 F     1 <1>  -0.1900 
  2 C       -2.1170    -1.2290    -0.2440 C.ar  1 <1>   0.1900 
  3 C       -3.3460    -0.6170    -0.3940 C.ar  1 <1>  -0.1500 
  4 C       -1.9840    -2.5030     0.2720 C.ar  1 <1>  -0.1500 
  5 C       -4.4830    -1.3100    -0.0110 C.ar  1 <1>  -0.1500 
  6 C       -3.1280    -3.1850     0.6500 C.ar  1 <1>  -0.1500 
  7 C       -4.3790    -2.5950     0.5110 C.ar  1 <1>  -0.1430 
  8 C       -5.6280    -3.3590     0.9360 C.3   1 <1>   0.2540 
  9 N       -5.6780    -4.6940     0.3180 N.3   1 <1>  -0.8100 
 10 C       -6.7610    -5.5220     0.9260 C.3   1 <1>   0.1710 
 11 C       -5.7610    -4.6230    -1.1480 C.3   1 <1>   0.0300 
 12 C       -6.7760    -7.0110     0.5250 C.2   1 <1>   0.5690 
 13 O       -6.0430    -7.7570     1.1350 O.2   1 <1>  -0.5700 
 14 N       -7.6180    -7.4940    -0.4520 N.am  1 <1>  -0.6600 
 15 C       -7.5680    -8.9370    -0.8470 C.3   1 <1>   0.3210 
 16 C       -8.6450    -6.6690    -1.1730 C.3   1 <1>   0.1400 
 17 C       -8.8790    -9.6400    -0.5150 C.2   1 <1>   0.0460 
 18 C      -10.0100    -6.6250    -0.4590 C.3   1 <1>   0.1200 
 19 N       -9.8120    -9.8500    -1.4680 N.2   1 <1>  -0.5650 
 20 C       -9.2970   -10.1170     0.6820 C.2   1 <1>  -0.3320 
 21 O       -9.8470    -6.6460     0.9180 O.3   1 <1>  -0.6800 
 22 C      -10.7690   -10.4480    -0.8370 C.2   1 <1>   0.0360 
 23 N      -10.5200   -10.6380     0.4740 N.pl3 1 <1>   0.0330 
 24 C       -8.6180   -10.1180     2.0420 C.3   1 <1>  -0.0600 
 25 H       -3.4080     0.3760    -0.8000 H     1 <1>   0.1500 
 26 H       -1.0110    -2.9490     0.3720 H     1 <1>   0.1500 
 27 H       -5.4470    -0.8460    -0.1230 H     1 <1>   0.1500 
 28 H       -3.0540    -4.1830     1.0480 H     1 <1>   0.1500 
 29 H       -6.5130    -2.8050     0.6740 H     1 <1>   0.0800 
 30 H       -5.6040    -3.4650     2.0070 H     1 <1>   0.0800 
 31 H       -7.7150    -5.0760     0.7220 H     1 <1>   0.0800 
 32 H       -6.6350    -5.5060     1.9940 H     1 <1>   0.0800 
 33 H       -4.9000    -4.1110    -1.5420 H     1 <1>   0.0800 
 34 H       -6.6480    -4.0960    -1.4530 H     1 <1>   0.0800 
 35 H       -5.7700    -5.6150    -1.5670 H     1 <1>   0.0800 
 36 H       -6.7670    -9.4460    -0.3420 H     1 <1>   0.0800 
 37 H       -7.3830    -9.0130    -1.9030 H     1 <1>   0.0800 
 38 H       -8.7870    -7.0610    -2.1660 H     1 <1>   0.0800 
 39 H       -8.2900    -5.6630    -1.2890 H     1 <1>   0.0800 
 40 H      -10.6070    -7.4760    -0.7340 H     1 <1>   0.0800 
 41 H      -10.5490    -5.7330    -0.7250 H     1 <1>   0.0800 
 42 H       -9.3520    -7.4650     1.1400 H     1 <1>   0.4000 
 43 H      -11.6870   -10.7710    -1.2960 H     1 <1>   0.1500 
 44 H      -11.1330   -11.0850     1.1610 H     1 <1>   0.2700 
 45 H       -7.6370    -9.6840     1.9770 H     1 <1>   0.0800 
 46 H       -8.5170   -11.1250     2.4050 H     1 <1>   0.0800 
 47 H       -9.1960    -9.5480     2.7480 H     1 <1>   0.0800 
@<TRIPOS>BOND
  1   1   2  1   
  2   2   3  ar  
  3   2   4  ar  
  4   3   5  ar  
  5   3  25  1   
  6   4   6  ar  
  7   4  26  1   
  8   5   7  ar  
  9   5  27  1   
 10   6   7  ar  
 11   6  28  1   
 12   7   8  1   
 13   8   9  1   
 14   8  29  1   
 15   8  30  1   
 16   9  10  1   
 17   9  11  1   
 18  10  12  1   
 19  10  31  1   
 20  10  32  1   
 21  11  33  1   
 22  11  34  1   
 23  11  35  1   
 24  12  13  2   
 25  12  14  am  
 26  14  15  1   
 27  14  16  1   
 28  15  17  1   
 29  15  36  1   
 30  15  37  1   
 31  16  18  1   
 32  16  38  1   
 33  16  39  1   
 34  17  19  1   
 35  17  20  2   
 36  18  21  1   
 37  18  40  1   
 38  18  41  1   
 39  19  22  2   
 40  20  23  1   
 41  20  24  1   
 42  21  42  1   
 43  22  23  1   
 44  22  43  1   
 45  23  44  1   
 46  24  45  1   
 47  24  46  1   
 48  24  47  1   
@<TRIPOS>SUBSTRUCTURE
  1 ****  10 GROUP 4 **** **** 0

# MOE 2024.06 (io_trps.svl 2023.06)
