@<TRIPOS>MOLECULE
NONAME
52 55 1 0 0 
SMALL
USER_CHARGES


@<TRIPOS>ATOM
  1 O       -0.2930     0.3950    -0.3540 O.2   1 <1>  -0.5700 
  2 C       -1.3600     0.9540    -0.2550 C.2   1 <1>   0.5690 
  3 N       -2.5210     0.2430    -0.1450 N.am  1 <1>  -0.6600 
  4 C       -1.4140     2.4780    -0.2660 C.3   1 <1>  -0.0990 
  5 C       -3.9000     0.7890    -0.1280 C.3   1 <1>   0.1400 
  6 C       -2.5390    -1.2390    -0.1190 C.3   1 <1>   0.1400 
  7 C       -0.0440     3.1600    -0.0890 C.3   1 <1>  -0.1600 
  8 C       -4.8020    -0.4310    -0.3190 C.3   1 <1>   0.2000 
  9 C       -3.9890    -1.6200     0.1880 C.3   1 <1>  -0.0800 
 10 C       -0.1630     4.6900    -0.0810 C.3   1 <1>   0.0210 
 11 O       -5.9800    -0.3130     0.4000 O.3   1 <1>  -0.6800 
 12 C       -4.4200    -2.9540    -0.4410 C.3   1 <1>   0.0200 
 13 C        1.1790     5.3780     0.1010 C.2   1 <1>  -0.1810 
 14 C       -3.5410    -4.0900     0.0440 C.2   1 <1>  -0.0400 
 15 C        1.3290     6.7830     0.1570 C.ar  1 <1>   0.0000 
 16 C        2.4140     4.8340     0.2350 C.2   1 <1>  -0.3020 
 17 O       -3.5310    -4.4140     1.3090 O.3   1 <1>  -0.0190 
 18 C       -2.6920    -4.9060    -0.5980 C.2   1 <1>  -0.1500 
 19 C        2.6870     7.0310     0.3290 C.ar  1 <1>  -0.1520 
 20 C        0.4390     7.8600     0.0780 C.ar  1 <1>  -0.1500 
 21 N        3.3400     5.8270     0.3750 N.pl3 1 <1>   0.0330 
 22 N       -2.7170    -5.4000     1.5500 N.2   1 <1>  -0.4100 
 23 C       -2.1970    -5.7180     0.4190 C.2   1 <1>   0.1080 
 24 C        3.1750     8.3360     0.4240 C.ar  1 <1>  -0.1500 
 25 C        0.9190     9.1460     0.1720 C.ar  1 <1>  -0.1500 
 26 C       -1.1830    -6.8240     0.2300 C.3   1 <1>  -0.0590 
 27 C        2.2870     9.3850     0.3450 C.ar  1 <1>  -0.1500 
 28 H       -1.8440     2.7870    -1.2000 H     1 <1>   0.0800 
 29 H       -2.0620     2.7990     0.5290 H     1 <1>   0.0800 
 30 H       -4.0840     1.2550     0.8240 H     1 <1>   0.0800 
 31 H       -4.0410     1.4950    -0.9280 H     1 <1>   0.0800 
 32 H       -2.2340    -1.6070    -1.0840 H     1 <1>   0.0800 
 33 H       -1.8640    -1.6160     0.6320 H     1 <1>   0.0800 
 34 H        0.3970     2.8320     0.8360 H     1 <1>   0.0800 
 35 H        0.6080     2.8600    -0.8920 H     1 <1>   0.0800 
 36 H       -5.0490    -0.5380    -1.3610 H     1 <1>   0.0800 
 37 H       -4.0780    -1.6860     1.2580 H     1 <1>   0.0800 
 38 H       -0.8130     4.9960     0.7200 H     1 <1>   0.0800 
 39 H       -0.5940     5.0220    -1.0090 H     1 <1>   0.0800 
 40 H       -5.7990    -0.3300     1.3600 H     1 <1>   0.4000 
 41 H       -4.3590    -2.8920    -1.5130 H     1 <1>   0.0800 
 42 H       -5.4410    -3.1640    -0.1760 H     1 <1>   0.0800 
 43 H        2.6950     3.7950     0.2400 H     1 <1>   0.1500 
 44 H       -2.4270    -4.9510    -1.6380 H     1 <1>   0.1500 
 45 H       -0.6090     7.6650    -0.0540 H     1 <1>   0.1500 
 46 H        4.3500     5.7040     0.4930 H     1 <1>   0.2700 
 47 H        4.2280     8.5100     0.5570 H     1 <1>   0.1500 
 48 H        0.2450     9.9830     0.1130 H     1 <1>   0.1500 
 49 H       -1.5600    -7.5490    -0.4670 H     1 <1>   0.0800 
 50 H       -0.9910    -7.3100     1.1690 H     1 <1>   0.0800 
 51 H       -0.2630    -6.4140    -0.1450 H     1 <1>   0.0800 
 52 H        2.6370    10.4000     0.4150 H     1 <1>   0.1500 
@<TRIPOS>BOND
  1   1   2  2   
  2   2   3  am  
  3   2   4  1   
  4   3   5  1   
  5   3   6  1   
  6   4   7  1   
  7   4  28  1   
  8   4  29  1   
  9   5   8  1   
 10   5  30  1   
 11   5  31  1   
 12   6   9  1   
 13   6  32  1   
 14   6  33  1   
 15   7  10  1   
 16   7  34  1   
 17   7  35  1   
 18   8   9  1   
 19   8  11  1   
 20   8  36  1   
 21   9  12  1   
 22   9  37  1   
 23  10  13  1   
 24  10  38  1   
 25  10  39  1   
 26  11  40  1   
 27  12  14  1   
 28  12  41  1   
 29  12  42  1   
 30  13  15  1   
 31  13  16  2   
 32  14  17  1   
 33  14  18  2   
 34  15  19  ar  
 35  15  20  ar  
 36  16  21  1   
 37  16  43  1   
 38  17  22  1   
 39  18  23  1   
 40  18  44  1   
 41  19  21  1   
 42  19  24  ar  
 43  20  25  ar  
 44  20  45  1   
 45  21  46  1   
 46  22  23  2   
 47  23  26  1   
 48  24  27  ar  
 49  24  47  1   
 50  25  27  ar  
 51  25  48  1   
 52  26  49  1   
 53  26  50  1   
 54  26  51  1   
 55  27  52  1   
@<TRIPOS>SUBSTRUCTURE
  1 ****   2 GROUP 4 **** **** 0

# MOE 2024.06 (io_trps.svl 2023.06)
