@<TRIPOS>MOLECULE
NONAME
30 31 1 0 0 
SMALL
USER_CHARGES


@<TRIPOS>ATOM
  1 S       -0.3300     0.3620     1.0300 S.o2  1 <1>   1.5000 
  2 O       -0.0430    -0.7030     1.9670 O.2   1 <1>  -0.6500 
  3 O       -0.6810     1.6660     1.5500 O.2   1 <1>  -0.6500 
  4 N       -1.6220    -0.1600     0.0680 N.am  1 <1>  -0.8490 
  5 C        1.0420     0.5170    -0.1410 C.2   1 <1>  -0.0220 
  6 C       -1.4340    -1.5260    -0.4900 C.3   1 <1>   0.1960 
  7 C       -2.9110     0.0330     0.7550 C.3   1 <1>   0.1960 
  8 S        1.0220     1.8650    -1.2770 S.3   1 <1>  -0.0800 
  9 C        2.1380    -0.2390    -0.3670 C.2   1 <1>  -0.1500 
 10 C       -2.2170    -2.5940     0.2890 C.3   1 <1>   0.2000 
 11 C       -4.0220    -0.8020     0.1130 C.3   1 <1>  -0.1600 
 12 C        2.5240     1.3450    -2.0190 C.2   1 <1>  -0.1100 
 13 C        2.9790     0.2280    -1.4260 C.2   1 <1>  -0.1500 
 14 O       -1.9020    -3.8420    -0.2140 O.3   1 <1>  -0.6800 
 15 C       -3.7360    -2.3250     0.1880 C.3   1 <1>  -0.1860 
 16 C       -4.4320    -3.0200    -0.9750 C.2   1 <1>   0.9060 
 17 O       -5.6560    -3.1520    -0.9230 O.co2 1 <1>  -0.9000 
 18 O       -3.7630    -3.4190    -1.9400 O.co2 1 <1>  -0.9000 
 19 H       -1.7920    -1.5280    -1.5060 H     1 <1>   0.0800 
 20 H       -0.3920    -1.7920    -0.5070 H     1 <1>   0.0800 
 21 H       -2.8200    -0.2530     1.7900 H     1 <1>   0.0800 
 22 H       -3.1720     1.0780     0.7210 H     1 <1>   0.0800 
 23 H        2.3880    -1.1300     0.1840 H     1 <1>   0.1500 
 24 H       -1.8960    -2.5810     1.3160 H     1 <1>   0.0800 
 25 H       -4.9640    -0.5970     0.5910 H     1 <1>   0.0800 
 26 H       -4.1180    -0.4990    -0.9170 H     1 <1>   0.0800 
 27 H        2.9090     1.9400    -2.8290 H     1 <1>   0.1500 
 28 H        3.8810    -0.2980    -1.6900 H     1 <1>   0.1500 
 29 H       -2.4780    -3.9510    -1.0320 H     1 <1>   0.4000 
 30 H       -4.1830    -2.7100     1.0850 H     1 <1>   0.0800 
@<TRIPOS>BOND
  1   1   2  2   
  2   1   3  2   
  3   1   4  am  
  4   1   5  1   
  5   4   6  1   
  6   4   7  1   
  7   5   8  1   
  8   5   9  2   
  9   6  10  1   
 10   6  19  1   
 11   6  20  1   
 12   7  11  1   
 13   7  21  1   
 14   7  22  1   
 15   8  12  1   
 16   9  13  1   
 17   9  23  1   
 18  10  14  1   
 19  10  15  1   
 20  10  24  1   
 21  11  15  1   
 22  11  25  1   
 23  11  26  1   
 24  12  13  2   
 25  12  27  1   
 26  13  28  1   
 27  14  29  1   
 28  15  16  1   
 29  15  30  1   
 30  16  17  ar  
 31  16  18  ar  
@<TRIPOS>SUBSTRUCTURE
  1 ****   6 GROUP 4 **** **** 0

# MOE 2024.06 (io_trps.svl 2023.06)
