@<TRIPOS>MOLECULE
NONAME
43 45 1 0 0 
SMALL
USER_CHARGES


@<TRIPOS>ATOM
  1 F       -0.5790    -0.7510    -0.4160 F     1 <1>  -0.1900 
  2 C       -1.7540    -1.2220    -0.0580 C.ar  1 <1>   0.1900 
  3 C       -2.9580    -0.6110    -0.3850 C.ar  1 <1>   0.3920 
  4 C       -1.7890    -2.3760     0.6760 C.ar  1 <1>   0.1600 
  5 O       -3.1000     0.5300    -1.1010 O.3   1 <1>  -0.3630 
  6 N       -4.0970    -1.1370     0.0050 N.ar  1 <1>  -0.6200 
  7 N       -2.9250    -2.9080     1.0700 N.ar  1 <1>  -0.6200 
  8 C       -2.0320     1.2920    -1.6180 C.3   1 <1>   0.0400 
  9 C       -4.0380    -2.2610     0.7160 C.ar  1 <1>   0.7200 
 10 N       -5.2370    -2.8100     1.1260 N.pl3 1 <1>  -0.8380 
 11 C       -6.5320    -2.0820     1.0390 C.3   1 <1>   0.2090 
 12 C       -5.3820    -4.2370     1.5230 C.3   1 <1>   0.2090 
 13 C       -7.4160    -2.7660    -0.0050 C.3   1 <1>  -0.1600 
 14 C       -6.2640    -4.9560     0.4980 C.3   1 <1>  -0.1600 
 15 C       -7.6270    -4.2580     0.3120 C.3   1 <1>  -0.0800 
 16 C       -8.4780    -4.9110    -0.7890 C.3   1 <1>   0.1400 
 17 N       -8.7760    -6.3300    -0.4790 N.am  1 <1>  -0.6600 
 18 C       -9.7090    -6.7560     0.4000 C.2   1 <1>   0.5690 
 19 C       -8.1240    -7.4310    -1.2080 C.3   1 <1>   0.1400 
 20 O      -10.4070    -6.0540     1.0900 O.2   1 <1>  -0.5700 
 21 C       -9.7800    -8.2560     0.4180 C.3   1 <1>  -0.0990 
 22 C       -8.9060    -8.6800    -0.7760 C.3   1 <1>  -0.1600 
 23 H       -0.8710    -2.8700     0.9440 H     1 <1>   0.1500 
 24 H       -2.4470     2.1410    -2.1300 H     1 <1>   0.0800 
 25 H       -1.4720     0.6880    -2.3100 H     1 <1>   0.0800 
 26 H       -1.4120     1.6250    -0.8040 H     1 <1>   0.0800 
 27 H       -6.3900    -1.0470     0.7780 H     1 <1>   0.0800 
 28 H       -7.0140    -2.1120     2.0010 H     1 <1>   0.0800 
 29 H       -5.8400    -4.2830     2.4970 H     1 <1>   0.0800 
 30 H       -4.4300    -4.7330     1.5830 H     1 <1>   0.0800 
 31 H       -6.9490    -2.6530    -0.9680 H     1 <1>   0.0800 
 32 H       -8.3660    -2.2630    -0.0380 H     1 <1>   0.0800 
 33 H       -6.4150    -5.9650     0.8330 H     1 <1>   0.0800 
 34 H       -5.7380    -4.9900    -0.4390 H     1 <1>   0.0800 
 35 H       -8.1760    -4.3240     1.2370 H     1 <1>   0.0800 
 36 H       -7.9700    -4.8470    -1.7360 H     1 <1>   0.0800 
 37 H       -9.4120    -4.3810    -0.8740 H     1 <1>   0.0800 
 38 H       -7.0910    -7.4990    -0.9120 H     1 <1>   0.0800 
 39 H       -8.1920    -7.2750    -2.2710 H     1 <1>   0.0800 
 40 H      -10.7970    -8.5860     0.3090 H     1 <1>   0.0800 
 41 H       -9.3730    -8.6130     1.3460 H     1 <1>   0.0800 
 42 H       -8.2420    -9.4860    -0.5200 H     1 <1>   0.0800 
 43 H       -9.5340    -8.9970    -1.5910 H     1 <1>   0.0800 
@<TRIPOS>BOND
  1   1   2  1   
  2   2   3  ar  
  3   2   4  ar  
  4   3   5  1   
  5   3   6  ar  
  6   4   7  ar  
  7   4  23  1   
  8   5   8  1   
  9   6   9  ar  
 10   7   9  ar  
 11   8  24  1   
 12   8  25  1   
 13   8  26  1   
 14   9  10  1   
 15  10  11  1   
 16  10  12  1   
 17  11  13  1   
 18  11  27  1   
 19  11  28  1   
 20  12  14  1   
 21  12  29  1   
 22  12  30  1   
 23  13  15  1   
 24  13  31  1   
 25  13  32  1   
 26  14  15  1   
 27  14  33  1   
 28  14  34  1   
 29  15  16  1   
 30  15  35  1   
 31  16  17  1   
 32  16  36  1   
 33  16  37  1   
 34  17  18  am  
 35  17  19  1   
 36  18  20  2   
 37  18  21  1   
 38  19  22  1   
 39  19  38  1   
 40  19  39  1   
 41  21  22  1   
 42  21  40  1   
 43  21  41  1   
 44  22  42  1   
 45  22  43  1   
@<TRIPOS>SUBSTRUCTURE
  1 ****  10 GROUP 4 **** **** 0

# MOE 2024.06 (io_trps.svl 2023.06)
