@<TRIPOS>MOLECULE
NONAME
44 46 1 0 0 
SMALL
USER_CHARGES


@<TRIPOS>ATOM
  1 F        1.0650     1.0510    -1.5180 F     1 <1>  -0.1900 
  2 C        1.8880     1.4440    -0.5790 C.ar  1 <1>   0.1900 
  3 C        2.6810     0.5380     0.1340 C.ar  1 <1>   0.0830 
  4 C        1.9360     2.8050    -0.3420 C.ar  1 <1>  -0.1500 
  5 O        2.7230    -0.8140    -0.0140 O.3   1 <1>  -0.3630 
  6 C        3.5260     1.0550     1.1040 C.ar  1 <1>  -0.1500 
  7 C        2.7950     3.3030     0.6280 C.ar  1 <1>  -0.1430 
  8 C        1.8320    -1.5260    -0.8450 C.3   1 <1>   0.0400 
  9 C        3.5840     2.4170     1.3520 C.ar  1 <1>  -0.1500 
 10 C        2.8820     4.7970     0.8800 C.3   1 <1>   0.4870 
 11 N        4.2390     5.2610     0.4910 N.4   1 <1>  -0.9590 
 12 C        4.5590     6.6390     1.0070 C.3   1 <1>   0.3430 
 13 C        4.5460     5.0160    -0.9580 C.3   1 <1>   0.3430 
 14 C        6.0540     7.0510     0.9080 C.3   1 <1>   0.2200 
 15 C        6.0400     5.1020    -1.2930 C.3   1 <1>  -0.0190 
 16 N        6.4100     7.4330    -0.4880 N.am  1 <1>  -0.6600 
 17 C        7.0420     5.9940     1.4610 C.3   1 <1>   0.1200 
 18 C        6.3960     6.5470    -1.5280 C.2   1 <1>   0.5690 
 19 C        7.0210     4.4080    -0.3240 C.3   1 <1>   0.1200 
 20 C        6.8370     8.8530    -0.6860 C.3   1 <1>   0.0600 
 21 O        6.7550     4.6910     1.0220 O.3   1 <1>  -0.5600 
 22 O        6.6240     6.8810    -2.6620 O.2   1 <1>  -0.5700 
 23 H        1.3010     3.4520    -0.9220 H     1 <1>   0.1500 
 24 H        4.1410     0.3740     1.6680 H     1 <1>   0.1500 
 25 H        2.0260    -2.5760    -0.7200 H     1 <1>   0.0800 
 26 H        2.0050    -1.2450    -1.8680 H     1 <1>   0.0800 
 27 H        0.8220    -1.3050    -0.5480 H     1 <1>   0.0800 
 28 H        4.2550     2.7680     2.1200 H     1 <1>   0.1500 
 29 H        2.7090     4.9880     1.9260 H     1 <1>   0.0800 
 30 H        2.1310     5.3160     0.3060 H     1 <1>   0.0800 
 31 H        4.9180     4.6420     0.9770 H     1 <1>   0.4500 
 32 H        3.9660     7.3730     0.4860 H     1 <1>   0.0800 
 33 H        4.2850     6.6810     2.0480 H     1 <1>   0.0800 
 34 H        4.2170     4.0240    -1.2200 H     1 <1>   0.0800 
 35 H        4.0020     5.7130    -1.5750 H     1 <1>   0.0800 
 36 H        6.1750     7.9320     1.5160 H     1 <1>   0.0800 
 37 H        6.1640     4.6150    -2.2440 H     1 <1>   0.0800 
 38 H        6.9750     5.9760     2.5350 H     1 <1>   0.0800 
 39 H        8.0570     6.2410     1.1980 H     1 <1>   0.0800 
 40 H        8.0400     4.6840    -0.5450 H     1 <1>   0.0800 
 41 H        6.9370     3.3400    -0.4380 H     1 <1>   0.0800 
 42 H        7.6940     9.0690    -0.0710 H     1 <1>   0.0800 
 43 H        6.0350     9.5220    -0.4260 H     1 <1>   0.0800 
 44 H        7.1080     9.0360    -1.7130 H     1 <1>   0.0800 
@<TRIPOS>BOND
  1   1   2  1   
  2   2   3  ar  
  3   2   4  ar  
  4   3   5  1   
  5   3   6  ar  
  6   4   7  ar  
  7   4  23  1   
  8   5   8  1   
  9   6   9  ar  
 10   6  24  1   
 11   7   9  ar  
 12   7  10  1   
 13   8  25  1   
 14   8  26  1   
 15   8  27  1   
 16   9  28  1   
 17  10  11  1   
 18  10  29  1   
 19  10  30  1   
 20  11  12  1   
 21  11  13  1   
 22  11  31  1   
 23  12  14  1   
 24  12  32  1   
 25  12  33  1   
 26  13  15  1   
 27  13  34  1   
 28  13  35  1   
 29  14  16  1   
 30  14  17  1   
 31  14  36  1   
 32  15  18  1   
 33  15  19  1   
 34  15  37  1   
 35  16  18  am  
 36  16  20  1   
 37  17  21  1   
 38  17  38  1   
 39  17  39  1   
 40  18  22  2   
 41  19  21  1   
 42  19  40  1   
 43  19  41  1   
 44  20  42  1   
 45  20  43  1   
 46  20  44  1   
@<TRIPOS>SUBSTRUCTURE
  1 ****  13 GROUP 4 **** **** 0

# MOE 2024.06 (io_trps.svl 2023.06)
