@<TRIPOS>MOLECULE
NONAME
50 52 1 0 0 
SMALL
USER_CHARGES


@<TRIPOS>ATOM
  1 O       -0.7810    -0.2360     1.3430 O.3   1 <1>  -0.5600 
  2 C       -0.1020    -1.3610     0.8770 C.3   1 <1>   0.2800 
  3 C       -1.6700     0.4470     0.5000 C.3   1 <1>   0.1200 
  4 C       -1.1290    -2.4710     0.4480 C.3   1 <1>   0.2000 
  5 C        0.7090    -1.8340     2.0910 C.3   1 <1>  -0.1600 
  6 C        0.8850    -0.8790    -0.2150 C.3   1 <1>  -0.1600 
  7 C       -2.4080    -0.4750    -0.4850 C.3   1 <1>  -0.1600 
  8 O       -0.5710    -3.3030    -0.5350 O.3   1 <1>  -0.6800 
  9 C       -2.5220    -1.9150     0.0160 C.3   1 <1>   0.2800 
 10 C        1.7350    -2.8870     1.6990 C.3   1 <1>   0.3430 
 11 C        1.9930    -1.8880    -0.5210 C.3   1 <1>   0.3430 
 12 O       -3.3270    -1.9030     1.1360 O.3   1 <1>  -0.6800 
 13 C       -3.2740    -2.7890    -0.9980 C.3   1 <1>  -0.2400 
 14 N        2.6970    -2.2900     0.7320 N.4   1 <1>  -0.9590 
 15 C        3.8120    -3.2500     0.4680 C.3   1 <1>   0.3430 
 16 C        4.9750    -2.5940    -0.2800 C.3   1 <1>  -0.0170 
 17 C        6.1060    -3.5980    -0.3860 C.ar  1 <1>  -0.1440 
 18 C        7.1040    -3.6320     0.5770 C.ar  1 <1>  -0.1500 
 19 C        6.1450    -4.4980    -1.4400 C.ar  1 <1>  -0.1500 
 20 C        8.1270    -4.5600     0.4890 C.ar  1 <1>  -0.1500 
 21 C        7.1680    -5.4260    -1.5270 C.ar  1 <1>  -0.1500 
 22 C        8.1590    -5.4580    -0.5620 C.ar  1 <1>  -0.1500 
 23 H       -2.3840     0.9340     1.1430 H     1 <1>   0.0800 
 24 H       -1.1220     1.2080    -0.0290 H     1 <1>   0.0800 
 25 H       -1.3100    -3.1170     1.2890 H     1 <1>   0.0800 
 26 H        1.2160    -1.0000     2.5430 H     1 <1>   0.0800 
 27 H        0.0440    -2.2450     2.8310 H     1 <1>   0.0800 
 28 H        0.3610    -0.6860    -1.1300 H     1 <1>   0.0800 
 29 H        1.3450     0.0400     0.1010 H     1 <1>   0.0800 
 30 H       -1.8770    -0.4740    -1.4190 H     1 <1>   0.0800 
 31 H       -3.3810    -0.0680    -0.6940 H     1 <1>   0.0800 
 32 H       -1.2460    -3.9550    -0.8180 H     1 <1>   0.4000 
 33 H        1.2370    -3.7330     1.2500 H     1 <1>   0.0800 
 34 H        2.2560    -3.2240     2.5800 H     1 <1>   0.0800 
 35 H        2.6890    -1.4420    -1.2110 H     1 <1>   0.0800 
 36 H        1.5720    -2.7600    -0.9950 H     1 <1>   0.0800 
 37 H       -4.1910    -1.5040     0.9250 H     1 <1>   0.4000 
 38 H       -2.7450    -2.8240    -1.9330 H     1 <1>   0.0800 
 39 H       -4.2520    -2.3860    -1.1940 H     1 <1>   0.0800 
 40 H       -3.3820    -3.7920    -0.6240 H     1 <1>   0.0800 
 41 H        3.0830    -1.4420     1.1680 H     1 <1>   0.4500 
 42 H        4.1900    -3.6280     1.4050 H     1 <1>   0.0800 
 43 H        3.4500    -4.0900    -0.1020 H     1 <1>   0.0800 
 44 H        4.6760    -2.2990    -1.2700 H     1 <1>   0.0800 
 45 H        5.3180    -1.7250     0.2520 H     1 <1>   0.0800 
 46 H        7.1020    -2.9390     1.4010 H     1 <1>   0.1500 
 47 H        5.3880    -4.4880    -2.2040 H     1 <1>   0.1500 
 48 H        8.9020    -4.5830     1.2360 H     1 <1>   0.1500 
 49 H        7.1960    -6.1240    -2.3460 H     1 <1>   0.1500 
 50 H        8.9550    -6.1800    -0.6310 H     1 <1>   0.1500 
@<TRIPOS>BOND
  1   1   2  1   
  2   1   3  1   
  3   2   4  1   
  4   2   5  1   
  5   2   6  1   
  6   3   7  1   
  7   3  23  1   
  8   3  24  1   
  9   4   8  1   
 10   4   9  1   
 11   4  25  1   
 12   5  10  1   
 13   5  26  1   
 14   5  27  1   
 15   6  11  1   
 16   6  28  1   
 17   6  29  1   
 18   7   9  1   
 19   7  30  1   
 20   7  31  1   
 21   8  32  1   
 22   9  12  1   
 23   9  13  1   
 24  10  14  1   
 25  10  33  1   
 26  10  34  1   
 27  11  14  1   
 28  11  35  1   
 29  11  36  1   
 30  12  37  1   
 31  13  38  1   
 32  13  39  1   
 33  13  40  1   
 34  14  15  1   
 35  14  41  1   
 36  15  16  1   
 37  15  42  1   
 38  15  43  1   
 39  16  17  1   
 40  16  44  1   
 41  16  45  1   
 42  17  18  ar  
 43  17  19  ar  
 44  18  20  ar  
 45  18  46  1   
 46  19  21  ar  
 47  19  47  1   
 48  20  22  ar  
 49  20  48  1   
 50  21  22  ar  
 51  21  49  1   
 52  22  50  1   
@<TRIPOS>SUBSTRUCTURE
  1 ****  14 GROUP 4 **** **** 0

# MOE 2024.06 (io_trps.svl 2023.06)
