@<TRIPOS>MOLECULE
NONAME
48 50 1 0 0 
SMALL
USER_CHARGES


@<TRIPOS>ATOM
  1 O       -0.4090     0.4020     1.2040 O.2   1 <1>  -0.5700 
  2 C       -1.3740     1.0360     0.8250 C.2   1 <1>   0.5440 
  3 N       -2.4720     0.3500     0.3610 N.am  1 <1>  -0.6600 
  4 C       -1.3400     2.4850     0.8580 C.ar  1 <1>   0.0860 
  5 C       -3.6270     0.9410    -0.3640 C.3   1 <1>   0.1400 
  6 C       -2.5020    -1.1320     0.2420 C.3   1 <1>   0.1400 
  7 C       -0.3670     3.1870     0.1540 C.ar  1 <1>  -0.1500 
  8 C       -2.2670     3.2230     1.5930 C.ar  1 <1>  -0.1500 
  9 C       -4.6280    -0.2080    -0.4700 C.3   1 <1>   0.2000 
 10 C       -3.7350    -1.4420    -0.6150 C.3   1 <1>  -0.0800 
 11 C       -0.3200     4.5700     0.1610 C.ar  1 <1>   0.0830 
 12 C       -2.2340     4.6060     1.6090 C.ar  1 <1>  -0.1500 
 13 O       -5.3230    -0.2760     0.7290 O.3   1 <1>  -0.6800 
 14 C       -4.4030    -2.7890    -0.2800 C.3   1 <1>   0.0210 
 15 O        0.6680     5.1480    -0.5640 O.3   1 <1>  -0.3630 
 16 C       -1.2640     5.2850     0.8920 C.ar  1 <1>  -0.1500 
 17 C       -3.4270    -3.9330    -0.4690 C.2   1 <1>   0.1080 
 18 C        0.8440     6.5600    -0.5780 C.3   1 <1>   0.1810 
 19 N       -2.9250    -4.2460    -1.6230 N.2   1 <1>  -0.7070 
 20 C       -2.9560    -4.7540     0.5500 C.2   1 <1>  -0.1500 
 21 C        2.0450     6.9680    -1.4240 C.2   1 <1>   0.5690 
 22 N       -2.1110    -5.2880    -1.3680 N.pl3 1 <1>   0.3000 
 23 C       -2.1120    -5.6140    -0.0590 C.2   1 <1>  -0.3320 
 24 O        2.2470     8.1370    -1.6310 O.2   1 <1>  -0.5700 
 25 N        2.8790     6.0390    -1.9340 N.am  1 <1>  -0.8000 
 26 C       -1.2930    -6.7430     0.5400 C.3   1 <1>  -0.0600 
 27 H       -4.0490     1.7850     0.1510 H     1 <1>   0.0800 
 28 H       -3.3060     1.2390    -1.3470 H     1 <1>   0.0800 
 29 H       -1.6020    -1.4990    -0.2220 H     1 <1>   0.0800 
 30 H       -2.5930    -1.5610     1.2250 H     1 <1>   0.0800 
 31 H        0.3680     2.6370    -0.4060 H     1 <1>   0.1500 
 32 H       -3.0170     2.7000     2.1620 H     1 <1>   0.1500 
 33 H       -5.3340    -0.0880    -1.2740 H     1 <1>   0.0800 
 34 H       -3.4040    -1.4860    -1.6380 H     1 <1>   0.0800 
 35 H       -2.9610     5.1550     2.1820 H     1 <1>   0.1500 
 36 H       -4.6720    -0.2630     1.4600 H     1 <1>   0.4000 
 37 H       -5.2440    -2.9440    -0.9310 H     1 <1>   0.0800 
 38 H       -4.7600    -2.7950     0.7330 H     1 <1>   0.0800 
 39 H       -1.2630     6.3580     0.9210 H     1 <1>   0.1500 
 40 H       -0.0430     7.0090    -0.9860 H     1 <1>   0.0800 
 41 H        0.9950     6.8950     0.4320 H     1 <1>   0.0800 
 42 H       -3.2230    -4.6940     1.5900 H     1 <1>   0.1500 
 43 H       -1.5710    -5.7530    -2.1080 H     1 <1>   0.2700 
 44 H        3.6790     6.3180    -2.5030 H     1 <1>   0.3700 
 45 H        2.7270     5.0400    -1.7860 H     1 <1>   0.3700 
 46 H       -1.4640    -6.8010     1.6000 H     1 <1>   0.0800 
 47 H       -0.2450    -6.5720     0.3720 H     1 <1>   0.0800 
 48 H       -1.5730    -7.6820     0.0960 H     1 <1>   0.0800 
@<TRIPOS>BOND
  1   1   2  2   
  2   2   3  am  
  3   2   4  1   
  4   3   5  1   
  5   3   6  1   
  6   4   7  ar  
  7   4   8  ar  
  8   5   9  1   
  9   5  27  1   
 10   5  28  1   
 11   6  10  1   
 12   6  29  1   
 13   6  30  1   
 14   7  11  ar  
 15   7  31  1   
 16   8  12  ar  
 17   8  32  1   
 18   9  10  1   
 19   9  13  1   
 20   9  33  1   
 21  10  14  1   
 22  10  34  1   
 23  11  15  1   
 24  11  16  ar  
 25  12  16  ar  
 26  12  35  1   
 27  13  36  1   
 28  14  17  1   
 29  14  37  1   
 30  14  38  1   
 31  15  18  1   
 32  16  39  1   
 33  17  19  2   
 34  17  20  1   
 35  18  21  1   
 36  18  40  1   
 37  18  41  1   
 38  19  22  1   
 39  20  23  2   
 40  20  42  1   
 41  21  24  2   
 42  21  25  am  
 43  22  23  1   
 44  22  43  1   
 45  23  26  1   
 46  25  44  1   
 47  25  45  1   
 48  26  46  1   
 49  26  47  1   
 50  26  48  1   
@<TRIPOS>SUBSTRUCTURE
  1 ****   2 GROUP 4 **** **** 0

# MOE 2024.06 (io_trps.svl 2023.06)
