@<TRIPOS>MOLECULE
NONAME
46 48 1 0 0 
SMALL
USER_CHARGES


@<TRIPOS>ATOM
  1 N       -2.3880    -0.6030    -0.4800 N.ar  1 <1>  -0.6200 
  2 C       -2.5970     0.5820     0.0820 C.ar  1 <1>   0.4100 
  3 C       -1.7850    -0.5060    -1.6620 C.ar  1 <1>   0.1600 
  4 N       -3.1970     0.5660     1.3510 N.3   1 <1>  -0.5900 
  5 C       -2.2850     1.8240    -0.5690 C.ar  1 <1>   0.4100 
  6 C       -1.4610     0.6870    -2.2760 C.ar  1 <1>   0.1600 
  7 C       -4.6530     0.9200     1.4080 C.3   1 <1>   0.2450 
  8 C       -3.5320    -0.6810     2.1300 C.3   1 <1>   0.2450 
  9 N       -1.7170     1.8800    -1.7610 N.ar  1 <1>  -0.6200 
 10 N       -2.5810     3.0640     0.0170 N.pl3 1 <1>  -0.8380 
 11 C       -4.9680    -0.6110     1.5130 C.3   1 <1>   0.4720 
 12 C       -1.7580     3.4470     1.1960 C.3   1 <1>   0.1290 
 13 C       -2.8930     4.2200    -0.8720 C.3   1 <1>   0.1290 
 14 N       -5.1190    -1.3790     0.2110 N.4   1 <1>  -0.9280 
 15 C       -6.4320    -1.2590    -0.4980 C.3   1 <1>   0.4230 
 16 C       -4.7750    -2.8180     0.4220 C.3   1 <1>   0.3430 
 17 C       -6.3320    -1.9500    -1.8660 C.3   1 <1>  -0.1600 
 18 C       -6.8770     0.1870    -0.7100 C.3   1 <1>  -0.2400 
 19 C       -4.6390    -3.5360    -0.9190 C.3   1 <1>  -0.1600 
 20 C       -5.9200    -3.4200    -1.7470 C.3   1 <1>  -0.1600 
 21 H       -1.5370    -1.4250    -2.1640 H     1 <1>   0.1500 
 22 H       -0.9730     0.6690    -3.2350 H     1 <1>   0.1500 
 23 H       -4.9780     1.4170     0.5150 H     1 <1>   0.0000 
 24 H       -4.8770     1.4700     2.3060 H     1 <1>   0.0000 
 25 H       -3.5140    -0.4820     3.1870 H     1 <1>   0.0000 
 26 H       -2.9300    -1.5260     1.8540 H     1 <1>   0.0000 
 27 H       -5.7470    -0.8530     2.2130 H     1 <1>   0.0000 
 28 H       -1.4080     2.5710     1.7150 H     1 <1>   0.0800 
 29 H       -2.3470     4.0380     1.8740 H     1 <1>   0.0800 
 30 H       -0.9030     4.0190     0.8760 H     1 <1>   0.0800 
 31 H       -3.5160     3.8990    -1.6890 H     1 <1>   0.0800 
 32 H       -1.9820     4.6310    -1.2730 H     1 <1>   0.0800 
 33 H       -3.4130     4.9810    -0.3180 H     1 <1>   0.0800 
 34 H       -4.3680    -1.0010    -0.3950 H     1 <1>   0.4500 
 35 H       -7.1880    -1.7630     0.0820 H     1 <1>   0.0800 
 36 H       -5.5430    -3.2950     1.0110 H     1 <1>   0.0800 
 37 H       -3.8400    -2.9120     0.9480 H     1 <1>   0.0800 
 38 H       -5.6230    -1.4240    -2.4840 H     1 <1>   0.0800 
 39 H       -7.2860    -1.9010    -2.3620 H     1 <1>   0.0800 
 40 H       -6.1310     0.7480    -1.2450 H     1 <1>   0.0800 
 41 H       -7.1120     0.6630     0.2230 H     1 <1>   0.0800 
 42 H       -7.7780     0.2010    -1.2970 H     1 <1>   0.0800 
 43 H       -4.4210    -4.5760    -0.7430 H     1 <1>   0.0800 
 44 H       -3.8080    -3.1210    -1.4620 H     1 <1>   0.0800 
 45 H       -5.7640    -3.8390    -2.7270 H     1 <1>   0.0800 
 46 H       -6.7100    -3.9790    -1.2720 H     1 <1>   0.0800 
@<TRIPOS>BOND
  1   1   2  ar  
  2   1   3  ar  
  3   2   4  1   
  4   2   5  ar  
  5   3   6  ar  
  6   3  21  1   
  7   4   7  1   
  8   4   8  1   
  9   5   9  ar  
 10   5  10  1   
 11   6   9  ar  
 12   6  22  1   
 13   7  11  1   
 14   7  23  1   
 15   7  24  1   
 16   8  11  1   
 17   8  25  1   
 18   8  26  1   
 19  10  12  1   
 20  10  13  1   
 21  11  14  1   
 22  11  27  1   
 23  12  28  1   
 24  12  29  1   
 25  12  30  1   
 26  13  31  1   
 27  13  32  1   
 28  13  33  1   
 29  14  15  1   
 30  14  16  1   
 31  14  34  1   
 32  15  17  1   
 33  15  18  1   
 34  15  35  1   
 35  16  19  1   
 36  16  36  1   
 37  16  37  1   
 38  17  20  1   
 39  17  38  1   
 40  17  39  1   
 41  18  40  1   
 42  18  41  1   
 43  18  42  1   
 44  19  20  1   
 45  19  43  1   
 46  19  44  1   
 47  20  45  1   
 48  20  46  1   
@<TRIPOS>SUBSTRUCTURE
  1 ****   2 GROUP 4 **** **** 0

# MOE 2024.06 (io_trps.svl 2023.06)
