@<TRIPOS>MOLECULE
NONAME
42 43 1 0 0 
SMALL
USER_CHARGES


@<TRIPOS>ATOM
  1 O       -0.4080     0.1290    -0.2090 O.2   1 <1>  -0.5700 
  2 C       -1.4610     0.7220    -0.2200 C.2   1 <1>   0.5690 
  3 N       -2.6510     0.0610    -0.3460 N.am  1 <1>  -0.6600 
  4 C       -1.4650     2.2350    -0.0910 C.3   1 <1>  -0.0990 
  5 C       -4.0030     0.6710    -0.3260 C.3   1 <1>   0.1400 
  6 C       -2.7430    -1.4140    -0.4640 C.3   1 <1>   0.1400 
  7 C       -0.0570     2.8220    -0.0280 C.3   1 <1>   0.1200 
  8 C       -4.9740    -0.5050    -0.4510 C.3   1 <1>   0.2000 
  9 C       -4.1800    -1.7500    -0.0600 C.3   1 <1>  -0.0800 
 10 O       -0.1760     4.2030     0.0830 O.3   1 <1>  -0.5600 
 11 O       -6.0640    -0.3550     0.3930 O.3   1 <1>  -0.6800 
 12 C       -4.7340    -3.0310    -0.7060 C.3   1 <1>  -0.0170 
 13 C        1.0410     4.8650     0.1480 C.3   1 <1>   0.1200 
 14 C       -3.9440    -4.2600    -0.2890 C.ar  1 <1>   0.1670 
 15 C        0.7470     6.3560     0.2660 C.3   1 <1>  -0.2400 
 16 N       -2.8480    -4.5180    -0.9840 N.ar  1 <1>  -0.6200 
 17 C       -4.3910    -5.0350     0.7720 C.ar  1 <1>  -0.1500 
 18 C       -2.1670    -5.5890    -0.6060 C.ar  1 <1>   0.1600 
 19 C       -3.6730    -6.1480     1.1540 C.ar  1 <1>  -0.1500 
 20 C       -2.5290    -6.4230     0.4380 C.ar  1 <1>  -0.1500 
 21 H       -1.9730     2.6520    -0.9390 H     1 <1>   0.0800 
 22 H       -1.9900     2.5010     0.8060 H     1 <1>   0.0800 
 23 H       -4.1470     1.1940     0.6030 H     1 <1>   0.0800 
 24 H       -4.1190     1.3460    -1.1560 H     1 <1>   0.0800 
 25 H       -2.5540    -1.6980    -1.4860 H     1 <1>   0.0800 
 26 H       -2.0260    -1.9030     0.1750 H     1 <1>   0.0800 
 27 H        0.4910     2.5880    -0.9260 H     1 <1>   0.0800 
 28 H        0.4720     2.4450     0.8320 H     1 <1>   0.0800 
 29 H       -5.3350    -0.5710    -1.4640 H     1 <1>   0.0800 
 30 H       -4.1870    -1.8610     1.0100 H     1 <1>   0.0800 
 31 H       -5.7700    -0.3320     1.3240 H     1 <1>   0.4000 
 32 H       -4.7040    -2.9450    -1.7790 H     1 <1>   0.0800 
 33 H       -5.7630    -3.1540    -0.4220 H     1 <1>   0.0800 
 34 H        1.5830     4.5150     1.0110 H     1 <1>   0.0800 
 35 H        1.6000     4.6580    -0.7490 H     1 <1>   0.0800 
 36 H        0.1780     6.5490     1.1570 H     1 <1>   0.0800 
 37 H        0.1940     6.6900    -0.5930 H     1 <1>   0.0800 
 38 H        1.6680     6.9060     0.3190 H     1 <1>   0.0800 
 39 H       -5.2910    -4.7720     1.2960 H     1 <1>   0.1500 
 40 H       -1.2710    -5.8140    -1.1590 H     1 <1>   0.1500 
 41 H       -3.9900    -6.7710     1.9720 H     1 <1>   0.1500 
 42 H       -1.9210    -7.2750     0.6820 H     1 <1>   0.1500 
@<TRIPOS>BOND
  1   1   2  2   
  2   2   3  am  
  3   2   4  1   
  4   3   5  1   
  5   3   6  1   
  6   4   7  1   
  7   4  21  1   
  8   4  22  1   
  9   5   8  1   
 10   5  23  1   
 11   5  24  1   
 12   6   9  1   
 13   6  25  1   
 14   6  26  1   
 15   7  10  1   
 16   7  27  1   
 17   7  28  1   
 18   8   9  1   
 19   8  11  1   
 20   8  29  1   
 21   9  12  1   
 22   9  30  1   
 23  10  13  1   
 24  11  31  1   
 25  12  14  1   
 26  12  32  1   
 27  12  33  1   
 28  13  15  1   
 29  13  34  1   
 30  13  35  1   
 31  14  16  ar  
 32  14  17  ar  
 33  15  36  1   
 34  15  37  1   
 35  15  38  1   
 36  16  18  ar  
 37  17  19  ar  
 38  17  39  1   
 39  18  20  ar  
 40  18  40  1   
 41  19  20  ar  
 42  19  41  1   
 43  20  42  1   
@<TRIPOS>SUBSTRUCTURE
  1 ****   6 GROUP 4 **** **** 0

# MOE 2024.06 (io_trps.svl 2023.06)
