@<TRIPOS>MOLECULE
NONAME
52 53 1 0 0 
SMALL
USER_CHARGES


@<TRIPOS>ATOM
  1 O       -0.9410     0.4400    -1.5730 O.co2 1 <1>  -0.9000 
  2 C       -1.2610     0.9420    -0.4890 C.2   1 <1>   0.9060 
  3 O       -1.8160     0.2690     0.3930 O.co2 1 <1>  -0.9000 
  4 C       -0.9590     2.4150    -0.2000 C.3   1 <1>  -0.1060 
  5 C       -2.2370     3.0350     0.4020 C.3   1 <1>   0.2000 
  6 C       -0.7430     3.1490    -1.5450 C.3   1 <1>   0.1100 
  7 C        0.2460     2.4620     0.7990 C.3   1 <1>  -0.0170 
  8 O       -2.4580     2.5150     1.6650 O.3   1 <1>  -0.6800 
  9 C       -2.2330     4.5720     0.4750 C.3   1 <1>  -0.1600 
 10 N       -0.6810     4.6340    -1.4630 N.3   1 <1>  -0.8100 
 11 C        1.6410     2.6580     0.2040 C.ar  1 <1>  -0.1440 
 12 C       -0.9910     5.2190    -0.1490 C.3   1 <1>   0.1100 
 13 C        0.5680     5.1450    -2.1060 C.3   1 <1>   0.1710 
 14 C        2.4420     3.7040     0.6410 C.ar  1 <1>  -0.1500 
 15 C        2.1330     1.7880    -0.7560 C.ar  1 <1>  -0.1500 
 16 C        1.0030     6.5750    -1.7610 C.2   1 <1>   0.5690 
 17 C        3.7050     3.8930     0.1050 C.ar  1 <1>  -0.1500 
 18 C        3.3930     1.9770    -1.2960 C.ar  1 <1>  -0.1500 
 19 O        0.6640     7.4940    -2.4720 O.2   1 <1>  -0.5700 
 20 N        1.7830     6.7420    -0.6550 N.am  1 <1>  -0.7300 
 21 C        4.1790     3.0320    -0.8680 C.ar  1 <1>  -0.1500 
 22 C        2.2420     7.9800    -0.0240 C.3   1 <1>   0.3000 
 23 C        3.0080     7.5780     1.2340 C.3   1 <1>  -0.2400 
 24 C        3.1740     8.7270    -0.9770 C.3   1 <1>  -0.2400 
 25 C        1.0360     8.8350     0.3660 C.3   1 <1>  -0.2400 
 26 H       -3.0750     2.7310    -0.2050 H     1 <1>   0.0800 
 27 H       -1.5750     2.9060    -2.1850 H     1 <1>   0.0800 
 28 H        0.1240     2.7520    -2.0420 H     1 <1>   0.0800 
 29 H        0.0760     3.2320     1.5260 H     1 <1>   0.0800 
 30 H        0.2620     1.5480     1.3670 H     1 <1>   0.0800 
 31 H       -2.3660     1.5260     1.5490 H     1 <1>   0.4000 
 32 H       -3.0920     4.9340    -0.0580 H     1 <1>   0.0800 
 33 H       -2.3210     4.9000     1.4950 H     1 <1>   0.0800 
 34 H       -0.1490     5.1050     0.5070 H     1 <1>   0.0800 
 35 H       -1.1740     6.2740    -0.2660 H     1 <1>   0.0800 
 36 H        1.3870     4.4980    -1.8480 H     1 <1>   0.0800 
 37 H        0.4430     5.0850    -3.1720 H     1 <1>   0.0800 
 38 H        2.0820     4.3670     1.4070 H     1 <1>   0.1500 
 39 H        1.5280     0.9590    -1.0920 H     1 <1>   0.1500 
 40 H        4.3250     4.7010     0.4470 H     1 <1>   0.1500 
 41 H        3.7540     1.2970    -2.0470 H     1 <1>   0.1500 
 42 H        2.0470     5.8930    -0.1540 H     1 <1>   0.3700 
 43 H        5.1590     3.1760    -1.2890 H     1 <1>   0.1500 
 44 H        3.3510     8.4560     1.7520 H     1 <1>   0.0800 
 45 H        3.8670     6.9850     0.9800 H     1 <1>   0.0800 
 46 H        2.3740     7.0220     1.9020 H     1 <1>   0.0800 
 47 H        3.5720     9.6020    -0.4970 H     1 <1>   0.0800 
 48 H        2.6400     9.0460    -1.8550 H     1 <1>   0.0800 
 49 H        3.9910     8.0980    -1.2770 H     1 <1>   0.0800 
 50 H        1.3580     9.7090     0.9000 H     1 <1>   0.0800 
 51 H        0.3650     8.2760     0.9930 H     1 <1>   0.0800 
 52 H        0.5030     9.1600    -0.5100 H     1 <1>   0.0800 
@<TRIPOS>BOND
  1   1   2  ar  
  2   2   3  ar  
  3   2   4  1   
  4   4   5  1   
  5   4   6  1   
  6   4   7  1   
  7   5   8  1   
  8   5   9  1   
  9   5  26  1   
 10   6  10  1   
 11   6  27  1   
 12   6  28  1   
 13   7  11  1   
 14   7  29  1   
 15   7  30  1   
 16   8  31  1   
 17   9  12  1   
 18   9  32  1   
 19   9  33  1   
 20  10  12  1   
 21  10  13  1   
 22  11  14  ar  
 23  11  15  ar  
 24  12  34  1   
 25  12  35  1   
 26  13  16  1   
 27  13  36  1   
 28  13  37  1   
 29  14  17  ar  
 30  14  38  1   
 31  15  18  ar  
 32  15  39  1   
 33  16  19  2   
 34  16  20  am  
 35  17  21  ar  
 36  17  40  1   
 37  18  21  ar  
 38  18  41  1   
 39  20  22  1   
 40  20  42  1   
 41  21  43  1   
 42  22  23  1   
 43  22  24  1   
 44  22  25  1   
 45  23  44  1   
 46  23  45  1   
 47  23  46  1   
 48  24  47  1   
 49  24  48  1   
 50  24  49  1   
 51  25  50  1   
 52  25  51  1   
 53  25  52  1   
@<TRIPOS>SUBSTRUCTURE
  1 ****  10 GROUP 4 **** **** 0

# MOE 2024.06 (io_trps.svl 2023.06)
