@<TRIPOS>MOLECULE
NONAME
51 54 1 0 0 
SMALL
USER_CHARGES


@<TRIPOS>ATOM
  1 O        0.9170     0.3950    -2.0220 O.2   1 <1>  -0.5700 
  2 C        1.5920     0.6860    -1.0490 C.2   1 <1>   0.5440 
  3 N        1.2440     1.8030    -0.3220 N.am  1 <1>  -0.6600 
  4 C        2.7260    -0.1250    -0.6770 C.ar  1 <1>   0.0860 
  5 C        0.0840     2.6490    -0.6850 C.3   1 <1>   0.1400 
  6 C        1.6490     2.0400     1.0820 C.3   1 <1>   0.1400 
  7 C        2.5890    -1.5100    -0.4700 C.ar  1 <1>   0.4100 
  8 C        3.9830     0.4370    -0.5010 C.ar  1 <1>  -0.1500 
  9 C       -0.1010     3.5930     0.4980 C.3   1 <1>  -0.1600 
 10 C        0.5070     2.8480     1.6840 C.3   1 <1>  -0.1600 
 11 N        3.5890    -2.3000    -0.0830 N.ar  1 <1>  -0.6200 
 12 N        1.3700    -2.1230    -0.6550 N.pl3 1 <1>  -0.8690 
 13 C        5.0170    -0.3850    -0.1150 C.ar  1 <1>  -0.1500 
 14 C        4.7650    -1.7310     0.0820 C.ar  1 <1>   0.1600 
 15 C        1.1660    -3.5930    -0.7450 C.3   1 <1>   0.2090 
 16 C        0.8240    -4.1560     0.6290 C.3   1 <1>  -0.0170 
 17 C        0.5000    -5.6290     0.5110 C.ar  1 <1>   0.4770 
 18 N        1.4590    -6.4760     0.8690 N.ar  1 <1>  -0.6200 
 19 N       -0.7100    -5.9200     0.0510 N.ar  1 <1>  -0.6200 
 20 C        1.1780    -7.7560     0.7590 C.ar  1 <1>   0.1670 
 21 C       -0.9520    -7.2040    -0.0410 C.ar  1 <1>   0.1670 
 22 C       -0.0510    -8.1680     0.2970 C.ar  1 <1>  -0.1430 
 23 C        2.2690    -8.7260     1.1630 C.3   1 <1>  -0.0970 
 24 C       -2.2480    -7.7900    -0.5320 C.3   1 <1>  -0.0170 
 25 C       -0.6190    -9.5510     0.0760 C.3   1 <1>  -0.0170 
 26 C       -2.1090    -9.2930    -0.2220 C.3   1 <1>  -0.1600 
 27 H       -0.7830     2.0230    -0.8100 H     1 <1>   0.0800 
 28 H        0.2760     3.1850    -1.5990 H     1 <1>   0.0800 
 29 H        2.5590     2.6150     1.0940 H     1 <1>   0.0800 
 30 H        1.7940     1.1120     1.6110 H     1 <1>   0.0800 
 31 H        4.1360     1.4890    -0.6670 H     1 <1>   0.1500 
 32 H       -1.1370     3.8380     0.6540 H     1 <1>   0.0800 
 33 H        0.4500     4.4980     0.3120 H     1 <1>   0.0800 
 34 H        0.8490     3.5140     2.4560 H     1 <1>   0.0800 
 35 H       -0.2180     2.1710     2.1000 H     1 <1>   0.0800 
 36 H        0.7030    -1.5690    -1.2140 H     1 <1>   0.4000 
 37 H        6.0070     0.0050     0.0340 H     1 <1>   0.1500 
 38 H        5.5750    -2.3710     0.3880 H     1 <1>   0.1500 
 39 H        2.0540    -4.0720    -1.1230 H     1 <1>   0.0800 
 40 H        0.3600    -3.7950    -1.4300 H     1 <1>   0.0800 
 41 H       -0.0280    -3.6410     1.0310 H     1 <1>   0.0800 
 42 H        1.6590    -4.0180     1.2910 H     1 <1>   0.0800 
 43 H        3.1560    -8.5210     0.5930 H     1 <1>   0.0800 
 44 H        1.9750    -9.7440     0.9930 H     1 <1>   0.0800 
 45 H        2.4920    -8.5960     2.2060 H     1 <1>   0.0800 
 46 H       -2.3370    -7.6160    -1.5890 H     1 <1>   0.0800 
 47 H       -3.0850    -7.3530    -0.0170 H     1 <1>   0.0800 
 48 H       -0.4980   -10.1710     0.9470 H     1 <1>   0.0800 
 49 H       -0.1360   -10.0090    -0.7700 H     1 <1>   0.0800 
 50 H       -2.4620    -9.8990    -1.0380 H     1 <1>   0.0800 
 51 H       -2.6860    -9.5210     0.6570 H     1 <1>   0.0800 
@<TRIPOS>BOND
  1   1   2  2   
  2   2   3  am  
  3   2   4  1   
  4   3   5  1   
  5   3   6  1   
  6   4   7  ar  
  7   4   8  ar  
  8   5   9  1   
  9   5  27  1   
 10   5  28  1   
 11   6  10  1   
 12   6  29  1   
 13   6  30  1   
 14   7  11  ar  
 15   7  12  1   
 16   8  13  ar  
 17   8  31  1   
 18   9  10  1   
 19   9  32  1   
 20   9  33  1   
 21  10  34  1   
 22  10  35  1   
 23  11  14  ar  
 24  12  15  1   
 25  12  36  1   
 26  13  14  ar  
 27  13  37  1   
 28  14  38  1   
 29  15  16  1   
 30  15  39  1   
 31  15  40  1   
 32  16  17  1   
 33  16  41  1   
 34  16  42  1   
 35  17  18  ar  
 36  17  19  ar  
 37  18  20  ar  
 38  19  21  ar  
 39  20  22  ar  
 40  20  23  1   
 41  21  22  ar  
 42  21  24  1   
 43  22  25  1   
 44  23  43  1   
 45  23  44  1   
 46  23  45  1   
 47  24  26  1   
 48  24  46  1   
 49  24  47  1   
 50  25  26  1   
 51  25  48  1   
 52  25  49  1   
 53  26  50  1   
 54  26  51  1   
@<TRIPOS>SUBSTRUCTURE
  1 ****  15 GROUP 4 **** **** 0

# MOE 2024.06 (io_trps.svl 2023.06)
