@<TRIPOS>MOLECULE
NONAME
50 52 1 0 0 
SMALL
USER_CHARGES


@<TRIPOS>ATOM
  1 O       -3.3570     0.8020    -3.1990 O.2   1 <1>  -0.5700 
  2 C       -2.6890     1.1240    -2.2450 C.2   1 <1>   0.5690 
  3 N       -2.3050     0.2180    -1.3100 N.am  1 <1>  -0.7300 
  4 C       -2.2760     2.5840    -2.0980 C.3   1 <1>   0.1810 
  5 C       -2.6310    -1.2240    -1.3150 C.3   1 <1>   0.2200 
  6 O       -1.6240     2.8160    -0.8540 O.3   1 <1>  -0.3630 
  7 C       -3.6410    -1.5110    -0.2180 C.3   1 <1>  -0.0800 
  8 C       -1.4200    -2.0300    -0.8520 C.3   1 <1>   0.1200 
  9 C       -1.1710     4.0540    -0.5260 C.ar  1 <1>   0.0820 
 10 C       -2.7360    -1.6590     1.0080 C.3   1 <1>   0.1200 
 11 C       -4.4430    -2.7930    -0.5090 C.3   1 <1>  -0.0160 
 12 O       -1.4930    -2.0980     0.5430 O.3   1 <1>  -0.5600 
 13 C       -0.5350     4.1780     0.7000 C.ar  1 <1>  -0.1500 
 14 C       -1.3110     5.1740    -1.3410 C.ar  1 <1>  -0.1500 
 15 C       -5.4640    -3.0720     0.5830 C.ar  1 <1>  -0.1440 
 16 C       -0.0410     5.4020     1.1180 C.ar  1 <1>  -0.1500 
 17 C       -0.8170     6.3970    -0.9220 C.ar  1 <1>  -0.1500 
 18 C       -6.6340    -2.3470     0.6850 C.ar  1 <1>  -0.1500 
 19 C       -5.2770    -4.0610     1.5270 C.ar  1 <1>  -0.1500 
 20 C       -0.1810     6.5220     0.3030 C.ar  1 <1>   0.0820 
 21 C       -7.5320    -2.6340     1.7000 C.ar  1 <1>   0.1600 
 22 C       -6.2390    -4.2680     2.5030 C.ar  1 <1>   0.1600 
 23 O        0.2720     7.7600     0.6300 O.3   1 <1>  -0.3620 
 24 N       -7.3620    -3.5770     2.6130 N.ar  1 <1>  -0.6200 
 25 C        0.9320     7.9950     1.8520 C.3   1 <1>   0.1200 
 26 C        1.3080     9.4720     1.9090 C.3   1 <1>  -0.2400 
 27 H       -1.7510     0.5460    -0.5120 H     1 <1>   0.3700 
 28 H       -3.1520     3.2050    -2.1440 H     1 <1>   0.0800 
 29 H       -1.5990     2.8410    -2.8910 H     1 <1>   0.0800 
 30 H       -2.9690    -1.5250    -2.2930 H     1 <1>   0.0800 
 31 H       -4.3280    -0.6920    -0.0950 H     1 <1>   0.0800 
 32 H       -0.4880    -1.5800    -1.1440 H     1 <1>   0.0800 
 33 H       -1.4700    -3.0370    -1.2270 H     1 <1>   0.0800 
 34 H       -3.1090    -2.3600     1.7330 H     1 <1>   0.0800 
 35 H       -2.5840    -0.7050     1.4820 H     1 <1>   0.0800 
 36 H       -3.7800    -3.6360    -0.6050 H     1 <1>   0.0800 
 37 H       -4.9640    -2.6830    -1.4450 H     1 <1>   0.0800 
 38 H       -0.4290     3.3110     1.3250 H     1 <1>   0.1500 
 39 H       -1.7970     5.1220    -2.2970 H     1 <1>   0.1500 
 40 H        0.4460     5.4610     2.0720 H     1 <1>   0.1500 
 41 H       -0.9200     7.2690    -1.5440 H     1 <1>   0.1500 
 42 H       -6.8560    -1.5610    -0.0140 H     1 <1>   0.1500 
 43 H       -4.3930    -4.6730     1.5160 H     1 <1>   0.1500 
 44 H       -8.4390    -2.0570     1.7640 H     1 <1>   0.1500 
 45 H       -6.0750    -5.0440     3.2310 H     1 <1>   0.1500 
 46 H        0.2620     7.7420     2.6560 H     1 <1>   0.0800 
 47 H        1.8130     7.3770     1.8880 H     1 <1>   0.0800 
 48 H        0.4220    10.0800     1.8550 H     1 <1>   0.0800 
 49 H        1.9630     9.7180     1.0920 H     1 <1>   0.0800 
 50 H        1.8150     9.6840     2.8320 H     1 <1>   0.0800 
@<TRIPOS>BOND
  1   1   2  2   
  2   2   3  am  
  3   2   4  1   
  4   3   5  1   
  5   3  27  1   
  6   4   6  1   
  7   4  28  1   
  8   4  29  1   
  9   5   7  1   
 10   5   8  1   
 11   5  30  1   
 12   6   9  1   
 13   7  10  1   
 14   7  11  1   
 15   7  31  1   
 16   8  12  1   
 17   8  32  1   
 18   8  33  1   
 19   9  13  ar  
 20   9  14  ar  
 21  10  12  1   
 22  10  34  1   
 23  10  35  1   
 24  11  15  1   
 25  11  36  1   
 26  11  37  1   
 27  13  16  ar  
 28  13  38  1   
 29  14  17  ar  
 30  14  39  1   
 31  15  18  ar  
 32  15  19  ar  
 33  16  20  ar  
 34  16  40  1   
 35  17  20  ar  
 36  17  41  1   
 37  18  21  ar  
 38  18  42  1   
 39  19  22  ar  
 40  19  43  1   
 41  20  23  1   
 42  21  24  ar  
 43  21  44  1   
 44  22  24  ar  
 45  22  45  1   
 46  23  25  1   
 47  25  26  1   
 48  25  46  1   
 49  25  47  1   
 50  26  48  1   
 51  26  49  1   
 52  26  50  1   
@<TRIPOS>SUBSTRUCTURE
  1 ****   3 GROUP 4 **** **** 0

# MOE 2024.06 (io_trps.svl 2023.06)
