@<TRIPOS>MOLECULE
NONAME
48 50 1 0 0 
SMALL
USER_CHARGES


@<TRIPOS>ATOM
  1 O       -1.7190     0.2890    -1.8530 O.2   1 <1>  -0.5700 
  2 C       -1.7190     0.5840    -0.6720 C.2   1 <1>   0.7160 
  3 N       -1.8650    -0.4160     0.2370 N.am  1 <1>  -0.7300 
  4 C       -1.5650     1.9480    -0.2030 C.2   1 <1>  -0.0860 
  5 C       -1.9160    -1.8650    -0.0530 C.3   1 <1>   0.2200 
  6 C       -2.1580     2.5680     0.8760 C.2   1 <1>  -0.3320 
  7 C       -0.7280     2.9270    -0.7710 C.2   1 <1>  -0.1810 
  8 C       -3.3410    -2.3970     0.0200 C.3   1 <1>  -0.0800 
  9 C       -1.2840    -2.6130     1.1130 C.3   1 <1>   0.1200 
 10 N       -1.7130     3.8330     0.9710 N.pl3 1 <1>   0.0330 
 11 C       -3.1830     2.0260     1.8610 C.3   1 <1>  -0.0600 
 12 C       -0.8260     4.0880    -0.0390 C.2   1 <1>  -0.2370 
 13 C        0.1300     2.6780    -2.0030 C.3   1 <1>  -0.0590 
 14 C       -3.5380    -2.6480     1.5200 C.3   1 <1>   0.1200 
 15 C       -4.4260    -1.5170    -0.6280 C.3   1 <1>  -0.0170 
 16 O       -2.2660    -2.6280     2.1040 O.3   1 <1>  -0.5600 
 17 C       -0.1910     5.3700    -0.1970 C.2   1 <1>   0.5940 
 18 C       -5.7830    -2.2010    -0.5690 C.ar  1 <1>  -0.1430 
 19 O        0.5910     5.6430    -1.0700 O.2   1 <1>  -0.5700 
 20 C       -0.5090     6.4740     0.7900 C.3   1 <1>  -0.1790 
 21 C       -6.7170    -1.9000     0.4020 C.ar  1 <1>  -0.1500 
 22 C       -6.1490    -3.1630    -1.4880 C.ar  1 <1>  -0.1500 
 23 C       -7.9340    -2.5620     0.4100 C.ar  1 <1>   0.1600 
 24 C       -7.3930    -3.7650    -1.3910 C.ar  1 <1>   0.1600 
 25 N       -8.2930    -3.4900    -0.4620 N.ar  1 <1>  -0.6200 
 26 H       -1.8480    -0.1720     1.2280 H     1 <1>   0.3700 
 27 H       -1.4360    -2.0840    -0.9920 H     1 <1>   0.0800 
 28 H       -3.3560    -3.3560    -0.4680 H     1 <1>   0.0800 
 29 H       -0.3960    -2.1350     1.4850 H     1 <1>   0.0800 
 30 H       -1.0700    -3.6330     0.8430 H     1 <1>   0.0800 
 31 H       -2.0010     4.5120     1.6840 H     1 <1>   0.2700 
 32 H       -3.6410     1.1280     1.4900 H     1 <1>   0.0800 
 33 H       -3.9630     2.7500     2.0180 H     1 <1>   0.0800 
 34 H       -2.7130     1.8120     2.8050 H     1 <1>   0.0800 
 35 H        0.6700     1.7550    -1.8950 H     1 <1>   0.0800 
 36 H        0.8440     3.4630    -2.1610 H     1 <1>   0.0800 
 37 H       -0.4990     2.6070    -2.8720 H     1 <1>   0.0800 
 38 H       -3.9960    -3.6040     1.7070 H     1 <1>   0.0800 
 39 H       -4.1200    -1.8690     1.9820 H     1 <1>   0.0800 
 40 H       -4.1650    -1.3290    -1.6560 H     1 <1>   0.0800 
 41 H       -4.4860    -0.5640    -0.1340 H     1 <1>   0.0800 
 42 H       -0.2370     6.1690     1.7830 H     1 <1>   0.0800 
 43 H       -1.5560     6.7090     0.7510 H     1 <1>   0.0800 
 44 H        0.0500     7.3570     0.5380 H     1 <1>   0.0800 
 45 H       -6.5120    -1.1580     1.1510 H     1 <1>   0.1500 
 46 H       -5.4800    -3.4490    -2.2790 H     1 <1>   0.1500 
 47 H       -8.6500    -2.3140     1.1750 H     1 <1>   0.1500 
 48 H       -7.6610    -4.5140    -2.1170 H     1 <1>   0.1500 
@<TRIPOS>BOND
  1   1   2  2   
  2   2   3  am  
  3   2   4  1   
  4   3   5  1   
  5   3  26  1   
  6   4   6  2   
  7   4   7  1   
  8   5   8  1   
  9   5   9  1   
 10   5  27  1   
 11   6  10  1   
 12   6  11  1   
 13   7  12  2   
 14   7  13  1   
 15   8  14  1   
 16   8  15  1   
 17   8  28  1   
 18   9  16  1   
 19   9  29  1   
 20   9  30  1   
 21  10  12  1   
 22  10  31  1   
 23  11  32  1   
 24  11  33  1   
 25  11  34  1   
 26  12  17  1   
 27  13  35  1   
 28  13  36  1   
 29  13  37  1   
 30  14  16  1   
 31  14  38  1   
 32  14  39  1   
 33  15  18  1   
 34  15  40  1   
 35  15  41  1   
 36  17  19  2   
 37  17  20  1   
 38  18  21  ar  
 39  18  22  ar  
 40  20  42  1   
 41  20  43  1   
 42  20  44  1   
 43  21  23  ar  
 44  21  45  1   
 45  22  24  ar  
 46  22  46  1   
 47  23  25  ar  
 48  23  47  1   
 49  24  25  ar  
 50  24  48  1   
@<TRIPOS>SUBSTRUCTURE
  1 ****   3 GROUP 4 **** **** 0

# MOE 2024.06 (io_trps.svl 2023.06)
