@<TRIPOS>MOLECULE
NONAME
39 41 1 0 0 
SMALL
USER_CHARGES


@<TRIPOS>ATOM
  1 O        0.7860     3.0660    -1.1650 O.3   1 <1>  -0.0190 
  2 N        1.8520     2.8770    -1.8780 N.2   1 <1>  -0.4100 
  3 C        0.6580     2.1620    -0.2330 C.2   1 <1>  -0.0400 
  4 C        2.3800     1.7850    -1.4540 C.2   1 <1>   0.1080 
  5 C        1.6550     1.2750    -0.3800 C.2   1 <1>  -0.1500 
  6 C       -0.4560     2.2850     0.7920 C.3   1 <1>   0.0200 
  7 C        3.6220     1.1530    -2.0460 C.3   1 <1>  -0.0590 
  8 C       -0.3550     3.5760     1.6450 C.3   1 <1>  -0.0800 
  9 C       -0.8180     4.8310     0.8900 C.3   1 <1>   0.2000 
 10 C        1.0850     3.9110     2.0510 C.3   1 <1>   0.3430 
 11 O       -1.5510     5.6330     1.7550 O.3   1 <1>  -0.6800 
 12 C        0.4520     5.5830     0.4570 C.3   1 <1>   0.3430 
 13 N        1.6100     4.7750     0.9590 N.4   1 <1>  -0.9590 
 14 C        2.8330     5.5580     1.2870 C.3   1 <1>   0.4860 
 15 C        3.2330     6.4000     0.0980 C.ar  1 <1>  -0.1440 
 16 C        3.1520     7.7740     0.1440 C.ar  1 <1>   0.1600 
 17 C        3.6930     5.8410    -1.0740 C.ar  1 <1>   0.1600 
 18 N        3.4790     8.5270    -0.8790 N.ar  1 <1>  -0.6200 
 19 N        4.0310     6.5730    -2.1090 N.ar  1 <1>  -0.6200 
 20 C        3.9050     7.8810    -1.9530 C.ar  1 <1>   0.4700 
 21 H        1.8850     0.3840     0.1770 H     1 <1>   0.1500 
 22 H       -1.4090     2.2420     0.2930 H     1 <1>   0.0800 
 23 H       -0.4030     1.4310     1.4450 H     1 <1>   0.0800 
 24 H        4.3530     0.9750    -1.2790 H     1 <1>   0.0800 
 25 H        4.0480     1.8020    -2.7910 H     1 <1>   0.0800 
 26 H        3.3670     0.2190    -2.5120 H     1 <1>   0.0800 
 27 H       -0.9600     3.4210     2.5220 H     1 <1>   0.0800 
 28 H       -1.4470     4.6090     0.0440 H     1 <1>   0.0800 
 29 H        1.6800     3.0200     2.1740 H     1 <1>   0.0800 
 30 H        1.0750     4.4620     2.9780 H     1 <1>   0.0800 
 31 H       -1.1600     5.7140     2.6470 H     1 <1>   0.4000 
 32 H        0.4500     6.5720     0.8850 H     1 <1>   0.0800 
 33 H        0.4940     5.6610    -0.6180 H     1 <1>   0.0800 
 34 H        1.8470     4.1450     0.1680 H     1 <1>   0.4500 
 35 H        2.6430     6.1970     2.1340 H     1 <1>   0.0800 
 36 H        3.6410     4.8900     1.5410 H     1 <1>   0.0800 
 37 H        2.8110     8.2810     1.0330 H     1 <1>   0.1500 
 38 H        3.7870     4.7720    -1.1830 H     1 <1>   0.1500 
 39 H        4.1800     8.4910    -2.7980 H     1 <1>   0.1500 
@<TRIPOS>BOND
  1   1   2  1   
  2   1   3  1   
  3   2   4  2   
  4   3   5  2   
  5   3   6  1   
  6   4   5  1   
  7   4   7  1   
  8   5  21  1   
  9   6   8  1   
 10   6  22  1   
 11   6  23  1   
 12   7  24  1   
 13   7  25  1   
 14   7  26  1   
 15   8   9  1   
 16   8  10  1   
 17   8  27  1   
 18   9  11  1   
 19   9  12  1   
 20   9  28  1   
 21  10  13  1   
 22  10  29  1   
 23  10  30  1   
 24  11  31  1   
 25  12  13  1   
 26  12  32  1   
 27  12  33  1   
 28  13  14  1   
 29  13  34  1   
 30  14  15  1   
 31  14  35  1   
 32  14  36  1   
 33  15  16  ar  
 34  15  17  ar  
 35  16  18  ar  
 36  16  37  1   
 37  17  19  ar  
 38  17  38  1   
 39  18  20  ar  
 40  19  20  ar  
 41  20  39  1   
@<TRIPOS>SUBSTRUCTURE
  1 ****  13 GROUP 4 **** **** 0

# MOE 2024.06 (io_trps.svl 2023.06)
