@<TRIPOS>MOLECULE
NONAME
42 44 1 0 0 
SMALL
USER_CHARGES


@<TRIPOS>ATOM
  1 F       -2.6320     0.6290    -0.9810 F     1 <1>  -0.1900 
  2 C       -2.9440    -0.3890    -0.2250 C.ar  1 <1>   0.1900 
  3 C       -3.4830    -0.1670     1.0300 C.ar  1 <1>   0.1600 
  4 C       -2.7320    -1.6620    -0.6970 C.ar  1 <1>  -0.1500 
  5 N       -3.8220    -1.1450     1.8610 N.ar  1 <1>  -0.6200 
  6 C       -3.0950    -2.7060     0.1450 C.ar  1 <1>   0.0860 
  7 C       -3.6040    -2.3720     1.4010 C.ar  1 <1>   0.1600 
  8 C       -2.9490    -4.0890    -0.2480 C.2   1 <1>   0.5440 
  9 O       -1.8890    -4.4560    -0.7150 O.2   1 <1>  -0.5700 
 10 N       -3.9590    -5.0170    -0.0870 N.am  1 <1>  -0.6600 
 11 C       -5.3720    -4.8570    -0.5480 C.3   1 <1>   0.2200 
 12 C       -3.5860    -6.4380     0.1680 C.3   1 <1>   0.0600 
 13 C       -6.3200    -4.4510     0.5750 C.3   1 <1>  -0.1600 
 14 C       -5.6120    -3.8230    -1.6460 C.3   1 <1>  -0.1600 
 15 C       -7.5650    -3.9040    -0.1390 C.3   1 <1>  -0.0800 
 16 C       -7.1180    -3.5400    -1.5740 C.3   1 <1>  -0.0800 
 17 C       -8.2360    -2.7550     0.6370 C.3   1 <1>   0.1400 
 18 C       -7.4840    -2.1030    -1.9960 C.3   1 <1>  -0.0990 
 19 N       -9.2130    -2.0630    -0.2390 N.am  1 <1>  -0.6600 
 20 C       -8.8790    -1.7420    -1.5260 C.2   1 <1>   0.5690 
 21 C      -10.5280    -1.7140     0.3600 C.3   1 <1>   0.0600 
 22 O       -9.6300    -1.1860    -2.2910 O.2   1 <1>  -0.5700 
 23 H       -3.6360     0.8470     1.3570 H     1 <1>   0.1500 
 24 H       -2.3090    -1.8460    -1.6690 H     1 <1>   0.1500 
 25 H       -3.8450    -3.1840     2.0670 H     1 <1>   0.1500 
 26 H       -5.7140    -5.8030    -0.9360 H     1 <1>   0.0800 
 27 H       -4.2850    -6.8870     0.8520 H     1 <1>   0.0800 
 28 H       -2.6000    -6.4940     0.5980 H     1 <1>   0.0800 
 29 H       -3.5870    -6.9850    -0.7580 H     1 <1>   0.0800 
 30 H       -6.5630    -5.2880     1.2050 H     1 <1>   0.0800 
 31 H       -5.8780    -3.6760     1.1670 H     1 <1>   0.0800 
 32 H       -5.0830    -2.9150    -1.4480 H     1 <1>   0.0800 
 33 H       -5.3260    -4.2010    -2.6120 H     1 <1>   0.0800 
 34 H       -8.2840    -4.7030    -0.2150 H     1 <1>   0.0800 
 35 H       -7.6220    -4.2160    -2.2450 H     1 <1>   0.0800 
 36 H       -7.4990    -2.0380     0.9560 H     1 <1>   0.0800 
 37 H       -8.7300    -3.1460     1.5110 H     1 <1>   0.0800 
 38 H       -7.4270    -2.0060    -3.0650 H     1 <1>   0.0800 
 39 H       -6.8060    -1.3940    -1.5580 H     1 <1>   0.0800 
 40 H      -10.3810    -1.0830     1.2190 H     1 <1>   0.0800 
 41 H      -11.0420    -2.6110     0.6580 H     1 <1>   0.0800 
 42 H      -11.1400    -1.1870    -0.3520 H     1 <1>   0.0800 
@<TRIPOS>BOND
  1   1   2  1   
  2   2   3  ar  
  3   2   4  ar  
  4   3   5  ar  
  5   3  23  1   
  6   4   6  ar  
  7   4  24  1   
  8   5   7  ar  
  9   6   7  ar  
 10   6   8  1   
 11   7  25  1   
 12   8   9  2   
 13   8  10  am  
 14  10  11  1   
 15  10  12  1   
 16  11  13  1   
 17  11  14  1   
 18  11  26  1   
 19  12  27  1   
 20  12  28  1   
 21  12  29  1   
 22  13  15  1   
 23  13  30  1   
 24  13  31  1   
 25  14  16  1   
 26  14  32  1   
 27  14  33  1   
 28  15  16  1   
 29  15  17  1   
 30  15  34  1   
 31  16  18  1   
 32  16  35  1   
 33  17  19  1   
 34  17  36  1   
 35  17  37  1   
 36  18  20  1   
 37  18  38  1   
 38  18  39  1   
 39  19  20  am  
 40  19  21  1   
 41  20  22  2   
 42  21  40  1   
 43  21  41  1   
 44  21  42  1   
@<TRIPOS>SUBSTRUCTURE
  1 ****  14 GROUP 4 **** **** 0

# MOE 2024.06 (io_trps.svl 2023.06)
