@<TRIPOS>MOLECULE
NONAME
58 61 1 0 0 
SMALL
USER_CHARGES


@<TRIPOS>ATOM
  1 O       -1.0020     0.6780     1.9330 O.2   1 <1>  -0.5700 
  2 C       -1.9210     1.4330     1.6570 C.2   1 <1>   0.5440 
  3 N       -3.1980     0.9150     1.6210 N.am  1 <1>  -0.6600 
  4 C       -1.6470     2.8030     1.2970 C.ar  1 <1>   0.0860 
  5 C       -3.4210    -0.5330     1.8970 C.3   1 <1>   0.1400 
  6 C       -4.2370     1.4770     0.7090 C.3   1 <1>   0.1400 
  7 C       -0.9360     3.1010     0.1220 C.ar  1 <1>   0.1000 
  8 C       -2.0990     3.8540     2.0950 C.ar  1 <1>  -0.1500 
  9 C       -3.2300    -1.2770     0.5570 C.3   1 <1>   0.4230 
 10 C       -4.1780     0.7200    -0.6310 C.3   1 <1>  -0.1600 
 11 N       -0.4670     2.0760    -0.6920 N.pl3 1 <1>  -0.8690 
 12 C       -0.7300     4.4350    -0.2250 C.ar  1 <1>  -0.1500 
 13 C       -1.8710     5.1700     1.7470 C.ar  1 <1>  -0.1500 
 14 N       -3.2030    -2.7750     0.6360 N.4   1 <1>  -0.9590 
 15 C       -4.3050    -0.8260    -0.4610 C.3   1 <1>  -0.1060 
 16 C        0.8750     2.1290    -1.3400 C.3   1 <1>   0.3530 
 17 C       -1.1860     5.4610     0.5790 C.ar  1 <1>  -0.1500 
 18 C       -2.8720    -3.4340    -0.6620 C.3   1 <1>   0.3430 
 19 C       -2.4410    -3.3400     1.7800 C.3   1 <1>   0.2630 
 20 C       -5.6780    -1.2170     0.1170 C.2   1 <1>   0.9060 
 21 C       -4.1010    -1.5260    -1.8360 C.3   1 <1>  -0.1600 
 22 C        1.6830     0.8760    -1.0120 C.ar  1 <1>   0.1670 
 23 C       -2.8790    -2.4590    -1.8500 C.3   1 <1>  -0.1600 
 24 O       -5.8020    -2.3460     0.6180 O.co2 1 <1>  -0.9000 
 25 O       -6.6090    -0.4140     0.1030 O.co2 1 <1>  -0.9000 
 26 N        2.1330     0.1580    -2.0350 N.ar  1 <1>  -0.6200 
 27 C        1.9130     0.5490     0.3170 C.ar  1 <1>  -0.1500 
 28 C        2.8450    -0.9120    -1.7200 C.ar  1 <1>   0.1600 
 29 C        2.6510    -0.5720     0.6310 C.ar  1 <1>  -0.1500 
 30 C        3.1280    -1.3160    -0.4260 C.ar  1 <1>  -0.1500 
 31 H       -2.7100    -0.8660     2.6290 H     1 <1>   0.0800 
 32 H       -4.4120    -0.6790     2.2920 H     1 <1>   0.0800 
 33 H       -5.2090     1.3640     1.1610 H     1 <1>   0.0800 
 34 H       -4.0790     2.5280     0.5400 H     1 <1>   0.0800 
 35 H       -2.6390     3.6240     2.9980 H     1 <1>   0.1500 
 36 H       -2.2700    -0.9610     0.1840 H     1 <1>   0.0800 
 37 H       -4.9780     1.0770    -1.2580 H     1 <1>   0.0800 
 38 H       -3.2520     0.9660    -1.1210 H     1 <1>   0.0800 
 39 H       -0.5890     1.1400    -0.2780 H     1 <1>   0.4000 
 40 H       -0.2150     4.6710    -1.1370 H     1 <1>   0.1500 
 41 H       -2.2260     5.9690     2.3750 H     1 <1>   0.1500 
 42 H       -4.2310    -2.9670     0.7840 H     1 <1>   0.4500 
 43 H        0.7450     2.2040    -2.4060 H     1 <1>   0.0800 
 44 H        1.4220     2.9910    -1.0020 H     1 <1>   0.0800 
 45 H       -1.0140     6.4860     0.2990 H     1 <1>   0.1500 
 46 H       -1.9010    -3.8960    -0.6010 H     1 <1>   0.0800 
 47 H       -3.5990    -4.2090    -0.8450 H     1 <1>   0.0800 
 48 H       -1.4050    -3.0520     1.7150 H     1 <1>   0.0800 
 49 H       -2.5100    -4.4150     1.7750 H     1 <1>   0.0800 
 50 H       -2.8470    -2.9790     2.7110 H     1 <1>   0.0800 
 51 H       -4.9780    -2.1090    -2.0680 H     1 <1>   0.0800 
 52 H       -4.0020    -0.7990    -2.6250 H     1 <1>   0.0800 
 53 H       -1.9750    -1.8740    -1.8330 H     1 <1>   0.0800 
 54 H       -2.8700    -3.0230    -2.7660 H     1 <1>   0.0800 
 55 H        1.5150     1.1680     1.1040 H     1 <1>   0.1500 
 56 H        3.2260    -1.4990    -2.5380 H     1 <1>   0.1500 
 57 H        2.8460    -0.8470     1.6530 H     1 <1>   0.1500 
 58 H        3.7160    -2.1980    -0.2530 H     1 <1>   0.1500 
@<TRIPOS>BOND
  1   1   2  2   
  2   2   3  am  
  3   2   4  1   
  4   3   5  1   
  5   3   6  1   
  6   4   7  ar  
  7   4   8  ar  
  8   5   9  1   
  9   5  31  1   
 10   5  32  1   
 11   6  10  1   
 12   6  33  1   
 13   6  34  1   
 14   7  11  1   
 15   7  12  ar  
 16   8  13  ar  
 17   8  35  1   
 18   9  14  1   
 19   9  15  1   
 20   9  36  1   
 21  10  15  1   
 22  10  37  1   
 23  10  38  1   
 24  11  16  1   
 25  11  39  1   
 26  12  17  ar  
 27  12  40  1   
 28  13  17  ar  
 29  13  41  1   
 30  14  18  1   
 31  14  19  1   
 32  14  42  1   
 33  15  20  1   
 34  15  21  1   
 35  16  22  1   
 36  16  43  1   
 37  16  44  1   
 38  17  45  1   
 39  18  23  1   
 40  18  46  1   
 41  18  47  1   
 42  19  48  1   
 43  19  49  1   
 44  19  50  1   
 45  20  24  ar  
 46  20  25  ar  
 47  21  23  1   
 48  21  51  1   
 49  21  52  1   
 50  22  26  ar  
 51  22  27  ar  
 52  23  53  1   
 53  23  54  1   
 54  26  28  ar  
 55  27  29  ar  
 56  27  55  1   
 57  28  30  ar  
 58  28  56  1   
 59  29  30  ar  
 60  29  57  1   
 61  30  58  1   
@<TRIPOS>SUBSTRUCTURE
  1 ****   2 GROUP 4 **** **** 0

# MOE 2024.06 (io_trps.svl 2023.06)
