@<TRIPOS>MOLECULE
NONAME
40 41 1 0 0 
SMALL
USER_CHARGES


@<TRIPOS>ATOM
  1 S        0.2950     0.9110     0.1690 S.3   1 <1>  -0.3320 
  2 C        0.1190     2.6990     0.2590 C.ar  1 <1>   0.1020 
  3 C       -1.3940     0.2230    -0.1310 C.3   1 <1>  -0.0100 
  4 C        1.2660     3.4190     0.5350 C.ar  1 <1>  -0.1500 
  5 C       -1.0930     3.3390     0.0620 C.ar  1 <1>  -0.1500 
  6 C        1.2140     4.8040     0.6070 C.ar  1 <1>  -0.1430 
  7 C       -1.1480     4.7200     0.1440 C.ar  1 <1>  -0.1500 
  8 C       -0.0010     5.4490     0.4160 C.ar  1 <1>  -0.1500 
  9 C        2.4720     5.6010     0.8840 C.3   1 <1>   0.4860 
 10 N        3.3390     5.5460    -0.3300 N.4   1 <1>  -0.9590 
 11 C        4.7100     6.1030    -0.0300 C.3   1 <1>   0.5240 
 12 C        2.6970     6.2720    -1.4740 C.3   1 <1>   0.2630 
 13 C        4.6590     7.5380     0.5010 C.2   1 <1>   0.3350 
 14 N        4.6700     7.8430     1.7350 N.2   1 <1>  -0.4100 
 15 N        4.5390     8.5830    -0.3060 N.2   1 <1>  -0.5650 
 16 O        4.5550     9.1350     1.8090 O.3   1 <1>  -0.0190 
 17 C        4.4730     9.5220     0.5590 C.2   1 <1>   0.2980 
 18 C        4.3070    11.0070     0.2730 C.3   1 <1>   0.3000 
 19 O        3.0020    11.4000     0.5900 O.3   1 <1>  -0.5600 
 20 C        2.7520    12.7570     0.3980 C.3   1 <1>   0.0400 
 21 H       -1.3070    -0.8480    -0.1610 H     1 <1>   0.0800 
 22 H       -1.7470     0.6030    -1.0720 H     1 <1>   0.0800 
 23 H       -2.0280     0.5300     0.6820 H     1 <1>   0.0800 
 24 H        2.1820     2.8770     0.6940 H     1 <1>   0.1500 
 25 H       -1.9880     2.7870    -0.1520 H     1 <1>   0.1500 
 26 H       -2.0870     5.2270    -0.0030 H     1 <1>   0.1500 
 27 H       -0.0730     6.5230     0.4780 H     1 <1>   0.1500 
 28 H        2.9840     5.1720     1.7310 H     1 <1>   0.0800 
 29 H        2.2210     6.6220     1.1220 H     1 <1>   0.0800 
 30 H        3.4230     4.5550    -0.5880 H     1 <1>   0.4500 
 31 H        5.3150     6.0900    -0.9210 H     1 <1>   0.0800 
 32 H        5.1940     5.4900     0.7110 H     1 <1>   0.0800 
 33 H        2.5360     7.3080    -1.2220 H     1 <1>   0.0800 
 34 H        1.7430     5.8260    -1.7130 H     1 <1>   0.0800 
 35 H        3.3230     6.2260    -2.3500 H     1 <1>   0.0800 
 36 H        4.4780    11.2010    -0.7710 H     1 <1>   0.0800 
 37 H        4.9980    11.5760     0.8700 H     1 <1>   0.0800 
 38 H        1.7270    12.9490     0.6660 H     1 <1>   0.0800 
 39 H        2.9070    13.0080    -0.6370 H     1 <1>   0.0800 
 40 H        3.4030    13.3340     1.0320 H     1 <1>   0.0800 
@<TRIPOS>BOND
  1   1   2  1   
  2   1   3  1   
  3   2   4  ar  
  4   2   5  ar  
  5   3  21  1   
  6   3  22  1   
  7   3  23  1   
  8   4   6  ar  
  9   4  24  1   
 10   5   7  ar  
 11   5  25  1   
 12   6   8  ar  
 13   6   9  1   
 14   7   8  ar  
 15   7  26  1   
 16   8  27  1   
 17   9  10  1   
 18   9  28  1   
 19   9  29  1   
 20  10  11  1   
 21  10  12  1   
 22  10  30  1   
 23  11  13  1   
 24  11  31  1   
 25  11  32  1   
 26  12  33  1   
 27  12  34  1   
 28  12  35  1   
 29  13  14  2   
 30  13  15  1   
 31  14  16  1   
 32  15  17  2   
 33  16  17  1   
 34  17  18  1   
 35  18  19  1   
 36  18  36  1   
 37  18  37  1   
 38  19  20  1   
 39  20  38  1   
 40  20  39  1   
 41  20  40  1   
@<TRIPOS>SUBSTRUCTURE
  1 ****   9 GROUP 4 **** **** 0

# MOE 2024.06 (io_trps.svl 2023.06)
