@<TRIPOS>MOLECULE
NONAME
55 57 1 0 0 
SMALL
USER_CHARGES


@<TRIPOS>ATOM
  1 O        0.0360     0.5240     2.2120 O.2   1 <1>  -0.5700 
  2 C       -0.7730     1.3150     1.7820 C.2   1 <1>   0.5690 
  3 N       -2.1000     0.9680     1.6230 N.am  1 <1>  -0.6600 
  4 C       -0.2450     2.7060     1.4430 C.3   1 <1>   0.0440 
  5 C       -3.1250     1.9120     1.0840 C.3   1 <1>   0.2200 
  6 C       -2.5380    -0.4230     1.9610 C.3   1 <1>   0.0600 
  7 C       -0.3290     3.0440    -0.0490 C.ar  1 <1>  -0.1440 
  8 C       -4.4560     1.9150     1.8360 C.3   1 <1>  -0.1600 
  9 C       -3.5070     1.5960    -0.3600 C.3   1 <1>  -0.1600 
 10 C       -0.9260     4.2160    -0.5110 C.ar  1 <1>   0.0820 
 11 C        0.2170     2.1550    -0.9630 C.ar  1 <1>  -0.1500 
 12 C       -5.4430     2.5340     0.8360 C.3   1 <1>  -0.0800 
 13 C       -4.8450     2.3190    -0.5600 C.3   1 <1>  -0.0800 
 14 O       -1.4570     5.0760     0.3960 O.3   1 <1>  -0.3630 
 15 C       -0.9710     4.4760    -1.8780 C.ar  1 <1>  -0.1500 
 16 C        0.1680     2.4170    -2.3200 C.ar  1 <1>  -0.1500 
 17 C       -6.8370     1.8890     0.7970 C.3   1 <1>  -0.1600 
 18 C       -5.9010     1.5370    -1.3530 C.3   1 <1>  -0.1600 
 19 C       -1.5380     6.4560     0.1140 C.3   1 <1>   0.0400 
 20 C       -0.4260     3.5790    -2.7780 C.ar  1 <1>  -0.1500 
 21 C       -7.2370     1.8720    -0.6830 C.3   1 <1>   0.4230 
 22 N       -7.7260     3.2210    -1.1180 N.4   1 <1>  -0.9590 
 23 C       -8.9610     3.6530    -0.3880 C.3   1 <1>   0.2630 
 24 C       -7.9960     3.2920    -2.5900 C.3   1 <1>   0.2630 
 25 H       -0.7700     3.4180     2.0490 H     1 <1>   0.0800 
 26 H        0.7870     2.7560     1.7360 H     1 <1>   0.0800 
 27 H       -2.7550     2.9190     1.1140 H     1 <1>   0.0800 
 28 H       -3.2750    -0.7730     1.2620 H     1 <1>   0.0800 
 29 H       -2.9520    -0.4390     2.9530 H     1 <1>   0.0800 
 30 H       -1.7030    -1.1030     1.9300 H     1 <1>   0.0800 
 31 H       -4.7580     0.9150     2.0810 H     1 <1>   0.0800 
 32 H       -4.3880     2.4980     2.7380 H     1 <1>   0.0800 
 33 H       -2.7620     1.9550    -1.0480 H     1 <1>   0.0800 
 34 H       -3.6190     0.5360    -0.4880 H     1 <1>   0.0800 
 35 H        0.6850     1.2470    -0.6180 H     1 <1>   0.1500 
 36 H       -5.5220     3.5930     1.0200 H     1 <1>   0.0800 
 37 H       -4.6650     3.2790    -1.0150 H     1 <1>   0.0800 
 38 H       -1.4300     5.3690    -2.2580 H     1 <1>   0.1500 
 39 H        0.5950     1.7170    -3.0170 H     1 <1>   0.1500 
 40 H       -7.5330     2.3790     1.4510 H     1 <1>   0.0800 
 41 H       -6.7670     0.8650     1.1180 H     1 <1>   0.0800 
 42 H       -5.7360     0.4810    -1.2240 H     1 <1>   0.0800 
 43 H       -5.8540     1.7390    -2.4060 H     1 <1>   0.0800 
 44 H       -1.7750     6.9710     1.0270 H     1 <1>   0.0800 
 45 H       -2.3140     6.6230    -0.6110 H     1 <1>   0.0800 
 46 H       -0.5860     6.7920    -0.2590 H     1 <1>   0.0800 
 47 H       -0.4610     3.7820    -3.8340 H     1 <1>   0.1500 
 48 H       -7.9810     1.1170    -0.8830 H     1 <1>   0.0800 
 49 H       -6.9660     3.8790    -0.8940 H     1 <1>   0.4500 
 50 H       -9.7500     2.9310    -0.5250 H     1 <1>   0.0800 
 51 H       -9.3000     4.6060    -0.7610 H     1 <1>   0.0800 
 52 H       -8.7670     3.7580     0.6670 H     1 <1>   0.0800 
 53 H       -8.7190     2.5440    -2.8750 H     1 <1>   0.0800 
 54 H       -7.0930     3.1320    -3.1540 H     1 <1>   0.0800 
 55 H       -8.3850     4.2630    -2.8510 H     1 <1>   0.0800 
@<TRIPOS>BOND
  1   1   2  2   
  2   2   3  am  
  3   2   4  1   
  4   3   5  1   
  5   3   6  1   
  6   4   7  1   
  7   4  25  1   
  8   4  26  1   
  9   5   8  1   
 10   5   9  1   
 11   5  27  1   
 12   6  28  1   
 13   6  29  1   
 14   6  30  1   
 15   7  10  ar  
 16   7  11  ar  
 17   8  12  1   
 18   8  31  1   
 19   8  32  1   
 20   9  13  1   
 21   9  33  1   
 22   9  34  1   
 23  10  14  1   
 24  10  15  ar  
 25  11  16  ar  
 26  11  35  1   
 27  12  13  1   
 28  12  17  1   
 29  12  36  1   
 30  13  18  1   
 31  13  37  1   
 32  14  19  1   
 33  15  20  ar  
 34  15  38  1   
 35  16  20  ar  
 36  16  39  1   
 37  17  21  1   
 38  17  40  1   
 39  17  41  1   
 40  18  21  1   
 41  18  42  1   
 42  18  43  1   
 43  19  44  1   
 44  19  45  1   
 45  19  46  1   
 46  20  47  1   
 47  21  22  1   
 48  21  48  1   
 49  22  23  1   
 50  22  24  1   
 51  22  49  1   
 52  23  50  1   
 53  23  51  1   
 54  23  52  1   
 55  24  53  1   
 56  24  54  1   
 57  24  55  1   
@<TRIPOS>SUBSTRUCTURE
  1 ****   9 GROUP 4 **** **** 0

# MOE 2024.06 (io_trps.svl 2023.06)
