@<TRIPOS>MOLECULE
NONAME
37 38 1 0 0 
SMALL
USER_CHARGES


@<TRIPOS>ATOM
  1 F        0.3290     1.5700    -1.2480 F     1 <1>  -0.3400 
  2 C        0.7410     2.1420    -0.1210 C.3   1 <1>   1.1640 
  3 F        0.1440     1.4690     0.8610 F     1 <1>  -0.3400 
  4 F        2.0360     1.8600    -0.0100 F     1 <1>  -0.3400 
  5 C        0.4520     3.6740    -0.0780 C.ar  1 <1>   0.1660 
  6 N        1.0000     4.4630    -1.0130 N.ar  1 <1>  -0.6200 
  7 C       -0.3650     4.1950     0.9240 C.ar  1 <1>  -0.1500 
  8 C        0.7290     5.7550    -0.9440 C.ar  1 <1>   0.1600 
  9 C       -0.6230     5.5480     0.9840 C.ar  1 <1>  -0.1500 
 10 C       -0.0510     6.3740     0.0290 C.ar  1 <1>   0.0860 
 11 C       -0.2480     7.8060     0.0390 C.2   1 <1>   0.5440 
 12 O       -1.3410     8.2610     0.3080 O.2   1 <1>  -0.5700 
 13 N        0.8150     8.6390    -0.2320 N.am  1 <1>  -0.4940 
 14 C        0.8550    10.0530    -0.3390 C.2   1 <1>  -0.0880 
 15 N        1.9810    10.7860    -0.5570 N.pl3 1 <1>   0.3140 
 16 C       -0.1560    10.9490    -0.2510 C.2   1 <1>  -0.1500 
 17 N        1.7140    12.1100    -0.6120 N.2   1 <1>  -0.7070 
 18 C        3.3570    10.2820    -0.7460 C.3   1 <1>   0.0960 
 19 C        0.4360    12.1920    -0.4260 C.2   1 <1>   0.1080 
 20 C        3.9830     9.8610     0.5920 C.3   1 <1>  -0.1600 
 21 C       -0.2950    13.5140    -0.4080 C.3   1 <1>  -0.0590 
 22 C        5.3760     9.2560     0.3890 C.3   1 <1>  -0.2400 
 23 H       -0.8080     3.5540     1.6670 H     1 <1>   0.1500 
 24 H        1.1540     6.3700    -1.7190 H     1 <1>   0.1500 
 25 H       -1.2550     5.9660     1.7510 H     1 <1>   0.1500 
 26 H        1.7200     8.1740    -0.2910 H     1 <1>   0.3700 
 27 H       -1.2010    10.7590    -0.0820 H     1 <1>   0.1500 
 28 H        3.9410    11.0670    -1.1930 H     1 <1>   0.0800 
 29 H        3.3240     9.4540    -1.4290 H     1 <1>   0.0800 
 30 H        3.3550     9.1400     1.0840 H     1 <1>   0.0800 
 31 H        4.0630    10.7270     1.2270 H     1 <1>   0.0800 
 32 H       -1.3440    13.3600    -0.2400 H     1 <1>   0.0800 
 33 H       -0.1570    14.0120    -1.3500 H     1 <1>   0.0800 
 34 H        0.1030    14.1320     0.3760 H     1 <1>   0.0800 
 35 H        5.3240     8.3720    -0.2240 H     1 <1>   0.0800 
 36 H        5.8020     8.9870     1.3400 H     1 <1>   0.0800 
 37 H        6.0310     9.9680    -0.0840 H     1 <1>   0.0800 
@<TRIPOS>BOND
  1   1   2  1   
  2   2   3  1   
  3   2   4  1   
  4   2   5  1   
  5   5   6  ar  
  6   5   7  ar  
  7   6   8  ar  
  8   7   9  ar  
  9   7  23  1   
 10   8  10  ar  
 11   8  24  1   
 12   9  10  ar  
 13   9  25  1   
 14  10  11  1   
 15  11  12  2   
 16  11  13  am  
 17  13  14  1   
 18  13  26  1   
 19  14  15  1   
 20  14  16  2   
 21  15  17  1   
 22  15  18  1   
 23  16  19  1   
 24  16  27  1   
 25  17  19  2   
 26  18  20  1   
 27  18  28  1   
 28  18  29  1   
 29  19  21  1   
 30  20  22  1   
 31  20  30  1   
 32  20  31  1   
 33  21  32  1   
 34  21  33  1   
 35  21  34  1   
 36  22  35  1   
 37  22  36  1   
 38  22  37  1   
@<TRIPOS>SUBSTRUCTURE
  1 ****  11 GROUP 4 **** **** 0

# MOE 2024.06 (io_trps.svl 2023.06)
