@<TRIPOS>MOLECULE
NONAME
44 47 1 0 0 
SMALL
USER_CHARGES


@<TRIPOS>ATOM
  1 CL       1.0520     0.7190    -1.8560 Cl    1 <1>  -0.1770 
  2 C        1.8860     2.0690    -1.1310 C.ar  1 <1>   0.1770 
  3 C        3.2370     1.9670    -0.8590 C.ar  1 <1>  -0.1500 
  4 C        1.1840     3.2220    -0.8370 C.ar  1 <1>  -0.1500 
  5 C        3.8950     3.0420    -0.2860 C.ar  1 <1>  -0.1500 
  6 C        1.8470     4.2940    -0.2630 C.ar  1 <1>  -0.1500 
  7 C        3.2130     4.2210     0.0160 C.ar  1 <1>  -0.0230 
  8 N        3.9050     5.3260     0.5960 N.pl3 1 <1>   0.5930 
  9 N        4.9710     5.1950     1.4250 N.2   1 <1>  -0.7070 
 10 C        3.6570     6.6470     0.3990 C.2   1 <1>  -0.3020 
 11 C        5.3370     6.3930     1.7420 C.2   1 <1>   0.1390 
 12 C        4.5540     7.3570     1.1180 C.2   1 <1>  -0.1810 
 13 C        4.7270     8.8560     1.2370 C.3   1 <1>   0.5240 
 14 N        6.0320     9.2340     0.6360 N.4   1 <1>  -0.9590 
 15 C        6.4220    10.6590     0.9440 C.3   1 <1>   0.3430 
 16 C        6.1580     8.8060    -0.8020 C.3   1 <1>   0.3430 
 17 C        7.8910    11.0340     0.5950 C.3   1 <1>   0.2200 
 18 C        7.6010     8.8010    -1.3280 C.3   1 <1>  -0.0190 
 19 N        8.0530    11.1820    -0.8700 N.am  1 <1>  -0.7300 
 20 C        8.9370    10.0350     1.1530 C.3   1 <1>   0.1200 
 21 C        7.9460    10.1950    -1.7760 C.2   1 <1>   0.5690 
 22 C        8.6840     8.2180    -0.3920 C.3   1 <1>   0.1200 
 23 O        8.5890     8.6920     0.9260 O.3   1 <1>  -0.5600 
 24 O        8.0900    10.4250    -2.9440 O.2   1 <1>  -0.5700 
 25 H        3.7620     1.0580    -1.0920 H     1 <1>   0.1500 
 26 H        0.1320     3.2730    -1.0550 H     1 <1>   0.1500 
 27 H        4.9470     2.9630    -0.0660 H     1 <1>   0.1500 
 28 H        1.2890     5.1830    -0.0280 H     1 <1>   0.1500 
 29 H        2.8610     6.9810    -0.2420 H     1 <1>   0.1500 
 30 H        6.1620     6.5890     2.4100 H     1 <1>   0.1500 
 31 H        4.7000     9.1360     2.2780 H     1 <1>   0.0800 
 32 H        3.9230     9.3580     0.7240 H     1 <1>   0.0800 
 33 H        6.7640     8.6660     1.1090 H     1 <1>   0.4500 
 34 H        5.7630    11.3380     0.4280 H     1 <1>   0.0800 
 35 H        6.2930    10.8240     2.0010 H     1 <1>   0.0800 
 36 H        5.7830     7.8000    -0.9000 H     1 <1>   0.0800 
 37 H        5.5530     9.4400    -1.4300 H     1 <1>   0.0800 
 38 H        8.0980    11.9970     1.0290 H     1 <1>   0.0800 
 39 H        7.6060     8.1990    -2.2190 H     1 <1>   0.0800 
 40 H        8.3470    12.0960    -1.2350 H     1 <1>   0.3700 
 41 H        9.0070    10.1570     2.2210 H     1 <1>   0.0800 
 42 H        9.9130    10.2230     0.7370 H     1 <1>   0.0800 
 43 H        9.6720     8.4320    -0.7670 H     1 <1>   0.0800 
 44 H        8.5750     7.1480    -0.3450 H     1 <1>   0.0800 
@<TRIPOS>BOND
  1   1   2  1   
  2   2   3  ar  
  3   2   4  ar  
  4   3   5  ar  
  5   3  25  1   
  6   4   6  ar  
  7   4  26  1   
  8   5   7  ar  
  9   5  27  1   
 10   6   7  ar  
 11   6  28  1   
 12   7   8  1   
 13   8   9  1   
 14   8  10  1   
 15   9  11  2   
 16  10  12  2   
 17  10  29  1   
 18  11  12  1   
 19  11  30  1   
 20  12  13  1   
 21  13  14  1   
 22  13  31  1   
 23  13  32  1   
 24  14  15  1   
 25  14  16  1   
 26  14  33  1   
 27  15  17  1   
 28  15  34  1   
 29  15  35  1   
 30  16  18  1   
 31  16  36  1   
 32  16  37  1   
 33  17  19  1   
 34  17  20  1   
 35  17  38  1   
 36  18  21  1   
 37  18  22  1   
 38  18  39  1   
 39  19  21  am  
 40  19  40  1   
 41  20  23  1   
 42  20  41  1   
 43  20  42  1   
 44  21  24  2   
 45  22  23  1   
 46  22  43  1   
 47  22  44  1   
@<TRIPOS>SUBSTRUCTURE
  1 ****  12 GROUP 4 **** **** 0

# MOE 2024.06 (io_trps.svl 2023.06)
