@<TRIPOS>MOLECULE
NONAME
51 54 1 0 0 
SMALL
USER_CHARGES


@<TRIPOS>ATOM
  1 S       -1.0620     0.2560    -0.3060 S.o2  1 <1>   1.2040 
  2 O       -1.5420     1.3910     0.4480 O.2   1 <1>  -0.6500 
  3 O       -0.8530     0.3670    -1.7320 O.2   1 <1>  -0.6500 
  4 C       -2.1440    -1.1600     0.0130 C.ar  1 <1>  -0.0090 
  5 C        0.4790    -0.2600     0.4250 C.3   1 <1>  -0.1350 
  6 C       -2.9120    -1.2340     1.1680 C.ar  1 <1>  -0.1500 
  7 C       -2.2220    -2.2190    -0.8830 C.ar  1 <1>  -0.1500 
  8 C       -3.7410    -2.3140     1.4150 C.ar  1 <1>  -0.1500 
  9 C       -3.0480    -3.3040    -0.6470 C.ar  1 <1>  -0.1500 
 10 C       -3.8240    -3.3530     0.5010 C.ar  1 <1>  -0.1430 
 11 C       -4.7660    -4.5180     0.7380 C.3   1 <1>   0.4860 
 12 N       -5.9630    -4.3080    -0.1180 N.4   1 <1>  -0.9590 
 13 C       -6.7770    -3.1390     0.3680 C.3   1 <1>   0.3430 
 14 C       -6.7950    -5.5380    -0.2310 C.3   1 <1>   0.3430 
 15 C       -7.9480    -2.8180    -0.5760 C.3   1 <1>   0.1430 
 16 C       -7.9380    -5.2940    -1.2210 C.3   1 <1>  -0.1600 
 17 C       -8.7860    -1.7390     0.0640 C.ar  1 <1>   0.1670 
 18 C       -8.8000    -4.0810    -0.8240 C.3   1 <1>  -0.1600 
 19 C       -7.4900    -2.1490    -1.9010 C.3   1 <1>  -0.1600 
 20 N       -9.1880    -1.7570     1.3100 N.ar  1 <1>  -0.6200 
 21 C       -9.0660    -0.7280    -0.8050 C.ar  1 <1>  -0.1430 
 22 C       -8.4580    -0.9760    -2.1630 C.3   1 <1>  -0.0170 
 23 C       -9.9030    -0.6930     1.6530 C.ar  1 <1>   0.7200 
 24 C       -9.8220     0.3200    -0.3380 C.ar  1 <1>   0.1600 
 25 N      -10.2520     0.3430     0.9040 N.ar  1 <1>  -0.6200 
 26 N      -10.3450    -0.6680     2.9100 N.pl3 1 <1>  -0.9000 
 27 H        1.2170     0.5070     0.2990 H     1 <1>   0.0800 
 28 H        0.8360    -1.1560    -0.0460 H     1 <1>   0.0800 
 29 H        0.3540    -0.4440     1.4740 H     1 <1>   0.0800 
 30 H       -2.8660    -0.4260     1.8830 H     1 <1>   0.1500 
 31 H       -1.6300    -2.1880    -1.7850 H     1 <1>   0.1500 
 32 H       -4.3200    -2.3250     2.3250 H     1 <1>   0.1500 
 33 H       -3.0740    -4.1010    -1.3720 H     1 <1>   0.1500 
 34 H       -5.0480    -4.5690     1.7770 H     1 <1>   0.0800 
 35 H       -4.2700    -5.4360     0.4690 H     1 <1>   0.0800 
 36 H       -5.6120    -4.0630    -1.0520 H     1 <1>   0.4500 
 37 H       -6.1580    -2.2610     0.4570 H     1 <1>   0.0800 
 38 H       -7.1790    -3.3580     1.3440 H     1 <1>   0.0800 
 39 H       -7.2060    -5.7920     0.7340 H     1 <1>   0.0800 
 40 H       -6.1940    -6.3660    -0.5730 H     1 <1>   0.0800 
 41 H       -8.5630    -6.1710    -1.2520 H     1 <1>   0.0800 
 42 H       -7.5340    -5.1610    -2.2090 H     1 <1>   0.0800 
 43 H       -9.5390    -3.8860    -1.5830 H     1 <1>   0.0800 
 44 H       -9.3340    -4.3210     0.0820 H     1 <1>   0.0800 
 45 H       -7.4760    -2.8280    -2.7350 H     1 <1>   0.0800 
 46 H       -6.5020    -1.7380    -1.7790 H     1 <1>   0.0800 
 47 H       -9.2300    -1.2630    -2.8570 H     1 <1>   0.0800 
 48 H       -7.9410    -0.1070    -2.5330 H     1 <1>   0.0800 
 49 H      -10.0750     1.1450    -0.9830 H     1 <1>   0.1500 
 50 H      -11.0850     0.0080     3.0860 H     1 <1>   0.4000 
 51 H      -10.4400    -1.5680     3.3710 H     1 <1>   0.4000 
@<TRIPOS>BOND
  1   1   2  2   
  2   1   3  2   
  3   1   4  1   
  4   1   5  1   
  5   4   6  ar  
  6   4   7  ar  
  7   5  27  1   
  8   5  28  1   
  9   5  29  1   
 10   6   8  ar  
 11   6  30  1   
 12   7   9  ar  
 13   7  31  1   
 14   8  10  ar  
 15   8  32  1   
 16   9  10  ar  
 17   9  33  1   
 18  10  11  1   
 19  11  12  1   
 20  11  34  1   
 21  11  35  1   
 22  12  13  1   
 23  12  14  1   
 24  12  36  1   
 25  13  15  1   
 26  13  37  1   
 27  13  38  1   
 28  14  16  1   
 29  14  39  1   
 30  14  40  1   
 31  15  17  1   
 32  15  18  1   
 33  15  19  1   
 34  16  18  1   
 35  16  41  1   
 36  16  42  1   
 37  17  20  ar  
 38  17  21  ar  
 39  18  43  1   
 40  18  44  1   
 41  19  22  1   
 42  19  45  1   
 43  19  46  1   
 44  20  23  ar  
 45  21  22  1   
 46  21  24  ar  
 47  22  47  1   
 48  22  48  1   
 49  23  25  ar  
 50  23  26  1   
 51  24  25  ar  
 52  24  49  1   
 53  26  50  1   
 54  26  51  1   
@<TRIPOS>SUBSTRUCTURE
  1 ****  13 GROUP 4 **** **** 0

# MOE 2024.06 (io_trps.svl 2023.06)
