@<TRIPOS>MOLECULE
NONAME
21 22 1 0 0 
SMALL
USER_CHARGES


@<TRIPOS>ATOM
  1 F       -0.1030    -0.6890     0.5510 F     1 <1>  -0.1900 
  2 C       -1.1830    -1.3880     0.3280 C.ar  1 <1>   0.1900 
  3 C       -2.2840    -1.1930     1.1410 C.ar  1 <1>  -0.1500 
  4 C       -1.1860    -2.2960    -0.7140 C.ar  1 <1>  -0.1500 
  5 C       -3.4240    -1.9420     0.8990 C.ar  1 <1>  -0.1500 
  6 C       -2.3340    -3.0380    -0.9420 C.ar  1 <1>  -0.1500 
  7 C       -3.4500    -2.8710    -0.1320 C.ar  1 <1>  -0.0320 
  8 C       -4.7100    -3.6960    -0.3760 C.3   1 <1>  -0.1150 
  9 C       -5.7930    -2.9380    -1.1110 C.2   1 <1>   0.9470 
 10 C       -5.2130    -4.6280     0.6740 C.3   1 <1>   0.4630 
 11 C       -4.5610    -5.1850    -0.5440 C.3   1 <1>  -0.2000 
 12 O       -6.3860    -2.0220    -0.5300 O.co2 1 <1>  -0.9000 
 13 O       -6.0460    -3.2570    -2.2790 O.co2 1 <1>  -0.9000 
 14 F       -6.5000    -4.8770     0.8770 F     1 <1>  -0.2320 
 15 F       -4.5950    -4.7450     1.8450 F     1 <1>  -0.2320 
 16 H       -2.2530    -0.4710     1.9360 H     1 <1>   0.1500 
 17 H       -0.3150    -2.4150    -1.3310 H     1 <1>   0.1500 
 18 H       -4.3060    -1.8030     1.5030 H     1 <1>   0.1500 
 19 H       -2.3700    -3.7420    -1.7540 H     1 <1>   0.1500 
 20 H       -3.5840    -5.6180    -0.4500 H     1 <1>   0.1000 
 21 H       -5.1610    -5.6380    -1.3120 H     1 <1>   0.1000 
@<TRIPOS>BOND
  1   1   2  1   
  2   2   3  ar  
  3   2   4  ar  
  4   3   5  ar  
  5   3  16  1   
  6   4   6  ar  
  7   4  17  1   
  8   5   7  ar  
  9   5  18  1   
 10   6   7  ar  
 11   6  19  1   
 12   7   8  1   
 13   8   9  1   
 14   8  10  1   
 15   8  11  1   
 16   9  12  ar  
 17   9  13  ar  
 18  10  11  1   
 19  10  14  1   
 20  10  15  1   
 21  11  20  1   
 22  11  21  1   
@<TRIPOS>SUBSTRUCTURE
  1 ****   7 GROUP 4 **** **** 0

# MOE 2024.06 (io_trps.svl 2023.06)
