@<TRIPOS>MOLECULE
NONAME
44 45 1 0 0 
SMALL
USER_CHARGES


@<TRIPOS>ATOM
  1 CL       1.0040    -2.0260     4.3180 Cl    1 <1>  -0.1770 
  2 C        1.2660    -2.1200     2.5960 C.ar  1 <1>   0.1770 
  3 C        1.2770    -3.3570     1.9850 C.ar  1 <1>  -0.1500 
  4 C        1.4530    -0.9560     1.8760 C.ar  1 <1>  -0.1500 
  5 C        1.4830    -3.4610     0.6100 C.ar  1 <1>   0.0860 
  6 C        1.6540    -1.0330     0.5090 C.ar  1 <1>  -0.1440 
  7 C        1.4960    -4.7470    -0.0620 C.2   1 <1>   0.5440 
  8 C        1.6650    -2.2750    -0.1060 C.ar  1 <1>  -0.1500 
  9 C        1.8560     0.2360    -0.3010 C.3   1 <1>  -0.0960 
 10 O        1.0830    -4.8580    -1.2010 O.2   1 <1>  -0.5700 
 11 N        1.9450    -5.8670     0.5760 N.am  1 <1>  -0.7300 
 12 C        1.7450    -7.2400     0.0620 C.3   1 <1>   0.2200 
 13 C        0.3110    -7.6670     0.3610 C.3   1 <1>  -0.0800 
 14 C        2.5940    -8.2600     0.8200 C.3   1 <1>   0.1200 
 15 C        0.4680    -8.9220     1.2180 C.3   1 <1>   0.1200 
 16 C       -0.5100    -7.8700    -0.9240 C.3   1 <1>  -0.0550 
 17 O        1.7450    -8.8310     1.7610 O.3   1 <1>  -0.5600 
 18 S       -2.2780    -7.9580    -0.6370 S.o2  1 <1>   1.3330 
 19 O       -2.5200    -9.0290     0.3050 O.2   1 <1>  -0.6500 
 20 O       -2.9650    -7.9590    -1.9080 O.2   1 <1>  -0.6500 
 21 N       -2.6430    -6.4940     0.1400 N.am  1 <1>  -0.8490 
 22 C       -3.9560    -6.5380     0.7880 C.3   1 <1>   0.1160 
 23 C       -2.5630    -5.3260    -0.7470 C.3   1 <1>   0.1160 
 24 H        1.1140    -4.2330     2.5840 H     1 <1>   0.1500 
 25 H        1.4370    -0.0090     2.3840 H     1 <1>   0.1500 
 26 H        1.8150    -2.3420    -1.1710 H     1 <1>   0.1500 
 27 H        2.2800     0.0120    -1.2640 H     1 <1>   0.0800 
 28 H        2.5210     0.9050     0.2150 H     1 <1>   0.0800 
 29 H        0.9110     0.7290    -0.4480 H     1 <1>   0.0800 
 30 H        2.2260    -5.8180     1.5570 H     1 <1>   0.3700 
 31 H        1.9800    -7.2700    -0.9890 H     1 <1>   0.0800 
 32 H       -0.1700    -6.9220     0.9700 H     1 <1>   0.0800 
 33 H        3.4400    -7.8190     1.3160 H     1 <1>   0.0800 
 34 H        2.9220    -9.0430     0.1590 H     1 <1>   0.0800 
 35 H        0.4200    -9.8220     0.6280 H     1 <1>   0.0800 
 36 H       -0.2560    -8.9700     2.0140 H     1 <1>   0.0800 
 37 H       -0.1840    -8.7610    -1.4230 H     1 <1>   0.0800 
 38 H       -0.3190    -7.0480    -1.5860 H     1 <1>   0.0800 
 39 H       -4.1510    -5.6120     1.3000 H     1 <1>   0.0800 
 40 H       -3.9820    -7.3360     1.5110 H     1 <1>   0.0800 
 41 H       -4.7280    -6.7090     0.0560 H     1 <1>   0.0800 
 42 H       -2.7610    -4.4260    -0.1910 H     1 <1>   0.0800 
 43 H       -3.2800    -5.4100    -1.5470 H     1 <1>   0.0800 
 44 H       -1.5780    -5.2440    -1.1720 H     1 <1>   0.0800 
@<TRIPOS>BOND
  1   1   2  1   
  2   2   3  ar  
  3   2   4  ar  
  4   3   5  ar  
  5   3  24  1   
  6   4   6  ar  
  7   4  25  1   
  8   5   7  1   
  9   5   8  ar  
 10   6   8  ar  
 11   6   9  1   
 12   7  10  2   
 13   7  11  am  
 14   8  26  1   
 15   9  27  1   
 16   9  28  1   
 17   9  29  1   
 18  11  12  1   
 19  11  30  1   
 20  12  13  1   
 21  12  14  1   
 22  12  31  1   
 23  13  15  1   
 24  13  16  1   
 25  13  32  1   
 26  14  17  1   
 27  14  33  1   
 28  14  34  1   
 29  15  17  1   
 30  15  35  1   
 31  15  36  1   
 32  16  18  1   
 33  16  37  1   
 34  16  38  1   
 35  18  19  2   
 36  18  20  2   
 37  18  21  am  
 38  21  22  1   
 39  21  23  1   
 40  22  39  1   
 41  22  40  1   
 42  22  41  1   
 43  23  42  1   
 44  23  43  1   
 45  23  44  1   
@<TRIPOS>SUBSTRUCTURE
  1 ****   7 GROUP 4 **** **** 0

# MOE 2024.06 (io_trps.svl 2023.06)
