@<TRIPOS>MOLECULE
NONAME
54 56 1 0 0 
SMALL
USER_CHARGES


@<TRIPOS>ATOM
  1 O        2.5180    -4.5330     0.9810 O.3   1 <1>  -0.6800 
  2 C        1.2420    -4.2610     0.5210 C.3   1 <1>   0.2000 
  3 C        1.2510    -4.3130    -1.0000 C.3   1 <1>  -0.1600 
  4 C        0.8990    -2.8110     0.8420 C.3   1 <1>  -0.1600 
  5 C        1.7170    -2.9280    -1.4800 C.3   1 <1>  -0.0800 
  6 C        1.4200    -1.9540    -0.3260 C.3   1 <1>  -0.0800 
  7 C        3.2330    -2.8470    -1.7280 C.3   1 <1>  -0.1600 
  8 C        2.7460    -1.2520    -0.0070 C.3   1 <1>  -0.1600 
  9 C        3.8290    -2.2190    -0.4700 C.3   1 <1>   0.4230 
 10 N        5.1140    -1.5240    -0.7480 N.4   1 <1>  -0.9590 
 11 C        5.6480    -0.8500     0.4710 C.3   1 <1>   0.4860 
 12 C        6.1400    -2.4480    -1.3270 C.3   1 <1>   0.2630 
 13 C        6.8110     0.0340     0.0670 C.ar  1 <1>  -0.1430 
 14 C        6.5860     1.2240    -0.6100 C.ar  1 <1>  -0.1500 
 15 C        8.1130    -0.3410     0.3670 C.ar  1 <1>  -0.1500 
 16 C        7.6510     2.0200    -0.9920 C.ar  1 <1>  -0.1500 
 17 C        9.1740     0.4590    -0.0170 C.ar  1 <1>  -0.1500 
 18 C        8.9510     1.6430    -0.6990 C.ar  1 <1>  -0.1430 
 19 C       10.1190     2.5260    -1.1220 C.3   1 <1>  -0.0170 
 20 C       10.2790     3.7630    -0.2180 C.3   1 <1>  -0.0800 
 21 C       11.3990     4.6680    -0.7490 C.3   1 <1>  -0.2400 
 22 C       10.5780     3.3750     1.2370 C.3   1 <1>  -0.2400 
 23 H        2.6530    -5.5020     1.0020 H     1 <1>   0.4000 
 24 H        0.5540    -4.9580     0.9710 H     1 <1>   0.0800 
 25 H        1.8380    -5.1290    -1.3850 H     1 <1>   0.0800 
 26 H        0.2360    -4.4550    -1.3280 H     1 <1>   0.0800 
 27 H       -0.1730    -2.7270     0.8650 H     1 <1>   0.0800 
 28 H        1.2710    -2.5150     1.8080 H     1 <1>   0.0800 
 29 H        1.1830    -2.6520    -2.3750 H     1 <1>   0.0800 
 30 H        0.6720    -1.2290    -0.6050 H     1 <1>   0.0800 
 31 H        3.4010    -2.2050    -2.5740 H     1 <1>   0.0800 
 32 H        3.6560    -3.8150    -1.9240 H     1 <1>   0.0800 
 33 H        2.8270    -1.0210     1.0390 H     1 <1>   0.0800 
 34 H        2.7930    -0.3430    -0.5820 H     1 <1>   0.0800 
 35 H        3.9680    -2.9810     0.2780 H     1 <1>   0.0800 
 36 H        4.9340    -0.7820    -1.4340 H     1 <1>   0.4500 
 37 H        4.8880    -0.2370     0.9250 H     1 <1>   0.0800 
 38 H        5.9710    -1.5830     1.1920 H     1 <1>   0.0800 
 39 H        6.3660    -3.2410    -0.6330 H     1 <1>   0.0800 
 40 H        7.0490    -1.9100    -1.5450 H     1 <1>   0.0800 
 41 H        5.7790    -2.8850    -2.2440 H     1 <1>   0.0800 
 42 H        5.5870     1.5510    -0.8440 H     1 <1>   0.1500 
 43 H        8.3180    -1.2520     0.9030 H     1 <1>   0.1500 
 44 H        7.4680     2.9430    -1.5160 H     1 <1>   0.1500 
 45 H       10.1810     0.1600     0.2230 H     1 <1>   0.1500 
 46 H       11.0300     1.9550    -1.1130 H     1 <1>   0.0800 
 47 H        9.9550     2.8470    -2.1360 H     1 <1>   0.0800 
 48 H        9.3590     4.3230    -0.2370 H     1 <1>   0.0800 
 49 H       12.3420     4.1500    -0.7420 H     1 <1>   0.0800 
 50 H       11.4880     5.5490    -0.1390 H     1 <1>   0.0800 
 51 H       11.1850     4.9780    -1.7570 H     1 <1>   0.0800 
 52 H       11.4770     2.7870     1.2960 H     1 <1>   0.0800 
 53 H        9.7660     2.8040     1.6500 H     1 <1>   0.0800 
 54 H       10.7040     4.2560     1.8400 H     1 <1>   0.0800 
@<TRIPOS>BOND
  1   1   2  1   
  2   1  23  1   
  3   2   3  1   
  4   2   4  1   
  5   2  24  1   
  6   3   5  1   
  7   3  25  1   
  8   3  26  1   
  9   4   6  1   
 10   4  27  1   
 11   4  28  1   
 12   5   6  1   
 13   5   7  1   
 14   5  29  1   
 15   6   8  1   
 16   6  30  1   
 17   7   9  1   
 18   7  31  1   
 19   7  32  1   
 20   8   9  1   
 21   8  33  1   
 22   8  34  1   
 23   9  10  1   
 24   9  35  1   
 25  10  11  1   
 26  10  12  1   
 27  10  36  1   
 28  11  13  1   
 29  11  37  1   
 30  11  38  1   
 31  12  39  1   
 32  12  40  1   
 33  12  41  1   
 34  13  14  ar  
 35  13  15  ar  
 36  14  16  ar  
 37  14  42  1   
 38  15  17  ar  
 39  15  43  1   
 40  16  18  ar  
 41  16  44  1   
 42  17  18  ar  
 43  17  45  1   
 44  18  19  1   
 45  19  20  1   
 46  19  46  1   
 47  19  47  1   
 48  20  21  1   
 49  20  22  1   
 50  20  48  1   
 51  21  49  1   
 52  21  50  1   
 53  21  51  1   
 54  22  52  1   
 55  22  53  1   
 56  22  54  1   
@<TRIPOS>SUBSTRUCTURE
  1 ****  11 GROUP 4 **** **** 0

# MOE 2024.06 (io_trps.svl 2023.06)
