@<TRIPOS>MOLECULE
NONAME
54 57 1 0 0 
SMALL
USER_CHARGES


@<TRIPOS>ATOM
  1 O       -0.8400    -0.2370     0.7180 O.3   1 <1>  -0.3630 
  2 C       -1.6200     0.8560     0.9370 C.ar  1 <1>   0.0820 
  3 C        0.3370    -0.2110    -0.0660 C.3   1 <1>   0.2000 
  4 C       -2.8510     0.6420     1.5510 C.ar  1 <1>  -0.1440 
  5 C       -1.2480     2.1460     0.5690 C.ar  1 <1>  -0.1500 
  6 C       -0.0480    -0.2000    -1.5450 C.3   1 <1>  -0.1600 
  7 C        1.0230    -1.5600     0.1070 C.3   1 <1>  -0.1600 
  8 C       -3.6970     1.7130     1.7940 C.ar  1 <1>  -0.1500 
  9 C       -3.2610    -0.7640     1.9420 C.3   1 <1>   0.4860 
 10 C       -2.1000     3.2080     0.8140 C.ar  1 <1>  -0.1500 
 11 C       -0.3900    -1.6530    -1.8960 C.3   1 <1>  -0.1600 
 12 C        0.2820    -2.5250    -0.8260 C.3   1 <1>  -0.1600 
 13 C       -3.3220     2.9920     1.4250 C.ar  1 <1>  -0.1500 
 14 N       -3.2770    -1.5870     0.7080 N.4   1 <1>  -0.9590 
 15 C       -4.3170    -1.2010    -0.2790 C.3   1 <1>   0.3430 
 16 C       -3.3590    -3.0540     0.9210 C.3   1 <1>   0.3430 
 17 C       -4.4730    -2.4360    -1.1650 C.3   1 <1>   0.2000 
 18 C       -4.1240    -3.6350    -0.2790 C.3   1 <1>  -0.0800 
 19 O       -5.7600    -2.5590    -1.6630 O.3   1 <1>  -0.6800 
 20 C       -3.3370    -4.7080    -1.0580 C.3   1 <1>  -0.0170 
 21 C       -3.0420    -5.9400    -0.2140 C.ar  1 <1>   0.1670 
 22 N       -2.1800    -5.7800     0.7790 N.ar  1 <1>  -0.6200 
 23 C       -3.6620    -7.1540    -0.5070 C.ar  1 <1>   0.1600 
 24 C       -1.9720    -6.9080     1.4430 C.ar  1 <1>   0.1600 
 25 N       -3.4650    -8.2750     0.1650 N.ar  1 <1>  -0.6200 
 26 C       -2.5950    -8.1140     1.1470 C.ar  1 <1>   0.1600 
 27 H        0.9650     0.6070     0.2420 H     1 <1>   0.0800 
 28 H       -0.3060     2.3480     0.0960 H     1 <1>   0.1500 
 29 H       -0.8500     0.4820    -1.7660 H     1 <1>   0.0800 
 30 H        0.8160     0.0980    -2.1150 H     1 <1>   0.0800 
 31 H        2.0430    -1.4690    -0.2260 H     1 <1>   0.0800 
 32 H        1.0250    -1.8880     1.1310 H     1 <1>   0.0800 
 33 H       -4.6520     1.5700     2.2730 H     1 <1>   0.1500 
 34 H       -4.2320    -0.7610     2.4090 H     1 <1>   0.0800 
 35 H       -2.5380    -1.1580     2.6380 H     1 <1>   0.0800 
 36 H       -1.8120     4.2070     0.5300 H     1 <1>   0.1500 
 37 H       -1.4540    -1.7990    -1.8750 H     1 <1>   0.0800 
 38 H       -0.0280    -1.8990    -2.8810 H     1 <1>   0.0800 
 39 H        0.9690    -3.2280    -1.2680 H     1 <1>   0.0800 
 40 H       -0.4590    -3.0730    -0.2720 H     1 <1>   0.0800 
 41 H       -3.9790     3.8260     1.6150 H     1 <1>   0.1500 
 42 H       -2.3510    -1.3780     0.2860 H     1 <1>   0.4500 
 43 H       -5.2470    -1.0000     0.2260 H     1 <1>   0.0800 
 44 H       -4.0140    -0.3390    -0.8510 H     1 <1>   0.0800 
 45 H       -2.3670    -3.4700     0.9930 H     1 <1>   0.0800 
 46 H       -3.8940    -3.2770     1.8290 H     1 <1>   0.0800 
 47 H       -3.8030    -2.3550    -2.0050 H     1 <1>   0.0800 
 48 H       -5.0230    -4.0850     0.1070 H     1 <1>   0.0800 
 49 H       -6.4150    -2.8040    -0.9780 H     1 <1>   0.4000 
 50 H       -2.4040    -4.3040    -1.4100 H     1 <1>   0.0800 
 51 H       -3.9060    -4.9980    -1.9250 H     1 <1>   0.0800 
 52 H       -4.3510    -7.2060    -1.3320 H     1 <1>   0.1500 
 53 H       -1.2750    -6.8810     2.2620 H     1 <1>   0.1500 
 54 H       -2.3640    -8.9780     1.7440 H     1 <1>   0.1500 
@<TRIPOS>BOND
  1   1   2  1   
  2   1   3  1   
  3   2   4  ar  
  4   2   5  ar  
  5   3   6  1   
  6   3   7  1   
  7   3  27  1   
  8   4   8  ar  
  9   4   9  1   
 10   5  10  ar  
 11   5  28  1   
 12   6  11  1   
 13   6  29  1   
 14   6  30  1   
 15   7  12  1   
 16   7  31  1   
 17   7  32  1   
 18   8  13  ar  
 19   8  33  1   
 20   9  14  1   
 21   9  34  1   
 22   9  35  1   
 23  10  13  ar  
 24  10  36  1   
 25  11  12  1   
 26  11  37  1   
 27  11  38  1   
 28  12  39  1   
 29  12  40  1   
 30  13  41  1   
 31  14  15  1   
 32  14  16  1   
 33  14  42  1   
 34  15  17  1   
 35  15  43  1   
 36  15  44  1   
 37  16  18  1   
 38  16  45  1   
 39  16  46  1   
 40  17  18  1   
 41  17  19  1   
 42  17  47  1   
 43  18  20  1   
 44  18  48  1   
 45  19  49  1   
 46  20  21  1   
 47  20  50  1   
 48  20  51  1   
 49  21  22  ar  
 50  21  23  ar  
 51  22  24  ar  
 52  23  25  ar  
 53  23  52  1   
 54  24  26  ar  
 55  24  53  1   
 56  25  26  ar  
 57  26  54  1   
@<TRIPOS>SUBSTRUCTURE
  1 ****  14 GROUP 4 **** **** 0

# MOE 2024.06 (io_trps.svl 2023.06)
