@<TRIPOS>MOLECULE
NONAME
54 57 1 0 0 
SMALL
USER_CHARGES


@<TRIPOS>ATOM
  1 O       -3.5150     0.6760    -2.1880 O.2   1 <1>  -0.5700 
  2 C       -2.9400     0.8200    -1.1260 C.2   1 <1>   0.5440 
  3 N       -2.6520    -0.3130    -0.3940 N.am  1 <1>  -0.6600 
  4 C       -2.6210     2.1520    -0.6440 C.ar  1 <1>   0.0860 
  5 C       -2.9700    -0.4050     1.0480 C.3   1 <1>   0.1400 
  6 C       -2.4860    -1.6190    -1.0750 C.3   1 <1>   0.1400 
  7 C       -3.4080     3.2540    -0.9460 C.ar  1 <1>  -0.1500 
  8 C       -1.5090     2.4290     0.1400 C.ar  1 <1>  -0.1500 
  9 C       -4.3080    -1.1350     1.1840 C.3   1 <1>  -0.1600 
 10 C       -3.8090    -2.3790    -0.9880 C.3   1 <1>  -0.1600 
 11 C       -3.0790     4.5040    -0.4590 C.ar  1 <1>   0.1600 
 12 C       -1.2650     3.7160     0.5790 C.ar  1 <1>   0.1600 
 13 C       -4.2880    -2.4890     0.4640 C.3   1 <1>   0.4230 
 14 N       -2.0300     4.7590     0.3040 N.ar  1 <1>  -0.6200 
 15 N       -5.6640    -3.0270     0.4830 N.4   1 <1>  -0.9060 
 16 C       -5.8130    -4.4570     0.0930 C.3   1 <1>   0.4230 
 17 C       -7.2940    -4.8330     0.0280 C.3   1 <1>  -0.0800 
 18 C       -5.3870    -5.3150     1.2780 C.3   1 <1>   0.1200 
 19 C       -7.6360    -5.1580     1.4920 C.3   1 <1>   0.1200 
 20 C       -8.2510    -3.8190    -0.6330 C.3   1 <1>  -0.0170 
 21 O       -6.4210    -5.1090     2.1820 O.3   1 <1>  -0.5600 
 22 C       -9.6550    -4.3930    -0.7140 C.ar  1 <1>  -0.1430 
 23 C      -10.6420    -4.0560     0.1920 C.ar  1 <1>  -0.1500 
 24 C      -10.0160    -5.2870    -1.7030 C.ar  1 <1>  -0.1500 
 25 C      -11.9020    -4.6200     0.0730 C.ar  1 <1>   0.1600 
 26 C      -11.3050    -5.7920    -1.7330 C.ar  1 <1>   0.1600 
 27 N      -12.2530    -5.4820    -0.8650 N.ar  1 <1>  -0.6200 
 28 H       -2.1850    -0.9390     1.5570 H     1 <1>   0.0800 
 29 H       -3.0470     0.5780     1.4840 H     1 <1>   0.0800 
 30 H       -2.2150    -1.4640    -2.1080 H     1 <1>   0.0800 
 31 H       -1.6910    -2.1710    -0.6020 H     1 <1>   0.0800 
 32 H       -4.2770     3.1320    -1.5670 H     1 <1>   0.1500 
 33 H       -0.8280     1.6410     0.4030 H     1 <1>   0.1500 
 34 H       -5.0720    -0.5020     0.7670 H     1 <1>   0.0800 
 35 H       -4.5150    -1.2780     2.2300 H     1 <1>   0.0800 
 36 H       -3.6610    -3.3540    -1.4150 H     1 <1>   0.0800 
 37 H       -4.5310    -1.8490    -1.5850 H     1 <1>   0.0800 
 38 H       -3.7120     5.3400    -0.7090 H     1 <1>   0.1500 
 39 H       -0.3960     3.9030     1.1870 H     1 <1>   0.1500 
 40 H       -3.6250    -3.1490     1.0020 H     1 <1>   0.0800 
 41 H       -6.2540    -2.4290    -0.1020 H     1 <1>   0.4500 
 42 H       -6.0280    -2.9820     1.4470 H     1 <1>   0.4500 
 43 H       -5.2830    -4.6880    -0.8170 H     1 <1>   0.0800 
 44 H       -7.3690    -5.7560    -0.5220 H     1 <1>   0.0800 
 45 H       -4.4510    -5.0230     1.7210 H     1 <1>   0.0800 
 46 H       -5.3600    -6.3620     1.0220 H     1 <1>   0.0800 
 47 H       -8.0540    -6.1470     1.5920 H     1 <1>   0.0800 
 48 H       -8.3040    -4.4400     1.9380 H     1 <1>   0.0800 
 49 H       -7.9150    -3.5920    -1.6300 H     1 <1>   0.0800 
 50 H       -8.2880    -2.8990    -0.0760 H     1 <1>   0.0800 
 51 H      -10.4550    -3.3610     0.9900 H     1 <1>   0.1500 
 52 H       -9.3150    -5.5980    -2.4550 H     1 <1>   0.1500 
 53 H      -12.6610    -4.3470     0.7870 H     1 <1>   0.1500 
 54 H      -11.5720    -6.4880    -2.5100 H     1 <1>   0.1500 
@<TRIPOS>BOND
  1   1   2  2   
  2   2   3  am  
  3   2   4  1   
  4   3   5  1   
  5   3   6  1   
  6   4   7  ar  
  7   4   8  ar  
  8   5   9  1   
  9   5  28  1   
 10   5  29  1   
 11   6  10  1   
 12   6  30  1   
 13   6  31  1   
 14   7  11  ar  
 15   7  32  1   
 16   8  12  ar  
 17   8  33  1   
 18   9  13  1   
 19   9  34  1   
 20   9  35  1   
 21  10  13  1   
 22  10  36  1   
 23  10  37  1   
 24  11  14  ar  
 25  11  38  1   
 26  12  14  ar  
 27  12  39  1   
 28  13  15  1   
 29  13  40  1   
 30  15  16  1   
 31  15  41  1   
 32  15  42  1   
 33  16  17  1   
 34  16  18  1   
 35  16  43  1   
 36  17  19  1   
 37  17  20  1   
 38  17  44  1   
 39  18  21  1   
 40  18  45  1   
 41  18  46  1   
 42  19  21  1   
 43  19  47  1   
 44  19  48  1   
 45  20  22  1   
 46  20  49  1   
 47  20  50  1   
 48  22  23  ar  
 49  22  24  ar  
 50  23  25  ar  
 51  23  51  1   
 52  24  26  ar  
 53  24  52  1   
 54  25  27  ar  
 55  25  53  1   
 56  26  27  ar  
 57  26  54  1   
@<TRIPOS>SUBSTRUCTURE
  1 ****  15 GROUP 4 **** **** 0

# MOE 2024.06 (io_trps.svl 2023.06)
