@<TRIPOS>MOLECULE
NONAME
53 56 1 0 0 
SMALL
USER_CHARGES


@<TRIPOS>ATOM
  1 O        0.4520    -0.4300    -1.0510 O.2   1 <1>  -0.5700 
  2 C        1.3560    -0.6790    -0.2850 C.2   1 <1>   0.5690 
  3 N        2.2290     0.2910     0.1440 N.am  1 <1>  -0.4940 
  4 C        1.5790    -2.1170     0.2570 C.3   1 <1>   0.3950 
  5 C        2.3600     1.6640    -0.1600 C.2   1 <1>  -0.0880 
  6 N        2.6120    -2.9050    -0.4850 N.3   1 <1>  -0.8100 
  7 C        0.2760    -2.9140     0.3370 C.ar  1 <1>  -0.1440 
  8 N        1.4020     2.5720    -0.4870 N.pl3 1 <1>   0.3140 
  9 C        3.5440     2.3350    -0.1330 C.2   1 <1>  -0.0540 
 10 C        3.9170    -2.2660    -0.6150 C.3   1 <1>   0.1100 
 11 C        2.8690    -4.2260     0.0890 C.3   1 <1>   0.1100 
 12 C       -0.3220    -3.1570     1.5650 C.ar  1 <1>   0.1600 
 13 C       -0.3310    -3.4140    -0.8000 C.ar  1 <1>  -0.1500 
 14 N        1.9340     3.8040    -0.6590 N.2   1 <1>  -0.7070 
 15 C       -0.0520     2.3900    -0.5980 C.3   1 <1>   0.0160 
 16 C        4.8450     1.7930     0.1530 C.ar  1 <1>   0.0540 
 17 C        3.2000     3.6510    -0.4530 C.2   1 <1>   0.1080 
 18 C        4.8530    -3.3900    -1.0350 C.3   1 <1>  -0.1600 
 19 C        4.1950    -4.6690    -0.5190 C.3   1 <1>  -0.1600 
 20 N       -1.4390    -3.8420     1.7490 N.ar  1 <1>  -0.6200 
 21 C       -1.4980    -4.1280    -0.6310 C.ar  1 <1>  -0.1500 
 22 C        5.4680     0.9380    -0.7510 C.ar  1 <1>  -0.1500 
 23 C        5.5030     2.0850     1.3440 C.ar  1 <1>  -0.1500 
 24 C        4.1760     4.8010    -0.5590 C.3   1 <1>  -0.0590 
 25 C       -2.0000    -4.3100     0.6460 C.ar  1 <1>   0.1600 
 26 C        6.7030     0.3820    -0.4730 C.ar  1 <1>  -0.1500 
 27 C        6.7390     1.5330     1.6270 C.ar  1 <1>  -0.1500 
 28 C        7.3400     0.6780     0.7190 C.ar  1 <1>  -0.1500 
 29 H        3.0330    -0.0700     0.6580 H     1 <1>   0.3700 
 30 H        1.9380    -2.0000     1.2640 H     1 <1>   0.0800 
 31 H        4.2370    -1.8700     0.3340 H     1 <1>   0.0800 
 32 H        3.8920    -1.4830    -1.3550 H     1 <1>   0.0800 
 33 H        2.0760    -4.9140    -0.1540 H     1 <1>   0.0800 
 34 H        2.9670    -4.1530     1.1590 H     1 <1>   0.0800 
 35 H        0.1420    -2.7690     2.4560 H     1 <1>   0.1500 
 36 H        0.0960    -3.2470    -1.7750 H     1 <1>   0.1500 
 37 H       -0.3870     1.7190     0.1700 H     1 <1>   0.0800 
 38 H       -0.2790     1.9810    -1.5640 H     1 <1>   0.0800 
 39 H       -0.5370     3.3400    -0.4850 H     1 <1>   0.0800 
 40 H        5.8380    -3.2450    -0.6280 H     1 <1>   0.0800 
 41 H        4.9170    -3.4170    -2.1080 H     1 <1>   0.0800 
 42 H        4.0120    -5.3480    -1.3340 H     1 <1>   0.0800 
 43 H        4.8020    -5.1640     0.2180 H     1 <1>   0.0800 
 44 H       -2.0130    -4.5380    -1.4800 H     1 <1>   0.1500 
 45 H        4.9730     0.7160    -1.6810 H     1 <1>   0.1500 
 46 H        5.0360     2.7490     2.0490 H     1 <1>   0.1500 
 47 H        5.1400     4.4470    -0.8740 H     1 <1>   0.0800 
 48 H        4.2690     5.2830     0.3960 H     1 <1>   0.0800 
 49 H        3.8160     5.5150    -1.2770 H     1 <1>   0.0800 
 50 H       -2.9120    -4.8700     0.7650 H     1 <1>   0.1500 
 51 H        7.1720    -0.2760    -1.1850 H     1 <1>   0.1500 
 52 H        7.2360     1.7680     2.5530 H     1 <1>   0.1500 
 53 H        8.3030     0.2480     0.9390 H     1 <1>   0.1500 
@<TRIPOS>BOND
  1   1   2  2   
  2   2   3  am  
  3   2   4  1   
  4   3   5  1   
  5   3  29  1   
  6   4   6  1   
  7   4   7  1   
  8   4  30  1   
  9   5   8  1   
 10   5   9  2   
 11   6  10  1   
 12   6  11  1   
 13   7  12  ar  
 14   7  13  ar  
 15   8  14  1   
 16   8  15  1   
 17   9  16  1   
 18   9  17  1   
 19  10  18  1   
 20  10  31  1   
 21  10  32  1   
 22  11  19  1   
 23  11  33  1   
 24  11  34  1   
 25  12  20  ar  
 26  12  35  1   
 27  13  21  ar  
 28  13  36  1   
 29  14  17  2   
 30  15  37  1   
 31  15  38  1   
 32  15  39  1   
 33  16  22  ar  
 34  16  23  ar  
 35  17  24  1   
 36  18  19  1   
 37  18  40  1   
 38  18  41  1   
 39  19  42  1   
 40  19  43  1   
 41  20  25  ar  
 42  21  25  ar  
 43  21  44  1   
 44  22  26  ar  
 45  22  45  1   
 46  23  27  ar  
 47  23  46  1   
 48  24  47  1   
 49  24  48  1   
 50  24  49  1   
 51  25  50  1   
 52  26  28  ar  
 53  26  51  1   
 54  27  28  ar  
 55  27  52  1   
 56  28  53  1   
@<TRIPOS>SUBSTRUCTURE
  1 ****   3 GROUP 4 **** **** 0

# MOE 2024.06 (io_trps.svl 2023.06)
