@<TRIPOS>MOLECULE
NONAME
43 45 1 0 0 
SMALL
USER_CHARGES


@<TRIPOS>ATOM
  1 CL      -2.8910    -1.0150    -2.2740 Cl    1 <1>  -0.1770 
  2 C       -2.7680     0.2780    -1.1040 C.ar  1 <1>   0.1770 
  3 C       -3.0220     0.0330     0.2350 C.ar  1 <1>   0.0860 
  4 C       -2.4290     1.5470    -1.5360 C.ar  1 <1>   0.1600 
  5 C       -3.3810    -1.2720     0.7290 C.2   1 <1>   0.5440 
  6 C       -2.9090     1.1410     1.0650 C.ar  1 <1>  -0.1500 
  7 N       -2.3250     2.6050    -0.7420 N.ar  1 <1>  -0.6200 
  8 O       -2.5060    -2.0800     0.9710 O.2   1 <1>  -0.5700 
  9 N       -4.6940    -1.6330     0.9270 N.am  1 <1>  -0.6600 
 10 C       -2.5660     2.3740     0.5400 C.ar  1 <1>   0.1600 
 11 C       -5.0560    -2.9800     1.4610 C.3   1 <1>   0.1400 
 12 C       -5.8520    -0.9170     0.3190 C.3   1 <1>   0.1400 
 13 C       -5.5510    -3.8570     0.2870 C.3   1 <1>   0.4230 
 14 C       -6.4020    -1.7710    -0.8340 C.3   1 <1>  -0.1600 
 15 N       -5.8450    -5.2840     0.6570 N.4   1 <1>  -0.9590 
 16 C       -6.7900    -3.2060    -0.3690 C.3   1 <1>  -0.1060 
 17 C       -6.1930    -6.1050    -0.5310 C.3   1 <1>   0.3430 
 18 C       -4.8250    -5.9380     1.5200 C.3   1 <1>   0.2630 
 19 C       -7.9260    -3.1500     0.6720 C.2   1 <1>   0.9060 
 20 C       -7.2150    -4.0320    -1.6060 C.3   1 <1>  -0.1600 
 21 C       -7.4070    -5.5150    -1.2520 C.3   1 <1>  -0.1600 
 22 O       -8.0040    -4.0500     1.5240 O.co2 1 <1>  -0.9000 
 23 O       -8.7200    -2.2120     0.6530 O.co2 1 <1>  -0.9000 
 24 H       -2.2380     1.6970    -2.5840 H     1 <1>   0.1500 
 25 H       -3.0880     1.0330     2.1190 H     1 <1>   0.1500 
 26 H       -2.4840     3.2170     1.2070 H     1 <1>   0.1500 
 27 H       -4.1980    -3.4250     1.9270 H     1 <1>   0.0800 
 28 H       -5.8230    -2.8690     2.2080 H     1 <1>   0.0800 
 29 H       -6.6150    -0.7670     1.0670 H     1 <1>   0.0800 
 30 H       -5.5650     0.0510    -0.0510 H     1 <1>   0.0800 
 31 H       -4.7570    -3.8650    -0.4400 H     1 <1>   0.0800 
 32 H       -7.2700    -1.2790    -1.2400 H     1 <1>   0.0800 
 33 H       -5.6640    -1.8150    -1.6140 H     1 <1>   0.0800 
 34 H       -6.7400    -5.1640     1.2040 H     1 <1>   0.4500 
 35 H       -5.3530    -6.1370    -1.2050 H     1 <1>   0.0800 
 36 H       -6.4220    -7.1120    -0.2220 H     1 <1>   0.0800 
 37 H       -3.8700    -5.9590     1.0210 H     1 <1>   0.0800 
 38 H       -5.1260    -6.9470     1.7480 H     1 <1>   0.0800 
 39 H       -4.7230    -5.3990     2.4470 H     1 <1>   0.0800 
 40 H       -8.1380    -3.6350    -1.9980 H     1 <1>   0.0800 
 41 H       -6.4670    -3.9490    -2.3750 H     1 <1>   0.0800 
 42 H       -7.5900    -6.0750    -2.1520 H     1 <1>   0.0800 
 43 H       -8.2760    -5.6300    -0.6260 H     1 <1>   0.0800 
@<TRIPOS>BOND
  1   1   2  1   
  2   2   3  ar  
  3   2   4  ar  
  4   3   5  1   
  5   3   6  ar  
  6   4   7  ar  
  7   4  24  1   
  8   5   8  2   
  9   5   9  am  
 10   6  10  ar  
 11   6  25  1   
 12   7  10  ar  
 13   9  11  1   
 14   9  12  1   
 15  10  26  1   
 16  11  13  1   
 17  11  27  1   
 18  11  28  1   
 19  12  14  1   
 20  12  29  1   
 21  12  30  1   
 22  13  15  1   
 23  13  16  1   
 24  13  31  1   
 25  14  16  1   
 26  14  32  1   
 27  14  33  1   
 28  15  17  1   
 29  15  18  1   
 30  15  34  1   
 31  16  19  1   
 32  16  20  1   
 33  17  21  1   
 34  17  35  1   
 35  17  36  1   
 36  18  37  1   
 37  18  38  1   
 38  18  39  1   
 39  19  22  ar  
 40  19  23  ar  
 41  20  21  1   
 42  20  40  1   
 43  20  41  1   
 44  21  42  1   
 45  21  43  1   
@<TRIPOS>SUBSTRUCTURE
  1 ****   9 GROUP 4 **** **** 0

# MOE 2024.06 (io_trps.svl 2023.06)
