@<TRIPOS>MOLECULE
NONAME
57 59 1 0 0 
SMALL
USER_CHARGES


@<TRIPOS>ATOM
  1 O       -1.1850     0.0960    -0.5460 O.2   1 <1>  -0.5700 
  2 C       -1.9690     0.8260     0.0360 C.2   1 <1>   0.5440 
  3 N       -3.1480     0.2940     0.5150 N.am  1 <1>  -0.6600 
  4 C       -1.6390     2.2260     0.2010 C.ar  1 <1>   0.0860 
  5 C       -3.3420    -1.1780     0.7060 C.3   1 <1>   0.1400 
  6 C       -4.3660     1.1030     0.8030 C.3   1 <1>   0.1400 
  7 C       -1.1610     2.9850    -0.8680 C.ar  1 <1>  -0.1500 
  8 C       -1.7750     2.8710     1.4310 C.ar  1 <1>  -0.1500 
  9 C       -4.5330    -1.6770    -0.1270 C.3   1 <1>   0.2000 
 10 C       -5.5460     0.5970    -0.0380 C.3   1 <1>  -0.1600 
 11 C       -0.8510     4.3260    -0.7340 C.ar  1 <1>  -0.1430 
 12 C       -1.4690     4.2070     1.5770 C.ar  1 <1>  -0.1500 
 13 O       -4.6990    -3.0320     0.1080 O.3   1 <1>  -0.6800 
 14 C       -5.8450    -0.9110     0.1980 C.3   1 <1>  -0.1060 
 15 C       -1.0080     4.9570     0.5010 C.ar  1 <1>   0.1000 
 16 C       -0.3380     5.1070    -1.9350 C.3   1 <1>  -0.0970 
 17 C       -6.2490    -1.1720     1.6690 C.2   1 <1>   0.9060 
 18 C       -6.9680    -1.3890    -0.7700 C.3   1 <1>  -0.1600 
 19 N       -0.7060     6.3000     0.6630 N.pl3 1 <1>  -0.8380 
 20 O       -6.1170    -2.3130     2.1400 O.co2 1 <1>  -0.9000 
 21 O       -6.6880    -0.2460     2.3640 O.co2 1 <1>  -0.9000 
 22 C       -8.3220    -0.6780    -0.5990 C.3   1 <1>  -0.1600 
 23 C        0.5460     6.6320     1.3990 C.3   1 <1>   0.2090 
 24 C       -1.8240     7.2280     0.9950 C.3   1 <1>   0.2090 
 25 C       -9.3820    -1.2900    -1.5190 C.3   1 <1>  -0.2400 
 26 C        0.8760     8.1300     1.2660 C.3   1 <1>   0.1200 
 27 C       -1.3670     8.6940     0.8820 C.3   1 <1>   0.1200 
 28 O       -0.2160     8.9220     1.6490 O.3   1 <1>  -0.5600 
 29 H       -2.4580    -1.7150     0.4110 H     1 <1>   0.0800 
 30 H       -3.5260    -1.3710     1.7490 H     1 <1>   0.0800 
 31 H       -4.6000     1.0290     1.8520 H     1 <1>   0.0800 
 32 H       -4.2000     2.1400     0.5720 H     1 <1>   0.0800 
 33 H       -1.0360     2.4920    -1.8150 H     1 <1>   0.1500 
 34 H       -2.1260     2.3040     2.2770 H     1 <1>   0.1500 
 35 H       -4.2850    -1.5670    -1.1680 H     1 <1>   0.0800 
 36 H       -6.4050     1.1850     0.2280 H     1 <1>   0.0800 
 37 H       -5.3340     0.7760    -1.0770 H     1 <1>   0.0800 
 38 H       -1.5830     4.6830     2.5330 H     1 <1>   0.1500 
 39 H       -5.2310    -3.0830     0.9610 H     1 <1>   0.4000 
 40 H       -0.2900     4.4890    -2.8130 H     1 <1>   0.0800 
 41 H        0.6460     5.4860    -1.7260 H     1 <1>   0.0800 
 42 H       -0.9900     5.9380    -2.1320 H     1 <1>   0.0800 
 43 H       -6.6340    -1.2690    -1.7860 H     1 <1>   0.0800 
 44 H       -7.1250    -2.4420    -0.6080 H     1 <1>   0.0800 
 45 H       -8.6500    -0.7660     0.4240 H     1 <1>   0.0800 
 46 H       -8.2270     0.3680    -0.8270 H     1 <1>   0.0800 
 47 H        0.4310     6.3850     2.4390 H     1 <1>   0.0800 
 48 H        1.3570     6.0470     1.0020 H     1 <1>   0.0800 
 49 H       -2.6440     7.0520     0.3210 H     1 <1>   0.0800 
 50 H       -2.1660     7.0410     1.9980 H     1 <1>   0.0800 
 51 H       -9.5190    -2.3310    -1.2850 H     1 <1>   0.0800 
 52 H       -9.0840    -1.2000    -2.5480 H     1 <1>   0.0800 
 53 H      -10.3210    -0.7830    -1.3840 H     1 <1>   0.0800 
 54 H        1.1310     8.3660     0.2480 H     1 <1>   0.0800 
 55 H        1.7060     8.3850     1.8990 H     1 <1>   0.0800 
 56 H       -2.1370     9.3520     1.2400 H     1 <1>   0.0800 
 57 H       -1.1500     8.9370    -0.1440 H     1 <1>   0.0800 
@<TRIPOS>BOND
  1   1   2  2   
  2   2   3  am  
  3   2   4  1   
  4   3   5  1   
  5   3   6  1   
  6   4   7  ar  
  7   4   8  ar  
  8   5   9  1   
  9   5  29  1   
 10   5  30  1   
 11   6  10  1   
 12   6  31  1   
 13   6  32  1   
 14   7  11  ar  
 15   7  33  1   
 16   8  12  ar  
 17   8  34  1   
 18   9  13  1   
 19   9  14  1   
 20   9  35  1   
 21  10  14  1   
 22  10  36  1   
 23  10  37  1   
 24  11  15  ar  
 25  11  16  1   
 26  12  15  ar  
 27  12  38  1   
 28  13  39  1   
 29  14  17  1   
 30  14  18  1   
 31  15  19  1   
 32  16  40  1   
 33  16  41  1   
 34  16  42  1   
 35  17  20  ar  
 36  17  21  ar  
 37  18  22  1   
 38  18  43  1   
 39  18  44  1   
 40  19  23  1   
 41  19  24  1   
 42  22  25  1   
 43  22  45  1   
 44  22  46  1   
 45  23  26  1   
 46  23  47  1   
 47  23  48  1   
 48  24  27  1   
 49  24  49  1   
 50  24  50  1   
 51  25  51  1   
 52  25  52  1   
 53  25  53  1   
 54  26  28  1   
 55  26  54  1   
 56  26  55  1   
 57  27  28  1   
 58  27  56  1   
 59  27  57  1   
@<TRIPOS>SUBSTRUCTURE
  1 ****   4 GROUP 4 **** **** 0

# MOE 2024.06 (io_trps.svl 2023.06)
