@<TRIPOS>MOLECULE
NONAME
48 51 1 0 0 
SMALL
USER_CHARGES


@<TRIPOS>ATOM
  1 O       -0.4610     0.3140    -1.1640 O.2   1 <1>  -0.5700 
  2 C       -1.4770     0.8580    -0.8040 C.2   1 <1>   0.5690 
  3 N       -2.5780     0.1320    -0.4390 N.am  1 <1>  -0.6600 
  4 C       -1.4950     2.3800    -0.7860 C.3   1 <1>   0.0690 
  5 C       -3.9340     0.6440    -0.1090 C.3   1 <1>   0.1400 
  6 C       -2.5930    -1.3550    -0.5040 C.3   1 <1>   0.1400 
  7 C       -0.1840     3.0100    -0.3190 C.2   1 <1>   0.1820 
  8 C       -4.8390    -0.5880    -0.1200 C.3   1 <1>   0.2000 
  9 C       -3.9190    -1.7790     0.1320 C.3   1 <1>  -0.0800 
 10 N       -0.0150     4.3860    -0.2810 N.pl3 1 <1>  -0.6290 
 11 C        0.9660     2.4450     0.1120 C.2   1 <1>   0.2000 
 12 O       -5.8100    -0.5150     0.8660 O.3   1 <1>  -0.6800 
 13 C       -4.4960    -3.0940    -0.4210 C.3   1 <1>  -0.0170 
 14 C        1.2420     4.6250     0.1710 C.cat 1 <1>   0.7910 
 15 C       -0.8370     5.4420    -0.6120 C.2   1 <1>   0.2290 
 16 N        1.8430     3.4510     0.4160 N.pl3 1 <1>  -0.7000 
 17 C       -3.6090    -4.2880    -0.1040 C.ar  1 <1>   0.1670 
 18 C        1.7320     5.9420     0.3190 C.2   1 <1>  -0.1290 
 19 C       -0.3910     6.7250    -0.4790 C.2   1 <1>  -0.1500 
 20 N       -2.5460    -4.4550    -0.8740 N.ar  1 <1>  -0.6200 
 21 C       -3.9360    -5.1390     0.9510 C.ar  1 <1>   0.1600 
 22 C        0.9100     6.9880    -0.0070 C.2   1 <1>  -0.1500 
 23 C        3.1460     6.1900     0.8320 C.3   1 <1>  -0.1020 
 24 C       -1.8390    -5.5170    -0.5230 C.ar  1 <1>   0.1600 
 25 N       -3.2290    -6.1990     1.3060 N.ar  1 <1>  -0.6200 
 26 C       -2.1690    -6.3600     0.5320 C.ar  1 <1>   0.1600 
 27 H       -1.7040     2.7130    -1.7850 H     1 <1>   0.0800 
 28 H       -2.2780     2.7270    -0.1420 H     1 <1>   0.0800 
 29 H       -3.9180     1.0920     0.8690 H     1 <1>   0.0800 
 30 H       -4.2640     1.3560    -0.8450 H     1 <1>   0.0800 
 31 H       -2.5470    -1.6620    -1.5360 H     1 <1>   0.0800 
 32 H       -1.7510    -1.7750     0.0220 H     1 <1>   0.0800 
 33 H       -5.3320    -0.6680    -1.0750 H     1 <1>   0.0800 
 34 H       -3.7460    -1.8830     1.1890 H     1 <1>   0.0800 
 35 H        1.2180     1.4000     0.2210 H     1 <1>   0.1500 
 36 H       -5.4060    -0.5330     1.7560 H     1 <1>   0.4000 
 37 H       -4.6150    -3.0240    -1.4890 H     1 <1>   0.0800 
 38 H       -5.4740    -3.2540    -0.0010 H     1 <1>   0.0800 
 39 H       -1.8300     5.2280    -0.9750 H     1 <1>   0.1500 
 40 H        2.8010     3.3430     0.7550 H     1 <1>   0.4500 
 41 H       -1.0240     7.5580    -0.7340 H     1 <1>   0.1500 
 42 H       -4.8200    -4.9340     1.5280 H     1 <1>   0.1500 
 43 H        1.2290     8.0150     0.0860 H     1 <1>   0.1500 
 44 H        3.2660     5.7780     1.8180 H     1 <1>   0.0800 
 45 H        3.3550     7.2450     0.8830 H     1 <1>   0.0800 
 46 H        3.8680     5.7390     0.1730 H     1 <1>   0.0800 
 47 H       -0.9560    -5.7320    -1.0970 H     1 <1>   0.1500 
 48 H       -1.5310    -7.1990     0.7410 H     1 <1>   0.1500 
@<TRIPOS>BOND
  1   1   2  2   
  2   2   3  am  
  3   2   4  1   
  4   3   5  1   
  5   3   6  1   
  6   4   7  1   
  7   4  27  1   
  8   4  28  1   
  9   5   8  1   
 10   5  29  1   
 11   5  30  1   
 12   6   9  1   
 13   6  31  1   
 14   6  32  1   
 15   7  10  1   
 16   7  11  2   
 17   8   9  1   
 18   8  12  1   
 19   8  33  1   
 20   9  13  1   
 21   9  34  1   
 22  10  14  ar  
 23  10  15  1   
 24  11  16  1   
 25  11  35  1   
 26  12  36  1   
 27  13  17  1   
 28  13  37  1   
 29  13  38  1   
 30  14  16  ar  
 31  14  18  1   
 32  15  19  2   
 33  15  39  1   
 34  16  40  1   
 35  17  20  ar  
 36  17  21  ar  
 37  18  22  2   
 38  18  23  1   
 39  19  22  1   
 40  19  41  1   
 41  20  24  ar  
 42  21  25  ar  
 43  21  42  1   
 44  22  43  1   
 45  23  44  1   
 46  23  45  1   
 47  23  46  1   
 48  24  26  ar  
 49  24  47  1   
 50  25  26  ar  
 51  26  48  1   
@<TRIPOS>SUBSTRUCTURE
  1 ****   2 GROUP 4 **** **** 0

# MOE 2024.06 (io_trps.svl 2023.06)
