@<TRIPOS>MOLECULE
NONAME
49 52 1 0 0 
SMALL
USER_CHARGES


@<TRIPOS>ATOM
  1 O        2.0900     0.6090    -1.6220 O.3   1 <1>  -0.0190 
  2 N        1.1760     1.5010    -1.8390 N.2   1 <1>  -0.4100 
  3 C        2.1950     0.5670    -0.3180 C.2   1 <1>   0.2980 
  4 C        0.7760     1.9410    -0.7000 C.2   1 <1>   0.4620 
  5 N        1.4220     1.3560     0.3130 N.2   1 <1>  -0.5650 
  6 C        3.2040    -0.3950     0.3160 C.3   1 <1>   0.3700 
  7 C       -0.2470     2.9480    -0.4960 C.ar  1 <1>   0.0540 
  8 N        3.0470    -1.7960    -0.1080 N.3   1 <1>  -0.8100 
  9 C        4.6540    -0.0730    -0.0390 C.3   1 <1>  -0.1600 
 10 C       -0.6380     3.3870     0.7620 C.ar  1 <1>  -0.1500 
 11 C       -0.9180     3.5550    -1.5500 C.ar  1 <1>  -0.1500 
 12 C        4.2990    -2.4620     0.2480 C.3   1 <1>   0.1100 
 13 C        1.8530    -2.4310     0.4800 C.3   1 <1>   0.1100 
 14 C        5.3880    -1.4120     0.0470 C.3   1 <1>  -0.1600 
 15 C       -1.6180     4.3510     0.8980 C.ar  1 <1>   0.1600 
 16 C       -1.8860     4.5110    -1.3110 C.ar  1 <1>   0.1600 
 17 C        1.5390    -3.7550    -0.2180 C.3   1 <1>   0.1200 
 18 N       -2.2540     4.9250    -0.1100 N.ar  1 <1>  -0.6200 
 19 O        0.4150    -4.3340     0.4110 O.3   1 <1>  -0.3630 
 20 C       -0.0780    -5.5310     0.0040 C.ar  1 <1>   0.0830 
 21 C       -1.1420    -6.0470     0.7240 C.ar  1 <1>  -0.1500 
 22 C        0.4260    -6.2480    -1.0790 C.ar  1 <1>  -0.1500 
 23 C       -1.7070    -7.2640     0.3840 C.ar  1 <1>   0.0830 
 24 C       -0.1350    -7.4660    -1.4240 C.ar  1 <1>  -0.1500 
 25 O       -2.7460    -7.6920     1.1470 O.3   1 <1>  -0.3630 
 26 C       -1.1970    -7.9760    -0.6980 C.ar  1 <1>  -0.1500 
 27 C       -3.3920    -8.9170     0.8840 C.3   1 <1>   0.0400 
 28 H        3.0980    -0.3440     1.3870 H     1 <1>   0.0800 
 29 H        4.7070     0.3040    -1.0450 H     1 <1>   0.0800 
 30 H        5.0610     0.6620     0.6320 H     1 <1>   0.0800 
 31 H       -0.1750     2.9760     1.6410 H     1 <1>   0.1500 
 32 H       -0.6840     3.2800    -2.5630 H     1 <1>   0.1500 
 33 H        4.2780    -2.7670     1.2820 H     1 <1>   0.0800 
 34 H        4.4650    -3.3240    -0.3760 H     1 <1>   0.0800 
 35 H        2.0020    -2.6000     1.5330 H     1 <1>   0.0800 
 36 H        1.0030    -1.7820     0.3510 H     1 <1>   0.0800 
 37 H        6.0820    -1.4330     0.8690 H     1 <1>   0.0800 
 38 H        5.9240    -1.6050    -0.8650 H     1 <1>   0.0800 
 39 H       -1.8970     4.6680     1.8890 H     1 <1>   0.1500 
 40 H       -2.3870     4.9610    -2.1510 H     1 <1>   0.1500 
 41 H        2.3610    -4.4400    -0.1260 H     1 <1>   0.0800 
 42 H        1.2990    -3.5790    -1.2510 H     1 <1>   0.0800 
 43 H       -1.5340    -5.4960     1.5580 H     1 <1>   0.1500 
 44 H        1.2480    -5.8770    -1.6620 H     1 <1>   0.1500 
 45 H        0.2570    -8.0180    -2.2610 H     1 <1>   0.1500 
 46 H       -1.6120    -8.9220    -0.9890 H     1 <1>   0.1500 
 47 H       -4.1750    -9.0430     1.6100 H     1 <1>   0.0800 
 48 H       -2.6780    -9.7160     0.9750 H     1 <1>   0.0800 
 49 H       -3.8130    -8.8850    -0.1050 H     1 <1>   0.0800 
@<TRIPOS>BOND
  1   1   2  1   
  2   1   3  1   
  3   2   4  2   
  4   3   5  2   
  5   3   6  1   
  6   4   5  1   
  7   4   7  1   
  8   6   8  1   
  9   6   9  1   
 10   6  28  1   
 11   7  10  ar  
 12   7  11  ar  
 13   8  12  1   
 14   8  13  1   
 15   9  14  1   
 16   9  29  1   
 17   9  30  1   
 18  10  15  ar  
 19  10  31  1   
 20  11  16  ar  
 21  11  32  1   
 22  12  14  1   
 23  12  33  1   
 24  12  34  1   
 25  13  17  1   
 26  13  35  1   
 27  13  36  1   
 28  14  37  1   
 29  14  38  1   
 30  15  18  ar  
 31  15  39  1   
 32  16  18  ar  
 33  16  40  1   
 34  17  19  1   
 35  17  41  1   
 36  17  42  1   
 37  19  20  1   
 38  20  21  ar  
 39  20  22  ar  
 40  21  23  ar  
 41  21  43  1   
 42  22  24  ar  
 43  22  44  1   
 44  23  25  1   
 45  23  26  ar  
 46  24  26  ar  
 47  24  45  1   
 48  25  27  1   
 49  26  46  1   
 50  27  47  1   
 51  27  48  1   
 52  27  49  1   
@<TRIPOS>SUBSTRUCTURE
  1 ****  13 GROUP 4 **** **** 0

# MOE 2024.06 (io_trps.svl 2023.06)
