@<TRIPOS>MOLECULE
NONAME
51 53 1 0 0 
SMALL
USER_CHARGES


@<TRIPOS>ATOM
  1 CL       0.2770     0.8720    -0.4070 Cl    1 <1>  -0.1770 
  2 C        0.6060     2.4290     0.3210 C.ar  1 <1>   0.1770 
  3 C        1.9070     2.8690     0.5450 C.ar  1 <1>  -0.1440 
  4 C       -0.4870     3.2040     0.6630 C.ar  1 <1>  -0.1500 
  5 C        2.0830     4.1220     1.1200 C.ar  1 <1>  -0.1500 
  6 C        3.1440     2.0520     0.1840 C.3   1 <1>   0.3640 
  7 C       -0.2930     4.4470     1.2370 C.ar  1 <1>  -0.1500 
  8 C        0.9930     4.9040     1.4640 C.ar  1 <1>  -0.1500 
  9 N        3.1230     0.7550     0.9000 N.am  1 <1>  -0.7300 
 10 C        3.3310     1.8840    -1.3450 C.3   1 <1>   0.2610 
 11 C        3.4430    -0.4200     0.3130 C.2   1 <1>   0.5690 
 12 O        4.2260     0.8230    -1.6490 O.3   1 <1>  -0.5600 
 13 C        3.7600     3.2250    -1.9550 C.2   1 <1>   0.5690 
 14 O        3.4420    -1.4440     0.9490 O.2   1 <1>  -0.5700 
 15 C        3.7960    -0.4370    -1.1780 C.3   1 <1>   0.1810 
 16 O        2.9280     3.7910    -2.6280 O.2   1 <1>  -0.5700 
 17 N        4.9950     3.8010    -1.7280 N.am  1 <1>  -0.6600 
 18 C        5.3110     5.1600    -2.2480 C.3   1 <1>   0.1400 
 19 C        6.1570     3.1500    -1.0570 C.3   1 <1>   0.1400 
 20 C        5.7650     6.0590    -1.0930 C.3   1 <1>  -0.1600 
 21 C        6.6260     4.0200     0.1130 C.3   1 <1>  -0.1600 
 22 C        6.9600     5.4550    -0.3300 C.3   1 <1>  -0.0800 
 23 C        7.3530     6.2990     0.8960 C.3   1 <1>  -0.1600 
 24 C        7.8440     7.7000     0.5320 C.3   1 <1>   0.1200 
 25 O        8.2600     8.3160     1.7040 O.3   1 <1>  -0.5600 
 26 C        8.7500     9.6050     1.5240 C.3   1 <1>   0.0400 
 27 H       -1.4800     2.8360     0.4770 H     1 <1>   0.1500 
 28 H        3.0720     4.5080     1.3030 H     1 <1>   0.1500 
 29 H        4.0010     2.5850     0.5520 H     1 <1>   0.0800 
 30 H       -1.1390     5.0580     1.5050 H     1 <1>   0.1500 
 31 H        1.1460     5.8730     1.9070 H     1 <1>   0.1500 
 32 H        2.8270     0.7500     1.8770 H     1 <1>   0.3700 
 33 H        2.3890     1.6280    -1.7930 H     1 <1>   0.0800 
 34 H        2.9360    -0.7380    -1.7470 H     1 <1>   0.0800 
 35 H        4.5900    -1.1400    -1.3490 H     1 <1>   0.0800 
 36 H        6.0930     5.0810    -2.9830 H     1 <1>   0.0800 
 37 H        4.4520     5.6000    -2.7250 H     1 <1>   0.0800 
 38 H        5.9120     2.1720    -0.6910 H     1 <1>   0.0800 
 39 H        6.9540     3.0410    -1.7720 H     1 <1>   0.0800 
 40 H        6.0300     7.0170    -1.5000 H     1 <1>   0.0800 
 41 H        4.9340     6.2040    -0.4250 H     1 <1>   0.0800 
 42 H        5.8580     4.0400     0.8650 H     1 <1>   0.0800 
 43 H        7.4980     3.5680     0.5520 H     1 <1>   0.0800 
 44 H        7.8030     5.4090    -0.9990 H     1 <1>   0.0800 
 45 H        8.1460     5.7980     1.4240 H     1 <1>   0.0800 
 46 H        6.5120     6.3880     1.5610 H     1 <1>   0.0800 
 47 H        7.0530     8.2890     0.1000 H     1 <1>   0.0800 
 48 H        8.6800     7.6460    -0.1450 H     1 <1>   0.0800 
 49 H        9.0410     9.9890     2.4860 H     1 <1>   0.0800 
 50 H        7.9750    10.2250     1.1060 H     1 <1>   0.0800 
 51 H        9.6050     9.5730     0.8730 H     1 <1>   0.0800 
@<TRIPOS>BOND
  1   1   2  1   
  2   2   3  ar  
  3   2   4  ar  
  4   3   5  ar  
  5   3   6  1   
  6   4   7  ar  
  7   4  27  1   
  8   5   8  ar  
  9   5  28  1   
 10   6   9  1   
 11   6  10  1   
 12   6  29  1   
 13   7   8  ar  
 14   7  30  1   
 15   8  31  1   
 16   9  11  am  
 17   9  32  1   
 18  10  12  1   
 19  10  13  1   
 20  10  33  1   
 21  11  14  2   
 22  11  15  1   
 23  12  15  1   
 24  13  16  2   
 25  13  17  am  
 26  15  34  1   
 27  15  35  1   
 28  17  18  1   
 29  17  19  1   
 30  18  20  1   
 31  18  36  1   
 32  18  37  1   
 33  19  21  1   
 34  19  38  1   
 35  19  39  1   
 36  20  22  1   
 37  20  40  1   
 38  20  41  1   
 39  21  22  1   
 40  21  42  1   
 41  21  43  1   
 42  22  23  1   
 43  22  44  1   
 44  23  24  1   
 45  23  45  1   
 46  23  46  1   
 47  24  25  1   
 48  24  47  1   
 49  24  48  1   
 50  25  26  1   
 51  26  49  1   
 52  26  50  1   
 53  26  51  1   
@<TRIPOS>SUBSTRUCTURE
  1 ****   6 GROUP 4 **** **** 0

# MOE 2024.06 (io_trps.svl 2023.06)
