@<TRIPOS>MOLECULE
NONAME
45 46 1 0 0 
SMALL
USER_CHARGES


@<TRIPOS>ATOM
  1 O       -0.6120    -0.3850     0.1940 O.2   1 <1>  -0.5700 
  2 C       -0.4670     0.8110     0.3260 C.2   1 <1>   0.5690 
  3 N       -1.5310     1.6730     0.1860 N.am  1 <1>  -0.6600 
  4 C        0.9400     1.2940     0.7040 C.3   1 <1>   0.1810 
  5 C       -2.8550     1.1550    -0.2720 C.3   1 <1>   0.1400 
  6 C       -1.4220     3.1480     0.3870 C.3   1 <1>   0.1400 
  7 O        1.3940     2.3650    -0.0870 O.3   1 <1>  -0.5600 
  8 C       -3.6320     2.2390    -1.0240 C.3   1 <1>  -0.1600 
  9 C       -2.7620     3.6950     0.8770 C.3   1 <1>  -0.1600 
 10 C        2.7050     2.7400     0.1650 C.3   1 <1>   0.1200 
 11 C       -3.8770     3.5090    -0.1760 C.3   1 <1>   0.2800 
 12 C        3.0170     3.9330    -0.7290 C.3   1 <1>  -0.2400 
 13 O       -3.7800     4.5660    -1.0920 O.3   1 <1>  -0.5600 
 14 C       -5.2710     3.4700     0.5030 C.3   1 <1>  -0.1600 
 15 C       -4.4010     5.7900    -0.8130 C.3   1 <1>   0.1200 
 16 C       -6.3720     4.1970    -0.2820 C.3   1 <1>   0.2800 
 17 C       -5.9190     5.6580    -0.5680 C.3   1 <1>   0.2000 
 18 O       -6.5640     3.5470    -1.4850 O.3   1 <1>  -0.6800 
 19 C       -7.7250     4.0960     0.4360 C.3   1 <1>  -0.2400 
 20 O       -6.2350     6.5010     0.5040 O.3   1 <1>  -0.6800 
 21 H        1.6250     0.4730     0.5850 H     1 <1>   0.0800 
 22 H        0.9380     1.6050     1.7320 H     1 <1>   0.0800 
 23 H       -2.7060     0.3100    -0.9240 H     1 <1>   0.0800 
 24 H       -3.4150     0.8230     0.5840 H     1 <1>   0.0800 
 25 H       -0.6600     3.3700     1.1130 H     1 <1>   0.0800 
 26 H       -1.1480     3.6150    -0.5460 H     1 <1>   0.0800 
 27 H       -4.5610     1.8280    -1.3680 H     1 <1>   0.0800 
 28 H       -3.0590     2.4920    -1.9000 H     1 <1>   0.0800 
 29 H       -2.6560     4.7300     1.1360 H     1 <1>   0.0800 
 30 H       -3.0120     3.1630     1.7770 H     1 <1>   0.0800 
 31 H        2.8010     3.0080     1.2040 H     1 <1>   0.0800 
 32 H        3.3540     1.9120    -0.0670 H     1 <1>   0.0800 
 33 H        2.3540     4.7490    -0.5010 H     1 <1>   0.0800 
 34 H        2.9030     3.6580    -1.7620 H     1 <1>   0.0800 
 35 H        4.0290     4.2560    -0.5690 H     1 <1>   0.0800 
 36 H       -5.5590     2.4550     0.7050 H     1 <1>   0.0800 
 37 H       -5.1970     3.9490     1.4620 H     1 <1>   0.0800 
 38 H       -3.9080     6.2250     0.0370 H     1 <1>   0.0800 
 39 H       -4.2360     6.4260    -1.6640 H     1 <1>   0.0800 
 40 H       -6.4600     6.0330    -1.4190 H     1 <1>   0.0800 
 41 H       -6.8820     2.6420    -1.3260 H     1 <1>   0.4000 
 42 H       -7.6660     4.5260     1.4190 H     1 <1>   0.0800 
 43 H       -8.0310     3.0710     0.5410 H     1 <1>   0.0800 
 44 H       -8.4730     4.6360    -0.1170 H     1 <1>   0.0800 
 45 H       -5.7990     6.1890     1.3190 H     1 <1>   0.4000 
@<TRIPOS>BOND
  1   1   2  2   
  2   2   3  am  
  3   2   4  1   
  4   3   5  1   
  5   3   6  1   
  6   4   7  1   
  7   4  21  1   
  8   4  22  1   
  9   5   8  1   
 10   5  23  1   
 11   5  24  1   
 12   6   9  1   
 13   6  25  1   
 14   6  26  1   
 15   7  10  1   
 16   8  11  1   
 17   8  27  1   
 18   8  28  1   
 19   9  11  1   
 20   9  29  1   
 21   9  30  1   
 22  10  12  1   
 23  10  31  1   
 24  10  32  1   
 25  11  13  1   
 26  11  14  1   
 27  12  33  1   
 28  12  34  1   
 29  12  35  1   
 30  13  15  1   
 31  14  16  1   
 32  14  36  1   
 33  14  37  1   
 34  15  17  1   
 35  15  38  1   
 36  15  39  1   
 37  16  17  1   
 38  16  18  1   
 39  16  19  1   
 40  17  20  1   
 41  17  40  1   
 42  18  41  1   
 43  19  42  1   
 44  19  43  1   
 45  19  44  1   
 46  20  45  1   
@<TRIPOS>SUBSTRUCTURE
  1 ****   9 GROUP 4 **** **** 0

# MOE 2024.06 (io_trps.svl 2023.06)
