@<TRIPOS>MOLECULE
NONAME
21 22 1 0 0 
SMALL
USER_CHARGES


@<TRIPOS>ATOM
  1 N        0.3100     0.1300    -0.7470 N.ar  1 <1>  -0.6200 
  2 C        1.4720    -0.4200    -0.4410 C.ar  1 <1>   0.1600 
  3 C        0.2500     1.4440    -0.6240 C.ar  1 <1>   0.1600 
  4 C        2.5870     0.2860    -0.0240 C.ar  1 <1>  -0.1500 
  5 C        1.3060     2.2430    -0.2160 C.ar  1 <1>  -0.1500 
  6 C        2.5190     1.6600     0.0910 C.ar  1 <1>  -0.0320 
  7 C        3.7150     2.4800     0.5380 C.3   1 <1>  -0.0680 
  8 C        4.2860     3.5080    -0.3840 C.3   1 <1>   0.2960 
  9 C        5.0530     2.2630    -0.1110 C.3   1 <1>  -0.2000 
 10 N        4.8000     4.7710     0.1690 N.4   1 <1>  -0.7460 
 11 H        1.5390    -1.4920    -0.5280 H     1 <1>   0.1500 
 12 H       -0.6930     1.9080    -0.8610 H     1 <1>   0.1500 
 13 H        3.4920    -0.2460     0.2080 H     1 <1>   0.1500 
 14 H        1.1590     3.3030    -0.1410 H     1 <1>   0.1500 
 15 H        3.7080     2.6680     1.5980 H     1 <1>   0.1000 
 16 H        3.8270     3.6160    -1.3570 H     1 <1>   0.1000 
 17 H        5.1240     1.5220    -0.8890 H     1 <1>   0.1000 
 18 H        5.9260     2.2780     0.5180 H     1 <1>   0.1000 
 19 H        5.2360     4.6110     1.0830 H     1 <1>   0.4500 
 20 H        4.0450     5.4550     0.2870 H     1 <1>   0.4500 
 21 H        5.5080     5.1740    -0.4550 H     1 <1>   0.4500 
@<TRIPOS>BOND
  1   1   2  ar  
  2   1   3  ar  
  3   2   4  ar  
  4   2  11  1   
  5   3   5  ar  
  6   3  12  1   
  7   4   6  ar  
  8   4  13  1   
  9   5   6  ar  
 10   5  14  1   
 11   6   7  1   
 12   7   8  1   
 13   7   9  1   
 14   7  15  1   
 15   8   9  1   
 16   8  10  1   
 17   8  16  1   
 18   9  17  1   
 19   9  18  1   
 20  10  19  1   
 21  10  20  1   
 22  10  21  1   
@<TRIPOS>SUBSTRUCTURE
  1 ****   6 GROUP 4 **** **** 0

# MOE 2024.06 (io_trps.svl 2023.06)
