@<TRIPOS>MOLECULE
NONAME
47 49 1 0 0 
SMALL
USER_CHARGES


@<TRIPOS>ATOM
  1 O       -0.5660     0.4630    -0.5790 O.2   1 <1>  -0.5700 
  2 C       -1.3040     1.3050    -0.0920 C.2   1 <1>   0.7150 
  3 N       -2.5100     0.8600     0.4320 N.am  1 <1>  -0.6600 
  4 C       -0.8650     2.6900    -0.1290 C.2   1 <1>   0.0550 
  5 C       -2.8510    -0.5980     0.4270 C.3   1 <1>   0.1400 
  6 C       -3.6740     1.7330     0.7530 C.3   1 <1>   0.1400 
  7 O       -1.4890     3.6840     0.5020 O.3   1 <1>  -0.2800 
  8 C        0.2170     3.2180    -0.7700 C.2   1 <1>  -0.1500 
  9 C       -3.6090    -1.0120    -0.8470 C.3   1 <1>   0.1400 
 10 C       -4.3690     2.2310    -0.5220 C.3   1 <1>  -0.1600 
 11 C       -0.8450     4.8080     0.2800 C.2   1 <1>  -0.0100 
 12 C        0.2280     4.5870    -0.5060 C.2   1 <1>  -0.1500 
 13 N       -4.8160    -0.1580    -1.0970 N.am  1 <1>  -0.6600 
 14 C       -4.4930     1.1910    -1.6440 C.3   1 <1>   0.1400 
 15 C       -6.1280    -0.5470    -0.9070 C.2   1 <1>   0.5690 
 16 O       -7.0280     0.2200    -1.1800 O.2   1 <1>  -0.5700 
 17 C       -6.4700    -1.9340    -0.2990 C.3   1 <1>   0.4040 
 18 O       -6.1140    -2.9780    -1.1860 O.3   1 <1>  -0.5600 
 19 C       -7.9340    -2.1010     0.1340 C.ar  1 <1>  -0.1430 
 20 C       -6.2010    -4.2710    -0.6670 C.3   1 <1>   0.0400 
 21 C       -8.2650    -2.1690     1.4810 C.ar  1 <1>  -0.1500 
 22 C       -8.9450    -2.1980    -0.8130 C.ar  1 <1>  -0.1500 
 23 C       -9.5830    -2.3360     1.8720 C.ar  1 <1>  -0.1500 
 24 C      -10.2620    -2.3650    -0.4230 C.ar  1 <1>  -0.1500 
 25 C      -10.5820    -2.4350     0.9210 C.ar  1 <1>  -0.1500 
 26 H       -1.9520    -1.1850     0.5030 H     1 <1>   0.0800 
 27 H       -3.4490    -0.8300     1.2900 H     1 <1>   0.0800 
 28 H       -4.3870     1.1680     1.3270 H     1 <1>   0.0800 
 29 H       -3.3740     2.5600     1.3710 H     1 <1>   0.0800 
 30 H        0.9360     2.6860    -1.3680 H     1 <1>   0.1500 
 31 H       -3.8820    -2.0470    -0.7700 H     1 <1>   0.0800 
 32 H       -2.9400    -0.9330    -1.6870 H     1 <1>   0.0800 
 33 H       -5.3560     2.5680    -0.2590 H     1 <1>   0.0800 
 34 H       -3.8410     3.0860    -0.9040 H     1 <1>   0.0800 
 35 H       -1.2150     5.7190     0.7190 H     1 <1>   0.1500 
 36 H        0.9550     5.2930    -0.8680 H     1 <1>   0.1500 
 37 H       -3.5660     1.1410    -2.1880 H     1 <1>   0.0800 
 38 H       -5.2560     1.4990    -2.3390 H     1 <1>   0.0800 
 39 H       -5.8510    -2.0430     0.5710 H     1 <1>   0.0800 
 40 H       -5.8120    -4.9520    -1.4030 H     1 <1>   0.0800 
 41 H       -7.2320    -4.5130    -0.4710 H     1 <1>   0.0800 
 42 H       -5.6180    -4.3390     0.2350 H     1 <1>   0.0800 
 43 H       -7.5030    -2.0920     2.2350 H     1 <1>   0.1500 
 44 H       -8.6990    -2.1390    -1.8600 H     1 <1>   0.1500 
 45 H       -9.8320    -2.3860     2.9180 H     1 <1>   0.1500 
 46 H      -11.0360    -2.4360    -1.1670 H     1 <1>   0.1500 
 47 H      -11.6060    -2.5630     1.2240 H     1 <1>   0.1500 
@<TRIPOS>BOND
  1   1   2  2   
  2   2   3  am  
  3   2   4  1   
  4   3   5  1   
  5   3   6  1   
  6   4   7  1   
  7   4   8  2   
  8   5   9  1   
  9   5  26  1   
 10   5  27  1   
 11   6  10  1   
 12   6  28  1   
 13   6  29  1   
 14   7  11  1   
 15   8  12  1   
 16   8  30  1   
 17   9  13  1   
 18   9  31  1   
 19   9  32  1   
 20  10  14  1   
 21  10  33  1   
 22  10  34  1   
 23  11  12  2   
 24  11  35  1   
 25  12  36  1   
 26  13  14  1   
 27  13  15  am  
 28  14  37  1   
 29  14  38  1   
 30  15  16  2   
 31  15  17  1   
 32  17  18  1   
 33  17  19  1   
 34  17  39  1   
 35  18  20  1   
 36  19  21  ar  
 37  19  22  ar  
 38  20  40  1   
 39  20  41  1   
 40  20  42  1   
 41  21  23  ar  
 42  21  43  1   
 43  22  24  ar  
 44  22  44  1   
 45  23  25  ar  
 46  23  45  1   
 47  24  25  ar  
 48  24  46  1   
 49  25  47  1   
@<TRIPOS>SUBSTRUCTURE
  1 ****  13 GROUP 4 **** **** 0

# MOE 2024.06 (io_trps.svl 2023.06)
