@<TRIPOS>MOLECULE
NONAME
45 47 1 0 0 
SMALL
USER_CHARGES


@<TRIPOS>ATOM
  1 CL       2.4600     2.1620     2.6910 Cl    1 <1>  -0.1770 
  2 C        1.2880     1.7360     1.4670 C.ar  1 <1>   0.1770 
  3 C        1.6720     1.5480     0.1440 C.ar  1 <1>  -0.1440 
  4 C       -0.0290     1.5940     1.8660 C.ar  1 <1>  -0.1500 
  5 C        0.6890     1.2070    -0.7790 C.ar  1 <1>  -0.1500 
  6 C        3.1250     1.7160    -0.2950 C.3   1 <1>   0.3640 
  7 C       -0.9930     1.2550     0.9350 C.ar  1 <1>  -0.1500 
  8 C       -0.6310     1.0620    -0.3870 C.ar  1 <1>  -0.1500 
  9 N        3.5080     0.5320    -1.1030 N.am  1 <1>  -0.7300 
 10 C        3.3370     3.0340    -1.0830 C.3   1 <1>   0.2610 
 11 C        4.2000     0.6040    -2.2610 C.2   1 <1>   0.5690 
 12 O        4.5510     2.9920    -1.8250 O.3   1 <1>  -0.5600 
 13 C        3.3390     4.2240    -0.1210 C.2   1 <1>   0.5690 
 14 O        4.4840    -0.3950    -2.8710 O.2   1 <1>  -0.5700 
 15 C        4.5950     1.9790    -2.8090 C.3   1 <1>   0.1810 
 16 O        2.2850     4.6550     0.2850 O.2   1 <1>  -0.5700 
 17 N        4.5330     4.7640     0.2390 N.am  1 <1>  -0.7300 
 18 C        4.8180     5.9620     1.0870 C.3   1 <1>   0.3610 
 19 C        4.3320     5.8140     2.5630 C.2   1 <1>   0.5690 
 20 C        4.2490     7.2070     0.3920 C.3   1 <1>  -0.1600 
 21 C        6.3270     6.2200     0.9580 C.3   1 <1>  -0.1600 
 22 O        5.1000     5.9340     3.4880 O.2   1 <1>  -0.5700 
 23 N        3.0360     5.5510     2.8290 N.am  1 <1>  -0.8000 
 24 C        5.1940     7.5180    -0.7760 C.3   1 <1>  -0.1600 
 25 C        6.5370     6.8720    -0.4150 C.3   1 <1>  -0.1600 
 26 H       -0.2930     1.7490     2.8970 H     1 <1>   0.1500 
 27 H        0.9440     1.0490    -1.8140 H     1 <1>   0.1500 
 28 H        3.7720     1.7360     0.5640 H     1 <1>   0.0800 
 29 H       -2.0210     1.1430     1.2360 H     1 <1>   0.1500 
 30 H       -1.3810     0.7960    -1.1130 H     1 <1>   0.1500 
 31 H        3.2500    -0.3890    -0.7420 H     1 <1>   0.3700 
 32 H        2.5310     3.1740    -1.7800 H     1 <1>   0.0800 
 33 H        3.9320     2.2510    -3.6090 H     1 <1>   0.0800 
 34 H        5.5990     1.9340    -3.1910 H     1 <1>   0.0800 
 35 H        5.3560     4.4140    -0.2580 H     1 <1>   0.3700 
 36 H        3.2310     7.0770     0.0750 H     1 <1>   0.0800 
 37 H        4.2800     8.0270     1.0880 H     1 <1>   0.0800 
 38 H        6.6260     6.9290     1.7120 H     1 <1>   0.0800 
 39 H        6.9080     5.3250     1.0940 H     1 <1>   0.0800 
 40 H        2.7280     5.3740     3.7830 H     1 <1>   0.3700 
 41 H        2.3900     5.2920     2.0700 H     1 <1>   0.3700 
 42 H        4.8130     7.0760    -1.6820 H     1 <1>   0.0800 
 43 H        5.2910     8.5800    -0.9200 H     1 <1>   0.0800 
 44 H        7.3290     7.6010    -0.3770 H     1 <1>   0.0800 
 45 H        6.7880     6.1230    -1.1470 H     1 <1>   0.0800 
@<TRIPOS>BOND
  1   1   2  1   
  2   2   3  ar  
  3   2   4  ar  
  4   3   5  ar  
  5   3   6  1   
  6   4   7  ar  
  7   4  26  1   
  8   5   8  ar  
  9   5  27  1   
 10   6   9  1   
 11   6  10  1   
 12   6  28  1   
 13   7   8  ar  
 14   7  29  1   
 15   8  30  1   
 16   9  11  am  
 17   9  31  1   
 18  10  12  1   
 19  10  13  1   
 20  10  32  1   
 21  11  14  2   
 22  11  15  1   
 23  12  15  1   
 24  13  16  2   
 25  13  17  am  
 26  15  33  1   
 27  15  34  1   
 28  17  18  1   
 29  17  35  1   
 30  18  19  1   
 31  18  20  1   
 32  18  21  1   
 33  19  22  2   
 34  19  23  am  
 35  20  24  1   
 36  20  36  1   
 37  20  37  1   
 38  21  25  1   
 39  21  38  1   
 40  21  39  1   
 41  23  40  1   
 42  23  41  1   
 43  24  25  1   
 44  24  42  1   
 45  24  43  1   
 46  25  44  1   
 47  25  45  1   
@<TRIPOS>SUBSTRUCTURE
  1 ****  13 GROUP 4 **** **** 0

# MOE 2024.06 (io_trps.svl 2023.06)
