@<TRIPOS>MOLECULE
NONAME
63 66 1 0 0 
SMALL
USER_CHARGES


@<TRIPOS>ATOM
  1 O        0.1650    -0.1260    -0.4600 O.2   1 <1>  -0.5700 
  2 C        0.4130    -1.2040     0.0230 C.2   1 <1>   0.5690 
  3 N        1.2710    -1.3100     1.0890 N.am  1 <1>  -0.6600 
  4 C       -0.2580    -2.3940    -0.6420 C.3   1 <1>  -0.0990 
  5 C        1.6650    -2.5840     1.7640 C.3   1 <1>   0.1400 
  6 C        1.8620    -0.0690     1.7210 C.3   1 <1>   0.2010 
  7 C       -0.3220    -3.6920     0.1610 C.3   1 <1>   0.1200 
  8 C        2.0350    -3.7560     0.8050 C.3   1 <1>   0.2800 
  9 C        3.3730     0.0770     1.4830 C.2   1 <1>   0.5690 
 10 O        0.9180    -4.3420     0.2030 O.3   1 <1>  -0.5600 
 11 C        2.9880    -3.3640    -0.3340 C.3   1 <1>  -0.1600 
 12 C        2.7040    -4.8890     1.5920 C.3   1 <1>  -0.1600 
 13 O        4.1180    -0.4590     2.2790 O.2   1 <1>  -0.5700 
 14 N        3.8670     0.7280     0.3770 N.am  1 <1>  -0.6600 
 15 C        4.3360    -2.9070     0.2000 C.3   1 <1>   0.3430 
 16 C        4.0660    -4.4740     2.1500 C.3   1 <1>   0.3430 
 17 C        3.0060     1.2120    -0.7420 C.3   1 <1>   0.0600 
 18 C        5.3140     1.0600     0.2290 C.3   1 <1>   0.0600 
 19 N        4.9510    -3.9490     1.0750 N.4   1 <1>  -0.9590 
 20 C        6.2210    -3.4390     1.6600 C.3   1 <1>   0.4860 
 21 C        7.1610    -3.0360     0.5410 C.ar  1 <1>  -0.1440 
 22 C        7.5800    -3.9750    -0.4080 C.ar  1 <1>   0.0820 
 23 C        7.5860    -1.7140     0.4660 C.ar  1 <1>  -0.1500 
 24 O        7.1170    -5.2490    -0.2710 O.3   1 <1>  -0.3620 
 25 C        8.4280    -3.5900    -1.4490 C.ar  1 <1>  -0.1500 
 26 C        8.4160    -1.3590    -0.5760 C.ar  1 <1>   0.0820 
 27 C        7.6390    -6.2960    -1.0670 C.3   1 <1>   0.0400 
 28 C        8.8250    -2.2700    -1.5040 C.ar  1 <1>   0.0820 
 29 O        8.9280    -0.1550    -0.8510 O.3   1 <1>  -0.3630 
 30 O        9.6200    -1.6830    -2.4030 O.3   1 <1>  -0.3620 
 31 C        9.7450    -0.3160    -2.0120 C.3   1 <1>   0.4000 
 32 H        0.2110    -2.5810    -1.5900 H     1 <1>   0.0800 
 33 H       -1.2690    -2.0970    -0.8510 H     1 <1>   0.0800 
 34 H        0.8830    -2.8900     2.4360 H     1 <1>   0.0800 
 35 H        2.5140    -2.3740     2.3850 H     1 <1>   0.0800 
 36 H        1.6950    -0.1100     2.7820 H     1 <1>   0.0800 
 37 H        1.3610     0.8130     1.3700 H     1 <1>   0.0800 
 38 H       -1.0010    -4.3690    -0.3290 H     1 <1>   0.0800 
 39 H       -0.6900    -3.5320     1.1590 H     1 <1>   0.0800 
 40 H        2.5760    -2.5660    -0.9210 H     1 <1>   0.0800 
 41 H        3.1390    -4.2020    -0.9910 H     1 <1>   0.0800 
 42 H        2.8370    -5.7460     0.9550 H     1 <1>   0.0800 
 43 H        2.0680    -5.1850     2.4070 H     1 <1>   0.0800 
 44 H        4.2080    -2.0020     0.7560 H     1 <1>   0.0800 
 45 H        4.9910    -2.6900    -0.6300 H     1 <1>   0.0800 
 46 H        4.5310    -5.3240     2.6240 H     1 <1>   0.0800 
 47 H        3.9260    -3.7120     2.9000 H     1 <1>   0.0800 
 48 H        2.5710     0.3730    -1.2570 H     1 <1>   0.0800 
 49 H        3.5850     1.7820    -1.4490 H     1 <1>   0.0800 
 50 H        2.2180     1.8400    -0.3670 H     1 <1>   0.0800 
 51 H        5.8450     0.8650     1.1440 H     1 <1>   0.0800 
 52 H        5.4260     2.1040    -0.0050 H     1 <1>   0.0800 
 53 H        5.7470     0.4740    -0.5630 H     1 <1>   0.0800 
 54 H        5.2500    -4.7240     0.4590 H     1 <1>   0.4500 
 55 H        6.6900    -4.2070     2.2530 H     1 <1>   0.0800 
 56 H        6.0180    -2.5880     2.2910 H     1 <1>   0.0800 
 57 H        7.2910    -0.9720     1.1870 H     1 <1>   0.1500 
 58 H        8.7800    -4.2650    -2.2060 H     1 <1>   0.1500 
 59 H        7.1980    -7.2220    -0.7430 H     1 <1>   0.0800 
 60 H        8.7070    -6.3370    -0.9370 H     1 <1>   0.0800 
 61 H        7.3870    -6.1150    -2.0970 H     1 <1>   0.0800 
 62 H       10.7700    -0.1040    -1.7640 H     1 <1>   0.0800 
 63 H        9.3860     0.3210    -2.8010 H     1 <1>   0.0800 
@<TRIPOS>BOND
  1   1   2  2   
  2   2   3  am  
  3   2   4  1   
  4   3   5  1   
  5   3   6  1   
  6   4   7  1   
  7   4  32  1   
  8   4  33  1   
  9   5   8  1   
 10   5  34  1   
 11   5  35  1   
 12   6   9  1   
 13   6  36  1   
 14   6  37  1   
 15   7  10  1   
 16   7  38  1   
 17   7  39  1   
 18   8  10  1   
 19   8  11  1   
 20   8  12  1   
 21   9  13  2   
 22   9  14  am  
 23  11  15  1   
 24  11  40  1   
 25  11  41  1   
 26  12  16  1   
 27  12  42  1   
 28  12  43  1   
 29  14  17  1   
 30  14  18  1   
 31  15  19  1   
 32  15  44  1   
 33  15  45  1   
 34  16  19  1   
 35  16  46  1   
 36  16  47  1   
 37  17  48  1   
 38  17  49  1   
 39  17  50  1   
 40  18  51  1   
 41  18  52  1   
 42  18  53  1   
 43  19  20  1   
 44  19  54  1   
 45  20  21  1   
 46  20  55  1   
 47  20  56  1   
 48  21  22  ar  
 49  21  23  ar  
 50  22  24  1   
 51  22  25  ar  
 52  23  26  ar  
 53  23  57  1   
 54  24  27  1   
 55  25  28  ar  
 56  25  58  1   
 57  26  28  ar  
 58  26  29  1   
 59  27  59  1   
 60  27  60  1   
 61  27  61  1   
 62  28  30  1   
 63  29  31  1   
 64  30  31  1   
 65  31  62  1   
 66  31  63  1   
@<TRIPOS>SUBSTRUCTURE
  1 ****  15 GROUP 4 **** **** 0

# MOE 2024.06 (io_trps.svl 2023.06)
