@<TRIPOS>MOLECULE
NONAME
26 26 1 0 0 
SMALL
USER_CHARGES


@<TRIPOS>ATOM
  1 F       -0.6130    -0.1030    -0.9140 F     1 <1>  -0.1900 
  2 C       -1.6100     0.6660    -0.5700 C.ar  1 <1>   0.1900 
  3 C       -1.5110     2.0260    -0.7720 C.ar  1 <1>  -0.1500 
  4 C       -2.7320     0.0930    -0.0140 C.ar  1 <1>  -0.1500 
  5 C       -2.5610     2.8580    -0.4080 C.ar  1 <1>  -0.1440 
  6 C       -3.7830     0.9180     0.3420 C.ar  1 <1>  -0.1500 
  7 C       -3.7240     2.3030     0.1520 C.ar  1 <1>  -0.1440 
  8 C       -2.3570     4.3570    -0.6670 C.3   1 <1>  -0.0160 
  9 C       -4.9490     3.1610     0.5530 C.3   1 <1>   1.1640 
 10 C       -1.7000     5.1210     0.5020 C.3   1 <1>  -0.1860 
 11 F       -5.9360     2.4390     1.0770 F     1 <1>  -0.3400 
 12 F       -4.6730     4.0830     1.4620 F     1 <1>  -0.3400 
 13 F       -5.4930     3.7900    -0.4820 F     1 <1>  -0.3400 
 14 C       -1.5760     6.5960     0.1300 C.2   1 <1>   0.9060 
 15 C       -0.3340     4.5330     0.9200 C.3   1 <1>  -0.2400 
 16 O       -0.9980     6.9020    -0.9200 O.co2 1 <1>  -0.9000 
 17 O       -2.0670     7.4400     0.8850 O.co2 1 <1>  -0.9000 
 18 H       -0.6140     2.4290    -1.2080 H     1 <1>   0.1500 
 19 H       -2.7770    -0.9710     0.1330 H     1 <1>   0.1500 
 20 H       -4.6550     0.4540     0.7720 H     1 <1>   0.1500 
 21 H       -3.2850     4.8380    -0.9120 H     1 <1>   0.0800 
 22 H       -1.7330     4.4770    -1.5380 H     1 <1>   0.0800 
 23 H       -2.3490     5.0780     1.3540 H     1 <1>   0.0800 
 24 H        0.3380     4.5330     0.0800 H     1 <1>   0.0800 
 25 H       -0.4420     3.5340     1.2980 H     1 <1>   0.0800 
 26 H        0.0940     5.1460     1.6940 H     1 <1>   0.0800 
@<TRIPOS>BOND
  1   1   2  1   
  2   2   3  ar  
  3   2   4  ar  
  4   3   5  ar  
  5   3  18  1   
  6   4   6  ar  
  7   4  19  1   
  8   5   7  ar  
  9   5   8  1   
 10   6   7  ar  
 11   6  20  1   
 12   7   9  1   
 13   8  10  1   
 14   8  21  1   
 15   8  22  1   
 16   9  11  1   
 17   9  12  1   
 18   9  13  1   
 19  10  14  1   
 20  10  15  1   
 21  10  23  1   
 22  14  16  ar  
 23  14  17  ar  
 24  15  24  1   
 25  15  25  1   
 26  15  26  1   
@<TRIPOS>SUBSTRUCTURE
  1 ****   5 GROUP 4 **** **** 0

# MOE 2024.06 (io_trps.svl 2023.06)
