@<TRIPOS>MOLECULE
NONAME
36 37 1 0 0 
SMALL
USER_CHARGES


@<TRIPOS>ATOM
  1 O       -0.0980     1.6770    -1.5900 O.3   1 <1>  -0.6800 
  2 C        0.1110     1.6530    -0.2150 C.3   1 <1>   0.2000 
  3 C       -1.0870     2.3100     0.4960 C.3   1 <1>  -0.0800 
  4 C        1.4120     2.4390     0.0840 C.3   1 <1>   0.3430 
  5 C       -1.2430     3.7910     0.0590 C.3   1 <1>  -0.1600 
  6 C       -2.3890     1.5140     0.3040 C.3   1 <1>   0.1200 
  7 N        1.2250     3.9380     0.2430 N.4   1 <1>  -0.9590 
  8 C        0.0310     4.4160    -0.5230 C.3   1 <1>   0.3430 
  9 O       -3.4020     2.1400     1.0060 O.3   1 <1>  -0.6800 
 10 C        2.4870     4.6470    -0.1520 C.3   1 <1>   0.3430 
 11 C        2.4760     6.1400     0.1950 C.3   1 <1>   0.0960 
 12 N        3.8000     6.6920    -0.1190 N.pl3 1 <1>   0.0480 
 13 C        4.1980     7.3020    -1.2580 C.2   1 <1>   0.0360 
 14 C        4.9060     6.6340     0.6450 C.2   1 <1>  -0.3020 
 15 N        5.4490     7.6200    -1.2690 N.2   1 <1>  -0.5650 
 16 C        5.8990     7.2050    -0.0710 C.2   1 <1>   0.0770 
 17 H       -0.8240     1.0730    -1.8550 H     1 <1>   0.4000 
 18 H        0.2310     0.6230     0.0780 H     1 <1>   0.0800 
 19 H       -0.8630     2.2920     1.5490 H     1 <1>   0.0800 
 20 H        2.1040     2.2360    -0.7170 H     1 <1>   0.0800 
 21 H        1.8440     2.0500     0.9910 H     1 <1>   0.0800 
 22 H       -1.5890     4.3750     0.8940 H     1 <1>   0.0800 
 23 H       -2.0040     3.8650    -0.6990 H     1 <1>   0.0800 
 24 H       -2.3010     0.5020     0.6620 H     1 <1>   0.0800 
 25 H       -2.6800     1.4980    -0.7330 H     1 <1>   0.0800 
 26 H        1.0270     4.1170     1.2370 H     1 <1>   0.4500 
 27 H       -0.0500     5.4900    -0.4880 H     1 <1>   0.0800 
 28 H        0.1300     4.1170    -1.5560 H     1 <1>   0.0800 
 29 H       -3.4480     1.8300     1.9330 H     1 <1>   0.4000 
 30 H        3.3210     4.1910     0.3590 H     1 <1>   0.0800 
 31 H        2.6450     4.5320    -1.2130 H     1 <1>   0.0800 
 32 H        2.2880     6.2870     1.2430 H     1 <1>   0.0800 
 33 H        1.7400     6.6680    -0.3830 H     1 <1>   0.0800 
 34 H        3.5280     7.4990    -2.0770 H     1 <1>   0.1500 
 35 H        4.9430     6.2100     1.6320 H     1 <1>   0.1500 
 36 H        6.9290     7.3450     0.2160 H     1 <1>   0.1500 
@<TRIPOS>BOND
  1   1   2  1   
  2   1  17  1   
  3   2   3  1   
  4   2   4  1   
  5   2  18  1   
  6   3   5  1   
  7   3   6  1   
  8   3  19  1   
  9   4   7  1   
 10   4  20  1   
 11   4  21  1   
 12   5   8  1   
 13   5  22  1   
 14   5  23  1   
 15   6   9  1   
 16   6  24  1   
 17   6  25  1   
 18   7   8  1   
 19   7  10  1   
 20   7  26  1   
 21   8  27  1   
 22   8  28  1   
 23   9  29  1   
 24  10  11  1   
 25  10  30  1   
 26  10  31  1   
 27  11  12  1   
 28  11  32  1   
 29  11  33  1   
 30  12  13  1   
 31  12  14  1   
 32  13  15  2   
 33  13  34  1   
 34  14  16  2   
 35  14  35  1   
 36  15  16  1   
 37  16  36  1   
@<TRIPOS>SUBSTRUCTURE
  1 ****   7 GROUP 4 **** **** 0

# MOE 2024.06 (io_trps.svl 2023.06)
