@<TRIPOS>MOLECULE
NONAME
48 50 1 0 0 
SMALL
USER_CHARGES


@<TRIPOS>ATOM
  1 S       -0.0210     0.2090    -0.3590 S.o2  1 <1>   1.3330 
  2 O       -1.0490     1.2110    -0.2080 O.2   1 <1>  -0.6500 
  3 O        0.2860    -0.3190    -1.6670 O.2   1 <1>  -0.6500 
  4 N        1.4230     0.9050     0.2100 N.am  1 <1>  -0.8490 
  5 C       -0.3370    -1.1310     0.7990 C.3   1 <1>  -0.0550 
  6 C        1.4740     2.3460    -0.1090 C.3   1 <1>   0.1960 
  7 C        2.6230     0.2040    -0.2930 C.3   1 <1>   0.1960 
  8 C       -1.6140    -1.9370     0.5000 C.3   1 <1>  -0.2400 
  9 C        2.7630     3.0150     0.4120 C.3   1 <1>   0.3430 
 10 C        3.9260     0.8330     0.2460 C.3   1 <1>   0.3430 
 11 N        4.0110     2.3050    -0.0590 N.4   1 <1>  -0.9590 
 12 C        5.2350     2.9140     0.5350 C.3   1 <1>   0.5230 
 13 C        5.4000     4.3400     0.0600 C.2   1 <1>  -0.1400 
 14 S        6.3020     5.4020     1.0960 S.3   1 <1>  -0.0800 
 15 C        5.0110     5.0440    -1.0150 C.2   1 <1>   0.0770 
 16 C        6.0580     6.7330    -0.0320 C.2   1 <1>   0.3250 
 17 N        5.3690     6.3710    -1.0590 N.2   1 <1>  -0.5650 
 18 C        6.6260     8.0210     0.3060 C.ar  1 <1>   0.0530 
 19 C        5.9290     9.2300     0.1540 C.ar  1 <1>  -0.1440 
 20 C        7.9280     8.0880     0.8100 C.ar  1 <1>  -0.1500 
 21 C        6.5250    10.4320     0.4990 C.ar  1 <1>  -0.1500 
 22 C        4.5040     9.2640    -0.3870 C.3   1 <1>  -0.0970 
 23 C        8.5160     9.2890     1.1550 C.ar  1 <1>  -0.1500 
 24 C        7.8130    10.4670     1.0000 C.ar  1 <1>  -0.1500 
 25 H       -0.4200    -0.7220     1.7880 H     1 <1>   0.0800 
 26 H        0.4960    -1.8060     0.7950 H     1 <1>   0.0800 
 27 H        0.6370     2.8460     0.3510 H     1 <1>   0.0800 
 28 H        1.3900     2.4900    -1.1740 H     1 <1>   0.0800 
 29 H        2.6450     0.2290    -1.3710 H     1 <1>   0.0800 
 30 H        2.5850    -0.8300     0.0060 H     1 <1>   0.0800 
 31 H       -2.4750    -1.2910     0.5280 H     1 <1>   0.0800 
 32 H       -1.7430    -2.7170     1.2290 H     1 <1>   0.0800 
 33 H       -1.5520    -2.3830    -0.4780 H     1 <1>   0.0800 
 34 H        2.7290     3.0110     1.4890 H     1 <1>   0.0800 
 35 H        2.7770     4.0440     0.0900 H     1 <1>   0.0800 
 36 H        4.7680     0.3180    -0.1870 H     1 <1>   0.0800 
 37 H        3.9560     0.6800     1.3120 H     1 <1>   0.0800 
 38 H        4.0720     2.4160    -1.0790 H     1 <1>   0.4500 
 39 H        6.1110     2.3480     0.2580 H     1 <1>   0.0800 
 40 H        5.1560     2.9060     1.6100 H     1 <1>   0.0800 
 41 H        4.4440     4.6740    -1.8530 H     1 <1>   0.1500 
 42 H        8.4990     7.1850     0.9300 H     1 <1>   0.1500 
 43 H        5.9900    11.3580     0.3800 H     1 <1>   0.1500 
 44 H        3.8850     8.5690     0.1490 H     1 <1>   0.0800 
 45 H        4.5040     9.0000    -1.4290 H     1 <1>   0.0800 
 46 H        4.0730    10.2440    -0.2860 H     1 <1>   0.0800 
 47 H        9.5200     9.3100     1.5420 H     1 <1>   0.1500 
 48 H        8.2650    11.4070     1.2650 H     1 <1>   0.1500 
@<TRIPOS>BOND
  1   1   2  2   
  2   1   3  2   
  3   1   4  am  
  4   1   5  1   
  5   4   6  1   
  6   4   7  1   
  7   5   8  1   
  8   5  25  1   
  9   5  26  1   
 10   6   9  1   
 11   6  27  1   
 12   6  28  1   
 13   7  10  1   
 14   7  29  1   
 15   7  30  1   
 16   8  31  1   
 17   8  32  1   
 18   8  33  1   
 19   9  11  1   
 20   9  34  1   
 21   9  35  1   
 22  10  11  1   
 23  10  36  1   
 24  10  37  1   
 25  11  12  1   
 26  11  38  1   
 27  12  13  1   
 28  12  39  1   
 29  12  40  1   
 30  13  14  1   
 31  13  15  2   
 32  14  16  1   
 33  15  17  1   
 34  15  41  1   
 35  16  17  2   
 36  16  18  1   
 37  18  19  ar  
 38  18  20  ar  
 39  19  21  ar  
 40  19  22  1   
 41  20  23  ar  
 42  20  42  1   
 43  21  24  ar  
 44  21  43  1   
 45  22  44  1   
 46  22  45  1   
 47  22  46  1   
 48  23  24  ar  
 49  23  47  1   
 50  24  48  1   
@<TRIPOS>SUBSTRUCTURE
  1 ****  13 GROUP 4 **** **** 0

# MOE 2024.06 (io_trps.svl 2023.06)
