@<TRIPOS>MOLECULE
NONAME
43 45 1 0 0 
SMALL
USER_CHARGES


@<TRIPOS>ATOM
  1 O       -0.6060    -1.2690    -0.1190 O.3   1 <1>  -0.5600 
  2 C        0.5920    -0.6550     0.2330 C.3   1 <1>   0.1200 
  3 C       -1.6770    -0.4510     0.2350 C.3   1 <1>   0.1200 
  4 C        0.3530     0.8300     0.0030 C.3   1 <1>   0.2890 
  5 C       -1.1410     0.9850     0.2660 C.3   1 <1>  -0.0800 
  6 N        1.1400     1.6860     0.9200 N.pl3 1 <1>  -0.8690 
  7 C       -1.8190     1.9190    -0.7500 C.3   1 <1>  -0.0170 
  8 C        1.1480     3.0270     0.6990 C.ar  1 <1>   0.4100 
  9 C       -3.2530     2.2100    -0.3420 C.ar  1 <1>  -0.1430 
 10 N        0.4900     3.7340     1.5800 N.ar  1 <1>  -0.6200 
 11 C        1.7710     3.6000    -0.3830 C.ar  1 <1>  -0.1500 
 12 C       -3.5370     3.0910     0.6810 C.ar  1 <1>  -0.1500 
 13 C       -4.3360     1.6200    -0.9600 C.ar  1 <1>  -0.1500 
 14 C        0.4530     5.0330     1.3490 C.ar  1 <1>   0.7030 
 15 C        1.6690     4.9560    -0.5170 C.ar  1 <1>   0.3930 
 16 C       -4.8550     3.3300     1.0320 C.ar  1 <1>   0.1600 
 17 C       -5.6170     1.9300    -0.5330 C.ar  1 <1>   0.1600 
 18 O       -0.2480     5.7330     2.2600 O.3   1 <1>  -0.3630 
 19 N        1.0030     5.7030     0.3430 N.ar  1 <1>  -0.6200 
 20 O        2.2700     5.5360    -1.5750 O.3   1 <1>  -0.3630 
 21 N       -5.9030     2.7690     0.4500 N.ar  1 <1>  -0.6200 
 22 C       -0.3810     7.1390     2.1860 C.3   1 <1>   0.0400 
 23 C        2.2200     6.9360    -1.7670 C.3   1 <1>   0.0400 
 24 H        0.7810    -0.8650     1.2710 H     1 <1>   0.0800 
 25 H        1.3820    -1.0420    -0.3850 H     1 <1>   0.0800 
 26 H       -2.4630    -0.5890    -0.4870 H     1 <1>   0.0800 
 27 H       -2.0230    -0.7540     1.2080 H     1 <1>   0.0800 
 28 H        0.5910     1.0610    -1.0220 H     1 <1>   0.0800 
 29 H       -1.3010     1.3710     1.2570 H     1 <1>   0.0800 
 30 H        0.8830     1.5040     1.8940 H     1 <1>   0.4000 
 31 H       -1.7910     1.4810    -1.7330 H     1 <1>   0.0800 
 32 H       -1.2840     2.8520    -0.7930 H     1 <1>   0.0800 
 33 H        2.3170     3.0070    -1.0880 H     1 <1>   0.1500 
 34 H       -2.7440     3.5920     1.2100 H     1 <1>   0.1500 
 35 H       -4.2000     0.9260    -1.7690 H     1 <1>   0.1500 
 36 H       -5.0560     4.0200     1.8330 H     1 <1>   0.1500 
 37 H       -6.4520     1.4610    -1.0250 H     1 <1>   0.1500 
 38 H       -0.9720     7.4660     3.0230 H     1 <1>   0.0800 
 39 H       -0.8720     7.3950     1.2640 H     1 <1>   0.0800 
 40 H        0.5970     7.5850     2.2290 H     1 <1>   0.0800 
 41 H        2.7650     7.1740    -2.6630 H     1 <1>   0.0800 
 42 H        2.6730     7.4200    -0.9190 H     1 <1>   0.0800 
 43 H        1.1920     7.2370    -1.8680 H     1 <1>   0.0800 
@<TRIPOS>BOND
  1   1   2  1   
  2   1   3  1   
  3   2   4  1   
  4   2  24  1   
  5   2  25  1   
  6   3   5  1   
  7   3  26  1   
  8   3  27  1   
  9   4   5  1   
 10   4   6  1   
 11   4  28  1   
 12   5   7  1   
 13   5  29  1   
 14   6   8  1   
 15   6  30  1   
 16   7   9  1   
 17   7  31  1   
 18   7  32  1   
 19   8  10  ar  
 20   8  11  ar  
 21   9  12  ar  
 22   9  13  ar  
 23  10  14  ar  
 24  11  15  ar  
 25  11  33  1   
 26  12  16  ar  
 27  12  34  1   
 28  13  17  ar  
 29  13  35  1   
 30  14  18  1   
 31  14  19  ar  
 32  15  19  ar  
 33  15  20  1   
 34  16  21  ar  
 35  16  36  1   
 36  17  21  ar  
 37  17  37  1   
 38  18  22  1   
 39  20  23  1   
 40  22  38  1   
 41  22  39  1   
 42  22  40  1   
 43  23  41  1   
 44  23  42  1   
 45  23  43  1   
@<TRIPOS>SUBSTRUCTURE
  1 ****   7 GROUP 4 **** **** 0

# MOE 2024.06 (io_trps.svl 2023.06)
