@<TRIPOS>MOLECULE
NONAME
20 20 1 0 0 
SMALL
USER_CHARGES


@<TRIPOS>ATOM
  1 F       -0.6360    -0.2220    -0.5930 F     1 <1>  -0.2980 
  2 C       -1.2660    -1.0860     0.2030 C.3   1 <1>   0.5960 
  3 F       -1.8710    -0.3980     1.1650 F     1 <1>  -0.2980 
  4 C       -0.3850    -2.2660     0.6810 C.3   1 <1>   0.0000 
  5 C       -2.1570    -2.1070    -0.5480 C.3   1 <1>   0.0000 
  6 C       -0.9010    -3.0320    -0.5750 C.3   1 <1>   0.0000 
  7 C       -1.1320    -4.5530    -0.4530 C.3   1 <1>  -0.1860 
  8 C       -2.1310    -4.9380     0.6390 C.2   1 <1>   0.9060 
  9 C        0.2180    -5.2890    -0.3100 C.3   1 <1>  -0.2400 
 10 O       -1.7530    -5.0180     1.8130 O.co2 1 <1>  -0.9000 
 11 O       -3.3000    -5.1530     0.3060 O.co2 1 <1>  -0.9000 
 12 H       -0.7270    -2.6810     1.6120 H     1 <1>   0.0000 
 13 H        0.6730    -2.0690     0.6550 H     1 <1>   0.0000 
 14 H       -2.4720    -1.7860    -1.5250 H     1 <1>   0.0000 
 15 H       -2.9580    -2.4770     0.0680 H     1 <1>   0.0000 
 16 H       -0.2890    -2.8060    -1.4330 H     1 <1>   0.0000 
 17 H       -1.5770    -4.8790    -1.3740 H     1 <1>   0.0800 
 18 H        0.6950    -5.0090     0.6130 H     1 <1>   0.0800 
 19 H        0.8690    -5.0560    -1.1320 H     1 <1>   0.0800 
 20 H        0.0470    -6.3510    -0.2890 H     1 <1>   0.0800 
@<TRIPOS>BOND
  1   1   2  1   
  2   2   3  1   
  3   2   4  1   
  4   2   5  1   
  5   4   6  1   
  6   4  12  1   
  7   4  13  1   
  8   5   6  1   
  9   5  14  1   
 10   5  15  1   
 11   6   7  1   
 12   6  16  1   
 13   7   8  1   
 14   7   9  1   
 15   7  17  1   
 16   8  10  ar  
 17   8  11  ar  
 18   9  18  1   
 19   9  19  1   
 20   9  20  1   
@<TRIPOS>SUBSTRUCTURE
  1 ****   6 GROUP 4 **** **** 0

# MOE 2024.06 (io_trps.svl 2023.06)
