@<TRIPOS>MOLECULE
NONAME
60 63 1 0 0 
SMALL
USER_CHARGES


@<TRIPOS>ATOM
  1 O       -1.2300    -0.1050    -0.0560 O.2   1 <1>  -0.5700 
  2 C       -2.0530     0.7820    -0.2380 C.2   1 <1>   0.7150 
  3 N       -3.3180     0.3760    -0.6200 N.am  1 <1>  -0.6600 
  4 C       -1.7220     2.1770    -0.0190 C.2   1 <1>   0.0550 
  5 C       -3.5100    -0.9620    -1.2230 C.3   1 <1>   0.1400 
  6 C       -4.5230     0.8620     0.1110 C.3   1 <1>   0.1400 
  7 O       -2.5360     3.1320    -0.4690 O.3   1 <1>  -0.2800 
  8 C       -0.6610     2.7830     0.5950 C.2   1 <1>  -0.1810 
  9 C       -3.9680    -1.8420    -0.0530 C.3   1 <1>   0.4230 
 10 C       -5.1050    -0.2510     1.0260 C.3   1 <1>  -0.1600 
 11 C       -2.0370     4.3090    -0.1680 C.2   1 <1>  -0.0400 
 12 C       -0.8720     4.1580     0.4950 C.2   1 <1>  -0.1500 
 13 C        0.5570     2.1880     1.2790 C.3   1 <1>  -0.0590 
 14 N       -3.4140    -3.2420     0.0060 N.4   1 <1>  -0.9590 
 15 C       -5.5230    -1.6040     0.2300 C.3   1 <1>   0.0000 
 16 C       -2.7930     5.5560    -0.5880 C.3   1 <1>   0.3000 
 17 C       -3.7370    -4.0540    -1.1750 C.3   1 <1>   0.3430 
 18 C       -1.9400    -3.2190     0.2780 C.3   1 <1>   0.2630 
 19 C       -5.9780    -2.9040    -0.6180 C.3   1 <1>  -0.1600 
 20 C       -7.0600    -1.3470     0.6100 C.3   1 <1>   0.1200 
 21 O       -2.1210     6.7030    -0.1110 O.3   1 <1>  -0.3630 
 22 C       -5.1040    -3.6300    -1.6730 C.3   1 <1>  -0.1600 
 23 O       -7.2380    -1.7290     1.9380 O.3   1 <1>  -0.6800 
 24 C       -2.6010     7.9480    -0.3490 C.ar  1 <1>   0.0820 
 25 C       -3.7530     8.2100    -1.0880 C.ar  1 <1>  -0.1500 
 26 C       -1.8820     9.0040     0.1870 C.ar  1 <1>  -0.1500 
 27 C       -4.1700     9.5170    -1.2800 C.ar  1 <1>  -0.1500 
 28 C       -2.3000    10.3090    -0.0050 C.ar  1 <1>  -0.1500 
 29 C       -3.4450    10.5660    -0.7390 C.ar  1 <1>  -0.1500 
 30 H       -4.2600    -0.9010    -1.9910 H     1 <1>   0.0800 
 31 H       -2.5900    -1.3150    -1.6550 H     1 <1>   0.0800 
 32 H       -4.2700     1.7180     0.7160 H     1 <1>   0.0800 
 33 H       -5.2630     1.1780    -0.6060 H     1 <1>   0.0800 
 34 H       -3.4110    -1.4140     0.7580 H     1 <1>   0.0800 
 35 H       -4.4240    -0.4520     1.8380 H     1 <1>   0.0800 
 36 H       -5.8630     0.2770     1.5830 H     1 <1>   0.0800 
 37 H       -0.2240     4.9290     0.8750 H     1 <1>   0.1500 
 38 H        0.6390     2.5730     2.2790 H     1 <1>   0.0800 
 39 H        1.4450     2.4520     0.7330 H     1 <1>   0.0800 
 40 H        0.4940     1.1170     1.3310 H     1 <1>   0.0800 
 41 H       -3.8870    -3.6750     0.8120 H     1 <1>   0.4500 
 42 H       -3.7830     5.5440    -0.1670 H     1 <1>   0.0800 
 43 H       -2.8430     5.6110    -1.6600 H     1 <1>   0.0800 
 44 H       -3.0060    -3.9040    -1.9540 H     1 <1>   0.0800 
 45 H       -3.7460    -5.0990    -0.9060 H     1 <1>   0.0800 
 46 H       -1.4120    -2.7490    -0.5360 H     1 <1>   0.0800 
 47 H       -1.5630    -4.2210     0.4040 H     1 <1>   0.0800 
 48 H       -1.7340    -2.6580     1.1760 H     1 <1>   0.0800 
 49 H       -6.3160    -3.6560     0.0790 H     1 <1>   0.0800 
 50 H       -6.8070    -2.6680    -1.2670 H     1 <1>   0.0800 
 51 H       -7.8430    -1.8740     0.0920 H     1 <1>   0.0800 
 52 H       -7.3690    -0.3210     0.4890 H     1 <1>   0.0800 
 53 H       -4.9730    -2.9980    -2.5340 H     1 <1>   0.0800 
 54 H       -5.6220    -4.5060    -2.0270 H     1 <1>   0.0800 
 55 H       -8.1590    -1.5700     2.2320 H     1 <1>   0.4000 
 56 H       -4.3360     7.4210    -1.5220 H     1 <1>   0.1500 
 57 H       -0.9940     8.7970     0.7560 H     1 <1>   0.1500 
 58 H       -5.0590     9.7200    -1.8510 H     1 <1>   0.1500 
 59 H       -1.7350    11.1230     0.4160 H     1 <1>   0.1500 
 60 H       -3.7710    11.5800    -0.8900 H     1 <1>   0.1500 
@<TRIPOS>BOND
  1   1   2  2   
  2   2   3  am  
  3   2   4  1   
  4   3   5  1   
  5   3   6  1   
  6   4   7  1   
  7   4   8  2   
  8   5   9  1   
  9   5  30  1   
 10   5  31  1   
 11   6  10  1   
 12   6  32  1   
 13   6  33  1   
 14   7  11  1   
 15   8  12  1   
 16   8  13  1   
 17   9  14  1   
 18   9  15  1   
 19   9  34  1   
 20  10  15  1   
 21  10  35  1   
 22  10  36  1   
 23  11  12  2   
 24  11  16  1   
 25  12  37  1   
 26  13  38  1   
 27  13  39  1   
 28  13  40  1   
 29  14  17  1   
 30  14  18  1   
 31  14  41  1   
 32  15  19  1   
 33  15  20  1   
 34  16  21  1   
 35  16  42  1   
 36  16  43  1   
 37  17  22  1   
 38  17  44  1   
 39  17  45  1   
 40  18  46  1   
 41  18  47  1   
 42  18  48  1   
 43  19  22  1   
 44  19  49  1   
 45  19  50  1   
 46  20  23  1   
 47  20  51  1   
 48  20  52  1   
 49  21  24  1   
 50  22  53  1   
 51  22  54  1   
 52  23  55  1   
 53  24  25  ar  
 54  24  26  ar  
 55  25  27  ar  
 56  25  56  1   
 57  26  28  ar  
 58  26  57  1   
 59  27  29  ar  
 60  27  58  1   
 61  28  29  ar  
 62  28  59  1   
 63  29  60  1   
@<TRIPOS>SUBSTRUCTURE
  1 ****   7 GROUP 4 **** **** 0

# MOE 2024.06 (io_trps.svl 2023.06)
