@<TRIPOS>MOLECULE
NONAME
51 54 1 0 0 
SMALL
USER_CHARGES


@<TRIPOS>ATOM
  1 O       -3.4230    -2.2050    -2.3200 O.2   1 <1>  -0.5700 
  2 C       -2.8750    -1.8460    -1.3030 C.2   1 <1>   0.5690 
  3 N       -3.2480    -0.7090    -0.6360 N.am  1 <1>  -0.6600 
  4 C       -1.7340    -2.7050    -0.7840 C.3   1 <1>  -0.0190 
  5 C       -2.5680    -0.2770     0.6280 C.3   1 <1>   0.2200 
  6 C       -4.4740     0.0510    -1.0030 C.3   1 <1>   0.0600 
  7 C       -0.4160    -1.9170    -0.7940 C.3   1 <1>   0.1200 
  8 C       -2.0360    -3.3760     0.5720 C.3   1 <1>   0.1400 
  9 C       -1.0800     0.0350     0.3740 C.3   1 <1>   0.1200 
 10 C       -2.7650    -1.2750     1.7980 C.3   1 <1>   0.1400 
 11 O       -0.2810    -1.1130     0.3360 O.3   1 <1>  -0.5600 
 12 N       -3.0940    -2.6770     1.3690 N.am  1 <1>  -0.6600 
 13 C       -4.3220    -3.2400     1.6620 C.2   1 <1>   0.5440 
 14 O       -5.0670    -2.6700     2.4370 O.2   1 <1>  -0.5700 
 15 C       -4.7430    -4.5010     1.0870 C.ar  1 <1>   0.0860 
 16 C       -5.0230    -4.6290    -0.2730 C.ar  1 <1>  -0.1500 
 17 C       -4.8760    -5.6400     1.8790 C.ar  1 <1>  -0.1500 
 18 C       -5.3990    -5.8420    -0.8170 C.ar  1 <1>  -0.1500 
 19 C       -5.2530    -6.8530     1.3360 C.ar  1 <1>  -0.1500 
 20 C       -5.5200    -6.9780    -0.0230 C.ar  1 <1>   0.0000 
 21 C       -5.9140    -8.2460    -0.5910 C.ar  1 <1>   0.0000 
 22 C       -7.2480    -8.6550    -0.6390 C.ar  1 <1>  -0.1440 
 23 C       -4.9400    -9.0950    -1.1080 C.ar  1 <1>  -0.1500 
 24 C       -7.5790    -9.8830    -1.1900 C.ar  1 <1>  -0.1500 
 25 C       -8.3500    -7.7590    -0.0910 C.3   1 <1>  -0.0970 
 26 C       -5.2730   -10.3190    -1.6570 C.ar  1 <1>  -0.1500 
 27 C       -6.5970   -10.7150    -1.6980 C.ar  1 <1>  -0.1500 
 28 H       -1.6000    -3.4970    -1.4980 H     1 <1>   0.0800 
 29 H       -3.0110     0.6540     0.9350 H     1 <1>   0.0800 
 30 H       -4.2320     1.0890    -1.1460 H     1 <1>   0.0800 
 31 H       -5.2040    -0.0430    -0.2170 H     1 <1>   0.0800 
 32 H       -4.9020    -0.3300    -1.9140 H     1 <1>   0.0800 
 33 H       -0.3310    -1.3060    -1.6780 H     1 <1>   0.0800 
 34 H        0.4100    -2.6070    -0.7810 H     1 <1>   0.0800 
 35 H       -1.1370    -3.4260     1.1610 H     1 <1>   0.0800 
 36 H       -2.3360    -4.3920     0.3860 H     1 <1>   0.0800 
 37 H       -0.7080     0.6340     1.1850 H     1 <1>   0.0800 
 38 H       -0.9520     0.5900    -0.5390 H     1 <1>   0.0800 
 39 H       -3.5520    -0.8910     2.4210 H     1 <1>   0.0800 
 40 H       -1.8810    -1.2970     2.4110 H     1 <1>   0.0800 
 41 H       -4.9480    -3.7620    -0.9060 H     1 <1>   0.1500 
 42 H       -4.6800    -5.5590     2.9340 H     1 <1>   0.1500 
 43 H       -5.6080    -5.9170    -1.8700 H     1 <1>   0.1500 
 44 H       -5.3480    -7.7200     1.9650 H     1 <1>   0.1500 
 45 H       -3.9100    -8.7870    -1.0760 H     1 <1>   0.1500 
 46 H       -8.6060   -10.2030    -1.2280 H     1 <1>   0.1500 
 47 H       -9.3170    -8.2080    -0.2210 H     1 <1>   0.0800 
 48 H       -8.3420    -6.8130    -0.6030 H     1 <1>   0.0800 
 49 H       -8.1930    -7.5840     0.9580 H     1 <1>   0.0800 
 50 H       -4.5060   -10.9620    -2.0510 H     1 <1>   0.1500 
 51 H       -6.8630   -11.6670    -2.1230 H     1 <1>   0.1500 
@<TRIPOS>BOND
  1   1   2  2   
  2   2   3  am  
  3   2   4  1   
  4   3   5  1   
  5   3   6  1   
  6   4   7  1   
  7   4   8  1   
  8   4  28  1   
  9   5   9  1   
 10   5  10  1   
 11   5  29  1   
 12   6  30  1   
 13   6  31  1   
 14   6  32  1   
 15   7  11  1   
 16   7  33  1   
 17   7  34  1   
 18   8  12  1   
 19   8  35  1   
 20   8  36  1   
 21   9  11  1   
 22   9  37  1   
 23   9  38  1   
 24  10  12  1   
 25  10  39  1   
 26  10  40  1   
 27  12  13  am  
 28  13  14  2   
 29  13  15  1   
 30  15  16  ar  
 31  15  17  ar  
 32  16  18  ar  
 33  16  41  1   
 34  17  19  ar  
 35  17  42  1   
 36  18  20  ar  
 37  18  43  1   
 38  19  20  ar  
 39  19  44  1   
 40  20  21  1   
 41  21  22  ar  
 42  21  23  ar  
 43  22  24  ar  
 44  22  25  1   
 45  23  26  ar  
 46  23  45  1   
 47  24  27  ar  
 48  24  46  1   
 49  25  47  1   
 50  25  48  1   
 51  25  49  1   
 52  26  27  ar  
 53  26  50  1   
 54  27  51  1   
@<TRIPOS>SUBSTRUCTURE
  1 ****  16 GROUP 4 **** **** 0

# MOE 2024.06 (io_trps.svl 2023.06)
