@<TRIPOS>MOLECULE
NONAME
47 48 1 0 0 
SMALL
USER_CHARGES


@<TRIPOS>ATOM
  1 CL      -0.9240    -1.1900     2.0760 Cl    1 <1>  -0.1770 
  2 C       -2.0010    -1.5440     0.7500 C.ar  1 <1>   0.1770 
  3 C       -2.2830    -2.8620     0.4430 C.ar  1 <1>  -0.1500 
  4 C       -2.5560    -0.5030     0.0310 C.ar  1 <1>  -0.1500 
  5 C       -3.1430    -3.1510    -0.6060 C.ar  1 <1>  -0.1440 
  6 C       -3.4120    -0.7910    -1.0180 C.ar  1 <1>  -0.1500 
  7 C       -3.7020    -2.1090    -1.3340 C.ar  1 <1>  -0.1500 
  8 C       -3.4770    -4.5930    -0.9500 C.3   1 <1>  -0.0160 
  9 C       -4.6890    -5.0530    -0.1280 C.3   1 <1>  -0.0990 
 10 C       -5.0600    -6.5000    -0.4080 C.2   1 <1>   0.5690 
 11 O       -5.0910    -6.8690    -1.5550 O.2   1 <1>  -0.5700 
 12 N       -5.4140    -7.3450     0.6080 N.am  1 <1>  -0.6600 
 13 C       -5.1960    -8.8110     0.4380 C.3   1 <1>   0.3200 
 14 C       -6.1260    -6.8890     1.8480 C.3   1 <1>   0.1400 
 15 C       -6.5400    -9.4730     0.2340 C.2   1 <1>  -0.3320 
 16 C       -7.4420    -6.1390     1.5250 C.3   1 <1>   0.3430 
 17 N       -7.1760   -10.2430     1.1400 N.pl3 1 <1>   0.0330 
 18 C       -7.3340    -9.4310    -0.8590 C.2   1 <1>   0.0770 
 19 N       -8.2340    -6.8500     0.4730 N.4   1 <1>  -0.9590 
 20 C       -8.3440   -10.5750     0.5540 C.2   1 <1>   0.0360 
 21 N       -8.4880   -10.0810    -0.6330 N.2   1 <1>  -0.5650 
 22 C       -8.4020    -6.0520    -0.7780 C.3   1 <1>   0.2630 
 23 C       -9.5510    -7.3630     0.9540 C.3   1 <1>   0.2630 
 24 H       -1.8270    -3.6440     1.0230 H     1 <1>   0.1500 
 25 H       -2.3190     0.5130     0.2900 H     1 <1>   0.1500 
 26 H       -3.8500     0.0090    -1.5910 H     1 <1>   0.1500 
 27 H       -4.3660    -2.3190    -2.1550 H     1 <1>   0.1500 
 28 H       -2.6300    -5.2240    -0.7400 H     1 <1>   0.0800 
 29 H       -3.6890    -4.6750    -2.0020 H     1 <1>   0.0800 
 30 H       -5.5280    -4.4280    -0.3670 H     1 <1>   0.0800 
 31 H       -4.4520    -4.9270     0.9100 H     1 <1>   0.0800 
 32 H       -4.6920    -9.2110     1.3010 H     1 <1>   0.0800 
 33 H       -4.5710    -8.9960    -0.4220 H     1 <1>   0.0800 
 34 H       -5.4790    -6.2530     2.4260 H     1 <1>   0.0800 
 35 H       -6.3590    -7.7410     2.4630 H     1 <1>   0.0800 
 36 H       -7.2000    -5.1460     1.1850 H     1 <1>   0.0800 
 37 H       -8.0250    -6.0380     2.4260 H     1 <1>   0.0800 
 38 H       -6.8450   -10.5590     2.0590 H     1 <1>   0.2700 
 39 H       -7.1320    -8.9460    -1.8040 H     1 <1>   0.1500 
 40 H       -7.6680    -7.6840     0.2030 H     1 <1>   0.4500 
 41 H       -9.0740   -11.2010     1.0410 H     1 <1>   0.1500 
 42 H       -8.9610    -5.1520    -0.5810 H     1 <1>   0.0800 
 43 H       -8.9300    -6.6320    -1.5180 H     1 <1>   0.0800 
 44 H       -7.4410    -5.7860    -1.1860 H     1 <1>   0.0800 
 45 H      -10.2060    -6.5450     1.2050 H     1 <1>   0.0800 
 46 H       -9.4150    -7.9840     1.8230 H     1 <1>   0.0800 
 47 H      -10.0160    -7.9590     0.1840 H     1 <1>   0.0800 
@<TRIPOS>BOND
  1   1   2  1   
  2   2   3  ar  
  3   2   4  ar  
  4   3   5  ar  
  5   3  24  1   
  6   4   6  ar  
  7   4  25  1   
  8   5   7  ar  
  9   5   8  1   
 10   6   7  ar  
 11   6  26  1   
 12   7  27  1   
 13   8   9  1   
 14   8  28  1   
 15   8  29  1   
 16   9  10  1   
 17   9  30  1   
 18   9  31  1   
 19  10  11  2   
 20  10  12  am  
 21  12  13  1   
 22  12  14  1   
 23  13  15  1   
 24  13  32  1   
 25  13  33  1   
 26  14  16  1   
 27  14  34  1   
 28  14  35  1   
 29  15  17  1   
 30  15  18  2   
 31  16  19  1   
 32  16  36  1   
 33  16  37  1   
 34  17  20  1   
 35  17  38  1   
 36  18  21  1   
 37  18  39  1   
 38  19  22  1   
 39  19  23  1   
 40  19  40  1   
 41  20  21  2   
 42  20  41  1   
 43  22  42  1   
 44  22  43  1   
 45  22  44  1   
 46  23  45  1   
 47  23  46  1   
 48  23  47  1   
@<TRIPOS>SUBSTRUCTURE
  1 ****  10 GROUP 4 **** **** 0

# MOE 2024.06 (io_trps.svl 2023.06)
