@<TRIPOS>MOLECULE
NONAME
37 39 1 0 0 
SMALL
USER_CHARGES


@<TRIPOS>ATOM
  1 O        1.2810     0.0010     1.3740 O.3   1 <1>  -0.6800 
  2 C        1.5340    -0.1280     0.0110 C.3   1 <1>   0.2000 
  3 C        2.2850    -1.4330    -0.2800 C.3   1 <1>  -0.0800 
  4 C        2.5020     0.9780    -0.4310 C.3   1 <1>   0.2090 
  5 C        3.7560    -1.0670    -0.0860 C.3   1 <1>   0.2090 
  6 C        1.8500    -2.6630     0.5370 C.3   1 <1>  -0.0170 
  7 N        3.8610     0.3670    -0.4550 N.pl3 1 <1>  -0.8380 
  8 C        2.6190    -3.9040     0.1100 C.ar  1 <1>  -0.1440 
  9 C        5.0100     1.0890    -0.1790 C.ar  1 <1>   0.4100 
 10 C        2.2120    -4.6850    -0.9530 C.ar  1 <1>  -0.1500 
 11 C        3.7660    -4.3110     0.7620 C.ar  1 <1>  -0.1500 
 12 N        6.0480     0.4250     0.3050 N.ar  1 <1>  -0.6200 
 13 C        5.0960     2.4430    -0.4080 C.ar  1 <1>  -0.1500 
 14 C        2.9510    -5.8030    -1.3030 C.ar  1 <1>   0.1600 
 15 C        4.4320    -5.4460     0.3300 C.ar  1 <1>   0.1600 
 16 C        7.1260     1.1440     0.5500 C.ar  1 <1>   0.4700 
 17 C        6.2750     3.0780    -0.1060 C.ar  1 <1>   0.4100 
 18 N        4.0520    -6.2020    -0.6870 N.ar  1 <1>  -0.6200 
 19 N        7.3100     2.4380     0.3810 N.ar  1 <1>  -0.6200 
 20 N        6.4570     4.4110    -0.2770 N.pl3 1 <1>  -0.9000 
 21 H        0.6600    -0.6860     1.6790 H     1 <1>   0.4000 
 22 H        0.5940    -0.0640    -0.5110 H     1 <1>   0.0800 
 23 H        2.1580    -1.6550    -1.3250 H     1 <1>   0.0800 
 24 H        2.4590     1.8160     0.2430 H     1 <1>   0.0800 
 25 H        2.2560     1.3000    -1.4270 H     1 <1>   0.0800 
 26 H        4.4010    -1.6670    -0.7060 H     1 <1>   0.0800 
 27 H        4.0390    -1.1840     0.9460 H     1 <1>   0.0800 
 28 H        0.7970    -2.8350     0.3970 H     1 <1>   0.0800 
 29 H        2.0190    -2.4920     1.5860 H     1 <1>   0.0800 
 30 H        1.3300    -4.4370    -1.5130 H     1 <1>   0.1500 
 31 H        4.1510    -3.7580     1.5990 H     1 <1>   0.1500 
 32 H        4.2780     2.9920    -0.8200 H     1 <1>   0.1500 
 33 H        2.6190    -6.4000    -2.1350 H     1 <1>   0.1500 
 34 H        5.3260    -5.7470     0.8490 H     1 <1>   0.1500 
 35 H        7.9690     0.6000     0.9410 H     1 <1>   0.1500 
 36 H        7.3370     4.7520     0.1120 H     1 <1>   0.4000 
 37 H        5.6660     5.0320    -0.1160 H     1 <1>   0.4000 
@<TRIPOS>BOND
  1   1   2  1   
  2   1  21  1   
  3   2   3  1   
  4   2   4  1   
  5   2  22  1   
  6   3   5  1   
  7   3   6  1   
  8   3  23  1   
  9   4   7  1   
 10   4  24  1   
 11   4  25  1   
 12   5   7  1   
 13   5  26  1   
 14   5  27  1   
 15   6   8  1   
 16   6  28  1   
 17   6  29  1   
 18   7   9  1   
 19   8  10  ar  
 20   8  11  ar  
 21   9  12  ar  
 22   9  13  ar  
 23  10  14  ar  
 24  10  30  1   
 25  11  15  ar  
 26  11  31  1   
 27  12  16  ar  
 28  13  17  ar  
 29  13  32  1   
 30  14  18  ar  
 31  14  33  1   
 32  15  18  ar  
 33  15  34  1   
 34  16  19  ar  
 35  16  35  1   
 36  17  19  ar  
 37  17  20  1   
 38  20  36  1   
 39  20  37  1   
@<TRIPOS>SUBSTRUCTURE
  1 ****   5 GROUP 4 **** **** 0

# MOE 2024.06 (io_trps.svl 2023.06)
