@<TRIPOS>MOLECULE
NONAME
51 54 1 0 0 
SMALL
USER_CHARGES


@<TRIPOS>ATOM
  1 O       -1.4460    -1.2030    -1.6630 O.2   1 <1>  -0.5700 
  2 C       -1.1230    -2.2380    -1.0950 C.2   1 <1>   0.5440 
  3 N       -1.8600    -3.4050    -1.2720 N.am  1 <1>  -0.2980 
  4 C        0.0200    -2.2860    -0.2220 C.ar  1 <1>   0.0860 
  5 N       -1.5290    -4.6090    -0.6950 N.2   1 <1>  -0.5120 
  6 C       -3.0680    -3.4150    -2.1590 C.3   1 <1>   0.2010 
  7 C        0.3310    -3.5140     0.3750 C.ar  1 <1>   0.0860 
  8 C        0.8250    -1.1770     0.0550 C.ar  1 <1>  -0.1500 
  9 C       -0.5020    -4.6360     0.0760 C.2   1 <1>   0.3040 
 10 C       -4.3840    -3.6180    -1.4070 C.2   1 <1>   0.5690 
 11 C        1.4330    -3.5980     1.2330 C.ar  1 <1>  -0.1500 
 12 C        1.9080    -1.2750     0.9020 C.ar  1 <1>  -0.1500 
 13 O       -5.0060    -4.6300    -1.6490 O.2   1 <1>  -0.5700 
 14 N       -4.8740    -2.6790    -0.5280 N.am  1 <1>  -0.6600 
 15 C        2.2140    -2.4930     1.4940 C.ar  1 <1>  -0.1500 
 16 C       -6.1140    -2.9340     0.2600 C.3   1 <1>   0.1400 
 17 C       -4.2800    -1.3200    -0.3410 C.3   1 <1>   0.1400 
 18 C       -7.2330    -1.9510    -0.1510 C.3   1 <1>   0.0000 
 19 C       -5.2860    -0.3250     0.2610 C.3   1 <1>  -0.1600 
 20 C       -8.3770    -2.0150     0.8770 C.3   1 <1>   0.2000 
 21 C       -6.6820    -0.5040    -0.3560 C.3   1 <1>  -0.1600 
 22 C       -7.9590    -2.4110    -1.4260 C.3   1 <1>  -0.1600 
 23 O       -8.1030    -1.2340     2.0030 O.3   1 <1>  -0.5600 
 24 C       -9.6270    -1.5290     0.1360 C.3   1 <1>  -0.1600 
 25 C       -9.3460    -1.7640    -1.3560 C.3   1 <1>  -0.1600 
 26 C       -8.9280    -1.4720     3.0980 C.3   1 <1>   0.0400 
 27 H       -3.1300    -2.5110    -2.7310 H     1 <1>   0.0800 
 28 H       -2.9560    -4.2250    -2.8550 H     1 <1>   0.0800 
 29 H        0.5880    -0.2320    -0.4060 H     1 <1>   0.1500 
 30 H       -0.2340    -5.5690     0.5380 H     1 <1>   0.0600 
 31 H        1.6740    -4.5400     1.6930 H     1 <1>   0.1500 
 32 H        2.5200    -0.4120     1.1070 H     1 <1>   0.1500 
 33 H        3.0610    -2.5650     2.1560 H     1 <1>   0.1500 
 34 H       -6.4450    -3.9500     0.1390 H     1 <1>   0.0800 
 35 H       -5.8850    -2.7970     1.3030 H     1 <1>   0.0800 
 36 H       -3.4180    -1.3900     0.3000 H     1 <1>   0.0800 
 37 H       -3.9640    -0.9430    -1.2980 H     1 <1>   0.0800 
 38 H       -5.3440    -0.4690     1.3260 H     1 <1>   0.0800 
 39 H       -4.9360     0.6780     0.0920 H     1 <1>   0.0800 
 40 H       -8.5140    -3.0380     1.1870 H     1 <1>   0.0800 
 41 H       -6.5970    -0.2870    -1.4060 H     1 <1>   0.0800 
 42 H       -7.3540     0.2260     0.0590 H     1 <1>   0.0800 
 43 H       -7.4280    -2.1550    -2.3260 H     1 <1>   0.0800 
 44 H       -8.0750    -3.4820    -1.4070 H     1 <1>   0.0800 
 45 H      -10.4920    -2.0820     0.4540 H     1 <1>   0.0800 
 46 H       -9.7810    -0.4790     0.3120 H     1 <1>   0.0800 
 47 H      -10.0900    -2.3970    -1.8080 H     1 <1>   0.0800 
 48 H       -9.3320    -0.8190    -1.8720 H     1 <1>   0.0800 
 49 H       -8.6100    -0.8300     3.9000 H     1 <1>   0.0800 
 50 H       -8.8320    -2.5010     3.3990 H     1 <1>   0.0800 
 51 H       -9.9470    -1.2460     2.8370 H     1 <1>   0.0800 
@<TRIPOS>BOND
  1   1   2  2   
  2   2   3  am  
  3   2   4  1   
  4   3   5  1   
  5   3   6  1   
  6   4   7  ar  
  7   4   8  ar  
  8   5   9  2   
  9   6  10  1   
 10   6  27  1   
 11   6  28  1   
 12   7   9  1   
 13   7  11  ar  
 14   8  12  ar  
 15   8  29  1   
 16   9  30  1   
 17  10  13  2   
 18  10  14  am  
 19  11  15  ar  
 20  11  31  1   
 21  12  15  ar  
 22  12  32  1   
 23  14  16  1   
 24  14  17  1   
 25  15  33  1   
 26  16  18  1   
 27  16  34  1   
 28  16  35  1   
 29  17  19  1   
 30  17  36  1   
 31  17  37  1   
 32  18  20  1   
 33  18  21  1   
 34  18  22  1   
 35  19  21  1   
 36  19  38  1   
 37  19  39  1   
 38  20  23  1   
 39  20  24  1   
 40  20  40  1   
 41  21  41  1   
 42  21  42  1   
 43  22  25  1   
 44  22  43  1   
 45  22  44  1   
 46  23  26  1   
 47  24  25  1   
 48  24  45  1   
 49  24  46  1   
 50  25  47  1   
 51  25  48  1   
 52  26  49  1   
 53  26  50  1   
 54  26  51  1   
@<TRIPOS>SUBSTRUCTURE
  1 ****  14 GROUP 4 **** **** 0

# MOE 2024.06 (io_trps.svl 2023.06)
