@<TRIPOS>MOLECULE
NONAME
50 52 1 0 0 
SMALL
USER_CHARGES


@<TRIPOS>ATOM
  1 O       -1.7030     0.5470     2.0790 O.2   1 <1>  -0.5700 
  2 C       -1.7980     0.9940     0.9530 C.2   1 <1>   0.5440 
  3 N       -2.0780     0.1440    -0.0930 N.am  1 <1>  -0.6600 
  4 C       -1.6390     2.4200     0.7370 C.ar  1 <1>   0.0860 
  5 C       -2.0930    -1.3500     0.1020 C.3   1 <1>   0.3640 
  6 C       -2.7050     0.6530    -1.3550 C.3   1 <1>   0.1400 
  7 C       -2.4270     3.3400     1.4250 C.ar  1 <1>  -0.1500 
  8 C       -0.7010     2.9220    -0.1640 C.ar  1 <1>  -0.1500 
  9 C       -0.9050    -2.0400    -0.5910 C.ar  1 <1>  -0.1430 
 10 C       -3.4470    -1.9830    -0.3540 C.3   1 <1>   0.2000 
 11 C       -3.3880    -0.4590    -2.1640 C.3   1 <1>   0.1200 
 12 C       -2.3010     4.7000     1.2080 C.ar  1 <1>  -0.1500 
 13 C       -0.5710     4.2810    -0.3850 C.ar  1 <1>  -0.1500 
 14 C       -0.0720    -1.4190    -1.5160 C.ar  1 <1>  -0.1500 
 15 C       -0.6460    -3.3640    -0.2590 C.ar  1 <1>  -0.1500 
 16 O       -4.1660    -1.2340    -1.3100 O.3   1 <1>  -0.5600 
 17 C       -4.3860    -2.1950     0.8400 C.3   1 <1>   0.1200 
 18 C       -1.3740     5.1800     0.2970 C.ar  1 <1>  -0.1430 
 19 C        0.9720    -2.1090    -2.1070 C.ar  1 <1>  -0.1500 
 20 C        0.3970    -4.0570    -0.8470 C.ar  1 <1>  -0.1500 
 21 O       -3.9640    -3.2900     1.5900 O.3   1 <1>  -0.6800 
 22 C       -1.2350     6.6760     0.0560 C.3   1 <1>  -0.0170 
 23 C        1.2070    -3.4300    -1.7760 C.ar  1 <1>  -0.1500 
 24 C       -0.2030     7.2830     1.0120 C.3   1 <1>  -0.1600 
 25 C       -0.0440     8.7910     0.7880 C.3   1 <1>  -0.2400 
 26 H       -1.9750    -1.5720     1.1480 H     1 <1>   0.0800 
 27 H       -3.4460     1.3940    -1.1050 H     1 <1>   0.0800 
 28 H       -1.9590     1.1280    -1.9660 H     1 <1>   0.0800 
 29 H       -3.1430     2.9740     2.1400 H     1 <1>   0.1500 
 30 H       -0.0640     2.2330    -0.6890 H     1 <1>   0.1500 
 31 H       -3.2600    -2.9400    -0.8050 H     1 <1>   0.0800 
 32 H       -2.6670    -1.0920    -2.6530 H     1 <1>   0.0800 
 33 H       -4.0350    -0.0340    -2.9100 H     1 <1>   0.0800 
 34 H       -2.9250     5.3850     1.7550 H     1 <1>   0.1500 
 35 H        0.1630     4.6400    -1.0860 H     1 <1>   0.1500 
 36 H       -0.2170    -0.3910    -1.7860 H     1 <1>   0.1500 
 37 H       -1.2590    -3.8670     0.4700 H     1 <1>   0.1500 
 38 H       -5.3910    -2.3870     0.5060 H     1 <1>   0.0800 
 39 H       -4.3770    -1.3280     1.4790 H     1 <1>   0.0800 
 40 H        1.6060    -1.6160    -2.8230 H     1 <1>   0.1500 
 41 H        0.5810    -5.0830    -0.5790 H     1 <1>   0.1500 
 42 H       -4.2490    -4.1250     1.1690 H     1 <1>   0.4000 
 43 H       -0.9340     6.8500    -0.9620 H     1 <1>   0.0800 
 44 H       -2.1890     7.1540     0.1990 H     1 <1>   0.0800 
 45 H        2.0190    -3.9670    -2.2340 H     1 <1>   0.1500 
 46 H       -0.5110     7.1030     2.0290 H     1 <1>   0.0800 
 47 H        0.7470     6.7980     0.8660 H     1 <1>   0.0800 
 48 H       -0.9790     9.2970     0.9540 H     1 <1>   0.0800 
 49 H        0.2860     8.9900    -0.2160 H     1 <1>   0.0800 
 50 H        0.6850     9.1880     1.4730 H     1 <1>   0.0800 
@<TRIPOS>BOND
  1   1   2  2   
  2   2   3  am  
  3   2   4  1   
  4   3   5  1   
  5   3   6  1   
  6   4   7  ar  
  7   4   8  ar  
  8   5   9  1   
  9   5  10  1   
 10   5  26  1   
 11   6  11  1   
 12   6  27  1   
 13   6  28  1   
 14   7  12  ar  
 15   7  29  1   
 16   8  13  ar  
 17   8  30  1   
 18   9  14  ar  
 19   9  15  ar  
 20  10  16  1   
 21  10  17  1   
 22  10  31  1   
 23  11  16  1   
 24  11  32  1   
 25  11  33  1   
 26  12  18  ar  
 27  12  34  1   
 28  13  18  ar  
 29  13  35  1   
 30  14  19  ar  
 31  14  36  1   
 32  15  20  ar  
 33  15  37  1   
 34  17  21  1   
 35  17  38  1   
 36  17  39  1   
 37  18  22  1   
 38  19  23  ar  
 39  19  40  1   
 40  20  23  ar  
 41  20  41  1   
 42  21  42  1   
 43  22  24  1   
 44  22  43  1   
 45  22  44  1   
 46  23  45  1   
 47  24  25  1   
 48  24  46  1   
 49  24  47  1   
 50  25  48  1   
 51  25  49  1   
 52  25  50  1   
@<TRIPOS>SUBSTRUCTURE
  1 ****   3 GROUP 4 **** **** 0

# MOE 2024.06 (io_trps.svl 2023.06)
