@<TRIPOS>MOLECULE
NONAME
43 45 1 0 0 
SMALL
USER_CHARGES


@<TRIPOS>ATOM
  1 O        0.1090     0.2820     1.2320 O.3   1 <1>  -0.6800 
  2 C        0.8530    -0.0440     0.1050 C.3   1 <1>   0.2000 
  3 C        1.5140    -1.3980     0.3600 C.3   1 <1>  -0.0800 
  4 C        2.0410     0.9310     0.0170 C.3   1 <1>   0.3430 
  5 C        2.6530    -0.9880     1.2960 C.3   1 <1>   0.3430 
  6 C        1.9900    -2.0320    -0.9750 C.3   1 <1>  -0.0170 
  7 N        3.1990     0.2350     0.6690 N.4   1 <1>  -0.9590 
  8 C        3.2940    -2.8110    -0.8650 C.ar  1 <1>   0.1670 
  9 C        3.9770     1.1050     1.5760 C.3   1 <1>   0.5240 
 10 N        4.4090    -2.0900    -0.8700 N.ar  1 <1>  -0.6200 
 11 C        3.2710    -4.2010    -0.7720 C.ar  1 <1>   0.1600 
 12 C        4.5500     2.2170     0.7310 C.2   1 <1>  -0.1810 
 13 C        5.4890    -2.8580    -0.8010 C.ar  1 <1>   0.1600 
 14 N        4.3490    -4.9570    -0.6780 N.ar  1 <1>  -0.6200 
 15 C        5.5150     2.1880    -0.2180 C.2   1 <1>  -0.3320 
 16 C        4.1310     3.5410     0.7740 C.2   1 <1>   0.1390 
 17 C        5.4600    -4.2440    -0.7060 C.ar  1 <1>   0.1600 
 18 N        5.6250     3.4500    -0.6930 N.pl3 1 <1>   0.3140 
 19 C        6.3620     1.0230    -0.7130 C.3   1 <1>  -0.0600 
 20 N        4.7620     4.2760    -0.0820 N.2   1 <1>  -0.7070 
 21 C        6.5410     3.9470    -1.7310 C.3   1 <1>   0.0160 
 22 H       -0.7730    -0.1460     1.2180 H     1 <1>   0.4000 
 23 H        0.2110    -0.0040    -0.7590 H     1 <1>   0.0800 
 24 H        0.8520    -2.0840     0.8610 H     1 <1>   0.0800 
 25 H        1.7960     1.8530     0.5180 H     1 <1>   0.0800 
 26 H        2.2820     1.1410    -1.0120 H     1 <1>   0.0800 
 27 H        3.4020    -1.7570     1.3990 H     1 <1>   0.0800 
 28 H        2.2450    -0.7510     2.2670 H     1 <1>   0.0800 
 29 H        2.1410    -1.2750    -1.7240 H     1 <1>   0.0800 
 30 H        1.2150    -2.6770    -1.3520 H     1 <1>   0.0800 
 31 H        3.8460    -0.0810    -0.0750 H     1 <1>   0.4500 
 32 H        3.3440     1.5090     2.3490 H     1 <1>   0.0800 
 33 H        4.7790     0.5490     2.0320 H     1 <1>   0.0800 
 34 H        2.3250    -4.7150    -0.7760 H     1 <1>   0.1500 
 35 H        6.4500    -2.3730    -0.8220 H     1 <1>   0.1500 
 36 H        3.3710     3.9360     1.4290 H     1 <1>   0.1500 
 37 H        6.3900    -4.7820    -0.6510 H     1 <1>   0.1500 
 38 H        6.1760     0.1400    -0.1300 H     1 <1>   0.0800 
 39 H        7.4070     1.2660    -0.6300 H     1 <1>   0.0800 
 40 H        6.1370     0.8100    -1.7430 H     1 <1>   0.0800 
 41 H        6.4250     3.3580    -2.6200 H     1 <1>   0.0800 
 42 H        7.5500     3.8800    -1.3710 H     1 <1>   0.0800 
 43 H        6.3050     4.9730    -1.9460 H     1 <1>   0.0800 
@<TRIPOS>BOND
  1   1   2  1   
  2   1  22  1   
  3   2   3  1   
  4   2   4  1   
  5   2  23  1   
  6   3   5  1   
  7   3   6  1   
  8   3  24  1   
  9   4   7  1   
 10   4  25  1   
 11   4  26  1   
 12   5   7  1   
 13   5  27  1   
 14   5  28  1   
 15   6   8  1   
 16   6  29  1   
 17   6  30  1   
 18   7   9  1   
 19   7  31  1   
 20   8  10  ar  
 21   8  11  ar  
 22   9  12  1   
 23   9  32  1   
 24   9  33  1   
 25  10  13  ar  
 26  11  14  ar  
 27  11  34  1   
 28  12  15  2   
 29  12  16  1   
 30  13  17  ar  
 31  13  35  1   
 32  14  17  ar  
 33  15  18  1   
 34  15  19  1   
 35  16  20  2   
 36  16  36  1   
 37  17  37  1   
 38  18  20  1   
 39  18  21  1   
 40  19  38  1   
 41  19  39  1   
 42  19  40  1   
 43  21  41  1   
 44  21  42  1   
 45  21  43  1   
@<TRIPOS>SUBSTRUCTURE
  1 ****   7 GROUP 4 **** **** 0

# MOE 2024.06 (io_trps.svl 2023.06)
