@<TRIPOS>MOLECULE
NONAME
47 49 1 0 0 
SMALL
USER_CHARGES


@<TRIPOS>ATOM
  1 F       -2.5000     2.1950    -1.3170 F     1 <1>  -0.1900 
  2 C       -1.4980     2.5870    -0.5720 C.ar  1 <1>   0.1900 
  3 C       -0.3020     2.9320    -1.1780 C.ar  1 <1>   0.1900 
  4 C       -1.6580     2.6510     0.8080 C.ar  1 <1>   0.0860 
  5 F       -0.2000     2.8690    -2.4830 F     1 <1>  -0.1900 
  6 C        0.7930     3.3480    -0.4360 C.ar  1 <1>  -0.1440 
  7 C       -2.8980     2.3060     1.4630 C.2   1 <1>   0.5440 
  8 C       -0.5470     3.0620     1.5490 C.ar  1 <1>  -0.1500 
  9 C        0.6530     3.4060     0.9440 C.ar  1 <1>  -0.1500 
 10 C        2.1090     3.7250    -1.1020 C.3   1 <1>  -0.0960 
 11 O       -2.9220     1.3190     2.1730 O.2   1 <1>  -0.5700 
 12 N       -4.0360     3.0780     1.3390 N.am  1 <1>  -0.6600 
 13 C       -5.3420     2.6600     1.9180 C.3   1 <1>   0.1400 
 14 C       -4.0890     4.4000     0.6590 C.3   1 <1>   0.1400 
 15 C       -6.3910     2.6000     0.8040 C.3   1 <1>  -0.1600 
 16 C       -5.1220     4.3430    -0.4700 C.3   1 <1>  -0.1600 
 17 C       -6.5170     3.9330     0.0430 C.3   1 <1>   0.2800 
 18 O       -6.9580     4.8780     0.9900 O.3   1 <1>  -0.5600 
 19 C       -7.5390     3.8080    -1.1150 C.3   1 <1>  -0.1600 
 20 C       -7.4720     6.0880     0.5100 C.3   1 <1>   0.1200 
 21 C       -8.9090     4.4010    -0.7720 C.3   1 <1>   0.2800 
 22 C       -8.7400     5.8560    -0.3280 C.3   1 <1>  -0.1600 
 23 O       -9.4120     3.7100     0.2970 O.3   1 <1>  -0.6800 
 24 C       -9.9160     4.2510    -1.9080 C.3   1 <1>  -0.2400 
 25 H       -0.6350     3.1050     2.6220 H     1 <1>   0.1500 
 26 H        1.4810     3.7180     1.5580 H     1 <1>   0.1500 
 27 H        1.9540     4.5410    -1.7860 H     1 <1>   0.0800 
 28 H        2.4960     2.8850    -1.6510 H     1 <1>   0.0800 
 29 H        2.8410     4.0240    -0.3740 H     1 <1>   0.0800 
 30 H       -5.6400     3.3730     2.6680 H     1 <1>   0.0800 
 31 H       -5.2630     1.6950     2.3880 H     1 <1>   0.0800 
 32 H       -3.1290     4.6730     0.2610 H     1 <1>   0.0800 
 33 H       -4.3770     5.1490     1.3770 H     1 <1>   0.0800 
 34 H       -7.3390     2.3220     1.2250 H     1 <1>   0.0800 
 35 H       -6.1040     1.8200     0.1210 H     1 <1>   0.0800 
 36 H       -4.7910     3.6240    -1.1970 H     1 <1>   0.0800 
 37 H       -5.1650     5.2940    -0.9660 H     1 <1>   0.0800 
 38 H       -7.6490     2.7820    -1.4160 H     1 <1>   0.0800 
 39 H       -7.1610     4.3300    -1.9740 H     1 <1>   0.0800 
 40 H       -6.7120     6.5790    -0.0710 H     1 <1>   0.0800 
 41 H       -7.6980     6.7060     1.3620 H     1 <1>   0.0800 
 42 H       -8.6750     6.4880    -1.1950 H     1 <1>   0.0800 
 43 H       -9.6100     6.1740     0.2200 H     1 <1>   0.0800 
 44 H       -8.7940     3.8680     1.0430 H     1 <1>   0.4000 
 45 H       -9.5730     4.7700    -2.7840 H     1 <1>   0.0800 
 46 H      -10.8660     4.6620    -1.6170 H     1 <1>   0.0800 
 47 H      -10.0450     3.2120    -2.1550 H     1 <1>   0.0800 
@<TRIPOS>BOND
  1   1   2  1   
  2   2   3  ar  
  3   2   4  ar  
  4   3   5  1   
  5   3   6  ar  
  6   4   7  1   
  7   4   8  ar  
  8   6   9  ar  
  9   6  10  1   
 10   7  11  2   
 11   7  12  am  
 12   8   9  ar  
 13   8  25  1   
 14   9  26  1   
 15  10  27  1   
 16  10  28  1   
 17  10  29  1   
 18  12  13  1   
 19  12  14  1   
 20  13  15  1   
 21  13  30  1   
 22  13  31  1   
 23  14  16  1   
 24  14  32  1   
 25  14  33  1   
 26  15  17  1   
 27  15  34  1   
 28  15  35  1   
 29  16  17  1   
 30  16  36  1   
 31  16  37  1   
 32  17  18  1   
 33  17  19  1   
 34  18  20  1   
 35  19  21  1   
 36  19  38  1   
 37  19  39  1   
 38  20  22  1   
 39  20  40  1   
 40  20  41  1   
 41  21  22  1   
 42  21  23  1   
 43  21  24  1   
 44  22  42  1   
 45  22  43  1   
 46  23  44  1   
 47  24  45  1   
 48  24  46  1   
 49  24  47  1   
@<TRIPOS>SUBSTRUCTURE
  1 ****  14 GROUP 4 **** **** 0

# MOE 2024.06 (io_trps.svl 2023.06)
