@<TRIPOS>MOLECULE
NONAME
46 50 1 0 0 
SMALL
USER_CHARGES


@<TRIPOS>ATOM
  1 S       -0.2360     0.6010     0.3440 S.3   1 <1>   0.1810 
  2 N        0.3710     1.5370     1.6170 N.2   1 <1>  -0.2210 
  3 C        0.7700    -0.7570     0.7210 C.2   1 <1>  -0.0450 
  4 N        1.2550     0.9020     2.2510 N.2   1 <1>  -0.2270 
  5 C        1.5050    -0.3620     1.7760 C.2   1 <1>   0.0460 
  6 C        0.6950    -1.9420    -0.0860 C.2   1 <1>   0.7150 
  7 C        2.5750    -1.1660     2.4900 C.3   1 <1>  -0.0590 
  8 O        1.7220    -2.5330    -0.3670 O.2   1 <1>  -0.5700 
  9 N       -0.5030    -2.4530    -0.5370 N.am  1 <1>  -0.6600 
 10 C       -1.7780    -2.3540     0.2260 C.3   1 <1>   0.1400 
 11 C       -0.5680    -3.3730    -1.7070 C.3   1 <1>   0.1400 
 12 C       -2.1750    -3.7470     0.7180 C.3   1 <1>  -0.1600 
 13 C       -0.9590    -4.7720    -1.2330 C.3   1 <1>  -0.1600 
 14 C       -2.2680    -4.7510    -0.4380 C.3   1 <1>   0.4600 
 15 O       -3.2710    -4.3260    -1.3360 O.3   1 <1>  -0.5600 
 16 C       -2.6020    -6.1480     0.0690 C.2   1 <1>  -0.3320 
 17 C       -4.6110    -4.6310    -1.0290 C.3   1 <1>   0.1200 
 18 N       -1.8020    -6.9490     0.8370 N.pl3 1 <1>   0.0330 
 19 C       -3.7590    -6.7900    -0.1850 C.2   1 <1>  -0.1810 
 20 C       -4.8470    -6.1510    -1.0110 C.3   1 <1>   0.0210 
 21 C       -2.4740    -8.1240     1.0670 C.ar  1 <1>  -0.1520 
 22 C       -3.7120    -8.0570     0.4330 C.ar  1 <1>   0.0000 
 23 C       -2.0990    -9.2620     1.7860 C.ar  1 <1>  -0.1500 
 24 C       -4.5920    -9.1400     0.5150 C.ar  1 <1>  -0.1500 
 25 C       -2.9750   -10.3210     1.8590 C.ar  1 <1>  -0.1500 
 26 C       -4.2210   -10.2600     1.2230 C.ar  1 <1>  -0.1500 
 27 H        2.6770    -2.1440     2.0570 H     1 <1>   0.0800 
 28 H        2.3200    -1.2710     3.5290 H     1 <1>   0.0800 
 29 H        3.5190    -0.6570     2.4140 H     1 <1>   0.0800 
 30 H       -2.5460    -1.9560    -0.4160 H     1 <1>   0.0800 
 31 H       -1.6710    -1.7010     1.0740 H     1 <1>   0.0800 
 32 H        0.3820    -3.4110    -2.2140 H     1 <1>   0.0800 
 33 H       -1.3010    -3.0050    -2.4050 H     1 <1>   0.0800 
 34 H       -3.1100    -3.7020     1.2430 H     1 <1>   0.0800 
 35 H       -1.4360    -4.0850     1.4200 H     1 <1>   0.0800 
 36 H       -0.1650    -5.1590    -0.6230 H     1 <1>   0.0800 
 37 H       -1.0710    -5.4280    -2.0770 H     1 <1>   0.0800 
 38 H       -5.2320    -4.1690    -1.7750 H     1 <1>   0.0800 
 39 H       -4.8490    -4.2060    -0.0700 H     1 <1>   0.0800 
 40 H       -0.8580    -6.7350     1.1730 H     1 <1>   0.2700 
 41 H       -4.8180    -6.5400    -2.0130 H     1 <1>   0.0800 
 42 H       -5.8100    -6.3640    -0.5850 H     1 <1>   0.0800 
 43 H       -1.1400    -9.3020     2.2700 H     1 <1>   0.1500 
 44 H       -5.5430    -9.0790     0.0210 H     1 <1>   0.1500 
 45 H       -2.7100   -11.2090     2.4060 H     1 <1>   0.1500 
 46 H       -4.8870   -11.1020     1.2950 H     1 <1>   0.1500 
@<TRIPOS>BOND
  1   1   2  1   
  2   1   3  1   
  3   2   4  2   
  4   3   5  2   
  5   3   6  1   
  6   4   5  1   
  7   5   7  1   
  8   6   8  2   
  9   6   9  am  
 10   7  27  1   
 11   7  28  1   
 12   7  29  1   
 13   9  10  1   
 14   9  11  1   
 15  10  12  1   
 16  10  30  1   
 17  10  31  1   
 18  11  13  1   
 19  11  32  1   
 20  11  33  1   
 21  12  14  1   
 22  12  34  1   
 23  12  35  1   
 24  13  14  1   
 25  13  36  1   
 26  13  37  1   
 27  14  15  1   
 28  14  16  1   
 29  15  17  1   
 30  16  18  1   
 31  16  19  2   
 32  17  20  1   
 33  17  38  1   
 34  17  39  1   
 35  18  21  1   
 36  18  40  1   
 37  19  20  1   
 38  19  22  1   
 39  20  41  1   
 40  20  42  1   
 41  21  22  ar  
 42  21  23  ar  
 43  22  24  ar  
 44  23  25  ar  
 45  23  43  1   
 46  24  26  ar  
 47  24  44  1   
 48  25  26  ar  
 49  25  45  1   
 50  26  46  1   
@<TRIPOS>SUBSTRUCTURE
  1 ****  12 GROUP 4 **** **** 0

# MOE 2024.06 (io_trps.svl 2023.06)
