@<TRIPOS>MOLECULE
NONAME
43 44 1 0 0 
SMALL
USER_CHARGES


@<TRIPOS>ATOM
  1 S        0.1130     0.0240    -1.4100 S.o2  1 <1>   1.0900 
  2 O        1.4440    -0.3490    -1.8260 O.2   1 <1>  -0.6500 
  3 O       -1.0070    -0.1770    -2.2980 O.2   1 <1>  -0.6500 
  4 C        0.1400     1.7520    -0.9390 C.3   1 <1>  -0.0550 
  5 C       -0.2500    -0.8350     0.1100 C.3   1 <1>  -0.1350 
  6 C        1.3550     2.1410    -0.0800 C.3   1 <1>  -0.0990 
  7 C        1.2330     3.5750     0.3810 C.2   1 <1>   0.5690 
  8 O        0.3460     3.8250     1.1630 O.2   1 <1>  -0.5700 
  9 N        2.1160     4.4860    -0.1030 N.am  1 <1>  -0.4930 
 10 C        2.2750     5.8640     0.1930 C.2   1 <1>   0.0630 
 11 C        3.5280     6.4870     0.2270 C.2   1 <1>   0.3720 
 12 C        1.3900     6.8480     0.4690 C.2   1 <1>  -0.3320 
 13 N        3.4500     7.7450     0.5260 N.2   1 <1>  -0.7070 
 14 N        4.7460     5.8250    -0.0270 N.pl3 1 <1>  -0.8210 
 15 N        2.1270     7.9670     0.6850 N.pl3 1 <1>   0.3140 
 16 C       -0.1300     6.8100     0.5340 C.3   1 <1>  -0.0600 
 17 C        5.5490     5.6810     1.2180 C.3   1 <1>   0.2090 
 18 C        5.5830     6.5410    -1.0320 C.3   1 <1>   0.2090 
 19 C        1.6300     9.3000     1.0490 C.3   1 <1>   0.0160 
 20 C        6.9860     6.0000     0.8340 C.3   1 <1>  -0.1600 
 21 C        6.8400     6.9960    -0.3020 C.3   1 <1>  -0.1600 
 22 H       -0.7630     1.9910    -0.4070 H     1 <1>   0.0800 
 23 H        0.1510     2.3540    -1.8280 H     1 <1>   0.0800 
 24 H       -0.3250    -1.8890    -0.0780 H     1 <1>   0.0800 
 25 H       -1.1830    -0.4990     0.5200 H     1 <1>   0.0800 
 26 H        0.5260    -0.6780     0.8330 H     1 <1>   0.0800 
 27 H        2.2600     2.0060    -0.6460 H     1 <1>   0.0800 
 28 H        1.4100     1.5180     0.7930 H     1 <1>   0.0800 
 29 H        2.9450     4.1300    -0.5830 H     1 <1>   0.3700 
 30 H       -0.5040     5.9330     0.0380 H     1 <1>   0.0800 
 31 H       -0.5530     7.6680     0.0450 H     1 <1>   0.0800 
 32 H       -0.4550     6.7880     1.5590 H     1 <1>   0.0800 
 33 H        5.4610     4.6810     1.6070 H     1 <1>   0.0800 
 34 H        5.2080     6.3800     1.9650 H     1 <1>   0.0800 
 35 H        5.0640     7.3780    -1.4680 H     1 <1>   0.0800 
 36 H        5.8430     5.8490    -1.8140 H     1 <1>   0.0800 
 37 H        0.9660     9.2130     1.8880 H     1 <1>   0.0800 
 38 H        1.1120     9.7220     0.2090 H     1 <1>   0.0800 
 39 H        2.4630     9.9260     1.3110 H     1 <1>   0.0800 
 40 H        7.4640     5.1020     0.4830 H     1 <1>   0.0800 
 41 H        7.5410     6.4000     1.6640 H     1 <1>   0.0800 
 42 H        6.6670     7.9820     0.0940 H     1 <1>   0.0800 
 43 H        7.6970     7.0180    -0.9510 H     1 <1>   0.0800 
@<TRIPOS>BOND
  1   1   2  2   
  2   1   3  2   
  3   1   4  1   
  4   1   5  1   
  5   4   6  1   
  6   4  22  1   
  7   4  23  1   
  8   5  24  1   
  9   5  25  1   
 10   5  26  1   
 11   6   7  1   
 12   6  27  1   
 13   6  28  1   
 14   7   8  2   
 15   7   9  am  
 16   9  10  1   
 17   9  29  1   
 18  10  11  1   
 19  10  12  2   
 20  11  13  2   
 21  11  14  1   
 22  12  15  1   
 23  12  16  1   
 24  13  15  1   
 25  14  17  1   
 26  14  18  1   
 27  15  19  1   
 28  16  30  1   
 29  16  31  1   
 30  16  32  1   
 31  17  20  1   
 32  17  33  1   
 33  17  34  1   
 34  18  21  1   
 35  18  35  1   
 36  18  36  1   
 37  19  37  1   
 38  19  38  1   
 39  19  39  1   
 40  20  21  1   
 41  20  40  1   
 42  20  41  1   
 43  21  42  1   
 44  21  43  1   
@<TRIPOS>SUBSTRUCTURE
  1 ****   9 GROUP 4 **** **** 0

# MOE 2024.06 (io_trps.svl 2023.06)
