@<TRIPOS>MOLECULE
NONAME
53 55 1 0 0 
SMALL
USER_CHARGES


@<TRIPOS>ATOM
  1 F       -0.9560     2.1780     1.8070 F     1 <1>  -0.3400 
  2 C       -2.1470     2.4800     2.3160 C.3   1 <1>   1.1640 
  3 F       -2.0160     3.6710     2.8930 F     1 <1>  -0.3400 
  4 F       -2.3370     1.6190     3.3150 F     1 <1>  -0.3400 
  5 C       -3.2840     2.4440     1.2610 C.ar  1 <1>   0.1660 
  6 N       -3.2030     3.2110     0.1820 N.ar  1 <1>  -0.6200 
  7 C       -4.3710     1.6230     1.4350 C.ar  1 <1>  -0.1500 
  8 C       -4.2050     3.1420    -0.6880 C.ar  1 <1>   0.7200 
  9 C       -5.3610     1.6210     0.4750 C.ar  1 <1>   0.4100 
 10 N       -5.2830     2.3790    -0.5900 N.ar  1 <1>  -0.6200 
 11 N       -4.1090     3.9430    -1.8070 N.pl3 1 <1>  -0.8380 
 12 N       -6.4670     0.8010     0.5960 N.pl3 1 <1>  -0.8380 
 13 C       -2.8080     4.5170    -2.2500 C.3   1 <1>   0.1290 
 14 C       -5.3150     4.5020    -2.4760 C.3   1 <1>   0.1290 
 15 C       -7.1890     0.3930    -0.6390 C.3   1 <1>   0.2090 
 16 C       -7.3140     0.8770     1.8170 C.3   1 <1>   0.2090 
 17 C       -7.8990    -0.9650    -0.4320 C.3   1 <1>   0.4230 
 18 C       -7.9730    -0.4890     2.0380 C.3   1 <1>  -0.1600 
 19 N       -8.5650    -1.5170    -1.6900 N.4   1 <1>  -0.9590 
 20 C       -8.8210    -0.9690     0.8250 C.3   1 <1>   0.0000 
 21 C       -9.5880    -2.5800    -1.4250 C.3   1 <1>   0.3430 
 22 C       -9.1310    -0.4840    -2.6210 C.3   1 <1>   0.2630 
 23 C       -9.3050    -2.4230     1.1010 C.3   1 <1>  -0.1600 
 24 C      -10.0340    -0.0200     0.6060 C.3   1 <1>   0.1200 
 25 C       -9.2690    -3.3380    -0.1390 C.3   1 <1>  -0.1600 
 26 O      -10.7640     0.1540     1.7710 O.3   1 <1>  -0.6800 
 27 H       -4.4700     0.9770     2.2860 H     1 <1>   0.1500 
 28 H       -2.8090     4.6510    -3.3180 H     1 <1>   0.0800 
 29 H       -1.9990     3.8550    -1.9920 H     1 <1>   0.0800 
 30 H       -2.6490     5.4670    -1.7710 H     1 <1>   0.0800 
 31 H       -5.4640     4.0080    -3.4200 H     1 <1>   0.0800 
 32 H       -5.1860     5.5570    -2.6440 H     1 <1>   0.0800 
 33 H       -6.1910     4.3630    -1.8660 H     1 <1>   0.0800 
 34 H       -7.8880     1.1690    -0.8930 H     1 <1>   0.0800 
 35 H       -6.4780     0.2930    -1.4420 H     1 <1>   0.0800 
 36 H       -6.7160     1.1330     2.6760 H     1 <1>   0.0800 
 37 H       -8.0590     1.6460     1.6970 H     1 <1>   0.0800 
 38 H       -7.1040    -1.6500    -0.1900 H     1 <1>   0.0800 
 39 H       -7.1870    -1.1950     2.2420 H     1 <1>   0.0800 
 40 H       -8.5790    -0.4370     2.9260 H     1 <1>   0.0800 
 41 H       -7.8010    -1.9840    -2.2010 H     1 <1>   0.4500 
 42 H      -10.5630    -2.1310    -1.3240 H     1 <1>   0.0800 
 43 H       -9.6260    -3.2670    -2.2550 H     1 <1>   0.0800 
 44 H       -9.9110     0.0770    -2.1340 H     1 <1>   0.0800 
 45 H       -9.5450    -0.9580    -3.4960 H     1 <1>   0.0800 
 46 H       -8.3620     0.2000    -2.9410 H     1 <1>   0.0800 
 47 H       -8.6950    -2.8880     1.8580 H     1 <1>   0.0800 
 48 H      -10.3060    -2.4100     1.4960 H     1 <1>   0.0800 
 49 H      -10.7080    -0.4020    -0.1390 H     1 <1>   0.0800 
 50 H       -9.7140     0.9600     0.3010 H     1 <1>   0.0800 
 51 H       -9.9830    -4.1340    -0.0090 H     1 <1>   0.0800 
 52 H       -8.3000    -3.7980    -0.2320 H     1 <1>   0.0800 
 53 H      -11.1750    -0.6770     2.0810 H     1 <1>   0.4000 
@<TRIPOS>BOND
  1   1   2  1   
  2   2   3  1   
  3   2   4  1   
  4   2   5  1   
  5   5   6  ar  
  6   5   7  ar  
  7   6   8  ar  
  8   7   9  ar  
  9   7  27  1   
 10   8  10  ar  
 11   8  11  1   
 12   9  10  ar  
 13   9  12  1   
 14  11  13  1   
 15  11  14  1   
 16  12  15  1   
 17  12  16  1   
 18  13  28  1   
 19  13  29  1   
 20  13  30  1   
 21  14  31  1   
 22  14  32  1   
 23  14  33  1   
 24  15  17  1   
 25  15  34  1   
 26  15  35  1   
 27  16  18  1   
 28  16  36  1   
 29  16  37  1   
 30  17  19  1   
 31  17  20  1   
 32  17  38  1   
 33  18  20  1   
 34  18  39  1   
 35  18  40  1   
 36  19  21  1   
 37  19  22  1   
 38  19  41  1   
 39  20  23  1   
 40  20  24  1   
 41  21  25  1   
 42  21  42  1   
 43  21  43  1   
 44  22  44  1   
 45  22  45  1   
 46  22  46  1   
 47  23  25  1   
 48  23  47  1   
 49  23  48  1   
 50  24  26  1   
 51  24  49  1   
 52  24  50  1   
 53  25  51  1   
 54  25  52  1   
 55  26  53  1   
@<TRIPOS>SUBSTRUCTURE
  1 ****  12 GROUP 4 **** **** 0

# MOE 2024.06 (io_trps.svl 2023.06)
