@<TRIPOS>MOLECULE
NONAME
19 20 1 0 0 
SMALL
USER_CHARGES


@<TRIPOS>ATOM
  1 O        0.2450     0.3680     0.0500 O.co2 1 <1>  -0.9000 
  2 C        0.0450     1.5830    -0.0700 C.2   1 <1>   0.9060 
  3 O       -1.0750     2.0820     0.0870 O.co2 1 <1>  -0.9000 
  4 C        1.1940     2.4600    -0.5280 C.3   1 <1>  -0.1860 
  5 C        2.5510     2.0740     0.1560 C.3   1 <1>   0.2000 
  6 C        1.0740     3.9890    -0.1660 C.3   1 <1>  -0.1600 
  7 O        2.5490     3.1400     0.9170 O.3   1 <1>  -0.5600 
  8 C        3.9590     2.4500    -0.4270 C.3   1 <1>  -0.1600 
  9 C        2.5620     4.0420    -0.1280 C.3   1 <1>   0.2000 
 10 C        4.0530     3.9880    -0.1160 C.3   1 <1>  -0.1600 
 11 H        1.2850     2.3160    -1.5870 H     1 <1>   0.0800 
 12 H        2.5230     1.1870     0.7680 H     1 <1>   0.0800 
 13 H        0.5850     4.1810     0.7780 H     1 <1>   0.0800 
 14 H        0.6040     4.5390    -0.9620 H     1 <1>   0.0800 
 15 H        4.7390     1.9020     0.0710 H     1 <1>   0.0800 
 16 H        3.9870     2.2370    -1.4810 H     1 <1>   0.0800 
 17 H        2.5730     4.7760    -0.9170 H     1 <1>   0.0800 
 18 H        4.5320     4.5260    -0.9160 H     1 <1>   0.0800 
 19 H        4.4940     4.2310     0.8380 H     1 <1>   0.0800 
@<TRIPOS>BOND
  1   1   2  ar  
  2   2   3  ar  
  3   2   4  1   
  4   4   5  1   
  5   4   6  1   
  6   4  11  1   
  7   5   7  1   
  8   5   8  1   
  9   5  12  1   
 10   6   9  1   
 11   6  13  1   
 12   6  14  1   
 13   7   9  1   
 14   8  10  1   
 15   8  15  1   
 16   8  16  1   
 17   9  10  1   
 18   9  17  1   
 19  10  18  1   
 20  10  19  1   
@<TRIPOS>SUBSTRUCTURE
  1 ****   4 GROUP 4 **** **** 0

# MOE 2024.06 (io_trps.svl 2023.06)
