@<TRIPOS>MOLECULE
NONAME
46 48 1 0 0 
SMALL
USER_CHARGES


@<TRIPOS>ATOM
  1 CL      -0.2320     1.9770    -0.8330 Cl    1 <1>  -0.1770 
  2 C        1.4020     1.8290    -0.2160 C.ar  1 <1>   0.1770 
  3 C        2.0590     0.6070    -0.0160 C.ar  1 <1>   0.0830 
  4 C        2.0340     3.0260     0.0630 C.ar  1 <1>  -0.1500 
  5 O        1.5840    -0.6450    -0.2390 O.3   1 <1>  -0.3630 
  6 C        3.3570     0.6480     0.4720 C.ar  1 <1>  -0.1500 
  7 C        3.3410     3.0710     0.5460 C.ar  1 <1>   0.0860 
  8 C        0.2630    -0.9490    -0.6210 C.3   1 <1>   0.0400 
  9 C        3.9830     1.8480     0.7500 C.ar  1 <1>  -0.1500 
 10 C        3.9970     4.3390     0.8200 C.2   1 <1>   0.5440 
 11 O        3.3550     5.3530     1.0160 O.2   1 <1>  -0.5700 
 12 N        5.3640     4.4780     0.8010 N.am  1 <1>  -0.6600 
 13 C        6.0280     5.3840     1.8150 C.3   1 <1>   0.1400 
 14 C        6.1050     4.1260    -0.4500 C.3   1 <1>   0.1400 
 15 C        6.2810     6.8340     1.3170 C.3   1 <1>   0.4230 
 16 C        6.9330     5.2830    -1.0470 C.3   1 <1>  -0.0800 
 17 N        5.4810     7.0500     0.0570 N.4   1 <1>  -0.9590 
 18 C        7.8060     7.1600     1.2360 C.3   1 <1>   0.1200 
 19 C        8.2900     5.4160    -0.3330 C.3   1 <1>   0.1200 
 20 C        6.1840     6.6330    -1.1890 C.3   1 <1>   0.3430 
 21 C        4.9310     8.4710    -0.0350 C.3   1 <1>   0.2370 
 22 O        8.4840     6.7210     0.0840 O.3   1 <1>  -0.5600 
 23 C        5.8650     9.6200     0.3550 C.2   1 <1>   0.9060 
 24 O        6.1030     9.7810     1.5590 O.co2 1 <1>  -0.9000 
 25 O        6.3890    10.2850    -0.5390 O.co2 1 <1>  -0.9000 
 26 H        1.4980     3.9450    -0.0970 H     1 <1>   0.1500 
 27 H        3.8730    -0.2820     0.6380 H     1 <1>   0.1500 
 28 H        0.1620    -2.0190    -0.6470 H     1 <1>   0.0800 
 29 H        0.0790    -0.5470    -1.6020 H     1 <1>   0.0800 
 30 H       -0.4170    -0.5400     0.1050 H     1 <1>   0.0800 
 31 H        4.9860     1.8340     1.1390 H     1 <1>   0.1500 
 32 H        5.3890     5.4520     2.6790 H     1 <1>   0.0800 
 33 H        6.9430     4.9350     2.1560 H     1 <1>   0.0800 
 34 H        6.7480     3.2850    -0.2490 H     1 <1>   0.0800 
 35 H        5.3930     3.8050    -1.1930 H     1 <1>   0.0800 
 36 H        5.8830     7.4840     2.0810 H     1 <1>   0.0800 
 37 H        7.1780     4.9780    -2.0490 H     1 <1>   0.0800 
 38 H        4.6680     6.4170     0.1910 H     1 <1>   0.4500 
 39 H        8.3130     6.7520     2.0920 H     1 <1>   0.0800 
 40 H        7.9460     8.2250     1.2790 H     1 <1>   0.0800 
 41 H        9.0860     5.1930    -1.0240 H     1 <1>   0.0800 
 42 H        8.3940     4.7580     0.5120 H     1 <1>   0.0800 
 43 H        5.4630     6.5580    -1.9850 H     1 <1>   0.0800 
 44 H        6.8940     7.3990    -1.4650 H     1 <1>   0.0800 
 45 H        4.5920     8.6650    -1.0360 H     1 <1>   0.0800 
 46 H        4.0810     8.5520     0.6180 H     1 <1>   0.0800 
@<TRIPOS>BOND
  1   1   2  1   
  2   2   3  ar  
  3   2   4  ar  
  4   3   5  1   
  5   3   6  ar  
  6   4   7  ar  
  7   4  26  1   
  8   5   8  1   
  9   6   9  ar  
 10   6  27  1   
 11   7   9  ar  
 12   7  10  1   
 13   8  28  1   
 14   8  29  1   
 15   8  30  1   
 16   9  31  1   
 17  10  11  2   
 18  10  12  am  
 19  12  13  1   
 20  12  14  1   
 21  13  15  1   
 22  13  32  1   
 23  13  33  1   
 24  14  16  1   
 25  14  34  1   
 26  14  35  1   
 27  15  17  1   
 28  15  18  1   
 29  15  36  1   
 30  16  19  1   
 31  16  20  1   
 32  16  37  1   
 33  17  20  1   
 34  17  21  1   
 35  17  38  1   
 36  18  22  1   
 37  18  39  1   
 38  18  40  1   
 39  19  22  1   
 40  19  41  1   
 41  19  42  1   
 42  20  43  1   
 43  20  44  1   
 44  21  23  1   
 45  21  45  1   
 46  21  46  1   
 47  23  24  ar  
 48  23  25  ar  
@<TRIPOS>SUBSTRUCTURE
  1 ****  10 GROUP 4 **** **** 0

# MOE 2024.06 (io_trps.svl 2023.06)
