@<TRIPOS>MOLECULE
NONAME
44 46 1 0 0 
SMALL
USER_CHARGES


@<TRIPOS>ATOM
  1 O       -1.0870    -0.3210     0.1340 O.2   1 <1>  -0.5700 
  2 C       -1.7500     0.6470    -0.1930 C.2   1 <1>   0.7150 
  3 N       -3.0780     0.4500    -0.4950 N.am  1 <1>  -0.6600 
  4 C       -1.1800     1.9640    -0.2010 C.2   1 <1>  -0.2370 
  5 C       -3.5300    -0.8970    -0.9330 C.3   1 <1>   0.1400 
  6 C       -4.0880     1.1640     0.3430 C.3   1 <1>   0.1400 
  7 N       -1.6520     2.9880    -0.9760 N.pl3 1 <1>   0.0330 
  8 C       -0.1060     2.4460     0.5020 C.2   1 <1>  -0.1500 
  9 C       -4.3770    -1.4540     0.2300 C.3   1 <1>   0.4230 
 10 C       -5.5060     0.5170     0.2340 C.3   1 <1>  -0.1600 
 11 C       -0.8960     4.0880    -0.7480 C.2   1 <1>  -0.3020 
 12 C        0.0680     3.7850     0.1610 C.2   1 <1>  -0.1500 
 13 N       -3.8820    -2.7790     0.7460 N.4   1 <1>  -0.9590 
 14 C       -5.9020    -1.0510    -0.0110 C.3   1 <1>   0.0000 
 15 C       -4.2040    -3.8550    -0.1710 C.3   1 <1>   0.3430 
 16 C       -2.4290    -2.7640     1.1230 C.3   1 <1>   0.2630 
 17 C       -6.3880    -2.5660    -0.3340 C.3   1 <1>  -0.1600 
 18 C       -7.4330    -0.5740    -0.1840 C.3   1 <1>   0.1200 
 19 C       -5.6950    -3.9170    -0.0500 C.3   1 <1>  -0.1600 
 20 O       -8.0540    -0.6640     1.0600 O.3   1 <1>  -0.6800 
 21 H       -4.1300    -0.7950    -1.8210 H     1 <1>   0.0800 
 22 H       -2.6920    -1.5250    -1.1760 H     1 <1>   0.0800 
 23 H       -3.7620     1.1430     1.3710 H     1 <1>   0.0800 
 24 H       -4.1360     2.2000     0.0490 H     1 <1>   0.0800 
 25 H       -2.4350     2.9180    -1.6350 H     1 <1>   0.2700 
 26 H        0.5080     1.8980     1.1980 H     1 <1>   0.1500 
 27 H       -4.1030    -0.8640     1.0840 H     1 <1>   0.0800 
 28 H       -6.0390     0.8970     1.0930 H     1 <1>   0.0800 
 29 H       -5.8410     1.0790    -0.6230 H     1 <1>   0.0800 
 30 H       -1.0700     5.0280    -1.2420 H     1 <1>   0.1500 
 31 H        0.8320     4.4350     0.5540 H     1 <1>   0.1500 
 32 H       -4.4240    -2.9540     1.6040 H     1 <1>   0.4500 
 33 H       -3.8950    -3.6200    -1.1770 H     1 <1>   0.0800 
 34 H       -3.7590    -4.7850     0.1450 H     1 <1>   0.0800 
 35 H       -1.8070    -2.6560     0.2490 H     1 <1>   0.0800 
 36 H       -2.1590    -3.6790     1.6230 H     1 <1>   0.0800 
 37 H       -2.2210    -1.9370     1.7830 H     1 <1>   0.0800 
 38 H       -7.3500    -2.7930     0.1050 H     1 <1>   0.0800 
 39 H       -6.5370    -2.5840    -1.4030 H     1 <1>   0.0800 
 40 H       -8.0230    -1.1470    -0.8830 H     1 <1>   0.0800 
 41 H       -7.6290     0.4290    -0.5270 H     1 <1>   0.0800 
 42 H       -6.0700    -4.6620    -0.7310 H     1 <1>   0.0800 
 43 H       -5.9510    -4.2540     0.9410 H     1 <1>   0.0800 
 44 H       -8.9970    -0.4040     1.0070 H     1 <1>   0.4000 
@<TRIPOS>BOND
  1   1   2  2   
  2   2   3  am  
  3   2   4  1   
  4   3   5  1   
  5   3   6  1   
  6   4   7  1   
  7   4   8  2   
  8   5   9  1   
  9   5  21  1   
 10   5  22  1   
 11   6  10  1   
 12   6  23  1   
 13   6  24  1   
 14   7  11  1   
 15   7  25  1   
 16   8  12  1   
 17   8  26  1   
 18   9  13  1   
 19   9  14  1   
 20   9  27  1   
 21  10  14  1   
 22  10  28  1   
 23  10  29  1   
 24  11  12  2   
 25  11  30  1   
 26  12  31  1   
 27  13  15  1   
 28  13  16  1   
 29  13  32  1   
 30  14  17  1   
 31  14  18  1   
 32  15  19  1   
 33  15  33  1   
 34  15  34  1   
 35  16  35  1   
 36  16  36  1   
 37  16  37  1   
 38  17  19  1   
 39  17  38  1   
 40  17  39  1   
 41  18  20  1   
 42  18  40  1   
 43  18  41  1   
 44  19  42  1   
 45  19  43  1   
 46  20  44  1   
@<TRIPOS>SUBSTRUCTURE
  1 ****   3 GROUP 4 **** **** 0

# MOE 2024.06 (io_trps.svl 2023.06)
