@<TRIPOS>MOLECULE
NONAME
48 50 1 0 0 
SMALL
USER_CHARGES


@<TRIPOS>ATOM
  1 O        1.5060    -1.0130     1.6080 O.3   1 <1>  -0.6800 
  2 C        1.6920    -1.4510     0.3150 C.3   1 <1>   0.2000 
  3 C        2.0780    -2.9230     0.3290 C.3   1 <1>  -0.1600 
  4 C        2.8850    -0.7290    -0.2900 C.3   1 <1>  -0.1600 
  5 C        2.9990    -3.1180    -0.8840 C.3   1 <1>  -0.0800 
  6 C        3.5040    -1.7210    -1.2850 C.3   1 <1>  -0.0800 
  7 C        4.2540    -3.9390    -0.5610 C.3   1 <1>  -0.1600 
  8 C        5.0310    -1.7780    -1.1820 C.3   1 <1>  -0.1600 
  9 C        5.2900    -2.8870    -0.1670 C.3   1 <1>   0.4230 
 10 N        6.7200    -3.3220    -0.2060 N.4   1 <1>  -0.9590 
 11 C        7.4880    -2.7380     0.9370 C.3   1 <1>   0.4860 
 12 C        6.9480    -4.8000    -0.2580 C.3   1 <1>   0.2630 
 13 C        7.4930    -1.2240     0.8470 C.ar  1 <1>  -0.1430 
 14 C        8.3550    -0.5370    -0.0080 C.ar  1 <1>  -0.1430 
 15 C        6.6030    -0.5140     1.6440 C.ar  1 <1>  -0.1500 
 16 C        8.2880     0.8470    -0.0610 C.ar  1 <1>  -0.1500 
 17 C        9.3940    -1.2310    -0.8850 C.3   1 <1>  -0.0170 
 18 C        6.5470     0.8650     1.5790 C.ar  1 <1>  -0.1500 
 19 C        7.3890     1.5460     0.7230 C.ar  1 <1>  -0.1500 
 20 C       10.6820    -1.4810    -0.0970 C.3   1 <1>  -0.2400 
 21 H        0.6910    -1.3990     1.9830 H     1 <1>   0.4000 
 22 H        0.7990    -1.2760    -0.2620 H     1 <1>   0.0800 
 23 H        2.6040    -3.1440     1.2420 H     1 <1>   0.0800 
 24 H        1.2070    -3.5510     0.2590 H     1 <1>   0.0800 
 25 H        2.5770     0.1760    -0.7820 H     1 <1>   0.0800 
 26 H        3.5860    -0.4840     0.4900 H     1 <1>   0.0800 
 27 H        2.4440    -3.5630    -1.6950 H     1 <1>   0.0800 
 28 H        3.1900    -1.4760    -2.2870 H     1 <1>   0.0800 
 29 H        4.5530    -4.4460    -1.4610 H     1 <1>   0.0800 
 30 H        4.0750    -4.6550     0.2220 H     1 <1>   0.0800 
 31 H        5.4420    -0.8280    -0.8890 H     1 <1>   0.0800 
 32 H        5.4290    -2.0560    -2.1420 H     1 <1>   0.0800 
 33 H        5.0370    -2.5200     0.8150 H     1 <1>   0.0800 
 34 H        7.1110    -2.8850    -1.0490 H     1 <1>   0.4500 
 35 H        7.0480    -3.0430     1.8720 H     1 <1>   0.0800 
 36 H        8.5060    -3.0910     0.9150 H     1 <1>   0.0800 
 37 H        6.5060    -5.2780     0.6010 H     1 <1>   0.0800 
 38 H        8.0040    -5.0180    -0.2710 H     1 <1>   0.0800 
 39 H        6.5070    -5.2170    -1.1490 H     1 <1>   0.0800 
 40 H        5.9390    -1.0200     2.3250 H     1 <1>   0.1500 
 41 H        8.9450     1.3990    -0.7110 H     1 <1>   0.1500 
 42 H        9.0220    -2.1590    -1.2760 H     1 <1>   0.0800 
 43 H        9.6230    -0.6070    -1.7330 H     1 <1>   0.0800 
 44 H        5.8510     1.4100     2.1950 H     1 <1>   0.1500 
 45 H        7.3490     2.6210     0.6700 H     1 <1>   0.1500 
 46 H       10.5010    -2.1110     0.7530 H     1 <1>   0.0800 
 47 H       11.0850    -0.5460     0.2530 H     1 <1>   0.0800 
 48 H       11.4180    -1.9500    -0.7270 H     1 <1>   0.0800 
@<TRIPOS>BOND
  1   1   2  1   
  2   1  21  1   
  3   2   3  1   
  4   2   4  1   
  5   2  22  1   
  6   3   5  1   
  7   3  23  1   
  8   3  24  1   
  9   4   6  1   
 10   4  25  1   
 11   4  26  1   
 12   5   6  1   
 13   5   7  1   
 14   5  27  1   
 15   6   8  1   
 16   6  28  1   
 17   7   9  1   
 18   7  29  1   
 19   7  30  1   
 20   8   9  1   
 21   8  31  1   
 22   8  32  1   
 23   9  10  1   
 24   9  33  1   
 25  10  11  1   
 26  10  12  1   
 27  10  34  1   
 28  11  13  1   
 29  11  35  1   
 30  11  36  1   
 31  12  37  1   
 32  12  38  1   
 33  12  39  1   
 34  13  14  ar  
 35  13  15  ar  
 36  14  16  ar  
 37  14  17  1   
 38  15  18  ar  
 39  15  40  1   
 40  16  19  ar  
 41  16  41  1   
 42  17  20  1   
 43  17  42  1   
 44  17  43  1   
 45  18  19  ar  
 46  18  44  1   
 47  19  45  1   
 48  20  46  1   
 49  20  47  1   
 50  20  48  1   
@<TRIPOS>SUBSTRUCTURE
  1 ****   9 GROUP 4 **** **** 0

# MOE 2024.06 (io_trps.svl 2023.06)
