@<TRIPOS>MOLECULE
NONAME
48 50 1 0 0 
SMALL
USER_CHARGES


@<TRIPOS>ATOM
  1 O        0.2430     1.0620     3.4040 O.2   1 <1>  -0.5700 
  2 C        0.2360     1.7560     2.4130 C.2   1 <1>   0.5690 
  3 N       -0.8490     1.8010     1.5760 N.am  1 <1>  -0.6600 
  4 C        1.4940     2.5890     2.1120 C.3   1 <1>   0.2700 
  5 C       -0.8230     2.6150     0.3280 C.3   1 <1>   0.1400 
  6 C       -2.0610     0.9710     1.8110 C.3   1 <1>   0.2840 
  7 N        1.3960     3.5940     0.9840 N.pl3 1 <1>  -0.8380 
  8 C        0.0150     3.8920     0.4900 C.3   1 <1>   0.2090 
  9 C       -2.2970     0.0350     0.6340 C.ar  1 <1>  -0.1440 
 10 C        2.5030     4.2830     0.5690 C.ar  1 <1>   0.7200 
 11 C       -1.3800    -0.9680     0.3590 C.ar  1 <1>  -0.1500 
 12 C       -3.4220     0.1710    -0.1670 C.ar  1 <1>  -0.1500 
 13 N        2.3360     5.2370    -0.3460 N.ar  1 <1>  -0.6200 
 14 N        3.6680     3.9480     1.1170 N.ar  1 <1>  -0.6200 
 15 C       -1.5820    -1.8360    -0.7110 C.ar  1 <1>   0.0830 
 16 C       -3.6280    -0.6890    -1.2320 C.ar  1 <1>  -0.1500 
 17 C        3.3950     5.9020    -0.7290 C.ar  1 <1>   0.1670 
 18 C        4.7130     4.6320     0.7270 C.ar  1 <1>   0.1600 
 19 O       -0.7310    -2.8390    -1.0400 O.3   1 <1>  -0.3630 
 20 C       -2.7110    -1.6890    -1.5010 C.ar  1 <1>  -0.1500 
 21 C        4.6590     5.6670    -0.1910 C.ar  1 <1>   0.0860 
 22 C        3.1450     6.9260    -1.8240 C.3   1 <1>  -0.0970 
 23 C        0.4620    -3.0480    -0.3170 C.3   1 <1>   0.0400 
 24 C        5.8650     6.3830    -0.4980 C.2   1 <1>   0.4230 
 25 O        6.9200     5.8270    -0.6540 O.2   1 <1>  -0.5700 
 26 C        5.8780     7.8970    -0.5690 C.3   1 <1>  -0.1790 
 27 H        2.2870     1.8980     1.8920 H     1 <1>   0.0800 
 28 H        1.7620     3.1130     3.0110 H     1 <1>   0.0800 
 29 H       -1.8270     2.8920     0.0560 H     1 <1>   0.0800 
 30 H       -0.4150     2.0200    -0.4720 H     1 <1>   0.0800 
 31 H       -2.9080     1.6190     1.9480 H     1 <1>   0.0800 
 32 H       -1.9510     0.3850     2.7070 H     1 <1>   0.0800 
 33 H       -0.4710     4.5500     1.1890 H     1 <1>   0.0800 
 34 H        0.0500     4.3920    -0.4620 H     1 <1>   0.0800 
 35 H       -0.5160    -1.0560     0.9910 H     1 <1>   0.1500 
 36 H       -4.1430     0.9440     0.0330 H     1 <1>   0.1500 
 37 H       -4.5020    -0.5840    -1.8510 H     1 <1>   0.1500 
 38 H        5.6680     4.3740     1.1540 H     1 <1>   0.1500 
 39 H       -2.8630    -2.3620    -2.3240 H     1 <1>   0.1500 
 40 H        2.2770     6.6460    -2.3960 H     1 <1>   0.0800 
 41 H        3.9770     6.9790    -2.5010 H     1 <1>   0.0800 
 42 H        2.9650     7.8920    -1.3910 H     1 <1>   0.0800 
 43 H        0.9790    -3.8810    -0.7590 H     1 <1>   0.0800 
 44 H        0.2160    -3.2710     0.7060 H     1 <1>   0.0800 
 45 H        1.0700    -2.1630    -0.3830 H     1 <1>   0.0800 
 46 H        5.0270     8.3140    -0.0640 H     1 <1>   0.0800 
 47 H        5.8860     8.2150    -1.5950 H     1 <1>   0.0800 
 48 H        6.7690     8.2660    -0.0930 H     1 <1>   0.0800 
@<TRIPOS>BOND
  1   1   2  2   
  2   2   3  am  
  3   2   4  1   
  4   3   5  1   
  5   3   6  1   
  6   4   7  1   
  7   4  27  1   
  8   4  28  1   
  9   5   8  1   
 10   5  29  1   
 11   5  30  1   
 12   6   9  1   
 13   6  31  1   
 14   6  32  1   
 15   7   8  1   
 16   7  10  1   
 17   8  33  1   
 18   8  34  1   
 19   9  11  ar  
 20   9  12  ar  
 21  10  13  ar  
 22  10  14  ar  
 23  11  15  ar  
 24  11  35  1   
 25  12  16  ar  
 26  12  36  1   
 27  13  17  ar  
 28  14  18  ar  
 29  15  19  1   
 30  15  20  ar  
 31  16  20  ar  
 32  16  37  1   
 33  17  21  ar  
 34  17  22  1   
 35  18  21  ar  
 36  18  38  1   
 37  19  23  1   
 38  20  39  1   
 39  21  24  1   
 40  22  40  1   
 41  22  41  1   
 42  22  42  1   
 43  23  43  1   
 44  23  44  1   
 45  23  45  1   
 46  24  25  2   
 47  24  26  1   
 48  26  46  1   
 49  26  47  1   
 50  26  48  1   
@<TRIPOS>SUBSTRUCTURE
  1 ****   7 GROUP 4 **** **** 0

# MOE 2024.06 (io_trps.svl 2023.06)
