@<TRIPOS>MOLECULE
NONAME
53 56 1 0 0 
SMALL
USER_CHARGES


@<TRIPOS>ATOM
  1 O        0.3540    -0.1620     1.0990 O.3   1 <1>  -0.5600 
  2 C        0.2520    -1.5170     0.7490 C.3   1 <1>   0.1200 
  3 C        1.2270     0.5600     0.2840 C.3   1 <1>   0.1200 
  4 C        1.6300    -2.2120     0.8060 C.3   1 <1>   0.3340 
  5 C        2.6450    -0.0350     0.3830 C.3   1 <1>   0.1900 
  6 N        2.6350    -1.4680     0.0020 N.3   1 <1>  -0.8100 
  7 C        1.5110    -3.6490     0.3050 C.ar  1 <1>  -0.1440 
  8 C        3.6220     0.7510    -0.5160 C.3   1 <1>   0.3430 
  9 C        3.9850    -2.0600     0.1000 C.3   1 <1>   0.1100 
 10 C        1.6370    -4.7080     1.1930 C.ar  1 <1>  -0.1500 
 11 C        1.2840    -3.9180    -1.0390 C.ar  1 <1>  -0.1500 
 12 N        5.0150     0.1640    -0.5060 N.4   1 <1>  -0.9590 
 13 C        4.9840    -1.3100    -0.8030 C.3   1 <1>   0.3430 
 14 C        1.5410    -6.0140     0.7440 C.ar  1 <1>  -0.1500 
 15 C        1.1860    -5.2230    -1.4880 C.ar  1 <1>  -0.1500 
 16 C        5.9240     0.8870    -1.4340 C.3   1 <1>   0.4860 
 17 C        1.3160    -6.2720    -0.5960 C.ar  1 <1>  -0.1500 
 18 C        6.0450     2.3240    -0.9670 C.ar  1 <1>  -0.1440 
 19 C        5.2580     3.3050    -1.5520 C.ar  1 <1>  -0.1500 
 20 C        6.9270     2.6740     0.0480 C.ar  1 <1>  -0.1500 
 21 C        5.3400     4.6090    -1.1060 C.ar  1 <1>   0.0820 
 22 C        7.0160     3.9880     0.4850 C.ar  1 <1>  -0.1500 
 23 O        4.5500     5.5390    -1.6650 O.3   1 <1>  -0.5330 
 24 C        6.2180     4.9720    -0.0900 C.ar  1 <1>   0.0820 
 25 O        6.2400     6.2840     0.2810 O.3   1 <1>  -0.3620 
 26 C        7.1710     6.7580     1.2300 C.3   1 <1>   0.0400 
 27 H       -0.4250    -1.9870     1.4410 H     1 <1>   0.0800 
 28 H       -0.1680    -1.5870    -0.2390 H     1 <1>   0.0800 
 29 H        0.8590     0.5260    -0.7270 H     1 <1>   0.0800 
 30 H        1.2170     1.5800     0.6260 H     1 <1>   0.0800 
 31 H        1.9430    -2.2270     1.8360 H     1 <1>   0.0800 
 32 H        2.9670     0.0650     1.4060 H     1 <1>   0.0800 
 33 H        3.6540     1.7750    -0.1810 H     1 <1>   0.0800 
 34 H        3.2340     0.7430    -1.5210 H     1 <1>   0.0800 
 35 H        4.3260    -2.0430     1.1220 H     1 <1>   0.0800 
 36 H        3.9550    -3.0890    -0.2180 H     1 <1>   0.0800 
 37 H        1.8080    -4.5280     2.2400 H     1 <1>   0.1500 
 38 H        1.1840    -3.1080    -1.7400 H     1 <1>   0.1500 
 39 H        5.3850     0.2970     0.4430 H     1 <1>   0.4500 
 40 H        4.6880    -1.4680    -1.8270 H     1 <1>   0.0800 
 41 H        5.9660    -1.7350    -0.6720 H     1 <1>   0.0800 
 42 H        1.6390    -6.8310     1.4380 H     1 <1>   0.1500 
 43 H        1.0080    -5.4240    -2.5300 H     1 <1>   0.1500 
 44 H        6.9000     0.4290    -1.4330 H     1 <1>   0.0800 
 45 H        5.5330     0.8590    -2.4380 H     1 <1>   0.0800 
 46 H        1.2410    -7.2880    -0.9440 H     1 <1>   0.1500 
 47 H        4.5740     3.0850    -2.3530 H     1 <1>   0.1500 
 48 H        7.5590     1.9340     0.5100 H     1 <1>   0.1500 
 49 H        7.7100     4.2260     1.2700 H     1 <1>   0.1500 
 50 H        4.7350     6.4120    -1.2600 H     1 <1>   0.4500 
 51 H        7.0310     7.8190     1.3360 H     1 <1>   0.0800 
 52 H        8.1670     6.5570     0.8760 H     1 <1>   0.0800 
 53 H        6.9910     6.2720     2.1730 H     1 <1>   0.0800 
@<TRIPOS>BOND
  1   1   2  1   
  2   1   3  1   
  3   2   4  1   
  4   2  27  1   
  5   2  28  1   
  6   3   5  1   
  7   3  29  1   
  8   3  30  1   
  9   4   6  1   
 10   4   7  1   
 11   4  31  1   
 12   5   6  1   
 13   5   8  1   
 14   5  32  1   
 15   6   9  1   
 16   7  10  ar  
 17   7  11  ar  
 18   8  12  1   
 19   8  33  1   
 20   8  34  1   
 21   9  13  1   
 22   9  35  1   
 23   9  36  1   
 24  10  14  ar  
 25  10  37  1   
 26  11  15  ar  
 27  11  38  1   
 28  12  13  1   
 29  12  16  1   
 30  12  39  1   
 31  13  40  1   
 32  13  41  1   
 33  14  17  ar  
 34  14  42  1   
 35  15  17  ar  
 36  15  43  1   
 37  16  18  1   
 38  16  44  1   
 39  16  45  1   
 40  17  46  1   
 41  18  19  ar  
 42  18  20  ar  
 43  19  21  ar  
 44  19  47  1   
 45  20  22  ar  
 46  20  48  1   
 47  21  23  1   
 48  21  24  ar  
 49  22  24  ar  
 50  22  49  1   
 51  23  50  1   
 52  24  25  1   
 53  25  26  1   
 54  26  51  1   
 55  26  52  1   
 56  26  53  1   
@<TRIPOS>SUBSTRUCTURE
  1 ****   8 GROUP 4 **** **** 0

# MOE 2024.06 (io_trps.svl 2023.06)
