@<TRIPOS>MOLECULE
NONAME
49 52 1 0 0 
SMALL
USER_CHARGES


@<TRIPOS>ATOM
  1 O        1.4650     0.6730    -0.2010 O.3   1 <1>  -0.6800 
  2 C        2.1280     1.7950     0.2750 C.3   1 <1>   0.2000 
  3 C        1.1930     3.0020     0.3780 C.3   1 <1>   0.2090 
  4 C        3.1920     2.2140    -0.7260 C.3   1 <1>  -0.1600 
  5 N        2.0240     4.1800     0.0040 N.pl3 1 <1>  -0.8380 
  6 C        3.3390     3.7170    -0.5210 C.3   1 <1>   0.2090 
  7 C        1.6800     5.4890     0.0920 C.ar  1 <1>   0.4100 
  8 N        2.6080     6.3830    -0.1950 N.ar  1 <1>  -0.6200 
  9 C        0.3820     5.8820     0.4740 C.ar  1 <1>  -0.1500 
 10 C        2.2930     7.6580    -0.1100 C.ar  1 <1>   0.7710 
 11 C        0.0870     7.2020     0.5480 C.ar  1 <1>   0.2110 
 12 N        1.0700     8.0850     0.2480 N.ar  1 <1>  -0.1790 
 13 N        3.2570     8.5280    -0.4010 N.pl3 1 <1>  -0.8690 
 14 C        3.4470     9.9960    -0.3360 C.3   1 <1>   0.3900 
 15 C        4.9450    10.2910    -0.3470 C.2   1 <1>   0.1080 
 16 N        5.8400     9.3700    -0.5690 N.2   1 <1>  -0.7070 
 17 C        5.5240    11.5420    -0.1320 C.2   1 <1>  -0.1810 
 18 N        7.0190    10.0150    -0.4950 N.pl3 1 <1>   0.3000 
 19 C        6.8550    11.3250    -0.2240 C.2   1 <1>  -0.3320 
 20 C        4.8120    12.8620     0.1320 C.3   1 <1>   0.0210 
 21 C        8.0220    12.2880    -0.0660 C.3   1 <1>   0.0200 
 22 C        5.5670    14.0390    -0.5000 C.3   1 <1>  -0.1600 
 23 C        7.6830    13.4290     0.9020 C.3   1 <1>  -0.1600 
 24 C        6.7820    14.5270     0.3100 C.3   1 <1>  -0.1600 
 25 H        0.8920     0.2860     0.4870 H     1 <1>   0.4000 
 26 H        2.5680     1.5690     1.2310 H     1 <1>   0.0800 
 27 H        0.8150     3.1060     1.3790 H     1 <1>   0.0800 
 28 H        0.3850     2.9040    -0.3280 H     1 <1>   0.0800 
 29 H        2.8510     2.0370    -1.7310 H     1 <1>   0.0800 
 30 H        4.1230     1.7030    -0.5660 H     1 <1>   0.0800 
 31 H        3.5840     4.2140    -1.4450 H     1 <1>   0.0800 
 32 H        4.1020     3.9250     0.2100 H     1 <1>   0.0800 
 33 H       -0.3510     5.1310     0.6950 H     1 <1>   0.1500 
 34 H       -0.8870     7.5690     0.8310 H     1 <1>   0.1500 
 35 H        0.9330     9.0880     0.2680 H     1 <1>   0.4570 
 36 H        4.1800     8.1110    -0.6170 H     1 <1>   0.4000 
 37 H        3.0160    10.3940     0.5650 H     1 <1>   0.0800 
 38 H        2.9970    10.4620    -1.1960 H     1 <1>   0.0800 
 39 H        7.9170     9.5330    -0.6260 H     1 <1>   0.2700 
 40 H        4.6970    13.0160     1.1910 H     1 <1>   0.0800 
 41 H        3.8320    12.8230    -0.3080 H     1 <1>   0.0800 
 42 H        8.3120    12.6830    -1.0250 H     1 <1>   0.0800 
 43 H        8.8620    11.7490     0.3370 H     1 <1>   0.0800 
 44 H        4.8890    14.8670    -0.6150 H     1 <1>   0.0800 
 45 H        5.8860    13.7540    -1.4880 H     1 <1>   0.0800 
 46 H        8.6000    13.8890     1.2280 H     1 <1>   0.0800 
 47 H        7.2150    13.0100     1.7770 H     1 <1>   0.0800 
 48 H        6.4340    15.1430     1.1210 H     1 <1>   0.0800 
 49 H        7.3770    15.1570    -0.3290 H     1 <1>   0.0800 
@<TRIPOS>BOND
  1   1   2  1   
  2   1  25  1   
  3   2   3  1   
  4   2   4  1   
  5   2  26  1   
  6   3   5  1   
  7   3  27  1   
  8   3  28  1   
  9   4   6  1   
 10   4  29  1   
 11   4  30  1   
 12   5   6  1   
 13   5   7  1   
 14   6  31  1   
 15   6  32  1   
 16   7   8  ar  
 17   7   9  ar  
 18   8  10  ar  
 19   9  11  ar  
 20   9  33  1   
 21  10  12  ar  
 22  10  13  1   
 23  11  12  ar  
 24  11  34  1   
 25  12  35  1   
 26  13  14  1   
 27  13  36  1   
 28  14  15  1   
 29  14  37  1   
 30  14  38  1   
 31  15  16  2   
 32  15  17  1   
 33  16  18  1   
 34  17  19  2   
 35  17  20  1   
 36  18  19  1   
 37  18  39  1   
 38  19  21  1   
 39  20  22  1   
 40  20  40  1   
 41  20  41  1   
 42  21  23  1   
 43  21  42  1   
 44  21  43  1   
 45  22  24  1   
 46  22  44  1   
 47  22  45  1   
 48  23  24  1   
 49  23  46  1   
 50  23  47  1   
 51  24  48  1   
 52  24  49  1   
@<TRIPOS>SUBSTRUCTURE
  1 ****  13 GROUP 4 **** **** 0

# MOE 2024.06 (io_trps.svl 2023.06)
