@<TRIPOS>MOLECULE
NONAME
51 54 1 0 0 
SMALL
USER_CHARGES


@<TRIPOS>ATOM
  1 O       -3.1840     1.3010    -1.8850 O.2   1 <1>  -0.5700 
  2 C       -2.6150     1.1950    -0.8270 C.2   1 <1>   0.5690 
  3 N       -2.3480    -0.0100    -0.2720 N.am  1 <1>  -0.7300 
  4 C       -2.1790     2.4440    -0.0990 C.3   1 <1>  -0.0990 
  5 C       -2.7040    -1.3110    -0.8780 C.3   1 <1>   0.2200 
  6 C       -0.8080     2.9070    -0.5970 C.3   1 <1>   0.0200 
  7 C       -3.9610    -1.8410    -0.2100 C.3   1 <1>  -0.0800 
  8 C       -1.6750    -2.3600    -0.4750 C.3   1 <1>   0.1200 
  9 C       -0.3710     4.1650     0.1350 C.2   1 <1>  -0.3320 
 10 C       -3.4020    -2.5400     1.0360 C.3   1 <1>   0.1200 
 11 C       -4.7230    -2.8120    -1.1340 C.3   1 <1>  -0.0160 
 12 O       -2.0440    -2.7810     0.8030 O.3   1 <1>  -0.5600 
 13 N       -0.8310     5.4150    -0.1080 N.pl3 1 <1>   0.3140 
 14 C        0.5330     4.2720     1.1330 C.2   1 <1>  -0.1500 
 15 C       -6.0320    -3.2770    -0.5030 C.ar  1 <1>  -0.1440 
 16 N       -0.2560     6.3130     0.7090 N.2   1 <1>  -0.7070 
 17 C       -1.8160     5.8380    -1.1120 C.3   1 <1>   0.0160 
 18 C        0.5590     5.6240     1.4460 C.2   1 <1>   0.1390 
 19 C       -7.1770    -2.4480    -0.4370 C.ar  1 <1>   0.0000 
 20 C       -6.1300    -4.5310     0.0260 C.ar  1 <1>  -0.1500 
 21 C       -8.3330    -2.9730     0.1920 C.ar  1 <1>   0.3100 
 22 C       -7.2470    -1.1340    -0.9590 C.ar  1 <1>  -0.1500 
 23 C       -7.3250    -4.9550     0.6190 C.ar  1 <1>   0.1600 
 24 N       -8.3900    -4.2240     0.7130 N.ar  1 <1>  -0.6200 
 25 C       -9.4810    -2.1690     0.2830 C.ar  1 <1>  -0.1500 
 26 C       -8.3830    -0.3790    -0.8550 C.ar  1 <1>  -0.1500 
 27 C       -9.5150    -0.9000    -0.2250 C.ar  1 <1>  -0.1500 
 28 H       -1.9090    -0.0820     0.6490 H     1 <1>   0.3700 
 29 H       -2.9120     3.2100    -0.2690 H     1 <1>   0.0800 
 30 H       -2.1370     2.2540     0.9580 H     1 <1>   0.0800 
 31 H       -2.7950    -1.2140    -1.9470 H     1 <1>   0.0800 
 32 H       -0.8400     3.0880    -1.6580 H     1 <1>   0.0800 
 33 H       -0.0860     2.1290    -0.4220 H     1 <1>   0.0800 
 34 H       -4.6160    -1.0360     0.0710 H     1 <1>   0.0800 
 35 H       -0.6710    -1.9730    -0.4550 H     1 <1>   0.0800 
 36 H       -1.7230    -3.2140    -1.1280 H     1 <1>   0.0800 
 37 H       -3.8900    -3.4740     1.2500 H     1 <1>   0.0800 
 38 H       -3.4740    -1.8970     1.8970 H     1 <1>   0.0800 
 39 H       -4.1060    -3.6670    -1.3510 H     1 <1>   0.0800 
 40 H       -4.9360    -2.3360    -2.0750 H     1 <1>   0.0800 
 41 H        1.1200     3.5050     1.6060 H     1 <1>   0.1500 
 42 H       -1.6270     5.3290    -2.0380 H     1 <1>   0.0800 
 43 H       -1.7300     6.8980    -1.2620 H     1 <1>   0.0800 
 44 H       -2.8020     5.6050    -0.7580 H     1 <1>   0.0800 
 45 H        1.1790     6.0620     2.2090 H     1 <1>   0.1500 
 46 H       -5.3050    -5.2190     0.0050 H     1 <1>   0.1500 
 47 H       -6.3910    -0.7130    -1.4520 H     1 <1>   0.1500 
 48 H       -7.3590    -5.9520     1.0250 H     1 <1>   0.1500 
 49 H      -10.3400    -2.5920     0.7700 H     1 <1>   0.1500 
 50 H       -8.4200     0.6190    -1.2560 H     1 <1>   0.1500 
 51 H      -10.4030    -0.2950    -0.1480 H     1 <1>   0.1500 
@<TRIPOS>BOND
  1   1   2  2   
  2   2   3  am  
  3   2   4  1   
  4   3   5  1   
  5   3  28  1   
  6   4   6  1   
  7   4  29  1   
  8   4  30  1   
  9   5   7  1   
 10   5   8  1   
 11   5  31  1   
 12   6   9  1   
 13   6  32  1   
 14   6  33  1   
 15   7  10  1   
 16   7  11  1   
 17   7  34  1   
 18   8  12  1   
 19   8  35  1   
 20   8  36  1   
 21   9  13  1   
 22   9  14  2   
 23  10  12  1   
 24  10  37  1   
 25  10  38  1   
 26  11  15  1   
 27  11  39  1   
 28  11  40  1   
 29  13  16  1   
 30  13  17  1   
 31  14  18  1   
 32  14  41  1   
 33  15  19  ar  
 34  15  20  ar  
 35  16  18  2   
 36  17  42  1   
 37  17  43  1   
 38  17  44  1   
 39  18  45  1   
 40  19  21  ar  
 41  19  22  ar  
 42  20  23  ar  
 43  20  46  1   
 44  21  24  ar  
 45  21  25  ar  
 46  22  26  ar  
 47  22  47  1   
 48  23  24  ar  
 49  23  48  1   
 50  25  27  ar  
 51  25  49  1   
 52  26  27  ar  
 53  26  50  1   
 54  27  51  1   
@<TRIPOS>SUBSTRUCTURE
  1 ****   3 GROUP 4 **** **** 0

# MOE 2024.06 (io_trps.svl 2023.06)
