@<TRIPOS>MOLECULE
NONAME
54 57 1 0 0 
SMALL
USER_CHARGES


@<TRIPOS>ATOM
  1 O        0.6130    -0.0570    -1.5570 O.2   1 <1>  -0.5700 
  2 C        0.9380    -1.1680    -1.2260 C.2   1 <1>   0.5690 
  3 N        1.9930    -1.3810    -0.4050 N.am  1 <1>  -0.5470 
  4 C        0.1700    -2.3730    -1.7170 C.3   1 <1>  -0.0990 
  5 C        2.3780    -2.6340     0.0740 C.ar  1 <1>   0.1170 
  6 C        0.0920    -3.4380    -0.6060 C.3   1 <1>   0.1250 
  7 C        1.4920    -3.7070    -0.0270 C.ar  1 <1>  -0.1430 
  8 C        3.6340    -2.8200     0.6340 C.ar  1 <1>  -0.1500 
  9 C       -0.6530    -4.6970    -1.0770 C.2   1 <1>   0.5690 
 10 C        1.8930    -4.9600     0.4190 C.ar  1 <1>  -0.1500 
 11 C        4.0200    -4.0690     1.0810 C.ar  1 <1>  -0.1500 
 12 O       -0.5480    -5.0230    -2.2380 O.2   1 <1>  -0.5700 
 13 N       -1.4320    -5.4330    -0.2130 N.am  1 <1>  -0.6600 
 14 C        3.1510    -5.1400     0.9690 C.ar  1 <1>  -0.1500 
 15 C       -2.1210    -6.6810    -0.6760 C.3   1 <1>   0.1400 
 16 C       -1.6820    -5.1100     1.2210 C.3   1 <1>   0.1400 
 17 C       -3.6160    -6.4510    -0.9420 C.3   1 <1>   0.1400 
 18 C       -2.8780    -4.1600     1.3900 C.3   1 <1>  -0.1600 
 19 N       -4.3160    -5.8610     0.2440 N.am  1 <1>  -0.6600 
 20 C       -4.0660    -4.4090     0.4480 C.3   1 <1>   0.1400 
 21 C       -4.9770    -6.6170     1.1900 C.2   1 <1>   0.7160 
 22 O       -5.2450    -6.1100     2.2640 O.2   1 <1>  -0.5700 
 23 C       -5.3130    -7.9980     0.9530 C.2   1 <1>  -0.0860 
 24 C       -6.0500    -8.6240    -0.0120 C.2   1 <1>  -0.3320 
 25 C       -4.8910    -9.0500     1.7660 C.2   1 <1>   0.1390 
 26 N       -6.0150    -9.9450     0.2490 N.pl3 1 <1>   0.3140 
 27 C       -6.8150    -7.9980    -1.1690 C.3   1 <1>  -0.0600 
 28 N       -5.2890   -10.2080     1.3460 N.2   1 <1>  -0.7070 
 29 C       -6.6700   -11.0260    -0.4970 C.3   1 <1>   0.0160 
 30 H        2.5320    -0.5530    -0.1560 H     1 <1>   0.3700 
 31 H        0.6840    -2.7700    -2.5740 H     1 <1>   0.0800 
 32 H       -0.8170    -2.0760    -2.0190 H     1 <1>   0.0800 
 33 H       -0.4820    -2.9910     0.1800 H     1 <1>   0.0800 
 34 H        4.3120    -1.9910     0.7150 H     1 <1>   0.1500 
 35 H        1.2410    -5.8130     0.3470 H     1 <1>   0.1500 
 36 H        4.9970    -4.2120     1.5120 H     1 <1>   0.1500 
 37 H        3.4540    -6.1150     1.3110 H     1 <1>   0.1500 
 38 H       -2.0070    -7.4530     0.0640 H     1 <1>   0.0800 
 39 H       -1.6620    -7.0430    -1.5800 H     1 <1>   0.0800 
 40 H       -0.8030    -4.6820     1.6710 H     1 <1>   0.0800 
 41 H       -1.8920    -6.0230     1.7530 H     1 <1>   0.0800 
 42 H       -4.0590    -7.3900    -1.2140 H     1 <1>   0.0800 
 43 H       -3.7230    -5.7930    -1.7870 H     1 <1>   0.0800 
 44 H       -2.5530    -3.1450     1.2630 H     1 <1>   0.0800 
 45 H       -3.2260    -4.2420     2.4040 H     1 <1>   0.0800 
 46 H       -3.8690    -3.9480    -0.5040 H     1 <1>   0.0800 
 47 H       -4.9500    -3.9480     0.8570 H     1 <1>   0.0800 
 48 H       -4.2930    -8.9120     2.6510 H     1 <1>   0.1500 
 49 H       -6.7240    -6.9260    -1.1440 H     1 <1>   0.0800 
 50 H       -7.8590    -8.2470    -1.1000 H     1 <1>   0.0800 
 51 H       -6.4310    -8.3530    -2.1080 H     1 <1>   0.0800 
 52 H       -6.3570   -10.9890    -1.5230 H     1 <1>   0.0800 
 53 H       -7.7350   -10.9030    -0.4310 H     1 <1>   0.0800 
 54 H       -6.3900   -11.9700    -0.0680 H     1 <1>   0.0800 
@<TRIPOS>BOND
  1   1   2  2   
  2   2   3  am  
  3   2   4  1   
  4   3   5  1   
  5   3  30  1   
  6   4   6  1   
  7   4  31  1   
  8   4  32  1   
  9   5   7  ar  
 10   5   8  ar  
 11   6   7  1   
 12   6   9  1   
 13   6  33  1   
 14   7  10  ar  
 15   8  11  ar  
 16   8  34  1   
 17   9  12  2   
 18   9  13  am  
 19  10  14  ar  
 20  10  35  1   
 21  11  14  ar  
 22  11  36  1   
 23  13  15  1   
 24  13  16  1   
 25  14  37  1   
 26  15  17  1   
 27  15  38  1   
 28  15  39  1   
 29  16  18  1   
 30  16  40  1   
 31  16  41  1   
 32  17  19  1   
 33  17  42  1   
 34  17  43  1   
 35  18  20  1   
 36  18  44  1   
 37  18  45  1   
 38  19  20  1   
 39  19  21  am  
 40  20  46  1   
 41  20  47  1   
 42  21  22  2   
 43  21  23  1   
 44  23  24  2   
 45  23  25  1   
 46  24  26  1   
 47  24  27  1   
 48  25  28  2   
 49  25  48  1   
 50  26  28  1   
 51  26  29  1   
 52  27  49  1   
 53  27  50  1   
 54  27  51  1   
 55  29  52  1   
 56  29  53  1   
 57  29  54  1   
@<TRIPOS>SUBSTRUCTURE
  1 ****  13 GROUP 4 **** **** 0

# MOE 2024.06 (io_trps.svl 2023.06)
