@<TRIPOS>MOLECULE
NONAME
50 52 1 0 0 
SMALL
USER_CHARGES


@<TRIPOS>ATOM
  1 S       -0.3560    -0.4870     0.4810 S.o2  1 <1>   1.4470 
  2 O       -0.0170    -1.8280     0.9020 O.2   1 <1>  -0.6500 
  3 O       -1.3750     0.2180     1.2250 O.2   1 <1>  -0.6500 
  4 N       -0.9970    -0.5620    -1.0720 N.am  1 <1>  -0.9140 
  5 C        1.1510     0.4980     0.3000 C.ar  1 <1>  -0.0090 
  6 C       -1.3720    -1.8210    -1.7290 C.3   1 <1>   0.2760 
  7 C        1.1050     1.8060    -0.1710 C.ar  1 <1>   0.0830 
  8 C        2.3900    -0.0400     0.6260 C.ar  1 <1>  -0.1500 
  9 C       -2.4530    -2.6960    -1.0790 C.3   1 <1>  -0.0800 
 10 C       -0.1990    -2.7840    -1.9630 C.3   1 <1>   0.1200 
 11 O       -0.1110     2.3210    -0.4900 O.3   1 <1>  -0.3630 
 12 C        2.2800     2.5420    -0.3020 C.ar  1 <1>  -0.1500 
 13 C        3.5630     0.6860     0.4980 C.ar  1 <1>  -0.1430 
 14 C       -1.6970    -3.9790    -0.7430 C.3   1 <1>   0.1200 
 15 C       -3.2810    -2.1430     0.0960 C.3   1 <1>  -0.0170 
 16 O       -0.6890    -4.0620    -1.6960 O.3   1 <1>  -0.5600 
 17 C       -0.2950     3.6940    -0.7610 C.3   1 <1>   0.0400 
 18 C        3.5070     1.9920     0.0290 C.ar  1 <1>  -0.1430 
 19 C        4.8840     0.0300     0.8760 C.3   1 <1>  -0.0970 
 20 C       -4.4190    -3.0890     0.4440 C.ar  1 <1>  -0.1430 
 21 C        4.7670     2.8320    -0.1300 C.3   1 <1>  -0.0970 
 22 C       -4.3210    -3.9950     1.4810 C.ar  1 <1>  -0.1500 
 23 C       -5.6080    -3.0930    -0.2580 C.ar  1 <1>  -0.1500 
 24 C       -5.3830    -4.8390     1.7550 C.ar  1 <1>   0.1600 
 25 C       -6.6100    -3.9810     0.0980 C.ar  1 <1>   0.1600 
 26 N       -6.5260    -4.8560     1.0870 N.ar  1 <1>  -0.6200 
 27 H       -1.7910     0.0730    -1.0290 H     1 <1>   0.4200 
 28 H       -1.7360    -1.5480    -2.7050 H     1 <1>   0.0800 
 29 H        2.4330    -1.0530     0.9900 H     1 <1>   0.1500 
 30 H       -3.1430    -2.9580    -1.8610 H     1 <1>   0.0800 
 31 H        0.6280    -2.6010    -1.3020 H     1 <1>   0.0800 
 32 H        0.1380    -2.7570    -2.9830 H     1 <1>   0.0800 
 33 H        2.2530     3.5500    -0.6680 H     1 <1>   0.1500 
 34 H       -2.3200    -4.8540    -0.8080 H     1 <1>   0.0800 
 35 H       -1.2350    -3.9280     0.2280 H     1 <1>   0.0800 
 36 H       -3.6870    -1.1800    -0.1590 H     1 <1>   0.0800 
 37 H       -2.6660    -2.0220     0.9680 H     1 <1>   0.0800 
 38 H       -1.3490     3.8700    -0.8850 H     1 <1>   0.0800 
 39 H        0.2270     3.9450    -1.6660 H     1 <1>   0.0800 
 40 H        0.0740     4.2670     0.0720 H     1 <1>   0.0800 
 41 H        4.7330    -0.9800     1.2130 H     1 <1>   0.0800 
 42 H        5.3560     0.5820     1.6690 H     1 <1>   0.0800 
 43 H        5.5410     0.0060     0.0250 H     1 <1>   0.0800 
 44 H        4.5350     3.8150    -0.4990 H     1 <1>   0.0800 
 45 H        5.4380     2.3620    -0.8250 H     1 <1>   0.0800 
 46 H        5.2610     2.9380     0.8190 H     1 <1>   0.0800 
 47 H       -3.4280    -4.0500     2.0780 H     1 <1>   0.1500 
 48 H       -5.7640    -2.4160    -1.0770 H     1 <1>   0.1500 
 49 H       -5.2880    -5.5390     2.5680 H     1 <1>   0.1500 
 50 H       -7.5300    -3.9700    -0.4610 H     1 <1>   0.1500 
@<TRIPOS>BOND
  1   1   2  2   
  2   1   3  2   
  3   1   4  am  
  4   1   5  1   
  5   4   6  1   
  6   4  27  1   
  7   5   7  ar  
  8   5   8  ar  
  9   6   9  1   
 10   6  10  1   
 11   6  28  1   
 12   7  11  1   
 13   7  12  ar  
 14   8  13  ar  
 15   8  29  1   
 16   9  14  1   
 17   9  15  1   
 18   9  30  1   
 19  10  16  1   
 20  10  31  1   
 21  10  32  1   
 22  11  17  1   
 23  12  18  ar  
 24  12  33  1   
 25  13  18  ar  
 26  13  19  1   
 27  14  16  1   
 28  14  34  1   
 29  14  35  1   
 30  15  20  1   
 31  15  36  1   
 32  15  37  1   
 33  17  38  1   
 34  17  39  1   
 35  17  40  1   
 36  18  21  1   
 37  19  41  1   
 38  19  42  1   
 39  19  43  1   
 40  20  22  ar  
 41  20  23  ar  
 42  21  44  1   
 43  21  45  1   
 44  21  46  1   
 45  22  24  ar  
 46  22  47  1   
 47  23  25  ar  
 48  23  48  1   
 49  24  26  ar  
 50  24  49  1   
 51  25  26  ar  
 52  25  50  1   
@<TRIPOS>SUBSTRUCTURE
  1 ****   1 GROUP 4 **** **** 0

# MOE 2024.06 (io_trps.svl 2023.06)
