@<TRIPOS>MOLECULE
NONAME
56 58 1 0 0 
SMALL
USER_CHARGES


@<TRIPOS>ATOM
  1 O       -1.4250     1.8270    -1.8680 O.2   1 <1>  -0.5700 
  2 C       -1.9210     1.6290    -0.7830 C.2   1 <1>   0.5690 
  3 N       -2.2530     0.3590    -0.3800 N.am  1 <1>  -0.6600 
  4 C       -2.1630     2.8510     0.1180 C.3   1 <1>  -0.0190 
  5 C       -2.0780    -0.7980    -1.3120 C.3   1 <1>   0.2840 
  6 C       -2.7830    -0.0160     0.9660 C.3   1 <1>   0.2840 
  7 C       -2.3810     4.1540    -0.6810 C.3   1 <1>  -0.1600 
  8 C       -1.0040     3.0360     1.1290 C.3   1 <1>  -0.1600 
  9 C       -1.1710    -1.8510    -0.6930 C.ar  1 <1>  -0.1440 
 10 C       -4.1820    -0.6040     0.8520 C.ar  1 <1>  -0.1430 
 11 C       -2.7820     5.3370     0.2270 C.3   1 <1>   0.2000 
 12 C       -0.9180     4.4540     1.7300 C.3   1 <1>  -0.1600 
 13 C       -1.6790    -3.0890    -0.3260 C.ar  1 <1>  -0.1500 
 14 C        0.1700    -1.5750    -0.4820 C.ar  1 <1>  -0.1500 
 15 C       -4.4620    -1.8410     1.4150 C.ar  1 <1>  -0.1500 
 16 C       -5.1900     0.0820     0.1890 C.ar  1 <1>  -0.1500 
 17 O       -2.2500     6.5200    -0.3160 O.3   1 <1>  -0.5600 
 18 C       -2.2690     5.1720     1.6820 C.3   1 <1>   0.2000 
 19 C       -0.8600    -4.0440     0.2540 C.ar  1 <1>  -0.1430 
 20 C        0.9940    -2.5260     0.0930 C.ar  1 <1>  -0.1500 
 21 C       -5.7310    -2.3840     1.3180 C.ar  1 <1>  -0.1500 
 22 C       -6.4600    -0.4600     0.0920 C.ar  1 <1>  -0.1500 
 23 C       -2.9340     7.0300    -1.4190 C.3   1 <1>   0.0400 
 24 O       -2.1130     6.4180     2.2540 O.3   1 <1>  -0.6800 
 25 C        0.4790    -3.7570     0.4610 C.ar  1 <1>  -0.1500 
 26 C       -1.4220    -5.3960     0.6540 C.3   1 <1>  -0.0970 
 27 C       -6.7310    -1.6930     0.6570 C.ar  1 <1>  -0.1500 
 28 H       -3.0760     2.6840     0.6580 H     1 <1>   0.0800 
 29 H       -3.0430    -1.2210    -1.5300 H     1 <1>   0.0800 
 30 H       -1.6500    -0.4810    -2.2470 H     1 <1>   0.0800 
 31 H       -2.1190    -0.7320     1.4190 H     1 <1>   0.0800 
 32 H       -2.8190     0.8270     1.6270 H     1 <1>   0.0800 
 33 H       -3.1470     3.9970    -1.4200 H     1 <1>   0.0800 
 34 H       -1.4650     4.3920    -1.1950 H     1 <1>   0.0800 
 35 H       -1.1120     2.3200     1.9240 H     1 <1>   0.0800 
 36 H       -0.0680     2.8240     0.6380 H     1 <1>   0.0800 
 37 H       -3.8540     5.4280     0.2660 H     1 <1>   0.0800 
 38 H       -0.2080     5.0300     1.1610 H     1 <1>   0.0800 
 39 H       -0.5680     4.3970     2.7460 H     1 <1>   0.0800 
 40 H       -2.7190    -3.3090    -0.4920 H     1 <1>   0.1500 
 41 H        0.5700    -0.6160    -0.7660 H     1 <1>   0.1500 
 42 H       -3.6920    -2.3890     1.9310 H     1 <1>   0.1500 
 43 H       -4.9890     1.0390    -0.2580 H     1 <1>   0.1500 
 44 H       -2.9850     4.6270     2.2730 H     1 <1>   0.0800 
 45 H        2.0350    -2.3080     0.2540 H     1 <1>   0.1500 
 46 H       -5.9420    -3.3430     1.7580 H     1 <1>   0.1500 
 47 H       -7.2360     0.0770    -0.4250 H     1 <1>   0.1500 
 48 H       -2.4500     7.9430    -1.7190 H     1 <1>   0.0800 
 49 H       -3.9540     7.2360    -1.1430 H     1 <1>   0.0800 
 50 H       -2.8950     6.3210    -2.2280 H     1 <1>   0.0800 
 51 H       -1.8730     7.0220     1.5140 H     1 <1>   0.4000 
 52 H        1.1270    -4.4910     0.9060 H     1 <1>   0.1500 
 53 H       -0.9310    -5.7580     1.5390 H     1 <1>   0.0800 
 54 H       -1.2680    -6.1020    -0.1430 H     1 <1>   0.0800 
 55 H       -2.4760    -5.3230     0.8550 H     1 <1>   0.0800 
 56 H       -7.7180    -2.1150     0.5810 H     1 <1>   0.1500 
@<TRIPOS>BOND
  1   1   2  2   
  2   2   3  am  
  3   2   4  1   
  4   3   5  1   
  5   3   6  1   
  6   4   7  1   
  7   4   8  1   
  8   4  28  1   
  9   5   9  1   
 10   5  29  1   
 11   5  30  1   
 12   6  10  1   
 13   6  31  1   
 14   6  32  1   
 15   7  11  1   
 16   7  33  1   
 17   7  34  1   
 18   8  12  1   
 19   8  35  1   
 20   8  36  1   
 21   9  13  ar  
 22   9  14  ar  
 23  10  15  ar  
 24  10  16  ar  
 25  11  17  1   
 26  11  18  1   
 27  11  37  1   
 28  12  18  1   
 29  12  38  1   
 30  12  39  1   
 31  13  19  ar  
 32  13  40  1   
 33  14  20  ar  
 34  14  41  1   
 35  15  21  ar  
 36  15  42  1   
 37  16  22  ar  
 38  16  43  1   
 39  17  23  1   
 40  18  24  1   
 41  18  44  1   
 42  19  25  ar  
 43  19  26  1   
 44  20  25  ar  
 45  20  45  1   
 46  21  27  ar  
 47  21  46  1   
 48  22  27  ar  
 49  22  47  1   
 50  23  48  1   
 51  23  49  1   
 52  23  50  1   
 53  24  51  1   
 54  25  52  1   
 55  26  53  1   
 56  26  54  1   
 57  26  55  1   
 58  27  56  1   
@<TRIPOS>SUBSTRUCTURE
  1 ****   3 GROUP 4 **** **** 0

# MOE 2024.06 (io_trps.svl 2023.06)
