@<TRIPOS>MOLECULE
NONAME
45 47 1 0 0 
SMALL
USER_CHARGES


@<TRIPOS>ATOM
  1 CL       0.7810     0.3590    -1.7790 Cl    1 <1>  -0.1770 
  2 C        1.4700    -0.7920    -0.6440 C.ar  1 <1>   0.1770 
  3 C        0.9010    -2.0640    -0.4740 C.ar  1 <1>   0.4100 
  4 C        2.5810    -0.4210     0.0660 C.ar  1 <1>  -0.1500 
  5 N        1.4160    -2.9670     0.3630 N.ar  1 <1>  -0.6200 
  6 N       -0.2480    -2.4700    -1.1480 N.pl3 1 <1>  -0.8380 
  7 C        3.1220    -1.3490     0.9520 C.ar  1 <1>  -0.1790 
  8 C        2.4920    -2.5860     1.0400 C.ar  1 <1>   0.1600 
  9 C       -0.3760    -3.9020    -1.5200 C.3   1 <1>   0.2090 
 10 C       -1.5290    -1.8160    -0.7690 C.3   1 <1>   0.2090 
 11 C        4.2870    -1.0700     1.7600 C.2   1 <1>   0.9790 
 12 C       -1.0040    -4.6980    -0.3480 C.3   1 <1>   0.4230 
 13 C       -2.1590    -2.5910     0.3960 C.3   1 <1>  -0.1600 
 14 O        4.8430     0.0390     1.7040 O.co2 1 <1>  -0.9000 
 15 O        4.7390    -1.9410     2.5220 O.co2 1 <1>  -0.9000 
 16 N       -1.0160    -6.2090    -0.5530 N.4   1 <1>  -0.9590 
 17 C       -2.3720    -4.1040     0.1030 C.3   1 <1>   0.0000 
 18 C       -1.9500    -6.9420     0.3610 C.3   1 <1>   0.3430 
 19 C       -1.2080    -6.6680    -1.9670 C.3   1 <1>   0.2630 
 20 C       -2.8300    -4.8040     1.4180 C.3   1 <1>  -0.1600 
 21 C       -3.4340    -4.2960    -1.0160 C.3   1 <1>   0.1200 
 22 C       -2.1600    -6.1690     1.6620 C.3   1 <1>  -0.1600 
 23 O       -4.6050    -3.6110    -0.7330 O.3   1 <1>  -0.6800 
 24 H        3.0320     0.5500    -0.0460 H     1 <1>   0.1500 
 25 H        2.9180    -3.3040     1.7240 H     1 <1>   0.1500 
 26 H       -0.9730    -3.9710    -2.4100 H     1 <1>   0.0800 
 27 H        0.6050    -4.2900    -1.7360 H     1 <1>   0.0800 
 28 H       -1.3490    -0.7990    -0.4640 H     1 <1>   0.0800 
 29 H       -2.1920    -1.7920    -1.6180 H     1 <1>   0.0800 
 30 H       -0.3450    -4.5210     0.4850 H     1 <1>   0.0800 
 31 H       -1.5020    -2.4730     1.2410 H     1 <1>   0.0800 
 32 H       -3.0880    -2.1180     0.6600 H     1 <1>   0.0800 
 33 H       -0.0640    -6.4910    -0.2710 H     1 <1>   0.4500 
 34 H       -2.9070    -7.0670    -0.1190 H     1 <1>   0.0800 
 35 H       -1.5560    -7.9220     0.5780 H     1 <1>   0.0800 
 36 H       -2.1690    -6.3550    -2.3390 H     1 <1>   0.0800 
 37 H       -1.1530    -7.7430    -2.0210 H     1 <1>   0.0800 
 38 H       -0.4400    -6.2590    -2.6050 H     1 <1>   0.0800 
 39 H       -2.6090    -4.1840     2.2720 H     1 <1>   0.0800 
 40 H       -3.8970    -4.9360     1.4160 H     1 <1>   0.0800 
 41 H       -3.6910    -5.3320    -1.1400 H     1 <1>   0.0800 
 42 H       -3.0840    -3.9170    -1.9600 H     1 <1>   0.0800 
 43 H       -2.7760    -6.7510     2.3260 H     1 <1>   0.0800 
 44 H       -1.2090    -6.0340     2.1510 H     1 <1>   0.0800 
 45 H       -5.0050    -3.8970     0.1110 H     1 <1>   0.4000 
@<TRIPOS>BOND
  1   1   2  1   
  2   2   3  ar  
  3   2   4  ar  
  4   3   5  ar  
  5   3   6  1   
  6   4   7  ar  
  7   4  24  1   
  8   5   8  ar  
  9   6   9  1   
 10   6  10  1   
 11   7   8  ar  
 12   7  11  1   
 13   8  25  1   
 14   9  12  1   
 15   9  26  1   
 16   9  27  1   
 17  10  13  1   
 18  10  28  1   
 19  10  29  1   
 20  11  14  ar  
 21  11  15  ar  
 22  12  16  1   
 23  12  17  1   
 24  12  30  1   
 25  13  17  1   
 26  13  31  1   
 27  13  32  1   
 28  16  18  1   
 29  16  19  1   
 30  16  33  1   
 31  17  20  1   
 32  17  21  1   
 33  18  22  1   
 34  18  34  1   
 35  18  35  1   
 36  19  36  1   
 37  19  37  1   
 38  19  38  1   
 39  20  22  1   
 40  20  39  1   
 41  20  40  1   
 42  21  23  1   
 43  21  41  1   
 44  21  42  1   
 45  22  43  1   
 46  22  44  1   
 47  23  45  1   
@<TRIPOS>SUBSTRUCTURE
  1 ****   5 GROUP 4 **** **** 0

# MOE 2024.06 (io_trps.svl 2023.06)
