@<TRIPOS>MOLECULE
NONAME
56 58 1 0 0 
SMALL
USER_CHARGES


@<TRIPOS>ATOM
  1 O        0.6930    -0.9390     1.8840 O.2   1 <1>  -0.5700 
  2 C        1.5500    -1.6490     1.3940 C.2   1 <1>   0.5440 
  3 N        2.6410    -1.0680     0.7780 N.am  1 <1>  -0.6600 
  4 C        1.3890    -3.0860     1.4610 C.ar  1 <1>   0.0860 
  5 C        2.8750     0.4040     0.8290 C.3   1 <1>   0.1400 
  6 C        3.5610    -1.7950    -0.1410 C.3   1 <1>   0.1400 
  7 C        0.2870    -3.7280     0.9300 C.ar  1 <1>  -0.1500 
  8 C        2.3240    -3.9190     2.0620 C.ar  1 <1>  -0.1500 
  9 C        2.7370     0.9960    -0.5770 C.3   1 <1>  -0.1600 
 10 C        3.4330    -1.2220    -1.5570 C.3   1 <1>  -0.1600 
 11 C        0.1830    -5.1110     0.9800 C.ar  1 <1>   0.4100 
 12 C        2.1250    -5.2850     2.0740 C.ar  1 <1>   0.1600 
 13 C        3.6650     0.2950    -1.5800 C.3   1 <1>  -0.1600 
 14 N        1.0840    -5.8980     1.5400 N.ar  1 <1>  -0.6200 
 15 N       -0.8760    -5.7760     0.4420 N.pl3 1 <1>  -0.8690 
 16 C       -1.3530    -5.5440    -0.9270 C.3   1 <1>   0.4330 
 17 C       -2.4990    -6.5080    -1.2380 C.ar  1 <1>  -0.1430 
 18 C       -0.2070    -5.7070    -1.9250 C.3   1 <1>  -0.2400 
 19 C       -2.3950    -7.8890    -1.0530 C.ar  1 <1>   0.0830 
 20 C       -3.6910    -5.9850    -1.7210 C.ar  1 <1>  -0.1500 
 21 O       -1.2320    -8.4000    -0.5750 O.3   1 <1>  -0.3620 
 22 C       -3.4720    -8.7150    -1.3600 C.ar  1 <1>  -0.1500 
 23 C       -4.7610    -6.8100    -2.0200 C.ar  1 <1>  -0.1500 
 24 C       -1.2220    -9.5730     0.2050 C.3   1 <1>   0.1200 
 25 C       -4.6510    -8.1760    -1.8400 C.ar  1 <1>  -0.1500 
 26 C        0.1250    -9.6450     0.9250 C.3   1 <1>  -0.1600 
 27 C        0.2260   -10.9000     1.7980 C.3   1 <1>  -0.2400 
 28 H        3.8660     0.5870     1.2070 H     1 <1>   0.0800 
 29 H        2.1750     0.8810     1.4940 H     1 <1>   0.0800 
 30 H        3.3360    -2.8460    -0.1680 H     1 <1>   0.0800 
 31 H        4.5720    -1.6770     0.2100 H     1 <1>   0.0800 
 32 H       -0.4970    -3.1510     0.4810 H     1 <1>   0.1500 
 33 H        3.1980    -3.4930     2.5180 H     1 <1>   0.1500 
 34 H        2.9650     2.0460    -0.5440 H     1 <1>   0.0800 
 35 H        1.7130     0.8930    -0.8930 H     1 <1>   0.0800 
 36 H        2.4480    -1.4430    -1.9320 H     1 <1>   0.0800 
 37 H        4.1450    -1.7060    -2.2020 H     1 <1>   0.0800 
 38 H        2.8610    -5.9120     2.5470 H     1 <1>   0.1500 
 39 H        4.6890     0.5040    -1.3230 H     1 <1>   0.0800 
 40 H        3.4850     0.6770    -2.5700 H     1 <1>   0.0800 
 41 H       -0.7720    -6.7880     0.5690 H     1 <1>   0.4000 
 42 H       -1.7230    -4.5340    -0.9890 H     1 <1>   0.0800 
 43 H        0.2480    -6.6750    -1.8240 H     1 <1>   0.0800 
 44 H        0.5380    -4.9490    -1.7710 H     1 <1>   0.0800 
 45 H       -0.5860    -5.6120    -2.9260 H     1 <1>   0.0800 
 46 H       -3.7980    -4.9240    -1.8660 H     1 <1>   0.1500 
 47 H       -3.4030    -9.7790    -1.2370 H     1 <1>   0.1500 
 48 H       -5.6790    -6.3890    -2.3920 H     1 <1>   0.1500 
 49 H       -1.3530   -10.4170    -0.4490 H     1 <1>   0.0800 
 50 H       -2.0300    -9.5200     0.9150 H     1 <1>   0.0800 
 51 H       -5.4820    -8.8190    -2.0750 H     1 <1>   0.1500 
 52 H        0.2420    -8.7720     1.5450 H     1 <1>   0.0800 
 53 H        0.9170    -9.6530     0.1960 H     1 <1>   0.0800 
 54 H       -0.5470   -10.9000     2.5470 H     1 <1>   0.0800 
 55 H        1.1810   -10.9240     2.2940 H     1 <1>   0.0800 
 56 H        0.1300   -11.7870     1.1970 H     1 <1>   0.0800 
@<TRIPOS>BOND
  1   1   2  2   
  2   2   3  am  
  3   2   4  1   
  4   3   5  1   
  5   3   6  1   
  6   4   7  ar  
  7   4   8  ar  
  8   5   9  1   
  9   5  28  1   
 10   5  29  1   
 11   6  10  1   
 12   6  30  1   
 13   6  31  1   
 14   7  11  ar  
 15   7  32  1   
 16   8  12  ar  
 17   8  33  1   
 18   9  13  1   
 19   9  34  1   
 20   9  35  1   
 21  10  13  1   
 22  10  36  1   
 23  10  37  1   
 24  11  14  ar  
 25  11  15  1   
 26  12  14  ar  
 27  12  38  1   
 28  13  39  1   
 29  13  40  1   
 30  15  16  1   
 31  15  41  1   
 32  16  17  1   
 33  16  18  1   
 34  16  42  1   
 35  17  19  ar  
 36  17  20  ar  
 37  18  43  1   
 38  18  44  1   
 39  18  45  1   
 40  19  21  1   
 41  19  22  ar  
 42  20  23  ar  
 43  20  46  1   
 44  21  24  1   
 45  22  25  ar  
 46  22  47  1   
 47  23  25  ar  
 48  23  48  1   
 49  24  26  1   
 50  24  49  1   
 51  24  50  1   
 52  25  51  1   
 53  26  27  1   
 54  26  52  1   
 55  26  53  1   
 56  27  54  1   
 57  27  55  1   
 58  27  56  1   
@<TRIPOS>SUBSTRUCTURE
  1 ****  11 GROUP 4 **** **** 0

# MOE 2024.06 (io_trps.svl 2023.06)
