@<TRIPOS>MOLECULE
NONAME
50 53 1 0 0 
SMALL
USER_CHARGES


@<TRIPOS>ATOM
  1 O       -0.1220     1.2660    -0.5570 O.2   1 <1>  -0.5700 
  2 C       -0.9480     1.9440     0.0050 C.2   1 <1>   0.5690 
  3 N       -2.2860     1.8400    -0.2610 N.am  1 <1>  -0.6600 
  4 C       -0.4350     2.9250     1.0430 C.3   1 <1>  -0.0990 
  5 C       -3.3720     2.6830     0.3360 C.3   1 <1>   0.1400 
  6 C       -2.8090     0.7860    -1.1820 C.3   1 <1>   0.1400 
  7 C        1.0680     2.7170     1.2440 C.3   1 <1>   0.3430 
  8 C       -4.1920     3.3890    -0.7620 C.3   1 <1>   0.1440 
  9 C       -3.6320     1.4240    -2.3070 C.3   1 <1>  -0.1600 
 10 N        1.6050     3.6460     2.2730 N.4   1 <1>  -0.8530 
 11 C       -5.3400     4.1680    -0.1480 C.ar  1 <1>   0.1670 
 12 C       -4.7380     2.3480    -1.7630 C.3   1 <1>  -0.1600 
 13 C       -3.3890     4.5080    -1.4790 C.3   1 <1>  -0.1600 
 14 N       -6.1570     3.7130     0.7710 N.ar  1 <1>  -0.6200 
 15 C       -5.4290     5.4230    -0.6630 C.ar  1 <1>  -0.1440 
 16 C       -4.3620     5.6820    -1.6960 C.3   1 <1>  -0.0170 
 17 C       -7.1100     4.5640     1.1780 C.ar  1 <1>   0.6200 
 18 C       -6.4280     6.2360    -0.1940 C.ar  1 <1>   0.1600 
 19 N       -7.2680     5.8170     0.7250 N.ar  1 <1>  -0.6200 
 20 C       -8.0430     4.0920     2.1920 C.ar  1 <1>   0.0000 
 21 C       -8.6500     4.9690     3.0970 C.ar  1 <1>  -0.1500 
 22 C       -8.3760     2.7390     2.3100 C.ar  1 <1>  -0.1500 
 23 C       -9.5350     4.5250     4.0620 C.ar  1 <1>  -0.1500 
 24 C       -9.2600     2.2870     3.2730 C.ar  1 <1>  -0.1500 
 25 C       -9.8430     3.1800     4.1530 C.ar  1 <1>  -0.1500 
 26 H       -0.9560     2.7460     1.9650 H     1 <1>   0.0800 
 27 H       -0.6300     3.9210     0.6930 H     1 <1>   0.0800 
 28 H       -2.9800     3.4180     1.0130 H     1 <1>   0.0800 
 29 H       -4.0280     2.0420     0.9010 H     1 <1>   0.0800 
 30 H       -3.4290     0.1090    -0.6200 H     1 <1>   0.0800 
 31 H       -2.0030     0.2140    -1.6100 H     1 <1>   0.0800 
 32 H        1.5730     2.8750     0.3020 H     1 <1>   0.0800 
 33 H        1.2440     1.6940     1.5390 H     1 <1>   0.0800 
 34 H       -4.0790     0.6440    -2.8970 H     1 <1>   0.0800 
 35 H       -2.9680     1.9690    -2.9540 H     1 <1>   0.0800 
 36 H        1.4680     4.6260     2.0020 H     1 <1>   0.4500 
 37 H        2.6140     3.4940     2.3910 H     1 <1>   0.4500 
 38 H        1.1590     3.4910     3.1850 H     1 <1>   0.4500 
 39 H       -5.2350     2.8440    -2.5790 H     1 <1>   0.0800 
 40 H       -5.4740     1.7430    -1.2610 H     1 <1>   0.0800 
 41 H       -2.9520     4.1860    -2.4070 H     1 <1>   0.0800 
 42 H       -2.5970     4.8480    -0.8370 H     1 <1>   0.0800 
 43 H       -4.7950     5.6400    -2.6810 H     1 <1>   0.0800 
 44 H       -3.8800     6.6330    -1.5480 H     1 <1>   0.0800 
 45 H       -6.5410     7.2380    -0.5720 H     1 <1>   0.1500 
 46 H       -8.4230     6.0200     3.0410 H     1 <1>   0.1500 
 47 H       -7.9360     2.0280     1.6330 H     1 <1>   0.1500 
 48 H       -9.9850     5.2270     4.7420 H     1 <1>   0.1500 
 49 H       -9.4960     1.2390     3.3370 H     1 <1>   0.1500 
 50 H      -10.5320     2.8320     4.9020 H     1 <1>   0.1500 
@<TRIPOS>BOND
  1   1   2  2   
  2   2   3  am  
  3   2   4  1   
  4   3   5  1   
  5   3   6  1   
  6   4   7  1   
  7   4  26  1   
  8   4  27  1   
  9   5   8  1   
 10   5  28  1   
 11   5  29  1   
 12   6   9  1   
 13   6  30  1   
 14   6  31  1   
 15   7  10  1   
 16   7  32  1   
 17   7  33  1   
 18   8  11  1   
 19   8  12  1   
 20   8  13  1   
 21   9  12  1   
 22   9  34  1   
 23   9  35  1   
 24  10  36  1   
 25  10  37  1   
 26  10  38  1   
 27  11  14  ar  
 28  11  15  ar  
 29  12  39  1   
 30  12  40  1   
 31  13  16  1   
 32  13  41  1   
 33  13  42  1   
 34  14  17  ar  
 35  15  16  1   
 36  15  18  ar  
 37  16  43  1   
 38  16  44  1   
 39  17  19  ar  
 40  17  20  1   
 41  18  19  ar  
 42  18  45  1   
 43  20  21  ar  
 44  20  22  ar  
 45  21  23  ar  
 46  21  46  1   
 47  22  24  ar  
 48  22  47  1   
 49  23  25  ar  
 50  23  48  1   
 51  24  25  ar  
 52  24  49  1   
 53  25  50  1   
@<TRIPOS>SUBSTRUCTURE
  1 ****  11 GROUP 4 **** **** 0

# MOE 2024.06 (io_trps.svl 2023.06)
