@<TRIPOS>MOLECULE
NONAME
44 47 1 0 0 
SMALL
USER_CHARGES


@<TRIPOS>ATOM
  1 S        0.5670    -0.1660    -1.6860 S.o2  1 <1>   1.4470 
  2 O        1.6530    -1.1220    -1.5950 O.2   1 <1>  -0.6500 
  3 O        0.2400     0.4090    -2.9680 O.2   1 <1>  -0.6500 
  4 N        1.1010     1.1220    -0.7170 N.am  1 <1>  -0.8490 
  5 C       -0.9240    -0.7570    -0.8490 C.ar  1 <1>  -0.0090 
  6 C        1.3720     0.7930     0.7120 C.3   1 <1>   0.2760 
  7 C        2.0020     2.0420    -1.4400 C.3   1 <1>   0.1960 
  8 C       -0.8940    -1.8960    -0.0650 C.ar  1 <1>  -0.1500 
  9 C       -2.1300    -0.0400    -0.9480 C.ar  1 <1>  -0.1500 
 10 C        1.3330     2.0460     1.6020 C.3   1 <1>   0.1200 
 11 C        2.6780    -0.0080     0.9780 C.3   1 <1>   0.3430 
 12 C        3.2370     2.5420    -0.6740 C.3   1 <1>  -0.0800 
 13 C       -2.0310    -2.3000     0.6240 C.ar  1 <1>   0.2270 
 14 C       -3.2680    -0.4370    -0.2820 C.ar  1 <1>  -0.1500 
 15 O        2.5780     2.6770     1.6360 O.3   1 <1>  -0.5600 
 16 N        3.6990     0.0790    -0.1200 N.4   1 <1>  -0.9590 
 17 C        2.8820     3.4410     0.5190 C.3   1 <1>   0.1200 
 18 C        4.2650     1.4530    -0.3110 C.3   1 <1>   0.3430 
 19 N       -2.1940    -3.3590     1.4600 N.2   1 <1>  -0.5650 
 20 C       -3.2030    -1.5810     0.5130 C.ar  1 <1>  -0.1520 
 21 C        4.7770    -0.9300     0.0790 C.3   1 <1>   0.2630 
 22 C       -3.4260    -3.2850     1.8250 C.2   1 <1>   0.0360 
 23 N       -4.1010    -2.2360     1.2910 N.pl3 1 <1>   0.0330 
 24 H        0.5580     0.1880     1.0680 H     1 <1>   0.0800 
 25 H        2.3550     1.5690    -2.3430 H     1 <1>   0.0800 
 26 H        1.4180     2.8910    -1.7550 H     1 <1>   0.0800 
 27 H       -0.0080    -2.4960     0.0360 H     1 <1>   0.1500 
 28 H       -2.1550     0.8430    -1.5670 H     1 <1>   0.1500 
 29 H        1.1120     1.7550     2.6140 H     1 <1>   0.0800 
 30 H        0.5740     2.7390     1.2790 H     1 <1>   0.0800 
 31 H        2.4010    -1.0420     1.1070 H     1 <1>   0.0800 
 32 H        3.1100     0.3240     1.9070 H     1 <1>   0.0800 
 33 H        3.7440     3.1980    -1.3580 H     1 <1>   0.0800 
 34 H       -4.1890     0.1160    -0.3680 H     1 <1>   0.1500 
 35 H        3.1730    -0.1950    -0.9760 H     1 <1>   0.4500 
 36 H        2.0570     4.0990     0.2980 H     1 <1>   0.0800 
 37 H        3.7320     4.0490     0.7830 H     1 <1>   0.0800 
 38 H        4.7850     1.7540     0.5840 H     1 <1>   0.0800 
 39 H        4.9920     1.4090    -1.1060 H     1 <1>   0.0800 
 40 H        5.3230    -0.7220     0.9850 H     1 <1>   0.0800 
 41 H        5.4620    -0.9140    -0.7530 H     1 <1>   0.0800 
 42 H        4.3510    -1.9190     0.1490 H     1 <1>   0.0800 
 43 H       -3.9030    -3.9820     2.4940 H     1 <1>   0.1500 
 44 H       -5.0840    -1.9910     1.4380 H     1 <1>   0.2700 
@<TRIPOS>BOND
  1   1   2  2   
  2   1   3  2   
  3   1   4  am  
  4   1   5  1   
  5   4   6  1   
  6   4   7  1   
  7   5   8  ar  
  8   5   9  ar  
  9   6  10  1   
 10   6  11  1   
 11   6  24  1   
 12   7  12  1   
 13   7  25  1   
 14   7  26  1   
 15   8  13  ar  
 16   8  27  1   
 17   9  14  ar  
 18   9  28  1   
 19  10  15  1   
 20  10  29  1   
 21  10  30  1   
 22  11  16  1   
 23  11  31  1   
 24  11  32  1   
 25  12  17  1   
 26  12  18  1   
 27  12  33  1   
 28  13  19  1   
 29  13  20  ar  
 30  14  20  ar  
 31  14  34  1   
 32  15  17  1   
 33  16  18  1   
 34  16  21  1   
 35  16  35  1   
 36  17  36  1   
 37  17  37  1   
 38  18  38  1   
 39  18  39  1   
 40  19  22  2   
 41  20  23  1   
 42  21  40  1   
 43  21  41  1   
 44  21  42  1   
 45  22  23  1   
 46  22  43  1   
 47  23  44  1   
@<TRIPOS>SUBSTRUCTURE
  1 ****   6 GROUP 4 **** **** 0

# MOE 2024.06 (io_trps.svl 2023.06)
