@<TRIPOS>MOLECULE
NONAME
18 18 1 0 0 
SMALL
USER_CHARGES


@<TRIPOS>ATOM
  1 CL      -0.0640     0.0690     0.3980 Cl    1 <1>  -0.1770 
  2 C        1.4240     0.9360     0.1530 C.ar  1 <1>   0.4870 
  3 N        1.3350     2.2230    -0.0490 N.ar  1 <1>  -0.6200 
  4 C        2.6040     0.2380     0.1850 C.ar  1 <1>  -0.1500 
  5 C        2.5030     2.8170    -0.2300 C.ar  1 <1>   0.7200 
  6 C        3.7490     0.9680    -0.0110 C.ar  1 <1>   0.1660 
  7 N        2.5160     4.1520    -0.4500 N.pl3 1 <1>  -0.8690 
  8 N        3.7070     2.2610    -0.2170 N.ar  1 <1>  -0.6200 
  9 C        5.1150     0.3150     0.0030 C.3   1 <1>  -0.0970 
 10 C        1.3740     5.0780    -0.2550 C.3   1 <1>   0.1290 
 11 H        2.6120    -0.8200     0.3560 H     1 <1>   0.1500 
 12 H        3.4560     4.5470    -0.4480 H     1 <1>   0.4000 
 13 H        5.0380    -0.7420     0.1780 H     1 <1>   0.0800 
 14 H        5.7160     0.7540     0.7780 H     1 <1>   0.0800 
 15 H        5.6000     0.4770    -0.9430 H     1 <1>   0.0800 
 16 H        0.4450     4.5860    -0.4920 H     1 <1>   0.0800 
 17 H        1.4850     5.9320    -0.9000 H     1 <1>   0.0800 
 18 H        1.3440     5.4070     0.7700 H     1 <1>   0.0800 
@<TRIPOS>BOND
  1   1   2  1   
  2   2   3  ar  
  3   2   4  ar  
  4   3   5  ar  
  5   4   6  ar  
  6   4  11  1   
  7   5   7  1   
  8   5   8  ar  
  9   6   8  ar  
 10   6   9  1   
 11   7  10  1   
 12   7  12  1   
 13   9  13  1   
 14   9  14  1   
 15   9  15  1   
 16  10  16  1   
 17  10  17  1   
 18  10  18  1   
@<TRIPOS>SUBSTRUCTURE
  1 ****   5 GROUP 4 **** **** 0

# MOE 2024.06 (io_trps.svl 2023.06)
