@<TRIPOS>MOLECULE
NONAME
47 48 1 0 0 
SMALL
USER_CHARGES


@<TRIPOS>ATOM
  1 S        0.3750    -0.1220    -0.4460 S.o2  1 <1>   1.3330 
  2 O        1.7880    -0.0870    -0.1430 O.2   1 <1>  -0.6500 
  3 O       -0.0600    -0.2150    -1.8220 O.2   1 <1>  -0.6500 
  4 N       -0.3110    -1.4130     0.4170 N.am  1 <1>  -0.8490 
  5 C       -0.4180     1.3130     0.2730 C.3   1 <1>  -0.0550 
  6 C       -0.3170    -2.6560    -0.3600 C.3   1 <1>   0.1160 
  7 C        0.3240    -1.6440     1.7200 C.3   1 <1>   0.1160 
  8 C       -0.0180     2.6340    -0.4150 C.3   1 <1>  -0.0800 
  9 C       -0.8140     3.8540     0.0560 C.3   1 <1>   0.2000 
 10 C        1.4520     3.0330    -0.2100 C.3   1 <1>   0.1400 
 11 O       -0.9000     3.8330     1.4400 O.3   1 <1>  -0.6800 
 12 C        0.0700     5.0330    -0.3440 C.3   1 <1>   0.1400 
 13 N        1.4500     4.5180    -0.1660 N.am  1 <1>  -0.6600 
 14 C        2.5670     5.2440     0.1410 C.2   1 <1>   0.5690 
 15 O        3.6070     4.6980     0.4210 O.2   1 <1>  -0.5700 
 16 C        2.4970     6.7670     0.1460 C.3   1 <1>  -0.0990 
 17 C        3.8750     7.4570     0.1610 C.3   1 <1>  -0.1600 
 18 C        3.7560     8.9870     0.1350 C.3   1 <1>   0.0210 
 19 C        5.1140     9.6700     0.1500 C.2   1 <1>  -0.1810 
 20 C        5.3270    11.0450     0.1010 C.2   1 <1>   0.1390 
 21 C        6.3540     9.1390     0.2100 C.2   1 <1>  -0.3020 
 22 N        6.5880    11.3530     0.1290 N.2   1 <1>  -0.7070 
 23 N        7.2230    10.1680     0.1960 N.pl3 1 <1>   0.3000 
 24 H       -1.4800     1.1930     0.1880 H     1 <1>   0.0800 
 25 H       -0.1800     1.3650     1.3170 H     1 <1>   0.0800 
 26 H       -0.7730    -3.4490     0.2070 H     1 <1>   0.0800 
 27 H        0.6890    -2.9380    -0.6230 H     1 <1>   0.0800 
 28 H       -0.8850    -2.5220    -1.2650 H     1 <1>   0.0800 
 29 H       -0.2030    -2.4150     2.2560 H     1 <1>   0.0800 
 30 H        0.3000    -0.7440     2.3100 H     1 <1>   0.0800 
 31 H        1.3510    -1.9450     1.5910 H     1 <1>   0.0800 
 32 H       -0.1790     2.5290    -1.4740 H     1 <1>   0.0800 
 33 H       -1.8080     3.9060    -0.3540 H     1 <1>   0.0800 
 34 H        2.0750     2.6780    -1.0140 H     1 <1>   0.0800 
 35 H        1.8360     2.6530     0.7230 H     1 <1>   0.0800 
 36 H       -0.0010     3.9520     1.8100 H     1 <1>   0.4000 
 37 H       -0.1290     5.8990     0.2640 H     1 <1>   0.0800 
 38 H       -0.0840     5.2720    -1.3820 H     1 <1>   0.0800 
 39 H        1.9630     7.0830    -0.7310 H     1 <1>   0.0800 
 40 H        1.9400     7.0710     1.0130 H     1 <1>   0.0800 
 41 H        4.4090     7.1600     1.0480 H     1 <1>   0.0800 
 42 H        4.4430     7.1300    -0.6920 H     1 <1>   0.0800 
 43 H        3.1940     9.3190     0.9910 H     1 <1>   0.0800 
 44 H        3.2280     9.2920    -0.7520 H     1 <1>   0.0800 
 45 H        4.5430    11.7820     0.0470 H     1 <1>   0.1500 
 46 H        6.6640     8.1110     0.2620 H     1 <1>   0.1500 
 47 H        8.2470    10.0970     0.2320 H     1 <1>   0.2700 
@<TRIPOS>BOND
  1   1   2  2   
  2   1   3  2   
  3   1   4  am  
  4   1   5  1   
  5   4   6  1   
  6   4   7  1   
  7   5   8  1   
  8   5  24  1   
  9   5  25  1   
 10   6  26  1   
 11   6  27  1   
 12   6  28  1   
 13   7  29  1   
 14   7  30  1   
 15   7  31  1   
 16   8   9  1   
 17   8  10  1   
 18   8  32  1   
 19   9  11  1   
 20   9  12  1   
 21   9  33  1   
 22  10  13  1   
 23  10  34  1   
 24  10  35  1   
 25  11  36  1   
 26  12  13  1   
 27  12  37  1   
 28  12  38  1   
 29  13  14  am  
 30  14  15  2   
 31  14  16  1   
 32  16  17  1   
 33  16  39  1   
 34  16  40  1   
 35  17  18  1   
 36  17  41  1   
 37  17  42  1   
 38  18  19  1   
 39  18  43  1   
 40  18  44  1   
 41  19  20  1   
 42  19  21  2   
 43  20  22  2   
 44  20  45  1   
 45  21  23  1   
 46  21  46  1   
 47  22  23  1   
 48  23  47  1   
@<TRIPOS>SUBSTRUCTURE
  1 ****  13 GROUP 4 **** **** 0

# MOE 2024.06 (io_trps.svl 2023.06)
