@<TRIPOS>MOLECULE
NONAME
40 41 1 0 0 
SMALL
USER_CHARGES


@<TRIPOS>ATOM
  1 S       -0.4260    -0.1800     0.7320 S.o2  1 <1>   1.0900 
  2 O       -1.6880     0.4650     0.4550 O.2   1 <1>  -0.6500 
  3 O        0.1780    -0.0560     2.0370 O.2   1 <1>  -0.6500 
  4 C       -0.6150    -1.9260     0.3830 C.3   1 <1>  -0.0550 
  5 C        0.7630     0.3850    -0.4710 C.3   1 <1>  -0.1350 
  6 C       -1.2930    -2.2150    -0.9650 C.3   1 <1>  -0.0990 
  7 C       -1.4840    -3.7060    -1.1380 C.2   1 <1>   0.5690 
  8 O       -0.5490    -4.3300    -1.5760 O.2   1 <1>  -0.5700 
  9 N       -2.6570    -4.3080    -0.7790 N.am  1 <1>  -0.6600 
 10 C       -3.8500    -3.6600    -0.1750 C.3   1 <1>   0.1400 
 11 C       -2.8650    -5.7710    -0.8980 C.3   1 <1>   0.1400 
 12 C       -4.8320    -4.8030     0.0960 C.3   1 <1>   0.2000 
 13 C       -4.0020    -6.0850     0.0760 C.3   1 <1>  -0.0800 
 14 O       -5.4500    -4.6630     1.3290 O.3   1 <1>  -0.6800 
 15 C       -4.8360    -7.3220    -0.3020 C.3   1 <1>  -0.0170 
 16 C       -4.0030    -8.5940    -0.2820 C.ar  1 <1>   0.1670 
 17 N       -3.2700    -8.8380    -1.3560 N.ar  1 <1>  -0.6200 
 18 C       -4.0370    -9.4320     0.8330 C.ar  1 <1>   0.1600 
 19 C       -2.5770    -9.9580    -1.2420 C.ar  1 <1>   0.1600 
 20 N       -3.3440   -10.5530     0.9490 N.ar  1 <1>  -0.6200 
 21 C       -2.6130   -10.7870    -0.1270 C.ar  1 <1>   0.1600 
 22 H        0.3430    -2.4100     0.4070 H     1 <1>   0.0800 
 23 H       -1.2110    -2.3650     1.1600 H     1 <1>   0.0800 
 24 H        0.3850     0.2650    -1.4670 H     1 <1>   0.0800 
 25 H        1.6830    -0.1590    -0.3780 H     1 <1>   0.0800 
 26 H        0.9710     1.4260    -0.3150 H     1 <1>   0.0800 
 27 H       -2.2370    -1.7060    -1.0300 H     1 <1>   0.0800 
 28 H       -0.6770    -1.8610    -1.7710 H     1 <1>   0.0800 
 29 H       -3.5700    -3.1650     0.7380 H     1 <1>   0.0800 
 30 H       -4.2800    -2.9550    -0.8650 H     1 <1>   0.0800 
 31 H       -3.1490    -6.0050    -1.9110 H     1 <1>   0.0800 
 32 H       -1.9690    -6.3160    -0.6500 H     1 <1>   0.0800 
 33 H       -5.5930    -4.8160    -0.6650 H     1 <1>   0.0800 
 34 H       -3.5550    -6.2390     1.0420 H     1 <1>   0.0800 
 35 H       -4.7880    -4.6480     2.0460 H     1 <1>   0.4000 
 36 H       -5.2560    -7.1970    -1.2850 H     1 <1>   0.0800 
 37 H       -5.6550    -7.4190     0.3880 H     1 <1>   0.0800 
 38 H       -4.6610    -9.1620     1.6650 H     1 <1>   0.1500 
 39 H       -1.9500   -10.2340    -2.0710 H     1 <1>   0.1500 
 40 H       -2.0110   -11.6790    -0.1280 H     1 <1>   0.1500 
@<TRIPOS>BOND
  1   1   2  2   
  2   1   3  2   
  3   1   4  1   
  4   1   5  1   
  5   4   6  1   
  6   4  22  1   
  7   4  23  1   
  8   5  24  1   
  9   5  25  1   
 10   5  26  1   
 11   6   7  1   
 12   6  27  1   
 13   6  28  1   
 14   7   8  2   
 15   7   9  am  
 16   9  10  1   
 17   9  11  1   
 18  10  12  1   
 19  10  29  1   
 20  10  30  1   
 21  11  13  1   
 22  11  31  1   
 23  11  32  1   
 24  12  13  1   
 25  12  14  1   
 26  12  33  1   
 27  13  15  1   
 28  13  34  1   
 29  14  35  1   
 30  15  16  1   
 31  15  36  1   
 32  15  37  1   
 33  16  17  ar  
 34  16  18  ar  
 35  17  19  ar  
 36  18  20  ar  
 37  18  38  1   
 38  19  21  ar  
 39  19  39  1   
 40  20  21  ar  
 41  21  40  1   
@<TRIPOS>SUBSTRUCTURE
  1 ****   9 GROUP 4 **** **** 0

# MOE 2024.06 (io_trps.svl 2023.06)
