@<TRIPOS>MOLECULE
NONAME
54 56 1 0 0 
SMALL
USER_CHARGES


@<TRIPOS>ATOM
  1 O       -0.3030     0.0860    -0.7500 O.2   1 <1>  -0.5700 
  2 C        0.0650     1.1690    -0.3530 C.2   1 <1>   0.5690 
  3 N       -0.7660     1.9900     0.3730 N.am  1 <1>  -0.6600 
  4 C        1.4800     1.6010    -0.7350 C.3   1 <1>   0.1810 
  5 C       -2.1520     1.5730     0.7320 C.3   1 <1>   0.1400 
  6 C       -0.3770     3.3550     0.8450 C.3   1 <1>   0.1400 
  7 O        2.2510     1.9690     0.4010 O.3   1 <1>  -0.3620 
  8 C       -3.1880     2.5170     0.0840 C.3   1 <1>   0.0000 
  9 C       -1.6040     4.2230     1.1730 C.3   1 <1>  -0.1600 
 10 C        3.5050     2.4690     0.2600 C.ar  1 <1>   0.0820 
 11 C       -4.5670     2.2900     0.7310 C.3   1 <1>   0.2000 
 12 C       -2.7280     4.0090     0.1480 C.3   1 <1>  -0.1600 
 13 C       -3.4810     2.1310    -1.3750 C.3   1 <1>  -0.1600 
 14 C        4.1360     2.8970     1.4180 C.ar  1 <1>  -0.1500 
 15 C        4.1690     2.5700    -0.9590 C.ar  1 <1>  -0.1500 
 16 O       -4.6910     2.9860     1.9360 O.3   1 <1>  -0.5600 
 17 C       -5.5930     2.7590    -0.3060 C.3   1 <1>  -0.1600 
 18 C       -4.8810     2.6830    -1.6650 C.3   1 <1>  -0.1600 
 19 C        5.4140     3.4280     1.3700 C.ar  1 <1>  -0.1500 
 20 C        5.4460     3.1010    -1.0060 C.ar  1 <1>  -0.1500 
 21 C       -5.7720     2.6050     2.7260 C.3   1 <1>   0.0400 
 22 C        6.0770     3.5330     0.1500 C.ar  1 <1>   0.0820 
 23 O        7.3290     4.0410     0.0080 O.3   1 <1>  -0.3620 
 24 C        8.0640     4.4890     1.1220 C.3   1 <1>   0.1200 
 25 C        9.4180     4.9850     0.6250 C.3   1 <1>  -0.2400 
 26 H        1.4230     2.4430    -1.3980 H     1 <1>   0.0800 
 27 H        1.9780     0.7850    -1.2240 H     1 <1>   0.0800 
 28 H       -2.3370     0.5550     0.4370 H     1 <1>   0.0800 
 29 H       -2.2500     1.6170     1.8030 H     1 <1>   0.0800 
 30 H        0.2480     3.2660     1.7170 H     1 <1>   0.0800 
 31 H        0.1910     3.8430     0.0720 H     1 <1>   0.0800 
 32 H       -1.9660     3.9770     2.1570 H     1 <1>   0.0800 
 33 H       -1.3120     5.2580     1.1890 H     1 <1>   0.0800 
 34 H       -4.6980     1.2370     0.9200 H     1 <1>   0.0800 
 35 H       -2.3510     4.3200    -0.8100 H     1 <1>   0.0800 
 36 H       -3.5550     4.6560     0.3820 H     1 <1>   0.0800 
 37 H       -2.7420     2.5010    -2.0640 H     1 <1>   0.0800 
 38 H       -3.5080     1.0580    -1.4660 H     1 <1>   0.0800 
 39 H        3.6190     2.8110     2.3560 H     1 <1>   0.1500 
 40 H        3.7180     2.2430    -1.8770 H     1 <1>   0.1500 
 41 H       -6.4590     2.1220    -0.2920 H     1 <1>   0.0800 
 42 H       -5.8860     3.7760    -0.1090 H     1 <1>   0.0800 
 43 H       -5.4100     2.0530    -2.3580 H     1 <1>   0.0800 
 44 H       -4.8010     3.6720    -2.0840 H     1 <1>   0.0800 
 45 H        5.8720     3.7500     2.2860 H     1 <1>   0.1500 
 46 H        5.9680     3.1840    -1.9430 H     1 <1>   0.1500 
 47 H       -5.7490     3.1920     3.6270 H     1 <1>   0.0800 
 48 H       -5.6840     1.5610     2.9720 H     1 <1>   0.0800 
 49 H       -6.6890     2.7950     2.1960 H     1 <1>   0.0800 
 50 H        7.5170     5.2870     1.5940 H     1 <1>   0.0800 
 51 H        8.1880     3.6640     1.8030 H     1 <1>   0.0800 
 52 H        9.2820     5.7960    -0.0670 H     1 <1>   0.0800 
 53 H        9.9490     4.1840     0.1410 H     1 <1>   0.0800 
 54 H       10.0060     5.3340     1.4540 H     1 <1>   0.0800 
@<TRIPOS>BOND
  1   1   2  2   
  2   2   3  am  
  3   2   4  1   
  4   3   5  1   
  5   3   6  1   
  6   4   7  1   
  7   4  26  1   
  8   4  27  1   
  9   5   8  1   
 10   5  28  1   
 11   5  29  1   
 12   6   9  1   
 13   6  30  1   
 14   6  31  1   
 15   7  10  1   
 16   8  11  1   
 17   8  12  1   
 18   8  13  1   
 19   9  12  1   
 20   9  32  1   
 21   9  33  1   
 22  10  14  ar  
 23  10  15  ar  
 24  11  16  1   
 25  11  17  1   
 26  11  34  1   
 27  12  35  1   
 28  12  36  1   
 29  13  18  1   
 30  13  37  1   
 31  13  38  1   
 32  14  19  ar  
 33  14  39  1   
 34  15  20  ar  
 35  15  40  1   
 36  16  21  1   
 37  17  18  1   
 38  17  41  1   
 39  17  42  1   
 40  18  43  1   
 41  18  44  1   
 42  19  22  ar  
 43  19  45  1   
 44  20  22  ar  
 45  20  46  1   
 46  21  47  1   
 47  21  48  1   
 48  21  49  1   
 49  22  23  1   
 50  23  24  1   
 51  24  25  1   
 52  24  50  1   
 53  24  51  1   
 54  25  52  1   
 55  25  53  1   
 56  25  54  1   
@<TRIPOS>SUBSTRUCTURE
  1 ****   6 GROUP 4 **** **** 0

# MOE 2024.06 (io_trps.svl 2023.06)
