@<TRIPOS>MOLECULE
NONAME
46 48 1 0 0 
SMALL
USER_CHARGES


@<TRIPOS>ATOM
  1 S       -1.1070     1.4860    -0.1800 S.o2  1 <1>   1.4470 
  2 O       -1.6810     1.7370    -1.4860 O.2   1 <1>  -0.6500 
  3 O       -1.4900     2.3460     0.9220 O.2   1 <1>  -0.6500 
  4 N       -1.5260    -0.0950     0.2590 N.am  1 <1>  -0.8490 
  5 C        0.7060     1.4370    -0.2790 C.ar  1 <1>  -0.0090 
  6 C       -1.0860    -1.0990    -0.7410 C.3   1 <1>   0.1960 
  7 C       -2.9260    -0.2290     0.7070 C.3   1 <1>   0.1960 
  8 C        1.3570     1.1970    -1.4830 C.ar  1 <1>  -0.1500 
  9 C        1.4890     1.6040     0.8570 C.ar  1 <1>  -0.1500 
 10 C       -1.6810    -2.4900    -0.4760 C.3   1 <1>  -0.1060 
 11 C       -3.7970    -0.9910    -0.2920 C.3   1 <1>  -0.1600 
 12 C        2.7380     1.1340    -1.5530 C.ar  1 <1>  -0.1500 
 13 C        2.8710     1.5450     0.7940 C.ar  1 <1>  -0.1500 
 14 C       -1.2220    -3.4550    -1.5610 C.2   1 <1>   0.9060 
 15 C       -3.2090    -2.3580    -0.6760 C.3   1 <1>   0.2000 
 16 C       -1.2510    -3.0510     0.9190 C.3   1 <1>  -0.0650 
 17 C        3.5040     1.3110    -0.4140 C.ar  1 <1>  -0.1440 
 18 O       -0.4210    -3.0840    -2.4270 O.co2 1 <1>  -0.9000 
 19 O       -1.7270    -4.5880    -1.5780 O.co2 1 <1>  -0.9000 
 20 O       -3.8590    -3.3590     0.0180 O.3   1 <1>  -0.6800 
 21 C        0.2530    -2.9360     1.2190 C.3   1 <1>  -0.1950 
 22 C        5.0180     1.2380    -0.4940 C.3   1 <1>  -0.0970 
 23 C        1.2320    -3.8920     0.6200 C.3   1 <1>  -0.2000 
 24 C        0.9320    -3.9420     2.0910 C.3   1 <1>  -0.2000 
 25 H       -1.3860    -0.7850    -1.7290 H     1 <1>   0.0800 
 26 H       -0.0110    -1.1630    -0.7480 H     1 <1>   0.0800 
 27 H       -2.9380    -0.7540     1.6460 H     1 <1>   0.0800 
 28 H       -3.3630     0.7380     0.8890 H     1 <1>   0.0800 
 29 H        0.7760     1.0500    -2.3790 H     1 <1>   0.1500 
 30 H        1.0070     1.7810     1.8030 H     1 <1>   0.1500 
 31 H       -3.8690    -0.3890    -1.1800 H     1 <1>   0.0800 
 32 H       -4.7920    -1.1100     0.0960 H     1 <1>   0.0800 
 33 H        3.2120     0.9410    -2.5010 H     1 <1>   0.1500 
 34 H        3.4480     1.6780     1.6920 H     1 <1>   0.1500 
 35 H       -3.4420    -2.5200    -1.7170 H     1 <1>   0.0800 
 36 H       -1.7820    -2.5510     1.7040 H     1 <1>   0.0800 
 37 H       -1.5300    -4.0890     0.9740 H     1 <1>   0.0800 
 38 H       -3.4450    -4.2030    -0.2910 H     1 <1>   0.4000 
 39 H        0.5700    -1.9140     1.3420 H     1 <1>   0.1000 
 40 H        5.3660     1.6980    -1.4010 H     1 <1>   0.0800 
 41 H        5.3310     0.2090    -0.4830 H     1 <1>   0.0800 
 42 H        5.4680     1.7470     0.3390 H     1 <1>   0.0800 
 43 H        0.8540    -4.6680    -0.0260 H     1 <1>   0.1000 
 44 H        2.1680    -3.4940     0.2710 H     1 <1>   0.1000 
 45 H        1.6830    -3.6040     2.7830 H     1 <1>   0.1000 
 46 H        0.3680    -4.7790     2.4660 H     1 <1>   0.1000 
@<TRIPOS>BOND
  1   1   2  2   
  2   1   3  2   
  3   1   4  am  
  4   1   5  1   
  5   4   6  1   
  6   4   7  1   
  7   5   8  ar  
  8   5   9  ar  
  9   6  10  1   
 10   6  25  1   
 11   6  26  1   
 12   7  11  1   
 13   7  27  1   
 14   7  28  1   
 15   8  12  ar  
 16   8  29  1   
 17   9  13  ar  
 18   9  30  1   
 19  10  14  1   
 20  10  15  1   
 21  10  16  1   
 22  11  15  1   
 23  11  31  1   
 24  11  32  1   
 25  12  17  ar  
 26  12  33  1   
 27  13  17  ar  
 28  13  34  1   
 29  14  18  ar  
 30  14  19  ar  
 31  15  20  1   
 32  15  35  1   
 33  16  21  1   
 34  16  36  1   
 35  16  37  1   
 36  17  22  1   
 37  20  38  1   
 38  21  23  1   
 39  21  24  1   
 40  21  39  1   
 41  22  40  1   
 42  22  41  1   
 43  22  42  1   
 44  23  24  1   
 45  23  43  1   
 46  23  44  1   
 47  24  45  1   
 48  24  46  1   
@<TRIPOS>SUBSTRUCTURE
  1 ****   6 GROUP 4 **** **** 0

# MOE 2024.06 (io_trps.svl 2023.06)
