@<TRIPOS>MOLECULE
NONAME
52 54 1 0 0 
SMALL
USER_CHARGES


@<TRIPOS>ATOM
  1 O        0.5870    -1.1120     0.2410 O.2   1 <1>  -0.5700 
  2 C        1.6890    -1.2060    -0.2480 C.2   1 <1>   0.5690 
  3 N        2.4930    -0.1380    -0.5240 N.am  1 <1>  -0.4940 
  4 C        2.2320    -2.6030    -0.5330 C.3   1 <1>  -0.0190 
  5 C        2.3510     1.2440    -0.2640 C.2   1 <1>  -0.0880 
  6 C        1.0740    -3.5490    -0.8220 C.3   1 <1>   0.3430 
  7 C        2.8770    -3.2200     0.7180 C.3   1 <1>  -0.1600 
  8 N        1.2230     1.9990    -0.1440 N.pl3 1 <1>   0.3140 
  9 C        3.4040     2.0890    -0.0890 C.2   1 <1>  -0.0540 
 10 N        0.5870    -3.9150     0.5320 N.4   1 <1>  -0.9590 
 11 C        1.7960    -4.0790     1.3800 C.3   1 <1>   0.3430 
 12 N        1.5240     3.2890     0.1140 N.2   1 <1>  -0.7070 
 13 C       -0.1850     1.6240    -0.3260 C.3   1 <1>   0.0160 
 14 C        4.8070     1.7730    -0.1330 C.ar  1 <1>   0.0540 
 15 C        2.8140     3.3330     0.1450 C.2   1 <1>   0.1080 
 16 C       -0.3570    -5.0750     0.5860 C.3   1 <1>   0.3430 
 17 C        5.4620     1.6080    -1.3500 C.ar  1 <1>  -0.1500 
 18 C        5.5400     1.6110     1.0380 C.ar  1 <1>  -0.1500 
 19 C        3.5710     4.6160     0.4080 C.3   1 <1>  -0.0590 
 20 C       -1.6960    -4.7650    -0.0910 C.3   1 <1>   0.1200 
 21 C        6.8060     1.2840    -1.3970 C.ar  1 <1>  -0.1500 
 22 C        6.8840     1.2870     0.9970 C.ar  1 <1>  -0.1500 
 23 O       -2.4700    -5.9130    -0.0110 O.3   1 <1>  -0.5600 
 24 C        7.5190     1.1220    -0.2220 C.ar  1 <1>  -0.1500 
 25 C       -3.7470    -5.7860    -0.5550 C.3   1 <1>   0.0400 
 26 H        3.4420    -0.3680    -0.8290 H     1 <1>   0.3700 
 27 H        2.9120    -2.5690    -1.3650 H     1 <1>   0.0800 
 28 H        1.4320    -4.4260    -1.3360 H     1 <1>   0.0800 
 29 H        0.3050    -3.0680    -1.4060 H     1 <1>   0.0800 
 30 H        3.2390    -2.4680     1.4000 H     1 <1>   0.0800 
 31 H        3.7040    -3.8520     0.4450 H     1 <1>   0.0800 
 32 H        0.1060    -3.0600     0.8780 H     1 <1>   0.4500 
 33 H        1.6010    -3.7540     2.3900 H     1 <1>   0.0800 
 34 H        2.1080    -5.1120     1.3920 H     1 <1>   0.0800 
 35 H       -0.2670     0.9270    -1.1370 H     1 <1>   0.0800 
 36 H       -0.7570     2.5050    -0.5510 H     1 <1>   0.0800 
 37 H       -0.5500     1.1840     0.5820 H     1 <1>   0.0800 
 38 H       -0.5540    -5.3290     1.6150 H     1 <1>   0.0800 
 39 H        0.0890    -5.9290     0.1050 H     1 <1>   0.0800 
 40 H        4.9100     1.7440    -2.2630 H     1 <1>   0.1500 
 41 H        5.0460     1.7420     1.9850 H     1 <1>   0.1500 
 42 H        4.5040     4.6160    -0.1230 H     1 <1>   0.0800 
 43 H        3.7600     4.7110     1.4610 H     1 <1>   0.0800 
 44 H        2.9840     5.4550     0.0820 H     1 <1>   0.0800 
 45 H       -1.5610    -4.5230    -1.1310 H     1 <1>   0.0800 
 46 H       -2.2080    -3.9700     0.4220 H     1 <1>   0.0800 
 47 H        7.3000     1.1630    -2.3460 H     1 <1>   0.1500 
 48 H        7.4380     1.1660     1.9120 H     1 <1>   0.1500 
 49 H        8.5660     0.8730    -0.2560 H     1 <1>   0.1500 
 50 H       -4.2550    -6.7280    -0.4410 H     1 <1>   0.0800 
 51 H       -3.6700    -5.5450    -1.6020 H     1 <1>   0.0800 
 52 H       -4.2880    -5.0200    -0.0270 H     1 <1>   0.0800 
@<TRIPOS>BOND
  1   1   2  2   
  2   2   3  am  
  3   2   4  1   
  4   3   5  1   
  5   3  26  1   
  6   4   6  1   
  7   4   7  1   
  8   4  27  1   
  9   5   8  1   
 10   5   9  2   
 11   6  10  1   
 12   6  28  1   
 13   6  29  1   
 14   7  11  1   
 15   7  30  1   
 16   7  31  1   
 17   8  12  1   
 18   8  13  1   
 19   9  14  1   
 20   9  15  1   
 21  10  11  1   
 22  10  16  1   
 23  10  32  1   
 24  11  33  1   
 25  11  34  1   
 26  12  15  2   
 27  13  35  1   
 28  13  36  1   
 29  13  37  1   
 30  14  17  ar  
 31  14  18  ar  
 32  15  19  1   
 33  16  20  1   
 34  16  38  1   
 35  16  39  1   
 36  17  21  ar  
 37  17  40  1   
 38  18  22  ar  
 39  18  41  1   
 40  19  42  1   
 41  19  43  1   
 42  19  44  1   
 43  20  23  1   
 44  20  45  1   
 45  20  46  1   
 46  21  24  ar  
 47  21  47  1   
 48  22  24  ar  
 49  22  48  1   
 50  23  25  1   
 51  24  49  1   
 52  25  50  1   
 53  25  51  1   
 54  25  52  1   
@<TRIPOS>SUBSTRUCTURE
  1 ****   3 GROUP 4 **** **** 0

# MOE 2024.06 (io_trps.svl 2023.06)
