@<TRIPOS>MOLECULE
NONAME
49 51 1 0 0 
SMALL
USER_CHARGES


@<TRIPOS>ATOM
  1 O       -0.3840     0.0950     0.2130 O.2   1 <1>  -0.5700 
  2 C       -1.4180     0.7340     0.2080 C.2   1 <1>   0.5440 
  3 N       -2.6120     0.0560     0.1090 N.am  1 <1>  -0.6600 
  4 C       -1.3590     2.1690     0.2860 C.ar  1 <1>   0.0860 
  5 C       -3.8570     0.6120    -0.4870 C.3   1 <1>   0.1400 
  6 C       -2.6660    -1.4300     0.1150 C.3   1 <1>   0.1400 
  7 C       -2.2460     2.9250     1.0310 C.ar  1 <1>   0.1600 
  8 C       -0.3910     2.8960    -0.3810 C.ar  1 <1>   0.1600 
  9 C       -4.5710    -0.5930    -1.0960 C.3   1 <1>   0.2000 
 10 C       -4.1000    -1.7890    -0.2760 C.3   1 <1>  -0.0800 
 11 N       -2.2140     4.2340     1.0850 N.ar  1 <1>  -0.6200 
 12 N       -0.3250     4.2060    -0.3500 N.ar  1 <1>  -0.6200 
 13 O       -5.9480    -0.4650    -1.0160 O.3   1 <1>  -0.6800 
 14 C       -4.2170    -3.1270    -1.0220 C.3   1 <1>   0.0210 
 15 C       -1.2500     4.8170     0.3850 C.ar  1 <1>   0.7200 
 16 C       -3.6110    -4.2550    -0.2100 C.2   1 <1>   0.1080 
 17 N       -1.2430     6.1600     0.4570 N.pl3 1 <1>  -0.8690 
 18 N       -4.0010    -4.5450     0.9920 N.2   1 <1>  -0.7070 
 19 C       -2.5810    -5.0830    -0.6430 C.2   1 <1>  -0.1500 
 20 C       -0.2620     7.0850    -0.1110 C.3   1 <1>   0.2890 
 21 N       -3.2230    -5.5800     1.3610 N.pl3 1 <1>   0.3000 
 22 C       -2.3530    -5.9220     0.3880 C.2   1 <1>  -0.3320 
 23 C        0.5050     7.7220     1.0400 C.3   1 <1>  -0.2400 
 24 C       -1.0200     8.1300    -0.9200 C.3   1 <1>  -0.2400 
 25 C       -1.3410    -7.0470     0.5050 C.3   1 <1>  -0.0600 
 26 H       -4.4570     1.0500     0.2900 H     1 <1>   0.0800 
 27 H       -3.6300     1.3430    -1.2440 H     1 <1>   0.0800 
 28 H       -1.9640    -1.8130    -0.6070 H     1 <1>   0.0800 
 29 H       -2.4170    -1.8190     1.0880 H     1 <1>   0.0800 
 30 H       -3.0050     2.4200     1.6040 H     1 <1>   0.1500 
 31 H        0.3470     2.3650    -0.9590 H     1 <1>   0.1500 
 32 H       -4.2980    -0.6920    -2.1330 H     1 <1>   0.0800 
 33 H       -4.6670    -1.8470     0.6380 H     1 <1>   0.0800 
 34 H       -6.2460    -0.5630    -0.0900 H     1 <1>   0.4000 
 35 H       -3.7190    -3.0660    -1.9720 H     1 <1>   0.0800 
 36 H       -5.2540    -3.3490    -1.2010 H     1 <1>   0.0800 
 37 H       -1.9480     6.5600     1.0700 H     1 <1>   0.4000 
 38 H       -2.0900    -5.0420    -1.5990 H     1 <1>   0.1500 
 39 H        0.4240     6.5590    -0.7560 H     1 <1>   0.0800 
 40 H       -3.3090    -6.0290     2.2810 H     1 <1>   0.2700 
 41 H       -0.1620     8.2550     1.6940 H     1 <1>   0.0800 
 42 H        1.2360     8.4100     0.6560 H     1 <1>   0.0800 
 43 H        1.0180     6.9600     1.5990 H     1 <1>   0.0800 
 44 H       -1.7080     8.6700    -0.2960 H     1 <1>   0.0800 
 45 H       -1.5610     7.6490    -1.7150 H     1 <1>   0.0800 
 46 H       -0.3280     8.8280    -1.3550 H     1 <1>   0.0800 
 47 H       -0.7650    -7.1220    -0.4000 H     1 <1>   0.0800 
 48 H       -1.8430    -7.9840     0.6700 H     1 <1>   0.0800 
 49 H       -0.6690    -6.8590     1.3240 H     1 <1>   0.0800 
@<TRIPOS>BOND
  1   1   2  2   
  2   2   3  am  
  3   2   4  1   
  4   3   5  1   
  5   3   6  1   
  6   4   7  ar  
  7   4   8  ar  
  8   5   9  1   
  9   5  26  1   
 10   5  27  1   
 11   6  10  1   
 12   6  28  1   
 13   6  29  1   
 14   7  11  ar  
 15   7  30  1   
 16   8  12  ar  
 17   8  31  1   
 18   9  10  1   
 19   9  13  1   
 20   9  32  1   
 21  10  14  1   
 22  10  33  1   
 23  11  15  ar  
 24  12  15  ar  
 25  13  34  1   
 26  14  16  1   
 27  14  35  1   
 28  14  36  1   
 29  15  17  1   
 30  16  18  2   
 31  16  19  1   
 32  17  20  1   
 33  17  37  1   
 34  18  21  1   
 35  19  22  2   
 36  19  38  1   
 37  20  23  1   
 38  20  24  1   
 39  20  39  1   
 40  21  22  1   
 41  21  40  1   
 42  22  25  1   
 43  23  41  1   
 44  23  42  1   
 45  23  43  1   
 46  24  44  1   
 47  24  45  1   
 48  24  46  1   
 49  25  47  1   
 50  25  48  1   
 51  25  49  1   
@<TRIPOS>SUBSTRUCTURE
  1 ****   3 GROUP 4 **** **** 0

# MOE 2024.06 (io_trps.svl 2023.06)
