@<TRIPOS>MOLECULE
NONAME
40 42 1 0 0 
SMALL
USER_CHARGES


@<TRIPOS>ATOM
  1 O       -1.4940     0.6550     2.5480 O.2   1 <1>  -0.5700 
  2 C       -1.9500     1.0150     1.4810 C.2   1 <1>   0.5440 
  3 N       -2.7470     0.1470     0.7730 N.am  1 <1>  -0.6600 
  4 C       -1.6750     2.3460     0.9860 C.ar  1 <1>   0.0860 
  5 C       -3.6720     0.5400    -0.3160 C.3   1 <1>   0.1400 
  6 C       -3.0500    -1.2320     1.2360 C.3   1 <1>   0.1400 
  7 C       -0.8830     2.5850    -0.1450 C.ar  1 <1>   0.1660 
  8 C       -2.2210     3.4480     1.6290 C.ar  1 <1>  -0.1500 
  9 C       -4.8510    -0.4200    -0.1660 C.3   1 <1>   0.2000 
 10 C       -4.2280    -1.7130     0.3700 C.3   1 <1>  -0.0800 
 11 N       -0.6570     3.7820    -0.6660 N.ar  1 <1>  -0.6200 
 12 C       -0.1970     1.4460    -0.8830 C.3   1 <1>  -0.0970 
 13 C       -1.9790     4.6970     1.1040 C.ar  1 <1>  -0.1500 
 14 O       -5.6980     0.0790     0.8080 O.3   1 <1>  -0.6800 
 15 C       -3.7700    -2.6220    -0.7880 C.3   1 <1>  -0.0170 
 16 C       -1.2030     4.8070    -0.0350 C.ar  1 <1>   0.1600 
 17 C       -3.2740    -3.9730    -0.2940 C.ar  1 <1>   0.1670 
 18 N       -1.9660    -4.1080    -0.1470 N.ar  1 <1>  -0.6200 
 19 C       -4.1870    -4.9910    -0.0250 C.ar  1 <1>   0.1600 
 20 C       -1.6360    -5.3140     0.2860 C.ar  1 <1>   0.1600 
 21 N       -3.8600    -6.1970     0.4080 N.ar  1 <1>  -0.6200 
 22 C       -2.5520    -6.3240     0.5550 C.ar  1 <1>   0.1600 
 23 H       -3.9860     1.5680    -0.2370 H     1 <1>   0.0800 
 24 H       -3.1860     0.3830    -1.2630 H     1 <1>   0.0800 
 25 H       -2.1780    -1.8560     1.1370 H     1 <1>   0.0800 
 26 H       -3.3360    -1.2010     2.2740 H     1 <1>   0.0800 
 27 H       -2.8180     3.3170     2.5160 H     1 <1>   0.1500 
 28 H       -5.4160    -0.5450    -1.0740 H     1 <1>   0.0800 
 29 H       -4.9400    -2.2570     0.9680 H     1 <1>   0.0800 
 30 H       -0.0380     0.5950    -0.2470 H     1 <1>   0.0800 
 31 H        0.7630     1.7730    -1.2410 H     1 <1>   0.0800 
 32 H       -0.7930     1.1500    -1.7260 H     1 <1>   0.0800 
 33 H       -2.3840     5.5770     1.5700 H     1 <1>   0.1500 
 34 H       -5.1710     0.2890     1.6060 H     1 <1>   0.4000 
 35 H       -2.9870    -2.1430    -1.3510 H     1 <1>   0.0800 
 36 H       -4.5940    -2.7880    -1.4590 H     1 <1>   0.0800 
 37 H       -1.0200     5.7860    -0.4460 H     1 <1>   0.1500 
 38 H       -5.2350    -4.8000    -0.1720 H     1 <1>   0.1500 
 39 H       -0.5900    -5.5130     0.4360 H     1 <1>   0.1500 
 40 H       -2.1860    -7.2730     0.9040 H     1 <1>   0.1500 
@<TRIPOS>BOND
  1   1   2  2   
  2   2   3  am  
  3   2   4  1   
  4   3   5  1   
  5   3   6  1   
  6   4   7  ar  
  7   4   8  ar  
  8   5   9  1   
  9   5  23  1   
 10   5  24  1   
 11   6  10  1   
 12   6  25  1   
 13   6  26  1   
 14   7  11  ar  
 15   7  12  1   
 16   8  13  ar  
 17   8  27  1   
 18   9  10  1   
 19   9  14  1   
 20   9  28  1   
 21  10  15  1   
 22  10  29  1   
 23  11  16  ar  
 24  12  30  1   
 25  12  31  1   
 26  12  32  1   
 27  13  16  ar  
 28  13  33  1   
 29  14  34  1   
 30  15  17  1   
 31  15  35  1   
 32  15  36  1   
 33  16  37  1   
 34  17  18  ar  
 35  17  19  ar  
 36  18  20  ar  
 37  19  21  ar  
 38  19  38  1   
 39  20  22  ar  
 40  20  39  1   
 41  21  22  ar  
 42  22  40  1   
@<TRIPOS>SUBSTRUCTURE
  1 ****   3 GROUP 4 **** **** 0

# MOE 2024.06 (io_trps.svl 2023.06)
