@<TRIPOS>MOLECULE
NONAME
40 42 1 0 0 
SMALL
USER_CHARGES


@<TRIPOS>ATOM
  1 S        0.4130     0.2630    -1.3810 S.o2  1 <1>   1.3330 
  2 O       -0.5240     1.2370    -1.8930 O.2   1 <1>  -0.6500 
  3 O        0.7320    -0.9040    -2.1730 O.2   1 <1>  -0.6500 
  4 N       -0.1920    -0.2750     0.1130 N.am  1 <1>  -0.8490 
  5 C        1.9520     1.0820    -0.9610 C.3   1 <1>  -0.0550 
  6 C       -1.1020    -1.4140    -0.0410 C.3   1 <1>   0.1160 
  7 C       -0.8500     0.7830     0.8870 C.3   1 <1>   0.1160 
  8 C        3.0540     0.1340    -0.4410 C.3   1 <1>  -0.0800 
  9 C        4.4130     0.7890    -0.2620 C.3   1 <1>   0.2890 
 10 C        2.7900    -0.4750     0.9400 C.3   1 <1>   0.1200 
 11 N        4.2640     2.1280     0.3610 N.pl3 1 <1>  -0.8690 
 12 C        5.0550    -0.1640     0.7390 C.3   1 <1>   0.1200 
 13 O        4.0250    -0.5620     1.5930 O.3   1 <1>  -0.5600 
 14 C        4.4940     3.3230    -0.2730 C.ar  1 <1>   0.4100 
 15 N        4.5670     3.3290    -1.5900 N.ar  1 <1>  -0.6200 
 16 C        4.6350     4.5080     0.4250 C.ar  1 <1>   0.0400 
 17 C        4.7810     4.5180    -2.1530 C.ar  1 <1>   0.4700 
 18 S        4.5790     4.8050     2.1720 S.3   1 <1>  -0.0800 
 19 C        4.8540     5.6790    -0.2490 C.ar  1 <1>   0.2560 
 20 N        4.9310     5.6960    -1.5760 N.ar  1 <1>  -0.5660 
 21 C        4.8600     6.5290     1.9280 C.2   1 <1>  -0.1100 
 22 C        4.9790     6.8130     0.6170 C.2   1 <1>  -0.1500 
 23 H        2.3240     1.5670    -1.8420 H     1 <1>   0.0800 
 24 H        1.7620     1.8490    -0.2370 H     1 <1>   0.0800 
 25 H       -1.4580    -1.7410     0.9200 H     1 <1>   0.0800 
 26 H       -0.5870    -2.2380    -0.5070 H     1 <1>   0.0800 
 27 H       -1.9430    -1.1400    -0.6570 H     1 <1>   0.0800 
 28 H       -1.1390     0.4090     1.8540 H     1 <1>   0.0800 
 29 H       -1.7280     1.1380     0.3710 H     1 <1>   0.0800 
 30 H       -0.1780     1.6120     1.0320 H     1 <1>   0.0800 
 31 H        3.1680    -0.6770    -1.1400 H     1 <1>   0.0800 
 32 H        4.9740     0.8460    -1.1800 H     1 <1>   0.0800 
 33 H        2.3580    -1.4590     0.8700 H     1 <1>   0.0800 
 34 H        2.1560     0.1570     1.5370 H     1 <1>   0.0800 
 35 H        4.2450     2.1080     1.3860 H     1 <1>   0.4000 
 36 H        5.8430     0.2990     1.3070 H     1 <1>   0.0800 
 37 H        5.4270    -1.0420     0.2410 H     1 <1>   0.0800 
 38 H        4.8390     4.5140    -3.2290 H     1 <1>   0.1500 
 39 H        4.9050     7.1490     2.8060 H     1 <1>   0.1500 
 40 H        5.1540     7.7850     0.1930 H     1 <1>   0.1500 
@<TRIPOS>BOND
  1   1   2  2   
  2   1   3  2   
  3   1   4  am  
  4   1   5  1   
  5   4   6  1   
  6   4   7  1   
  7   5   8  1   
  8   5  23  1   
  9   5  24  1   
 10   6  25  1   
 11   6  26  1   
 12   6  27  1   
 13   7  28  1   
 14   7  29  1   
 15   7  30  1   
 16   8   9  1   
 17   8  10  1   
 18   8  31  1   
 19   9  11  1   
 20   9  12  1   
 21   9  32  1   
 22  10  13  1   
 23  10  33  1   
 24  10  34  1   
 25  11  14  1   
 26  11  35  1   
 27  12  13  1   
 28  12  36  1   
 29  12  37  1   
 30  14  15  ar  
 31  14  16  ar  
 32  15  17  ar  
 33  16  18  1   
 34  16  19  ar  
 35  17  20  ar  
 36  17  38  1   
 37  18  21  1   
 38  19  20  ar  
 39  19  22  1   
 40  21  22  2   
 41  21  39  1   
 42  22  40  1   
@<TRIPOS>SUBSTRUCTURE
  1 ****  11 GROUP 4 **** **** 0

# MOE 2024.06 (io_trps.svl 2023.06)
