@<TRIPOS>MOLECULE
NONAME
51 53 1 0 0 
SMALL
USER_CHARGES


@<TRIPOS>ATOM
  1 F        1.1700    -3.8050     2.1320 F     1 <1>  -0.1900 
  2 C        1.4000    -3.8280     0.8450 C.ar  1 <1>   0.1900 
  3 C        0.5590    -3.1320    -0.0130 C.ar  1 <1>  -0.0320 
  4 C        2.4790    -4.5670     0.3970 C.ar  1 <1>  -0.1500 
  5 C        0.8320    -3.1960    -1.3730 C.ar  1 <1>  -0.1500 
  6 C       -0.6340    -2.3380     0.5210 C.3   1 <1>   0.0320 
  7 C        2.7310    -4.6190    -0.9620 C.ar  1 <1>  -0.1500 
  8 C        1.9090    -3.9340    -1.8430 C.ar  1 <1>  -0.1500 
  9 C       -1.7600    -3.2260     1.0780 C.2   1 <1>   0.6300 
 10 C       -0.3070    -1.0470     1.2200 C.3   1 <1>  -0.2000 
 11 C       -0.9870    -1.0160    -0.1100 C.3   1 <1>  -0.2000 
 12 O       -2.6540    -2.7530     1.7410 O.2   1 <1>  -0.5700 
 13 N       -1.8250    -4.5460     0.7610 N.am  1 <1>  -0.6600 
 14 C       -1.9050    -5.5350     1.8870 C.3   1 <1>   0.3210 
 15 C       -2.1860    -4.9610    -0.6320 C.3   1 <1>   0.1400 
 16 C       -2.1180    -6.9760     1.4330 C.2   1 <1>   0.0460 
 17 C       -3.7010    -5.2170    -0.7920 C.3   1 <1>   0.3430 
 18 N       -3.3610    -7.4920     1.3030 N.2   1 <1>  -0.5650 
 19 C       -1.1790    -7.9020     1.1290 C.2   1 <1>  -0.3320 
 20 N       -4.5150    -4.3050     0.0770 N.4   1 <1>  -0.9590 
 21 C       -3.1490    -8.7180     0.9440 C.2   1 <1>   0.0360 
 22 N       -1.8430    -9.0300     0.8180 N.pl3 1 <1>   0.0330 
 23 C        0.3390    -7.8090     1.1160 C.3   1 <1>  -0.0600 
 24 C       -5.6230    -5.0490     0.7420 C.3   1 <1>   0.2630 
 25 C       -4.9890    -3.0800    -0.6260 C.3   1 <1>   0.2630 
 26 H        3.1070    -5.0860     1.1000 H     1 <1>   0.1500 
 27 H        0.2130    -2.6700    -2.0780 H     1 <1>   0.1500 
 28 H        3.5680    -5.1860    -1.3350 H     1 <1>   0.1500 
 29 H        2.1130    -3.9720    -2.9000 H     1 <1>   0.1500 
 30 H        0.7230    -0.7420     1.2840 H     1 <1>   0.1000 
 31 H       -0.8680    -0.7770     2.0980 H     1 <1>   0.1000 
 32 H       -2.0150    -0.6980    -0.1350 H     1 <1>   0.1000 
 33 H       -0.4200    -0.6390    -0.9430 H     1 <1>   0.1000 
 34 H       -2.7030    -5.2610     2.5550 H     1 <1>   0.0800 
 35 H       -0.9890    -5.4840     2.4490 H     1 <1>   0.0800 
 36 H       -1.6330    -5.8410    -0.9110 H     1 <1>   0.0800 
 37 H       -1.9020    -4.1800    -1.3160 H     1 <1>   0.0800 
 38 H       -3.8960    -6.2390    -0.5180 H     1 <1>   0.0800 
 39 H       -3.9850    -5.1110    -1.8250 H     1 <1>   0.0800 
 40 H       -3.8640    -3.9910     0.8330 H     1 <1>   0.4500 
 41 H       -3.9250    -9.4420     0.7620 H     1 <1>   0.1500 
 42 H       -1.4470    -9.9380     0.5580 H     1 <1>   0.2700 
 43 H        0.6620    -6.8180     1.3800 H     1 <1>   0.0800 
 44 H        0.7180    -8.0370     0.1360 H     1 <1>   0.0800 
 45 H        0.7590    -8.5020     1.8220 H     1 <1>   0.0800 
 46 H       -6.3220    -5.4170     0.0090 H     1 <1>   0.0800 
 47 H       -6.1440    -4.4050     1.4310 H     1 <1>   0.0800 
 48 H       -5.2270    -5.8880     1.2930 H     1 <1>   0.0800 
 49 H       -5.6630    -3.3420    -1.4240 H     1 <1>   0.0800 
 50 H       -4.1510    -2.5400    -1.0350 H     1 <1>   0.0800 
 51 H       -5.5030    -2.4330     0.0670 H     1 <1>   0.0800 
@<TRIPOS>BOND
  1   1   2  1   
  2   2   3  ar  
  3   2   4  ar  
  4   3   5  ar  
  5   3   6  1   
  6   4   7  ar  
  7   4  26  1   
  8   5   8  ar  
  9   5  27  1   
 10   6   9  1   
 11   6  10  1   
 12   6  11  1   
 13   7   8  ar  
 14   7  28  1   
 15   8  29  1   
 16   9  12  2   
 17   9  13  am  
 18  10  11  1   
 19  10  30  1   
 20  10  31  1   
 21  11  32  1   
 22  11  33  1   
 23  13  14  1   
 24  13  15  1   
 25  14  16  1   
 26  14  34  1   
 27  14  35  1   
 28  15  17  1   
 29  15  36  1   
 30  15  37  1   
 31  16  18  1   
 32  16  19  2   
 33  17  20  1   
 34  17  38  1   
 35  17  39  1   
 36  18  21  2   
 37  19  22  1   
 38  19  23  1   
 39  20  24  1   
 40  20  25  1   
 41  20  40  1   
 42  21  22  1   
 43  21  41  1   
 44  22  42  1   
 45  23  43  1   
 46  23  44  1   
 47  23  45  1   
 48  24  46  1   
 49  24  47  1   
 50  24  48  1   
 51  25  49  1   
 52  25  50  1   
 53  25  51  1   
@<TRIPOS>SUBSTRUCTURE
  1 ****  13 GROUP 4 **** **** 0

# MOE 2024.06 (io_trps.svl 2023.06)
