@<TRIPOS>MOLECULE
NONAME
61 63 1 0 0 
SMALL
USER_CHARGES


@<TRIPOS>ATOM
  1 O       -1.9450     0.8220     1.5210 O.2   1 <1>  -0.5700 
  2 C       -2.2400     1.0470     0.3710 C.2   1 <1>   0.5690 
  3 N       -1.6540     2.0730    -0.3280 N.am  1 <1>  -0.6600 
  4 C       -3.3050     0.1380    -0.2550 C.3   1 <1>  -0.0190 
  5 C       -2.0770     2.6160    -1.6570 C.3   1 <1>   0.1400 
  6 C       -0.4750     2.8070     0.2400 C.3   1 <1>   0.1400 
  7 C       -4.7120     0.5750     0.1960 C.3   1 <1>  -0.1600 
  8 C       -3.0730    -1.3430     0.1140 C.3   1 <1>  -0.1600 
  9 C       -2.1810     4.1520    -1.6210 C.3   1 <1>   0.1200 
 10 C       -0.6810     4.3270     0.1680 C.3   1 <1>   0.1200 
 11 C       -5.8060    -0.3700    -0.3000 C.3   1 <1>   0.3430 
 12 C       -4.1870    -2.2510    -0.3980 C.3   1 <1>   0.3430 
 13 O       -1.0000     4.7170    -1.1370 O.3   1 <1>  -0.5600 
 14 N       -5.4970    -1.7630     0.1220 N.4   1 <1>  -0.9590 
 15 C       -6.6190    -2.7330    -0.1820 C.3   1 <1>   0.4040 
 16 C       -6.5060    -4.0660     0.5830 C.2   1 <1>   0.5690 
 17 O       -5.7810    -4.0990     1.5490 O.2   1 <1>  -0.5700 
 18 N       -7.1980    -5.1610     0.1740 N.am  1 <1>  -0.7300 
 19 C       -7.2370    -6.4420     0.9060 C.3   1 <1>   0.2840 
 20 C       -8.6380    -6.9990     0.7560 C.ar  1 <1>  -0.1440 
 21 C       -8.9490    -7.8350    -0.3070 C.ar  1 <1>  -0.1500 
 22 C       -9.6240    -6.6690     1.6740 C.ar  1 <1>  -0.1500 
 23 C      -10.2300    -8.3380    -0.4580 C.ar  1 <1>   0.0820 
 24 C      -10.9110    -7.1570     1.5230 C.ar  1 <1>  -0.1500 
 25 O      -10.4490    -9.1750    -1.5020 O.3   1 <1>  -0.3620 
 26 C      -11.2290    -7.9760     0.4530 C.ar  1 <1>   0.0820 
 27 C      -10.7820   -10.5080    -1.1790 C.3   1 <1>   0.0400 
 28 O      -12.5160    -8.3880     0.3440 O.3   1 <1>  -0.3630 
 29 C      -13.2330    -7.9260    -0.7800 C.3   1 <1>   0.0400 
 30 H       -3.2420     0.2050    -1.3250 H     1 <1>   0.0800 
 31 H       -3.0320     2.2240    -1.9510 H     1 <1>   0.0800 
 32 H       -1.3520     2.3340    -2.4010 H     1 <1>   0.0800 
 33 H        0.4050     2.5460    -0.3210 H     1 <1>   0.0800 
 34 H       -0.3040     2.5260     1.2640 H     1 <1>   0.0800 
 35 H       -4.9110     1.5680    -0.1680 H     1 <1>   0.0800 
 36 H       -4.7470     0.6190     1.2720 H     1 <1>   0.0800 
 37 H       -3.0040    -1.4570     1.1830 H     1 <1>   0.0800 
 38 H       -2.1340    -1.6690    -0.2980 H     1 <1>   0.0800 
 39 H       -2.9950     4.4650    -0.9900 H     1 <1>   0.0800 
 40 H       -2.3450     4.5370    -2.6120 H     1 <1>   0.0800 
 41 H        0.2230     4.8370     0.4520 H     1 <1>   0.0800 
 42 H       -1.4730     4.6350     0.8280 H     1 <1>   0.0800 
 43 H       -5.8650    -0.3190    -1.3760 H     1 <1>   0.0800 
 44 H       -6.7550    -0.0610     0.1090 H     1 <1>   0.0800 
 45 H       -4.0060    -3.2590    -0.0550 H     1 <1>   0.0800 
 46 H       -4.1930    -2.2510    -1.4760 H     1 <1>   0.0800 
 47 H       -5.3960    -1.7810     1.1530 H     1 <1>   0.4500 
 48 H       -6.6440    -2.9410    -1.2380 H     1 <1>   0.0800 
 49 H       -7.5580    -2.2860     0.0930 H     1 <1>   0.0800 
 50 H       -7.8680    -5.1440    -0.6010 H     1 <1>   0.3700 
 51 H       -7.0010    -6.2920     1.9470 H     1 <1>   0.0800 
 52 H       -6.5160    -7.1240     0.4870 H     1 <1>   0.0800 
 53 H       -8.2010    -8.1130    -1.0280 H     1 <1>   0.1500 
 54 H       -9.3980    -6.0290     2.5100 H     1 <1>   0.1500 
 55 H      -11.6780    -6.9000     2.2320 H     1 <1>   0.1500 
 56 H      -10.8160   -11.0760    -2.0900 H     1 <1>   0.0800 
 57 H      -11.7430   -10.5300    -0.6980 H     1 <1>   0.0800 
 58 H      -10.0280   -10.9050    -0.5230 H     1 <1>   0.0800 
 59 H      -14.2570    -8.2370    -0.6750 H     1 <1>   0.0800 
 60 H      -12.8120    -8.3510    -1.6720 H     1 <1>   0.0800 
 61 H      -13.1740    -6.8530    -0.8120 H     1 <1>   0.0800 
@<TRIPOS>BOND
  1   1   2  2   
  2   2   3  am  
  3   2   4  1   
  4   3   5  1   
  5   3   6  1   
  6   4   7  1   
  7   4   8  1   
  8   4  30  1   
  9   5   9  1   
 10   5  31  1   
 11   5  32  1   
 12   6  10  1   
 13   6  33  1   
 14   6  34  1   
 15   7  11  1   
 16   7  35  1   
 17   7  36  1   
 18   8  12  1   
 19   8  37  1   
 20   8  38  1   
 21   9  13  1   
 22   9  39  1   
 23   9  40  1   
 24  10  13  1   
 25  10  41  1   
 26  10  42  1   
 27  11  14  1   
 28  11  43  1   
 29  11  44  1   
 30  12  14  1   
 31  12  45  1   
 32  12  46  1   
 33  14  15  1   
 34  14  47  1   
 35  15  16  1   
 36  15  48  1   
 37  15  49  1   
 38  16  17  2   
 39  16  18  am  
 40  18  19  1   
 41  18  50  1   
 42  19  20  1   
 43  19  51  1   
 44  19  52  1   
 45  20  21  ar  
 46  20  22  ar  
 47  21  23  ar  
 48  21  53  1   
 49  22  24  ar  
 50  22  54  1   
 51  23  25  1   
 52  23  26  ar  
 53  24  26  ar  
 54  24  55  1   
 55  25  27  1   
 56  26  28  1   
 57  27  56  1   
 58  27  57  1   
 59  27  58  1   
 60  28  29  1   
 61  29  59  1   
 62  29  60  1   
 63  29  61  1   
@<TRIPOS>SUBSTRUCTURE
  1 ****  15 GROUP 4 **** **** 0

# MOE 2024.06 (io_trps.svl 2023.06)
