@<TRIPOS>MOLECULE
NONAME
49 51 1 0 0 
SMALL
USER_CHARGES


@<TRIPOS>ATOM
  1 O        0.2560    -0.1180     2.0220 O.3   1 <1>  -0.8290 
  2 C        1.3100    -0.6390     1.6360 C.ar  1 <1>   0.4490 
  3 N        1.2620    -1.9490     1.3590 N.ar  1 <1>  -0.6200 
  4 N        2.3930     0.1510     1.5250 N.ar  1 <1>  -0.6200 
  5 C        2.3680    -2.5200     0.9200 C.ar  1 <1>   0.3960 
  6 C        3.4810    -0.4210     1.1020 C.ar  1 <1>   0.1660 
  7 C        2.4040    -3.9490     0.5660 C.2   1 <1>   0.5440 
  8 C        3.5200    -1.7580     0.7880 C.ar  1 <1>  -0.1500 
  9 C        4.7270     0.4390     0.9630 C.3   1 <1>  -0.0170 
 10 O        3.4820    -4.5160     0.4530 O.2   1 <1>  -0.5700 
 11 N        1.2800    -4.7240     0.3200 N.am  1 <1>  -0.6600 
 12 C        5.1130     0.7060    -0.5060 C.3   1 <1>  -0.0800 
 13 C       -0.1220    -4.2320     0.2570 C.3   1 <1>   0.1400 
 14 C        1.3340    -6.1870     0.1000 C.3   1 <1>   0.1400 
 15 C        6.4310     1.4860    -0.5790 C.3   1 <1>  -0.2400 
 16 C        4.0120     1.4810    -1.2450 C.3   1 <1>  -0.2400 
 17 C       -0.9320    -5.4320    -0.2280 C.3   1 <1>   0.2000 
 18 C       -0.1190    -6.6570     0.1840 C.3   1 <1>  -0.0800 
 19 O       -2.1910    -5.4810     0.3500 O.3   1 <1>  -0.6800 
 20 C       -0.4200    -7.8910    -0.6780 C.3   1 <1>   0.0200 
 21 C        0.4670    -9.0590    -0.2940 C.2   1 <1>  -0.0400 
 22 O        0.3720    -9.5910     0.8960 O.3   1 <1>  -0.0190 
 23 C        1.4180    -9.7230    -0.9680 C.2   1 <1>  -0.1500 
 24 N        1.2100   -10.5740     1.0550 N.2   1 <1>  -0.4100 
 25 C        1.8540   -10.6770    -0.0520 C.2   1 <1>   0.1080 
 26 C        2.9370   -11.6990    -0.3140 C.3   1 <1>  -0.0590 
 27 H        4.4270    -2.2110     0.4420 H     1 <1>   0.1500 
 28 H        4.5610     1.3740     1.4690 H     1 <1>   0.0800 
 29 H        5.5360    -0.0590     1.4650 H     1 <1>   0.0800 
 30 H        5.2510    -0.2390    -1.0020 H     1 <1>   0.0800 
 31 H       -0.4320    -3.9280     1.2430 H     1 <1>   0.0800 
 32 H       -0.2020    -3.4020    -0.4230 H     1 <1>   0.0800 
 33 H        1.7490    -6.3740    -0.8750 H     1 <1>   0.0800 
 34 H        1.9470    -6.6630     0.8470 H     1 <1>   0.0800 
 35 H        6.3300     2.4430    -0.0970 H     1 <1>   0.0800 
 36 H        6.7130     1.6470    -1.6050 H     1 <1>   0.0800 
 37 H        7.2190     0.9370    -0.0940 H     1 <1>   0.0800 
 38 H        3.8220     2.4220    -0.7590 H     1 <1>   0.0800 
 39 H        3.0940     0.9180    -1.2480 H     1 <1>   0.0800 
 40 H        4.2960     1.6660    -2.2650 H     1 <1>   0.0800 
 41 H       -1.0500    -5.3820    -1.2970 H     1 <1>   0.0800 
 42 H       -0.3190    -6.8840     1.2180 H     1 <1>   0.0800 
 43 H       -2.1230    -5.2840     1.3060 H     1 <1>   0.4000 
 44 H       -0.2650    -7.6570    -1.7160 H     1 <1>   0.0800 
 45 H       -1.4500    -8.1750    -0.5500 H     1 <1>   0.0800 
 46 H        1.7830    -9.5820    -1.9680 H     1 <1>   0.1500 
 47 H        2.6560   -12.3260    -1.1400 H     1 <1>   0.0800 
 48 H        3.0800   -12.3130     0.5570 H     1 <1>   0.0800 
 49 H        3.8610   -11.2000    -0.5440 H     1 <1>   0.0800 
@<TRIPOS>BOND
  1   1   2  1   
  2   2   3  ar  
  3   2   4  ar  
  4   3   5  ar  
  5   4   6  ar  
  6   5   7  1   
  7   5   8  ar  
  8   6   8  ar  
  9   6   9  1   
 10   7  10  2   
 11   7  11  am  
 12   8  27  1   
 13   9  12  1   
 14   9  28  1   
 15   9  29  1   
 16  11  13  1   
 17  11  14  1   
 18  12  15  1   
 19  12  16  1   
 20  12  30  1   
 21  13  17  1   
 22  13  31  1   
 23  13  32  1   
 24  14  18  1   
 25  14  33  1   
 26  14  34  1   
 27  15  35  1   
 28  15  36  1   
 29  15  37  1   
 30  16  38  1   
 31  16  39  1   
 32  16  40  1   
 33  17  18  1   
 34  17  19  1   
 35  17  41  1   
 36  18  20  1   
 37  18  42  1   
 38  19  43  1   
 39  20  21  1   
 40  20  44  1   
 41  20  45  1   
 42  21  22  1   
 43  21  23  2   
 44  22  24  1   
 45  23  25  1   
 46  23  46  1   
 47  24  25  2   
 48  25  26  1   
 49  26  47  1   
 50  26  48  1   
 51  26  49  1   
@<TRIPOS>SUBSTRUCTURE
  1 ****  11 GROUP 4 **** **** 0

# MOE 2024.06 (io_trps.svl 2023.06)
