@<TRIPOS>MOLECULE
NONAME
46 49 1 0 0 
SMALL
USER_CHARGES


@<TRIPOS>ATOM
  1 O        0.4760    -0.9850    -0.0810 O.3   1 <1>  -0.6800 
  2 C        1.8440    -0.9060     0.0280 C.3   1 <1>   0.2800 
  3 C        2.2770     0.5490    -0.1880 C.3   1 <1>  -0.1600 
  4 C        2.4800    -1.8130    -1.0350 C.3   1 <1>  -0.1600 
  5 C        2.2490    -1.3740     1.4320 C.3   1 <1>  -0.1600 
  6 C        3.8070     0.6490    -0.0610 C.3   1 <1>   0.3690 
  7 C        4.0130    -1.7230    -0.9160 C.3   1 <1>  -0.0800 
  8 C        3.7810    -1.2830     1.5700 C.3   1 <1>  -0.0800 
  9 N        4.1560     2.0670    -0.2790 N.pl3 1 <1>  -0.8690 
 10 C        4.4490    -0.2590    -1.1290 C.3   1 <1>  -0.1600 
 11 C        4.2190     0.1790     1.3490 C.3   1 <1>  -0.1600 
 12 C        4.4400    -2.1740     0.4970 C.3   1 <1>  -0.1600 
 13 C        5.3740     2.7030    -0.1820 C.ar  1 <1>   0.4100 
 14 N        6.4580     1.9640    -0.0800 N.ar  1 <1>  -0.6200 
 15 C        5.4510     4.0920    -0.1980 C.ar  1 <1>  -0.1430 
 16 C        7.6010     2.6070     0.0090 C.ar  1 <1>   0.4770 
 17 C        6.7080     4.6390    -0.0970 C.ar  1 <1>   0.1600 
 18 C        4.1780     4.9370    -0.3230 C.3   1 <1>  -0.0170 
 19 N        7.7990     3.9090     0.0090 N.ar  1 <1>  -0.6200 
 20 C        8.8400     1.7530     0.1240 C.3   1 <1>  -0.0970 
 21 C        4.3940     6.4550    -0.3540 C.3   1 <1>  -0.2400 
 22 H        0.2080    -0.7550    -0.9890 H     1 <1>   0.4000 
 23 H        1.8110     1.1710     0.5550 H     1 <1>   0.0800 
 24 H        1.9780     0.8760    -1.1670 H     1 <1>   0.0800 
 25 H        2.1780    -1.5050    -2.0200 H     1 <1>   0.0800 
 26 H        2.1650    -2.8310    -0.8820 H     1 <1>   0.0800 
 27 H        1.9300    -2.3900     1.5840 H     1 <1>   0.0800 
 28 H        1.7780    -0.7560     2.1750 H     1 <1>   0.0800 
 29 H        4.4760    -2.3530    -1.6570 H     1 <1>   0.0800 
 30 H        4.0800    -1.6090     2.5520 H     1 <1>   0.0800 
 31 H        3.3380     2.6690    -0.2640 H     1 <1>   0.4000 
 32 H        5.5200    -0.2080    -1.0640 H     1 <1>   0.0800 
 33 H        4.1610     0.0740    -2.1100 H     1 <1>   0.0800 
 34 H        3.7680     0.8130     2.0910 H     1 <1>   0.0800 
 35 H        5.2850     0.2410     1.4630 H     1 <1>   0.0800 
 36 H        5.5110    -2.1180     0.5870 H     1 <1>   0.0800 
 37 H        4.1550    -3.2010     0.6520 H     1 <1>   0.0800 
 38 H        6.8510     5.7040    -0.1010 H     1 <1>   0.1500 
 39 H        3.5310     4.7050     0.5060 H     1 <1>   0.0800 
 40 H        3.6680     4.6510    -1.2280 H     1 <1>   0.0800 
 41 H        8.5760     0.7380     0.3580 H     1 <1>   0.0800 
 42 H        9.4740     2.1370     0.9010 H     1 <1>   0.0800 
 43 H        9.3710     1.7730    -0.8080 H     1 <1>   0.0800 
 44 H        4.8610     6.7890     0.5560 H     1 <1>   0.0800 
 45 H        3.4470     6.9560    -0.4500 H     1 <1>   0.0800 
 46 H        5.0090     6.7320    -1.1930 H     1 <1>   0.0800 
@<TRIPOS>BOND
  1   1   2  1   
  2   1  22  1   
  3   2   3  1   
  4   2   4  1   
  5   2   5  1   
  6   3   6  1   
  7   3  23  1   
  8   3  24  1   
  9   4   7  1   
 10   4  25  1   
 11   4  26  1   
 12   5   8  1   
 13   5  27  1   
 14   5  28  1   
 15   6   9  1   
 16   6  10  1   
 17   6  11  1   
 18   7  10  1   
 19   7  12  1   
 20   7  29  1   
 21   8  11  1   
 22   8  12  1   
 23   8  30  1   
 24   9  13  1   
 25   9  31  1   
 26  10  32  1   
 27  10  33  1   
 28  11  34  1   
 29  11  35  1   
 30  12  36  1   
 31  12  37  1   
 32  13  14  ar  
 33  13  15  ar  
 34  14  16  ar  
 35  15  17  ar  
 36  15  18  1   
 37  16  19  ar  
 38  16  20  1   
 39  17  19  ar  
 40  17  38  1   
 41  18  21  1   
 42  18  39  1   
 43  18  40  1   
 44  20  41  1   
 45  20  42  1   
 46  20  43  1   
 47  21  44  1   
 48  21  45  1   
 49  21  46  1   
@<TRIPOS>SUBSTRUCTURE
  1 ****   6 GROUP 4 **** **** 0

# MOE 2024.06 (io_trps.svl 2023.06)
