@<TRIPOS>MOLECULE
NONAME
33 34 1 0 0 
SMALL
USER_CHARGES


@<TRIPOS>ATOM
  1 O       -1.4460    -0.7610    -0.2580 O.2   1 <1>  -0.5700 
  2 C       -2.1420     0.1800     0.0560 C.2   1 <1>   0.5770 
  3 N       -3.2400    -0.0060     0.8560 N.am  1 <1>  -0.6600 
  4 C       -1.7970     1.5690    -0.4860 C.3   1 <1>   0.0530 
  5 C       -3.5110    -1.3490     1.4510 C.3   1 <1>   0.3200 
  6 C       -4.3220     1.0050     1.0540 C.3   1 <1>   0.1400 
  7 C       -0.4600     1.7060    -1.2700 C.3   1 <1>   0.0000 
  8 C       -1.1790     2.5300     0.5640 C.3   1 <1>   0.0000 
  9 C       -4.2340    -2.2320     0.4510 C.2   1 <1>   0.0060 
 10 C       -5.3760     0.8990    -0.0540 C.3   1 <1>   0.1200 
 11 C       -0.2920     3.0840    -0.5800 C.3   1 <1>   0.0000 
 12 N       -5.4430    -2.6800     0.5850 N.2   1 <1>  -0.5650 
 13 N       -3.6370    -2.6170    -0.6960 N.pl3 1 <1>   0.0330 
 14 O       -6.3310     1.8870     0.1350 O.3   1 <1>  -0.6800 
 15 C       -5.6420    -3.3990    -0.5380 C.2   1 <1>   0.0770 
 16 C       -4.5500    -3.3700    -1.3330 C.2   1 <1>  -0.3020 
 17 H       -2.6110     2.0270    -1.0230 H     1 <1>   0.0000 
 18 H       -4.1090    -1.2480     2.3390 H     1 <1>   0.0800 
 19 H       -2.5830    -1.8160     1.7320 H     1 <1>   0.0800 
 20 H       -3.9060     1.9960     1.0490 H     1 <1>   0.0800 
 21 H       -4.7890     0.8470     2.0100 H     1 <1>   0.0800 
 22 H       -0.5840     1.7680    -2.3360 H     1 <1>   0.0000 
 23 H        0.3030     1.0100    -0.9650 H     1 <1>   0.0000 
 24 H       -0.6070     2.0180     1.3200 H     1 <1>   0.0000 
 25 H       -1.8710     3.2510     0.9620 H     1 <1>   0.0000 
 26 H       -5.8710    -0.0570    -0.0410 H     1 <1>   0.0800 
 27 H       -4.9260     1.0600    -1.0180 H     1 <1>   0.0800 
 28 H       -0.7650     3.8830    -1.1250 H     1 <1>   0.0000 
 29 H        0.7180     3.3030    -0.2820 H     1 <1>   0.0000 
 30 H       -2.6870    -2.3410    -0.9850 H     1 <1>   0.2700 
 31 H       -6.9830     1.6110     0.8090 H     1 <1>   0.4000 
 32 H       -6.5750    -3.9060    -0.7180 H     1 <1>   0.1500 
 33 H       -4.3770    -3.8300    -2.2890 H     1 <1>   0.1500 
@<TRIPOS>BOND
  1   1   2  2   
  2   2   3  am  
  3   2   4  1   
  4   3   5  1   
  5   3   6  1   
  6   4   7  1   
  7   4   8  1   
  8   4  17  1   
  9   5   9  1   
 10   5  18  1   
 11   5  19  1   
 12   6  10  1   
 13   6  20  1   
 14   6  21  1   
 15   7  11  1   
 16   7  22  1   
 17   7  23  1   
 18   8  11  1   
 19   8  24  1   
 20   8  25  1   
 21   9  12  2   
 22   9  13  1   
 23  10  14  1   
 24  10  26  1   
 25  10  27  1   
 26  11  28  1   
 27  11  29  1   
 28  12  15  1   
 29  13  16  1   
 30  13  30  1   
 31  14  31  1   
 32  15  16  2   
 33  15  32  1   
 34  16  33  1   
@<TRIPOS>SUBSTRUCTURE
  1 ****   3 GROUP 4 **** **** 0

# MOE 2024.06 (io_trps.svl 2023.06)
