@<TRIPOS>MOLECULE
NONAME
34 36 1 0 0 
SMALL
USER_CHARGES


@<TRIPOS>ATOM
  1 O        0.4800     2.8970     0.4140 O.co2 1 <1>  -0.9000 
  2 C        1.6020     2.6520     0.8780 C.2   1 <1>   0.9470 
  3 O        1.9840     3.1870     1.9290 O.co2 1 <1>  -0.9000 
  4 C        2.6170     1.8680     0.0400 C.3   1 <1>  -0.2420 
  5 C        2.9620     0.4010    -0.0650 C.3   1 <1>  -0.2420 
  6 C        3.9150     2.6450    -0.0750 C.3   1 <1>   0.2350 
  7 C        2.0990     1.0470    -1.1170 C.3   1 <1>  -0.2000 
  8 C        2.4280    -0.8120     0.7000 C.2   1 <1>   0.9470 
  9 C        4.4640     0.2880    -0.2760 C.3   1 <1>   0.2350 
 10 N        4.9090     1.6700    -0.6070 N.am  1 <1>  -0.6600 
 11 O        1.6000    -1.5570     0.1570 O.co2 1 <1>  -0.9000 
 12 O        2.9470    -1.1150     1.7830 O.co2 1 <1>  -0.9000 
 13 C        5.9870     1.9450    -1.3980 C.2   1 <1>   0.5690 
 14 O        6.7170     1.0730    -1.8160 O.2   1 <1>  -0.5700 
 15 C        6.3040     3.3750    -1.8120 C.3   1 <1>   0.0440 
 16 C        6.9880     4.1750    -0.7080 C.ar  1 <1>  -0.1440 
 17 C        8.3000     3.8880    -0.3650 C.ar  1 <1>  -0.1500 
 18 C        6.3180     5.1890    -0.0400 C.ar  1 <1>  -0.1500 
 19 C        8.9390     4.6090     0.6280 C.ar  1 <1>  -0.1500 
 20 C        6.9550     5.9100     0.9550 C.ar  1 <1>  -0.1500 
 21 C        8.2670     5.6220     1.2880 C.ar  1 <1>  -0.1500 
 22 H        4.2340     2.9790     0.8990 H     1 <1>   0.0800 
 23 H        3.7780     3.4880    -0.7230 H     1 <1>   0.0800 
 24 H        2.4930     1.2060    -2.1020 H     1 <1>   0.1000 
 25 H        1.0520     0.7910    -1.1270 H     1 <1>   0.1000 
 26 H        4.6910    -0.4000    -1.0720 H     1 <1>   0.0800 
 27 H        4.9440    -0.0340     0.6320 H     1 <1>   0.0800 
 28 H        6.9580     3.3390    -2.6630 H     1 <1>   0.0800 
 29 H        5.4050     3.8630    -2.1350 H     1 <1>   0.0800 
 30 H        8.8230     3.0930    -0.8700 H     1 <1>   0.1500 
 31 H        5.2950     5.4210    -0.2830 H     1 <1>   0.1500 
 32 H        9.9580     4.3790     0.8870 H     1 <1>   0.1500 
 33 H        6.4260     6.6910     1.4730 H     1 <1>   0.1500 
 34 H        8.7610     6.1820     2.0620 H     1 <1>   0.1500 
@<TRIPOS>BOND
  1   1   2  ar  
  2   2   3  ar  
  3   2   4  1   
  4   4   5  1   
  5   4   6  1   
  6   4   7  1   
  7   5   7  1   
  8   5   8  1   
  9   5   9  1   
 10   6  10  1   
 11   6  22  1   
 12   6  23  1   
 13   7  24  1   
 14   7  25  1   
 15   8  11  ar  
 16   8  12  ar  
 17   9  10  1   
 18   9  26  1   
 19   9  27  1   
 20  10  13  am  
 21  13  14  2   
 22  13  15  1   
 23  15  16  1   
 24  15  28  1   
 25  15  29  1   
 26  16  17  ar  
 27  16  18  ar  
 28  17  19  ar  
 29  17  30  1   
 30  18  20  ar  
 31  18  31  1   
 32  19  21  ar  
 33  19  32  1   
 34  20  21  ar  
 35  20  33  1   
 36  21  34  1   
@<TRIPOS>SUBSTRUCTURE
  1 ****   6 GROUP 4 **** **** 0

# MOE 2024.06 (io_trps.svl 2023.06)
