@<TRIPOS>MOLECULE
NONAME
58 62 1 0 0 
SMALL
USER_CHARGES


@<TRIPOS>ATOM
  1 S       -1.0560    -1.0690    -1.6430 S.3   1 <1>  -0.0800 
  2 C       -1.4940    -1.1740     0.0680 C.2   1 <1>   0.4620 
  3 C       -1.6960     0.5560    -1.7000 C.ar  1 <1>   0.0400 
  4 N       -2.0600    -0.1200     0.5310 N.2   1 <1>  -0.5650 
  5 N       -1.2400    -2.3260     0.7810 N.pl3 1 <1>  -0.8220 
  6 C       -2.1750     0.8640    -0.4400 C.ar  1 <1>   0.2270 
  7 C       -1.7450     1.4240    -2.7740 C.ar  1 <1>  -0.1500 
  8 C       -1.3580    -2.2890     2.2650 C.3   1 <1>   0.2090 
  9 C       -1.0490    -3.6610     0.1600 C.3   1 <1>   0.2090 
 10 C       -2.7340     2.1210    -0.2470 C.ar  1 <1>  -0.1500 
 11 C       -2.3080     2.6710    -2.5620 C.ar  1 <1>  -0.1500 
 12 C       -2.8410    -2.2800     2.6860 C.3   1 <1>   0.3430 
 13 C       -2.1540    -4.6190     0.6190 C.3   1 <1>  -0.1600 
 14 C       -2.7990     3.0160    -1.3040 C.ar  1 <1>  -0.1500 
 15 N       -3.6340    -3.5100     2.3040 N.4   1 <1>  -0.9590 
 16 C       -3.4970    -3.9240     0.8690 C.3   1 <1>   0.3430 
 17 C       -5.0540    -3.3030     2.6670 C.3   1 <1>   0.5230 
 18 C       -5.7450    -4.6380     2.5590 C.2   1 <1>  -0.3320 
 19 N       -6.6410    -4.9890     1.6050 N.pl3 1 <1>   0.0480 
 20 C       -5.6110    -5.7070     3.3760 C.2   1 <1>   0.0770 
 21 C       -6.9710    -6.2650     1.9140 C.2   1 <1>   0.0360 
 22 C       -7.1900    -4.1850     0.4780 C.3   1 <1>   0.1760 
 23 N       -6.3700    -6.7280     2.9600 N.2   1 <1>  -0.5650 
 24 C       -8.6920    -3.9310     0.6810 C.3   1 <1>  -0.1600 
 25 C       -6.9220    -4.8760    -0.8700 C.3   1 <1>  -0.1600 
 26 C       -9.2740    -3.1110    -0.4800 C.3   1 <1>  -0.1600 
 27 C       -7.4980    -4.0530    -2.0320 C.3   1 <1>  -0.1600 
 28 C       -8.9960    -3.7860    -1.8300 C.3   1 <1>  -0.1600 
 29 H       -1.3560     1.1370    -3.7350 H     1 <1>   0.1500 
 30 H       -0.8910    -1.3870     2.6240 H     1 <1>   0.0800 
 31 H       -0.8400    -3.1210     2.7090 H     1 <1>   0.0800 
 32 H       -0.0800    -4.0500     0.4240 H     1 <1>   0.0800 
 33 H       -1.0840    -3.5830    -0.9130 H     1 <1>   0.0800 
 34 H       -3.1080     2.3860     0.7240 H     1 <1>   0.1500 
 35 H       -2.3660     3.3800    -3.3710 H     1 <1>   0.1500 
 36 H       -3.2950    -1.4110     2.2390 H     1 <1>   0.0800 
 37 H       -2.8840    -2.1490     3.7540 H     1 <1>   0.0800 
 38 H       -1.8380    -5.1640     1.4900 H     1 <1>   0.0800 
 39 H       -2.2880    -5.3450    -0.1640 H     1 <1>   0.0800 
 40 H       -3.2310     3.9910    -1.1540 H     1 <1>   0.1500 
 41 H       -3.3160    -4.3070     2.8670 H     1 <1>   0.4500 
 42 H       -4.2760    -4.6290     0.6280 H     1 <1>   0.0800 
 43 H       -3.6020    -3.0710     0.2170 H     1 <1>   0.0800 
 44 H       -5.5100    -2.5740     2.0190 H     1 <1>   0.0800 
 45 H       -5.1260    -2.9510     3.6840 H     1 <1>   0.0800 
 46 H       -5.0020    -5.8130     4.2610 H     1 <1>   0.1500 
 47 H       -7.6790    -6.8310     1.3320 H     1 <1>   0.1500 
 48 H       -6.6940    -3.2330     0.4650 H     1 <1>   0.0800 
 49 H       -8.8530    -3.4000     1.6040 H     1 <1>   0.0800 
 50 H       -9.2170    -4.8700     0.7370 H     1 <1>   0.0800 
 51 H       -7.3830    -5.8490    -0.8810 H     1 <1>   0.0800 
 52 H       -5.8640    -5.0020    -1.0190 H     1 <1>   0.0800 
 53 H       -8.8430    -2.1240    -0.4800 H     1 <1>   0.0800 
 54 H      -10.3370    -3.0030    -0.3470 H     1 <1>   0.0800 
 55 H       -7.3520    -4.5830    -2.9580 H     1 <1>   0.0800 
 56 H       -6.9760    -3.1140    -2.1070 H     1 <1>   0.0800 
 57 H       -9.3590    -3.1590    -2.6270 H     1 <1>   0.0800 
 58 H       -9.5340    -4.7180    -1.8800 H     1 <1>   0.0800 
@<TRIPOS>BOND
  1   1   2  1   
  2   1   3  1   
  3   2   4  2   
  4   2   5  1   
  5   3   6  ar  
  6   3   7  ar  
  7   4   6  1   
  8   5   8  1   
  9   5   9  1   
 10   6  10  ar  
 11   7  11  ar  
 12   7  29  1   
 13   8  12  1   
 14   8  30  1   
 15   8  31  1   
 16   9  13  1   
 17   9  32  1   
 18   9  33  1   
 19  10  14  ar  
 20  10  34  1   
 21  11  14  ar  
 22  11  35  1   
 23  12  15  1   
 24  12  36  1   
 25  12  37  1   
 26  13  16  1   
 27  13  38  1   
 28  13  39  1   
 29  14  40  1   
 30  15  16  1   
 31  15  17  1   
 32  15  41  1   
 33  16  42  1   
 34  16  43  1   
 35  17  18  1   
 36  17  44  1   
 37  17  45  1   
 38  18  19  1   
 39  18  20  2   
 40  19  21  1   
 41  19  22  1   
 42  20  23  1   
 43  20  46  1   
 44  21  23  2   
 45  21  47  1   
 46  22  24  1   
 47  22  25  1   
 48  22  48  1   
 49  24  26  1   
 50  24  49  1   
 51  24  50  1   
 52  25  27  1   
 53  25  51  1   
 54  25  52  1   
 55  26  28  1   
 56  26  53  1   
 57  26  54  1   
 58  27  28  1   
 59  27  55  1   
 60  27  56  1   
 61  28  57  1   
 62  28  58  1   
@<TRIPOS>SUBSTRUCTURE
  1 ****  16 GROUP 4 **** **** 0

# MOE 2024.06 (io_trps.svl 2023.06)
