@<TRIPOS>MOLECULE
NONAME
50 52 1 0 0 
SMALL
USER_CHARGES


@<TRIPOS>ATOM
  1 O        0.4900     1.0120     2.5500 O.2   1 <1>  -0.5700 
  2 C        0.4100    -0.0710     2.0170 C.2   1 <1>   0.5690 
  3 N        0.9620    -0.3660     0.8140 N.am  1 <1>  -0.4930 
  4 C       -0.3520    -1.1910     2.7290 C.3   1 <1>   0.1710 
  5 C        1.6930     0.4110    -0.0760 C.2   1 <1>   0.3520 
  6 N       -0.8480    -2.2660     1.8210 N.3   1 <1>  -0.8100 
  7 N        2.0350    -0.0820    -1.2230 N.2   1 <1>  -0.7070 
  8 C        2.1410     1.7180     0.0940 C.2   1 <1>  -0.1500 
  9 C       -2.0030    -1.7930     1.0100 C.3   1 <1>   0.1100 
 10 C       -1.2490    -3.4640     2.5980 C.3   1 <1>   0.1100 
 11 N        2.7220     0.9080    -1.8280 N.pl3 1 <1>   0.3140 
 12 C        2.7980     2.0060    -1.0490 C.2   1 <1>  -0.3020 
 13 C       -2.5780    -2.8980     0.1030 C.3   1 <1>   0.2090 
 14 C       -1.8140    -4.5840     1.7040 C.3   1 <1>   0.2090 
 15 C        3.2900     0.7350    -3.1690 C.3   1 <1>   0.0160 
 16 N       -2.9740    -4.0860     0.9110 N.pl3 1 <1>  -0.8380 
 17 C       -3.7100    -5.0650     0.2300 C.ar  1 <1>   0.1000 
 18 C       -3.2080    -5.8510    -0.8250 C.ar  1 <1>   0.0820 
 19 C       -5.0220    -5.2590     0.6360 C.ar  1 <1>  -0.1500 
 20 O       -1.9120    -5.6550    -1.2220 O.3   1 <1>  -0.3620 
 21 C       -4.0300    -6.7970    -1.4300 C.ar  1 <1>  -0.1500 
 22 C       -5.8340    -6.2000     0.0290 C.ar  1 <1>  -0.1500 
 23 C       -1.3520    -6.3650    -2.3000 C.3   1 <1>   0.1200 
 24 C       -5.3370    -6.9700    -1.0050 C.ar  1 <1>  -0.1500 
 25 C        0.0810    -5.8760    -2.4870 C.3   1 <1>  -0.2400 
 26 H        0.7640    -1.3070     0.4710 H     1 <1>   0.3700 
 27 H       -1.1750    -0.7610     3.2720 H     1 <1>   0.0800 
 28 H        0.3250    -1.6210     3.4450 H     1 <1>   0.0800 
 29 H        1.9790     2.3310     0.9620 H     1 <1>   0.1500 
 30 H       -1.7000    -0.9670     0.3910 H     1 <1>   0.0800 
 31 H       -2.7890    -1.4490     1.6610 H     1 <1>   0.0800 
 32 H       -2.0000    -3.1960     3.3220 H     1 <1>   0.0800 
 33 H       -0.3940    -3.8470     3.1270 H     1 <1>   0.0800 
 34 H        3.3020     2.9080    -1.3420 H     1 <1>   0.1500 
 35 H       -1.8370    -3.1800    -0.6250 H     1 <1>   0.0800 
 36 H       -3.4390    -2.5240    -0.4220 H     1 <1>   0.0800 
 37 H       -2.1330    -5.4100     2.3150 H     1 <1>   0.0800 
 38 H       -1.0410    -4.9320     1.0420 H     1 <1>   0.0800 
 39 H        2.4990     0.4820    -3.8500 H     1 <1>   0.0800 
 40 H        4.0090    -0.0620    -3.1410 H     1 <1>   0.0800 
 41 H        3.7640     1.6450    -3.4820 H     1 <1>   0.0800 
 42 H       -5.4010    -4.6570     1.4410 H     1 <1>   0.1500 
 43 H       -3.6790    -7.4130    -2.2350 H     1 <1>   0.1500 
 44 H       -6.8480    -6.3300     0.3630 H     1 <1>   0.1500 
 45 H       -1.9390    -6.1690    -3.1800 H     1 <1>   0.0800 
 46 H       -1.3680    -7.4140    -2.0620 H     1 <1>   0.0800 
 47 H       -5.9660    -7.7030    -1.4790 H     1 <1>   0.1500 
 48 H        0.0850    -4.8230    -2.7060 H     1 <1>   0.0800 
 49 H        0.5410    -6.4000    -3.3050 H     1 <1>   0.0800 
 50 H        0.6530    -6.0590    -1.5950 H     1 <1>   0.0800 
@<TRIPOS>BOND
  1   1   2  2   
  2   2   3  am  
  3   2   4  1   
  4   3   5  1   
  5   3  26  1   
  6   4   6  1   
  7   4  27  1   
  8   4  28  1   
  9   5   7  2   
 10   5   8  1   
 11   6   9  1   
 12   6  10  1   
 13   7  11  1   
 14   8  12  2   
 15   8  29  1   
 16   9  13  1   
 17   9  30  1   
 18   9  31  1   
 19  10  14  1   
 20  10  32  1   
 21  10  33  1   
 22  11  12  1   
 23  11  15  1   
 24  12  34  1   
 25  13  16  1   
 26  13  35  1   
 27  13  36  1   
 28  14  16  1   
 29  14  37  1   
 30  14  38  1   
 31  15  39  1   
 32  15  40  1   
 33  15  41  1   
 34  16  17  1   
 35  17  18  ar  
 36  17  19  ar  
 37  18  20  1   
 38  18  21  ar  
 39  19  22  ar  
 40  19  42  1   
 41  20  23  1   
 42  21  24  ar  
 43  21  43  1   
 44  22  24  ar  
 45  22  44  1   
 46  23  25  1   
 47  23  45  1   
 48  23  46  1   
 49  24  47  1   
 50  25  48  1   
 51  25  49  1   
 52  25  50  1   
@<TRIPOS>SUBSTRUCTURE
  1 ****  13 GROUP 4 **** **** 0

# MOE 2024.06 (io_trps.svl 2023.06)
