@<TRIPOS>MOLECULE
NONAME
50 52 1 0 0 
SMALL
USER_CHARGES


@<TRIPOS>ATOM
  1 O       -2.0350     1.4620     3.2190 O.2   1 <1>  -0.5700 
  2 C       -2.1340     2.1300     2.2080 C.2   1 <1>   0.5440 
  3 N       -3.3610     2.2100     1.5750 N.am  1 <1>  -0.6600 
  4 C       -0.9620     2.8280     1.7140 C.ar  1 <1>   0.0860 
  5 C       -4.4880     1.3110     1.9640 C.3   1 <1>   0.1400 
  6 C       -3.6740     3.1970     0.5120 C.3   1 <1>   0.1400 
  7 C       -0.4720     2.6150     0.4280 C.ar  1 <1>  -0.1500 
  8 C       -0.2830     3.7400     2.5210 C.ar  1 <1>  -0.1500 
  9 C       -4.5840     0.1170     1.0060 C.3   1 <1>   0.1400 
 10 C       -3.9850     2.5040    -0.8170 C.3   1 <1>  -0.1600 
 11 C        0.6310     3.2980    -0.0520 C.ar  1 <1>   0.0830 
 12 C        0.8240     4.4260     2.0570 C.ar  1 <1>  -0.1500 
 13 N       -5.2770     0.3930    -0.2980 N.am  1 <1>  -0.6600 
 14 C       -5.3410     1.7910    -0.8250 C.3   1 <1>   0.1400 
 15 O        1.0100     3.0230    -1.3240 O.3   1 <1>  -0.3630 
 16 C        1.2830     4.2120     0.7700 C.ar  1 <1>  -0.1500 
 17 C       -5.9360    -0.6340    -0.9660 C.2   1 <1>   0.7160 
 18 C        2.1670     3.5970    -1.8860 C.3   1 <1>   0.1200 
 19 O       -6.7550    -0.3200    -1.8180 O.2   1 <1>  -0.5700 
 20 C       -5.7170    -2.0540    -0.6770 C.2   1 <1>   0.1410 
 21 C        2.3280     3.0450    -3.2990 C.3   1 <1>  -0.2400 
 22 N       -4.5050    -2.5760    -0.2990 N.2   1 <1>  -0.5650 
 23 C       -6.6180    -3.0860    -0.7420 C.2   1 <1>  -0.3320 
 24 C       -4.7040    -3.8410    -0.1640 C.2   1 <1>   0.0360 
 25 N       -5.9700    -4.2140    -0.4210 N.pl3 1 <1>   0.0330 
 26 C       -8.0970    -3.0840    -1.1000 C.3   1 <1>  -0.0600 
 27 H       -5.4170     1.8510     1.9880 H     1 <1>   0.0800 
 28 H       -4.3170     0.9310     2.9560 H     1 <1>   0.0800 
 29 H       -2.8480     3.8720     0.3720 H     1 <1>   0.0800 
 30 H       -4.5170     3.7910     0.8210 H     1 <1>   0.0800 
 31 H       -0.9590     1.9000    -0.2100 H     1 <1>   0.1500 
 32 H       -0.6350     3.9020     3.5260 H     1 <1>   0.1500 
 33 H       -5.1240    -0.6610     1.5180 H     1 <1>   0.0800 
 34 H       -3.5930    -0.2570     0.8110 H     1 <1>   0.0800 
 35 H       -3.2000     1.8250    -1.0970 H     1 <1>   0.0800 
 36 H       -4.0240     3.2710    -1.5690 H     1 <1>   0.0800 
 37 H        1.3290     5.1270     2.7000 H     1 <1>   0.1500 
 38 H       -5.6820     1.7680    -1.8460 H     1 <1>   0.0800 
 39 H       -6.0670     2.3520    -0.2620 H     1 <1>   0.0800 
 40 H        2.1420     4.7590     0.4300 H     1 <1>   0.1500 
 41 H        3.0120     3.3290    -1.2740 H     1 <1>   0.0800 
 42 H        2.0430     4.6660    -1.9070 H     1 <1>   0.0800 
 43 H        2.4320     1.9750    -3.2670 H     1 <1>   0.0800 
 44 H        3.2070     3.4620    -3.7550 H     1 <1>   0.0800 
 45 H        1.4740     3.3050    -3.8970 H     1 <1>   0.0800 
 46 H       -3.9460    -4.5480     0.1230 H     1 <1>   0.1500 
 47 H       -6.3480    -5.1650    -0.3810 H     1 <1>   0.2700 
 48 H       -8.4690    -2.0800    -1.2020 H     1 <1>   0.0800 
 49 H       -8.6680    -3.5750    -0.3330 H     1 <1>   0.0800 
 50 H       -8.2510    -3.5960    -2.0330 H     1 <1>   0.0800 
@<TRIPOS>BOND
  1   1   2  2   
  2   2   3  am  
  3   2   4  1   
  4   3   5  1   
  5   3   6  1   
  6   4   7  ar  
  7   4   8  ar  
  8   5   9  1   
  9   5  27  1   
 10   5  28  1   
 11   6  10  1   
 12   6  29  1   
 13   6  30  1   
 14   7  11  ar  
 15   7  31  1   
 16   8  12  ar  
 17   8  32  1   
 18   9  13  1   
 19   9  33  1   
 20   9  34  1   
 21  10  14  1   
 22  10  35  1   
 23  10  36  1   
 24  11  15  1   
 25  11  16  ar  
 26  12  16  ar  
 27  12  37  1   
 28  13  14  1   
 29  13  17  am  
 30  14  38  1   
 31  14  39  1   
 32  15  18  1   
 33  16  40  1   
 34  17  19  2   
 35  17  20  1   
 36  18  21  1   
 37  18  41  1   
 38  18  42  1   
 39  20  22  1   
 40  20  23  2   
 41  21  43  1   
 42  21  44  1   
 43  21  45  1   
 44  22  24  2   
 45  23  25  1   
 46  23  26  1   
 47  24  25  1   
 48  24  46  1   
 49  25  47  1   
 50  26  48  1   
 51  26  49  1   
 52  26  50  1   
@<TRIPOS>SUBSTRUCTURE
  1 ****   3 GROUP 4 **** **** 0

# MOE 2024.06 (io_trps.svl 2023.06)
