@<TRIPOS>MOLECULE
NONAME
55 57 1 0 0 
SMALL
USER_CHARGES


@<TRIPOS>ATOM
  1 O       -0.7830     0.5100     2.0910 O.2   1 <1>  -0.5700 
  2 C       -1.4040     1.0110     1.1810 C.2   1 <1>   0.5690 
  3 N       -2.1260     0.2400     0.2800 N.am  1 <1>  -0.4770 
  4 C       -1.3900     2.5500     1.0870 C.3   1 <1>   0.1710 
  5 C       -2.0570    -1.1670     0.2710 C.ar  1 <1>   0.1170 
  6 C       -3.0390     0.8440    -0.7280 C.3   1 <1>   0.0600 
  7 N       -0.2070     3.1580     0.4070 N.3   1 <1>  -0.8100 
  8 C       -0.8340    -1.8150     0.1400 C.ar  1 <1>  -0.1500 
  9 C       -3.2080    -1.9410     0.3770 C.ar  1 <1>  -0.1500 
 10 C       -0.2640     4.6270     0.4740 C.3   1 <1>   0.1100 
 11 C       -0.0150     2.6850    -0.9710 C.3   1 <1>   0.1100 
 12 C       -0.7610    -3.1960     0.1000 C.ar  1 <1>  -0.1500 
 13 C       -3.1410    -3.3220     0.3380 C.ar  1 <1>  -0.1500 
 14 C        1.0550     5.2370    -0.0240 C.3   1 <1>  -0.0190 
 15 C        1.3070     3.2250    -1.5250 C.3   1 <1>  -0.1600 
 16 C       -1.9170    -3.9520     0.1960 C.ar  1 <1>  -0.1500 
 17 C        1.0100     6.7590     0.0520 C.2   1 <1>   0.4480 
 18 C        1.3620     4.7570    -1.4550 C.3   1 <1>  -0.1600 
 19 O       -0.0180     7.3640    -0.0330 O.2   1 <1>  -0.5700 
 20 C        2.3460     7.4640     0.2380 C.3   1 <1>  -0.0990 
 21 C        2.2320     8.9940     0.2310 C.3   1 <1>  -0.0170 
 22 C        3.6050     9.6220     0.4070 C.ar  1 <1>  -0.1430 
 23 C        4.3890     9.9100    -0.7000 C.ar  1 <1>  -0.1500 
 24 C        4.0880     9.9050     1.6750 C.ar  1 <1>  -0.1500 
 25 C        5.6430    10.4740    -0.5410 C.ar  1 <1>  -0.1500 
 26 C        5.3420    10.4700     1.8360 C.ar  1 <1>  -0.1500 
 27 C        6.1200    10.7540     0.7270 C.ar  1 <1>  -0.1500 
 28 H       -1.4080     2.9110     2.1000 H     1 <1>   0.0800 
 29 H       -2.2900     2.9000     0.6190 H     1 <1>   0.0800 
 30 H       -2.5460     1.6360    -1.2590 H     1 <1>   0.0800 
 31 H       -3.9150     1.2310    -0.2370 H     1 <1>   0.0800 
 32 H       -3.3420     0.1010    -1.4460 H     1 <1>   0.0800 
 33 H        0.0650    -1.2290     0.0750 H     1 <1>   0.1500 
 34 H       -4.1600    -1.4590     0.4980 H     1 <1>   0.1500 
 35 H       -0.4260     4.9360     1.4930 H     1 <1>   0.0800 
 36 H       -1.0850     4.9890    -0.1230 H     1 <1>   0.0800 
 37 H       -0.8300     3.0190    -1.5910 H     1 <1>   0.0800 
 38 H        0.0190     1.6090    -0.9890 H     1 <1>   0.0800 
 39 H        0.1940    -3.6810    -0.0010 H     1 <1>   0.1500 
 40 H       -4.0400    -3.9090     0.4200 H     1 <1>   0.1500 
 41 H        1.8310     4.8910     0.6350 H     1 <1>   0.0800 
 42 H        1.4240     2.9030    -2.5440 H     1 <1>   0.0800 
 43 H        2.1150     2.8030    -0.9530 H     1 <1>   0.0800 
 44 H       -1.8620    -5.0260     0.1670 H     1 <1>   0.1500 
 45 H        2.3360     5.0960    -1.7630 H     1 <1>   0.0800 
 46 H        0.6340     5.1700    -2.1320 H     1 <1>   0.0800 
 47 H        3.0110     7.1620    -0.5500 H     1 <1>   0.0800 
 48 H        2.7730     7.1500     1.1730 H     1 <1>   0.0800 
 49 H        1.5800     9.3160     1.0250 H     1 <1>   0.0800 
 50 H        1.7980     9.3240    -0.6970 H     1 <1>   0.0800 
 51 H        4.0260     9.6970    -1.6900 H     1 <1>   0.1500 
 52 H        3.4910     9.6890     2.5430 H     1 <1>   0.1500 
 53 H        6.2460    10.6970    -1.4030 H     1 <1>   0.1500 
 54 H        5.7110    10.6880     2.8220 H     1 <1>   0.1500 
 55 H        7.0950    11.1930     0.8520 H     1 <1>   0.1500 
@<TRIPOS>BOND
  1   1   2  2   
  2   2   3  am  
  3   2   4  1   
  4   3   5  1   
  5   3   6  1   
  6   4   7  1   
  7   4  28  1   
  8   4  29  1   
  9   5   8  ar  
 10   5   9  ar  
 11   6  30  1   
 12   6  31  1   
 13   6  32  1   
 14   7  10  1   
 15   7  11  1   
 16   8  12  ar  
 17   8  33  1   
 18   9  13  ar  
 19   9  34  1   
 20  10  14  1   
 21  10  35  1   
 22  10  36  1   
 23  11  15  1   
 24  11  37  1   
 25  11  38  1   
 26  12  16  ar  
 27  12  39  1   
 28  13  16  ar  
 29  13  40  1   
 30  14  17  1   
 31  14  18  1   
 32  14  41  1   
 33  15  18  1   
 34  15  42  1   
 35  15  43  1   
 36  16  44  1   
 37  17  19  2   
 38  17  20  1   
 39  18  45  1   
 40  18  46  1   
 41  20  21  1   
 42  20  47  1   
 43  20  48  1   
 44  21  22  1   
 45  21  49  1   
 46  21  50  1   
 47  22  23  ar  
 48  22  24  ar  
 49  23  25  ar  
 50  23  51  1   
 51  24  26  ar  
 52  24  52  1   
 53  25  27  ar  
 54  25  53  1   
 55  26  27  ar  
 56  26  54  1   
 57  27  55  1   
@<TRIPOS>SUBSTRUCTURE
  1 ****   7 GROUP 4 **** **** 0

# MOE 2024.06 (io_trps.svl 2023.06)
