@<TRIPOS>MOLECULE
NONAME
47 48 1 0 0 
SMALL
USER_CHARGES


@<TRIPOS>ATOM
  1 S        0.0020    -0.0990    -0.7640 S.o2  1 <1>   1.3330 
  2 O       -0.6580    -1.3600    -1.0100 O.2   1 <1>  -0.6500 
  3 O        0.6000     0.6270    -1.8630 O.2   1 <1>  -0.6500 
  4 N        1.2140    -0.3830     0.3920 N.am  1 <1>  -0.8490 
  5 C       -1.1360     0.9970     0.0990 C.3   1 <1>  -0.0550 
  6 C        0.8710    -1.4370     1.3540 C.3   1 <1>   0.1160 
  7 C        2.5110    -0.6830    -0.2230 C.3   1 <1>   0.1160 
  8 C       -0.7090     2.4720     0.2840 C.3   1 <1>  -0.0800 
  9 C       -0.7990     3.3220    -0.9890 C.3   1 <1>   0.2000 
 10 C        0.7020     2.7330     0.8120 C.3   1 <1>   0.1400 
 11 O       -2.0920     3.8050    -1.1200 O.3   1 <1>  -0.6800 
 12 C        0.2040     4.4690    -0.8080 C.3   1 <1>   0.1400 
 13 N        0.9700     4.1310     0.4190 N.am  1 <1>  -0.6600 
 14 C        1.9560     4.9010     0.9910 C.2   1 <1>   0.6160 
 15 O        2.6470     4.4110     1.8630 O.2   1 <1>  -0.5700 
 16 C        2.1890     6.2730     0.5740 C.2   1 <1>   0.1230 
 17 N        1.2610     7.2900     0.8610 N.am  1 <1>  -0.4690 
 18 C        3.3100     6.6230    -0.1050 C.2   1 <1>  -0.1360 
 19 C        1.4330     8.5810     0.3770 C.2   1 <1>   0.6900 
 20 C        0.1300     7.0210     1.8020 C.3   1 <1>   0.0600 
 21 C        3.5470     7.9460    -0.5480 C.2   1 <1>   0.6160 
 22 O        0.5600     9.4140     0.5350 O.2   1 <1>  -0.5700 
 23 N        2.5950     8.9110    -0.2930 N.am  1 <1>  -0.4200 
 24 O        4.5630     8.2250    -1.1590 O.2   1 <1>  -0.5700 
 25 C        2.8080    10.3100    -0.7710 C.3   1 <1>   0.0600 
 26 H       -2.0680     0.9970    -0.4340 H     1 <1>   0.0800 
 27 H       -1.3350     0.5790     1.0650 H     1 <1>   0.0800 
 28 H        1.6320    -1.5060     2.1130 H     1 <1>   0.0800 
 29 H        0.7850    -2.3890     0.8560 H     1 <1>   0.0800 
 30 H       -0.0660    -1.2140     1.8340 H     1 <1>   0.0800 
 31 H        3.2570    -0.8430     0.5370 H     1 <1>   0.0800 
 32 H        2.8310     0.1430    -0.8360 H     1 <1>   0.0800 
 33 H        2.4380    -1.5630    -0.8410 H     1 <1>   0.0800 
 34 H       -1.3740     2.9010     1.0130 H     1 <1>   0.0800 
 35 H       -0.5600     2.7660    -1.8790 H     1 <1>   0.0800 
 36 H        1.4370     2.1130     0.3320 H     1 <1>   0.0800 
 37 H        0.7660     2.6070     1.8800 H     1 <1>   0.0800 
 38 H       -2.3370     4.3470    -0.3470 H     1 <1>   0.4000 
 39 H       -0.2940     5.4150    -0.6940 H     1 <1>   0.0800 
 40 H        0.8730     4.5070    -1.6500 H     1 <1>   0.0800 
 41 H        4.0720     5.9030    -0.3360 H     1 <1>   0.1500 
 42 H        0.4130     6.2860     2.5350 H     1 <1>   0.0800 
 43 H       -0.7230     6.6680     1.2520 H     1 <1>   0.0800 
 44 H       -0.1450     7.9200     2.3270 H     1 <1>   0.0800 
 45 H        3.8570    10.5490    -0.7800 H     1 <1>   0.0800 
 46 H        2.3090    11.0090    -0.1220 H     1 <1>   0.0800 
 47 H        2.4150    10.4110    -1.7660 H     1 <1>   0.0800 
@<TRIPOS>BOND
  1   1   2  2   
  2   1   3  2   
  3   1   4  am  
  4   1   5  1   
  5   4   6  1   
  6   4   7  1   
  7   5   8  1   
  8   5  26  1   
  9   5  27  1   
 10   6  28  1   
 11   6  29  1   
 12   6  30  1   
 13   7  31  1   
 14   7  32  1   
 15   7  33  1   
 16   8   9  1   
 17   8  10  1   
 18   8  34  1   
 19   9  11  1   
 20   9  12  1   
 21   9  35  1   
 22  10  13  1   
 23  10  36  1   
 24  10  37  1   
 25  11  38  1   
 26  12  13  1   
 27  12  39  1   
 28  12  40  1   
 29  13  14  am  
 30  14  15  2   
 31  14  16  1   
 32  16  17  1   
 33  16  18  2   
 34  17  19  am  
 35  17  20  1   
 36  18  21  1   
 37  18  41  1   
 38  19  22  2   
 39  19  23  am  
 40  20  42  1   
 41  20  43  1   
 42  20  44  1   
 43  21  23  am  
 44  21  24  2   
 45  23  25  1   
 46  25  45  1   
 47  25  46  1   
 48  25  47  1   
@<TRIPOS>SUBSTRUCTURE
  1 ****  13 GROUP 4 **** **** 0

# MOE 2024.06 (io_trps.svl 2023.06)
