@<TRIPOS>MOLECULE
NONAME
43 45 1 0 0 
SMALL
USER_CHARGES


@<TRIPOS>ATOM
  1 O       -0.5530    -2.1230     1.7850 O.2   1 <1>  -0.5700 
  2 C       -0.6240    -2.2800     0.5820 C.2   1 <1>   0.5440 
  3 N        0.4250    -1.8630    -0.1940 N.am  1 <1>  -0.7300 
  4 C       -1.7900    -2.9030    -0.0050 C.ar  1 <1>   0.0860 
  5 C        1.6590    -1.2280     0.3080 C.3   1 <1>   0.1400 
  6 C       -2.6520    -3.6660     0.7820 C.ar  1 <1>   0.1600 
  7 C       -2.1240    -2.7830    -1.3520 C.ar  1 <1>  -0.1500 
  8 C        2.8500    -1.8390    -0.4200 C.3   1 <1>  -0.2400 
  9 N       -3.7410    -4.2910     0.3690 N.ar  1 <1>  -0.6200 
 10 C       -3.2540    -3.4230    -1.7990 C.ar  1 <1>  -0.1500 
 11 C       -4.0380    -4.1670    -0.9220 C.ar  1 <1>   0.4100 
 12 N       -5.1720    -4.7850    -1.3990 N.3   1 <1>  -0.5900 
 13 C       -6.5120    -4.1680    -1.0880 C.3   1 <1>   0.2450 
 14 C       -5.6740    -6.0780    -0.8050 C.3   1 <1>   0.2450 
 15 C       -6.7270    -5.2690    -0.0290 C.3   1 <1>   0.0850 
 16 N       -8.0530    -5.9140    -0.0570 N.pl3 1 <1>   0.4850 
 17 N       -9.1010    -5.4250    -0.7540 N.2   1 <1>  -0.7070 
 18 C       -8.4070    -7.0330     0.6230 C.2   1 <1>  -0.3320 
 19 C      -10.0780    -6.2380    -0.5130 C.2   1 <1>   0.1080 
 20 C       -9.7070    -7.2670     0.3430 C.2   1 <1>  -0.1500 
 21 C       -7.4860    -7.8380     1.5270 C.3   1 <1>  -0.0600 
 22 C      -11.4520    -6.0520    -1.1130 C.3   1 <1>  -0.0590 
 23 H        0.4130    -2.0480    -1.1960 H     1 <1>   0.3700 
 24 H        1.7550    -1.3880     1.3700 H     1 <1>   0.0800 
 25 H        1.6140    -0.1670     0.1260 H     1 <1>   0.0800 
 26 H       -2.4130    -3.7630     1.8290 H     1 <1>   0.1500 
 27 H       -1.5240    -2.2000    -2.0270 H     1 <1>   0.1500 
 28 H        2.8940    -2.8980    -0.2340 H     1 <1>   0.0800 
 29 H        3.7590    -1.3950    -0.0570 H     1 <1>   0.0800 
 30 H        2.7820    -1.6590    -1.4770 H     1 <1>   0.0800 
 31 H       -3.5570    -3.3630    -2.8280 H     1 <1>   0.1500 
 32 H       -7.1530    -4.2210    -1.9510 H     1 <1>   0.0000 
 33 H       -6.4150    -3.1810    -0.6730 H     1 <1>   0.0000 
 34 H       -4.9430    -6.5600    -0.1800 H     1 <1>   0.0000 
 35 H       -6.0820    -6.7150    -1.5700 H     1 <1>   0.0000 
 36 H       -6.4190    -4.9880     0.9630 H     1 <1>   0.0000 
 37 H      -10.3420    -8.0610     0.6920 H     1 <1>   0.1500 
 38 H       -7.0810    -7.2110     2.3010 H     1 <1>   0.0800 
 39 H       -6.6770    -8.2610     0.9590 H     1 <1>   0.0800 
 40 H       -8.0320    -8.6410     1.9900 H     1 <1>   0.0800 
 41 H      -11.8500    -5.1030    -0.8050 H     1 <1>   0.0800 
 42 H      -12.1130    -6.8340    -0.7910 H     1 <1>   0.0800 
 43 H      -11.3790    -6.0680    -2.1850 H     1 <1>   0.0800 
@<TRIPOS>BOND
  1   1   2  2   
  2   2   3  am  
  3   2   4  1   
  4   3   5  1   
  5   3  23  1   
  6   4   6  ar  
  7   4   7  ar  
  8   5   8  1   
  9   5  24  1   
 10   5  25  1   
 11   6   9  ar  
 12   6  26  1   
 13   7  10  ar  
 14   7  27  1   
 15   8  28  1   
 16   8  29  1   
 17   8  30  1   
 18   9  11  ar  
 19  10  11  ar  
 20  10  31  1   
 21  11  12  1   
 22  12  13  1   
 23  12  14  1   
 24  13  15  1   
 25  13  32  1   
 26  13  33  1   
 27  14  15  1   
 28  14  34  1   
 29  14  35  1   
 30  15  16  1   
 31  15  36  1   
 32  16  17  1   
 33  16  18  1   
 34  17  19  2   
 35  18  20  2   
 36  18  21  1   
 37  19  20  1   
 38  19  22  1   
 39  20  37  1   
 40  21  38  1   
 41  21  39  1   
 42  21  40  1   
 43  22  41  1   
 44  22  42  1   
 45  22  43  1   
@<TRIPOS>SUBSTRUCTURE
  1 ****  11 GROUP 4 **** **** 0

# MOE 2024.06 (io_trps.svl 2023.06)
