@<TRIPOS>MOLECULE
NONAME
49 52 1 0 0 
SMALL
USER_CHARGES


@<TRIPOS>ATOM
  1 O        0.3530    -1.6870     2.6660 O.3   1 <1>  -0.8290 
  2 C       -0.0270    -2.5940     1.8900 C.ar  1 <1>   0.1390 
  3 N        0.1110    -3.8900     2.2650 N.ar  1 <1>  -0.3100 
  4 C       -0.5810    -2.2410     0.6640 C.ar  1 <1>  -0.1500 
  5 N       -0.2830    -4.8500     1.4630 N.ar  1 <1>  -0.3100 
  6 C       -0.9900    -3.2460    -0.1640 C.ar  1 <1>  -0.1500 
  7 C       -0.8180    -4.5450     0.2870 C.ar  1 <1>   0.1670 
  8 C       -1.2570    -5.7130    -0.5750 C.3   1 <1>  -0.0160 
  9 C       -2.5390    -6.3450    -0.0200 C.3   1 <1>  -0.0990 
 10 C       -2.9130    -7.5840    -0.7970 C.2   1 <1>   0.5690 
 11 O       -3.5950    -7.4800    -1.7870 O.2   1 <1>  -0.5700 
 12 N       -2.4670    -8.7840    -0.3580 N.am  1 <1>  -0.7300 
 13 C       -2.7750   -10.0770    -1.0090 C.3   1 <1>   0.2200 
 14 C       -3.9800   -10.6990    -0.3280 C.3   1 <1>  -0.0800 
 15 C       -1.6790   -11.0950    -0.7070 C.3   1 <1>   0.1200 
 16 C       -3.3390   -11.4130     0.8640 C.3   1 <1>   0.1200 
 17 C       -4.7180   -11.6740    -1.2680 C.3   1 <1>  -0.0160 
 18 O       -2.0160   -11.6940     0.5100 O.3   1 <1>  -0.5600 
 19 C       -5.9890   -12.2170    -0.6230 C.ar  1 <1>  -0.1430 
 20 C       -7.1670   -11.4410    -0.5040 C.ar  1 <1>   0.0000 
 21 C       -6.0200   -13.4900    -0.1360 C.ar  1 <1>  -0.1500 
 22 C       -8.2850   -12.0380     0.1300 C.ar  1 <1>   0.3100 
 23 C       -7.3050   -10.1140    -0.9750 C.ar  1 <1>  -0.1500 
 24 C       -7.1810   -13.9870     0.4680 C.ar  1 <1>   0.1600 
 25 N       -8.2750   -13.3080     0.6090 N.ar  1 <1>  -0.6200 
 26 C       -9.4650   -11.2910     0.2730 C.ar  1 <1>  -0.1500 
 27 C       -8.4700    -9.4140    -0.8210 C.ar  1 <1>  -0.1500 
 28 C       -9.5650   -10.0070    -0.1880 C.ar  1 <1>  -0.1500 
 29 H       -0.6620    -1.1990     0.4260 H     1 <1>   0.1500 
 30 H       -1.4260    -3.0330    -1.1200 H     1 <1>   0.1500 
 31 H       -1.4240    -5.3870    -1.5860 H     1 <1>   0.0800 
 32 H       -0.4660    -6.4420    -0.5890 H     1 <1>   0.0800 
 33 H       -3.3440    -5.6360    -0.0790 H     1 <1>   0.0800 
 34 H       -2.4010    -6.6010     1.0150 H     1 <1>   0.0800 
 35 H       -1.9300    -8.8510     0.5110 H     1 <1>   0.3700 
 36 H       -2.9130    -9.9310    -2.0670 H     1 <1>   0.0800 
 37 H       -4.6680    -9.9440     0.0080 H     1 <1>   0.0800 
 38 H       -0.7040   -10.6450    -0.6310 H     1 <1>   0.0800 
 39 H       -1.6650   -11.8680    -1.4540 H     1 <1>   0.0800 
 40 H       -3.8360   -12.3300     1.1270 H     1 <1>   0.0800 
 41 H       -3.3130   -10.7640     1.7220 H     1 <1>   0.0800 
 42 H       -4.0670   -12.4910    -1.5260 H     1 <1>   0.0800 
 43 H       -4.9750   -11.1770    -2.1870 H     1 <1>   0.0800 
 44 H       -5.1650   -14.1390    -0.1970 H     1 <1>   0.1500 
 45 H       -6.4780    -9.6360    -1.4690 H     1 <1>   0.1500 
 46 H       -7.1620   -14.9970     0.8390 H     1 <1>   0.1500 
 47 H      -10.2940   -11.7680     0.7610 H     1 <1>   0.1500 
 48 H       -8.5590    -8.4040    -1.1840 H     1 <1>   0.1500 
 49 H      -10.4760    -9.4450    -0.0720 H     1 <1>   0.1500 
@<TRIPOS>BOND
  1   1   2  1   
  2   2   3  ar  
  3   2   4  ar  
  4   3   5  ar  
  5   4   6  ar  
  6   4  29  1   
  7   5   7  ar  
  8   6   7  ar  
  9   6  30  1   
 10   7   8  1   
 11   8   9  1   
 12   8  31  1   
 13   8  32  1   
 14   9  10  1   
 15   9  33  1   
 16   9  34  1   
 17  10  11  2   
 18  10  12  am  
 19  12  13  1   
 20  12  35  1   
 21  13  14  1   
 22  13  15  1   
 23  13  36  1   
 24  14  16  1   
 25  14  17  1   
 26  14  37  1   
 27  15  18  1   
 28  15  38  1   
 29  15  39  1   
 30  16  18  1   
 31  16  40  1   
 32  16  41  1   
 33  17  19  1   
 34  17  42  1   
 35  17  43  1   
 36  19  20  ar  
 37  19  21  ar  
 38  20  22  ar  
 39  20  23  ar  
 40  21  24  ar  
 41  21  44  1   
 42  22  25  ar  
 43  22  26  ar  
 44  23  27  ar  
 45  23  45  1   
 46  24  25  ar  
 47  24  46  1   
 48  26  28  ar  
 49  26  47  1   
 50  27  28  ar  
 51  27  48  1   
 52  28  49  1   
@<TRIPOS>SUBSTRUCTURE
  1 ****  12 GROUP 4 **** **** 0

# MOE 2024.06 (io_trps.svl 2023.06)
