@<TRIPOS>MOLECULE
NONAME
43 44 1 0 0 
SMALL
USER_CHARGES


@<TRIPOS>ATOM
  1 CL      -2.7890    -1.3250     3.1160 Cl    1 <1>  -0.1770 
  2 C       -2.6150    -0.1190     1.8660 C.ar  1 <1>   0.1770 
  3 C       -2.6340    -0.4970     0.5330 C.ar  1 <1>  -0.1440 
  4 C       -2.4440     1.2010     2.2400 C.ar  1 <1>  -0.1500 
  5 C       -2.4500     0.4780    -0.4390 C.ar  1 <1>  -0.1500 
  6 C       -2.8440    -1.9520     0.1590 C.3   1 <1>   0.4870 
  7 C       -2.2730     2.1660     1.2640 C.ar  1 <1>  -0.1500 
  8 C       -2.2720     1.8030    -0.0730 C.ar  1 <1>  -0.1500 
  9 N       -4.2850    -2.2690     0.0510 N.4   1 <1>  -0.9590 
 10 C       -4.5300    -3.7300    -0.2370 C.3   1 <1>   0.3430 
 11 C       -5.0890    -1.3740    -0.8220 C.3   1 <1>   0.3430 
 12 C       -5.9740    -4.0240    -0.7190 C.3   1 <1>   0.2000 
 13 C       -6.5930    -1.5890    -0.5750 C.3   1 <1>  -0.1600 
 14 O       -6.0190    -3.9160    -2.1120 O.3   1 <1>  -0.6800 
 15 C       -6.9640    -3.0260    -0.0810 C.3   1 <1>  -0.1060 
 16 C       -6.7080    -3.2000     1.4260 C.2   1 <1>   0.9060 
 17 C       -8.4350    -3.3710    -0.4450 C.3   1 <1>  -0.1600 
 18 O       -6.1100    -2.3050     2.0400 O.co2 1 <1>  -0.9000 
 19 O       -6.8830    -4.3130     1.9210 O.co2 1 <1>  -0.9000 
 20 C       -9.4680    -2.4660     0.2460 C.3   1 <1>  -0.1600 
 21 C      -10.8940    -2.8720    -0.1350 C.3   1 <1>  -0.2400 
 22 H       -2.4430     1.4630     3.2830 H     1 <1>   0.1500 
 23 H       -2.4420     0.2190    -1.4850 H     1 <1>   0.1500 
 24 H       -2.3940    -2.5810     0.9090 H     1 <1>   0.0800 
 25 H       -2.3600    -2.1510    -0.7820 H     1 <1>   0.0800 
 26 H       -2.1380     3.1980     1.5440 H     1 <1>   0.1500 
 27 H       -2.1320     2.5580    -0.8290 H     1 <1>   0.1500 
 28 H       -4.7190    -2.1210     1.0050 H     1 <1>   0.4500 
 29 H       -3.8420    -4.0940    -0.9790 H     1 <1>   0.0800 
 30 H       -4.3690    -4.2830     0.6760 H     1 <1>   0.0800 
 31 H       -4.8500    -0.3410    -0.6290 H     1 <1>   0.0800 
 32 H       -4.8650    -1.5960    -1.8520 H     1 <1>   0.0800 
 33 H       -6.2350    -5.0380    -0.4630 H     1 <1>   0.0800 
 34 H       -6.9360    -0.8620     0.1410 H     1 <1>   0.0800 
 35 H       -7.1020    -1.3750    -1.4970 H     1 <1>   0.0800 
 36 H       -6.9230    -4.1300    -2.4180 H     1 <1>   0.4000 
 37 H       -8.5770    -3.3070    -1.5090 H     1 <1>   0.0800 
 38 H       -8.6290    -4.3900    -0.1500 H     1 <1>   0.0800 
 39 H       -9.3590    -2.5420     1.3160 H     1 <1>   0.0800 
 40 H       -9.3120    -1.4380    -0.0310 H     1 <1>   0.0800 
 41 H      -11.0840    -3.8890     0.1640 H     1 <1>   0.0800 
 42 H      -11.0420    -2.7870    -1.1970 H     1 <1>   0.0800 
 43 H      -11.6020    -2.2340     0.3630 H     1 <1>   0.0800 
@<TRIPOS>BOND
  1   1   2  1   
  2   2   3  ar  
  3   2   4  ar  
  4   3   5  ar  
  5   3   6  1   
  6   4   7  ar  
  7   4  22  1   
  8   5   8  ar  
  9   5  23  1   
 10   6   9  1   
 11   6  24  1   
 12   6  25  1   
 13   7   8  ar  
 14   7  26  1   
 15   8  27  1   
 16   9  10  1   
 17   9  11  1   
 18   9  28  1   
 19  10  12  1   
 20  10  29  1   
 21  10  30  1   
 22  11  13  1   
 23  11  31  1   
 24  11  32  1   
 25  12  14  1   
 26  12  15  1   
 27  12  33  1   
 28  13  15  1   
 29  13  34  1   
 30  13  35  1   
 31  14  36  1   
 32  15  16  1   
 33  15  17  1   
 34  16  18  ar  
 35  16  19  ar  
 36  17  20  1   
 37  17  37  1   
 38  17  38  1   
 39  20  21  1   
 40  20  39  1   
 41  20  40  1   
 42  21  41  1   
 43  21  42  1   
 44  21  43  1   
@<TRIPOS>SUBSTRUCTURE
  1 ****   9 GROUP 4 **** **** 0

# MOE 2024.06 (io_trps.svl 2023.06)
