@<TRIPOS>MOLECULE
NONAME
51 53 1 0 0 
SMALL
USER_CHARGES


@<TRIPOS>ATOM
  1 O        0.6860    -0.2680     0.8230 O.2   1 <1>  -0.5700 
  2 C        1.7030    -0.9270     0.7050 C.2   1 <1>   0.5440 
  3 N        2.9150    -0.2660     0.6840 N.am  1 <1>  -0.6600 
  4 C        1.5960    -2.3630     0.5830 C.ar  1 <1>   0.0860 
  5 C        4.1250    -0.8030    -0.0200 C.3   1 <1>   0.1400 
  6 C        3.0320     1.1050     1.2590 C.3   1 <1>   0.1400 
  7 C        0.5950    -2.9320    -0.2010 C.ar  1 <1>   0.1600 
  8 C        2.4510    -3.2450     1.2370 C.ar  1 <1>  -0.1500 
  9 C        4.5980     0.1100    -1.1610 C.3   1 <1>   0.1400 
 10 C        2.9120     2.1580     0.1510 C.3   1 <1>  -0.1600 
 11 N        0.4040    -4.2240    -0.4040 N.ar  1 <1>  -0.6200 
 12 C        2.2620    -4.5920     1.0440 C.ar  1 <1>  -0.1500 
 13 N        5.1870     1.3780    -0.6320 N.am  1 <1>  -0.6600 
 14 C        4.2390     2.5270    -0.5310 C.3   1 <1>   0.1400 
 15 C        1.2400    -5.0520     0.2150 C.ar  1 <1>   0.4100 
 16 C        6.5070     1.3890    -0.2390 C.2   1 <1>   0.5690 
 17 N        1.0580    -6.4070     0.0110 N.pl3 1 <1>  -0.8380 
 18 O        7.1500     0.3640    -0.2350 O.2   1 <1>  -0.5700 
 19 C        7.1970     2.6810     0.2090 C.3   1 <1>  -0.0190 
 20 C       -0.2830    -6.9350    -0.3630 C.3   1 <1>   0.1290 
 21 C        2.2020    -7.2900    -0.3330 C.3   1 <1>   0.1290 
 22 C        7.3570     3.7170    -0.9260 C.3   1 <1>  -0.0220 
 23 C        8.6040     2.5200     0.8340 C.3   1 <1>  -0.0220 
 24 C        8.6430     4.4160    -0.5640 C.2   1 <1>  -0.2880 
 25 C        9.3120     3.7740     0.3850 C.2   1 <1>  -0.2880 
 26 H        3.9030    -1.7630    -0.4470 H     1 <1>   0.0800 
 27 H        4.9260    -0.9360     0.6870 H     1 <1>   0.0800 
 28 H        3.9640     1.2050     1.7880 H     1 <1>   0.0800 
 29 H        2.2370     1.2540     1.9700 H     1 <1>   0.0800 
 30 H       -0.0890    -2.2600    -0.6910 H     1 <1>   0.1500 
 31 H        3.2290    -2.8750     1.8810 H     1 <1>   0.1500 
 32 H        3.7800     0.3220    -1.8270 H     1 <1>   0.0800 
 33 H        5.3490    -0.4130    -1.7300 H     1 <1>   0.0800 
 34 H        2.5090     3.0570     0.5800 H     1 <1>   0.0800 
 35 H        2.1980     1.8250    -0.5820 H     1 <1>   0.0800 
 36 H        2.8890    -5.3090     1.5360 H     1 <1>   0.1500 
 37 H        4.6830     3.3230     0.0350 H     1 <1>   0.0800 
 38 H        4.0390     2.9060    -1.5190 H     1 <1>   0.0800 
 39 H        6.5950     3.1290     0.9770 H     1 <1>   0.0800 
 40 H       -1.0540    -6.3390     0.0940 H     1 <1>   0.0800 
 41 H       -0.3870    -7.9500    -0.0230 H     1 <1>   0.0800 
 42 H       -0.4020    -6.8990    -1.4310 H     1 <1>   0.0800 
 43 H        3.1180    -6.7270    -0.3760 H     1 <1>   0.0800 
 44 H        2.0380    -7.7440    -1.2960 H     1 <1>   0.0800 
 45 H        2.2980    -8.0630     0.4090 H     1 <1>   0.0800 
 46 H        6.5330     4.4060    -0.9510 H     1 <1>   0.0800 
 47 H        7.4640     3.2360    -1.8830 H     1 <1>   0.0800 
 48 H        9.1330     1.6650     0.4470 H     1 <1>   0.0800 
 49 H        8.5460     2.4540     1.9060 H     1 <1>   0.0800 
 50 H        8.9100     5.3220    -1.0830 H     1 <1>   0.1500 
 51 H       10.2590     4.0250     0.8340 H     1 <1>   0.1500 
@<TRIPOS>BOND
  1   1   2  2   
  2   2   3  am  
  3   2   4  1   
  4   3   5  1   
  5   3   6  1   
  6   4   7  ar  
  7   4   8  ar  
  8   5   9  1   
  9   5  26  1   
 10   5  27  1   
 11   6  10  1   
 12   6  28  1   
 13   6  29  1   
 14   7  11  ar  
 15   7  30  1   
 16   8  12  ar  
 17   8  31  1   
 18   9  13  1   
 19   9  32  1   
 20   9  33  1   
 21  10  14  1   
 22  10  34  1   
 23  10  35  1   
 24  11  15  ar  
 25  12  15  ar  
 26  12  36  1   
 27  13  14  1   
 28  13  16  am  
 29  14  37  1   
 30  14  38  1   
 31  15  17  1   
 32  16  18  2   
 33  16  19  1   
 34  17  20  1   
 35  17  21  1   
 36  19  22  1   
 37  19  23  1   
 38  19  39  1   
 39  20  40  1   
 40  20  41  1   
 41  20  42  1   
 42  21  43  1   
 43  21  44  1   
 44  21  45  1   
 45  22  24  1   
 46  22  46  1   
 47  22  47  1   
 48  23  25  1   
 49  23  48  1   
 50  23  49  1   
 51  24  25  2   
 52  24  50  1   
 53  25  51  1   
@<TRIPOS>SUBSTRUCTURE
  1 ****   5 GROUP 4 **** **** 0

# MOE 2024.06 (io_trps.svl 2023.06)
