@<TRIPOS>MOLECULE
NONAME
39 42 1 0 0 
SMALL
USER_CHARGES


@<TRIPOS>ATOM
  1 F        0.2210    -0.4950    -0.7240 F     1 <1>  -0.1900 
  2 C        0.8900    -1.5810    -0.4270 C.ar  1 <1>   0.1900 
  3 C        0.2210    -2.7770    -0.3580 C.ar  1 <1>  -0.1500 
  4 C        2.2630    -1.4570    -0.1960 C.ar  1 <1>  -0.1500 
  5 C        0.9600    -3.9210    -0.0400 C.ar  1 <1>   0.0000 
  6 C        2.9930    -2.5810     0.1190 C.ar  1 <1>  -0.1500 
  7 C        2.3330    -3.8140     0.1950 C.ar  1 <1>  -0.1520 
  8 C        0.6390    -5.2860     0.1220 C.2   1 <1>  -0.1810 
  9 N        2.8220    -5.0650     0.4860 N.pl3 1 <1>   0.0330 
 10 C        1.7780    -5.9420     0.4280 C.2   1 <1>  -0.3320 
 11 C       -0.7300    -5.9360    -0.0080 C.3   1 <1>   0.3900 
 12 C        1.8230    -7.4360     0.6750 C.3   1 <1>   0.0200 
 13 N       -0.6850    -7.3800     0.3960 N.pl3 1 <1>  -0.8210 
 14 C        0.5850    -8.1010     0.0460 C.3   1 <1>   0.2090 
 15 C       -1.8860    -8.0680     0.2290 C.2   1 <1>   0.5990 
 16 N       -3.0400    -7.5260     0.1360 N.2   1 <1>  -0.4100 
 17 N       -1.9240    -9.3920     0.1490 N.2   1 <1>  -0.5650 
 18 O       -3.9060    -8.4930    -0.0050 O.3   1 <1>  -0.0190 
 19 C       -3.1740    -9.5800     0.0130 C.2   1 <1>   0.2980 
 20 C       -3.8900   -10.9240    -0.1290 C.3   1 <1>   0.1000 
 21 C       -4.6780   -11.2520     1.1470 C.3   1 <1>  -0.2400 
 22 C       -2.9260   -12.0750    -0.4560 C.3   1 <1>  -0.2400 
 23 H       -0.8340    -2.8390    -0.5400 H     1 <1>   0.1500 
 24 H        2.7230    -0.4880    -0.2670 H     1 <1>   0.1500 
 25 H        4.0510    -2.5230     0.3040 H     1 <1>   0.1500 
 26 H        3.7960    -5.2850     0.7130 H     1 <1>   0.2700 
 27 H       -1.0680    -5.8570    -1.0270 H     1 <1>   0.0800 
 28 H       -1.4260    -5.4150     0.6270 H     1 <1>   0.0800 
 29 H        1.8310    -7.6280     1.7330 H     1 <1>   0.0800 
 30 H        2.7090    -7.8620     0.2420 H     1 <1>   0.0800 
 31 H        0.5400    -9.1230     0.3830 H     1 <1>   0.0800 
 32 H        0.6910    -8.1060    -1.0250 H     1 <1>   0.0800 
 33 H       -4.5860   -10.8330    -0.9450 H     1 <1>   0.0800 
 34 H       -4.0090   -11.3350     1.9850 H     1 <1>   0.0800 
 35 H       -5.2090   -12.1810     1.0330 H     1 <1>   0.0800 
 36 H       -5.3910   -10.4740     1.3550 H     1 <1>   0.0800 
 37 H       -2.2180   -12.2090     0.3430 H     1 <1>   0.0800 
 38 H       -2.3830   -11.8550    -1.3580 H     1 <1>   0.0800 
 39 H       -3.4680   -12.9930    -0.5970 H     1 <1>   0.0800 
@<TRIPOS>BOND
  1   1   2  1   
  2   2   3  ar  
  3   2   4  ar  
  4   3   5  ar  
  5   3  23  1   
  6   4   6  ar  
  7   4  24  1   
  8   5   7  ar  
  9   5   8  1   
 10   6   7  ar  
 11   6  25  1   
 12   7   9  1   
 13   8  10  2   
 14   8  11  1   
 15   9  10  1   
 16   9  26  1   
 17  10  12  1   
 18  11  13  1   
 19  11  27  1   
 20  11  28  1   
 21  12  14  1   
 22  12  29  1   
 23  12  30  1   
 24  13  14  1   
 25  13  15  1   
 26  14  31  1   
 27  14  32  1   
 28  15  16  2   
 29  15  17  1   
 30  16  18  1   
 31  17  19  2   
 32  18  19  1   
 33  19  20  1   
 34  20  21  1   
 35  20  22  1   
 36  20  33  1   
 37  21  34  1   
 38  21  35  1   
 39  21  36  1   
 40  22  37  1   
 41  22  38  1   
 42  22  39  1   
@<TRIPOS>SUBSTRUCTURE
  1 ****  11 GROUP 4 **** **** 0

# MOE 2024.06 (io_trps.svl 2023.06)
