@<TRIPOS>MOLECULE
NONAME
45 46 1 0 0 
SMALL
USER_CHARGES


@<TRIPOS>ATOM
  1 S       -0.2860     0.1520    -0.6200 S.o2  1 <1>   1.3330 
  2 O        0.6450     0.0420    -1.7190 O.2   1 <1>  -0.6500 
  3 O       -1.7070     0.0670    -0.8570 O.2   1 <1>  -0.6500 
  4 N        0.0280     1.6030     0.1940 N.am  1 <1>  -0.8490 
  5 C        0.1330    -1.0640     0.6100 C.3   1 <1>  -0.1350 
  6 C        1.3990     2.1000    -0.0240 C.3   1 <1>   0.1960 
  7 C       -0.9350     2.6600    -0.1610 C.3   1 <1>   0.1960 
  8 C        1.6500     3.4200     0.7340 C.3   1 <1>   0.2000 
  9 C       -0.6300     3.9700     0.5890 C.3   1 <1>   0.1200 
 10 O        0.6890     4.3760     0.3610 O.3   1 <1>  -0.5600 
 11 C        3.0540     3.9750     0.4450 C.3   1 <1>   0.2090 
 12 N        3.2290     5.3010     1.0780 N.pl3 1 <1>  -0.8690 
 13 C        4.2480     6.1290     0.7340 C.ar  1 <1>   0.4100 
 14 N        3.8710     7.3560     0.4300 N.ar  1 <1>  -0.6200 
 15 C        5.5750     5.7080     0.7100 C.ar  1 <1>  -0.1500 
 16 C        4.8390     8.1920     0.0920 C.ar  1 <1>   0.1600 
 17 C        6.5670     6.5910     0.3580 C.ar  1 <1>  -0.1500 
 18 C        6.2010     7.8980     0.0390 C.ar  1 <1>   0.0860 
 19 C        7.1600     8.9160    -0.3300 C.2   1 <1>   0.5440 
 20 O        6.8120     9.8940    -0.9630 O.2   1 <1>  -0.5700 
 21 N        8.4740     8.8130     0.0380 N.am  1 <1>  -0.7300 
 22 C        9.5310     9.7840    -0.3070 C.3   1 <1>   0.1400 
 23 C       10.8290     9.0240    -0.5510 C.3   1 <1>  -0.2400 
 24 H       -0.0340    -2.0490     0.2210 H     1 <1>   0.0800 
 25 H       -0.4760    -0.9300     1.4810 H     1 <1>   0.0800 
 26 H        1.1640    -0.9730     0.8880 H     1 <1>   0.0800 
 27 H        1.5650     2.2690    -1.0750 H     1 <1>   0.0800 
 28 H        2.1050     1.3590     0.3100 H     1 <1>   0.0800 
 29 H       -1.9320     2.3430     0.0960 H     1 <1>   0.0800 
 30 H       -0.9080     2.8420    -1.2230 H     1 <1>   0.0800 
 31 H        1.5590     3.2470     1.7920 H     1 <1>   0.0800 
 32 H       -0.7740     3.8400     1.6480 H     1 <1>   0.0800 
 33 H       -1.2800     4.7550     0.2450 H     1 <1>   0.0800 
 34 H        3.1910     4.0690    -0.6190 H     1 <1>   0.0800 
 35 H        3.7960     3.2960     0.8280 H     1 <1>   0.0800 
 36 H        2.3350     5.8110     1.0520 H     1 <1>   0.4000 
 37 H        5.8050     4.6950     0.9760 H     1 <1>   0.1500 
 38 H        4.5370     9.1950    -0.1620 H     1 <1>   0.1500 
 39 H        7.5950     6.2780     0.3260 H     1 <1>   0.1500 
 40 H        8.7550     8.0800     0.6890 H     1 <1>   0.3700 
 41 H        9.6520    10.4830     0.5030 H     1 <1>   0.0800 
 42 H        9.2530    10.3320    -1.1930 H     1 <1>   0.0800 
 43 H       11.1310     8.4960     0.3360 H     1 <1>   0.0800 
 44 H       11.6070     9.7180    -0.8150 H     1 <1>   0.0800 
 45 H       10.7050     8.3290    -1.3620 H     1 <1>   0.0800 
@<TRIPOS>BOND
  1   1   2  2   
  2   1   3  2   
  3   1   4  am  
  4   1   5  1   
  5   4   6  1   
  6   4   7  1   
  7   5  24  1   
  8   5  25  1   
  9   5  26  1   
 10   6   8  1   
 11   6  27  1   
 12   6  28  1   
 13   7   9  1   
 14   7  29  1   
 15   7  30  1   
 16   8  10  1   
 17   8  11  1   
 18   8  31  1   
 19   9  10  1   
 20   9  32  1   
 21   9  33  1   
 22  11  12  1   
 23  11  34  1   
 24  11  35  1   
 25  12  13  1   
 26  12  36  1   
 27  13  14  ar  
 28  13  15  ar  
 29  14  16  ar  
 30  15  17  ar  
 31  15  37  1   
 32  16  18  ar  
 33  16  38  1   
 34  17  18  ar  
 35  17  39  1   
 36  18  19  1   
 37  19  20  2   
 38  19  21  am  
 39  21  22  1   
 40  21  40  1   
 41  22  23  1   
 42  22  41  1   
 43  22  42  1   
 44  23  43  1   
 45  23  44  1   
 46  23  45  1   
@<TRIPOS>SUBSTRUCTURE
  1 ****  12 GROUP 4 **** **** 0

# MOE 2024.06 (io_trps.svl 2023.06)
