@<TRIPOS>MOLECULE
NONAME
44 46 1 0 0 
SMALL
USER_CHARGES


@<TRIPOS>ATOM
  1 S        0.6570     0.3630    -1.7150 S.o2  1 <1>   1.3330 
  2 O        0.8860    -0.9970    -2.1500 O.2   1 <1>  -0.6500 
  3 O        0.0800     1.3200    -2.6310 O.2   1 <1>  -0.6500 
  4 N       -0.3520     0.3080    -0.3490 N.am  1 <1>  -0.8490 
  5 C        2.2050     1.0110    -1.0770 C.3   1 <1>  -0.0550 
  6 C       -1.4050    -0.7040    -0.4820 C.3   1 <1>   0.1160 
  7 C       -0.9530     1.6050    -0.0190 C.3   1 <1>   0.1160 
  8 C        2.9670     0.0340    -0.1540 C.3   1 <1>  -0.0800 
  9 C        4.3460     0.5060     0.2800 C.3   1 <1>   0.2200 
 10 C        2.2810    -0.2740     1.1840 C.3   1 <1>   0.1200 
 11 N        4.3150     1.9350     0.6700 N.am  1 <1>  -0.7300 
 12 C        4.5470    -0.3380     1.5300 C.3   1 <1>   0.1200 
 13 O        3.2950    -0.3790     2.1430 O.3   1 <1>  -0.5600 
 14 C        4.8210     2.9770    -0.0520 C.2   1 <1>   0.7150 
 15 O        5.2570     2.7310    -1.1610 O.2   1 <1>  -0.5700 
 16 C        4.8070     4.3050     0.4920 C.2   1 <1>  -0.0450 
 17 S        3.9820     4.5870     2.0470 S.3   1 <1>  -0.0800 
 18 C        5.3110     5.4930     0.0620 C.2   1 <1>   0.0620 
 19 C        4.3630     6.3030     2.0380 C.2   1 <1>  -0.1100 
 20 O        6.0030     5.6700    -1.0830 O.3   1 <1>  -0.3420 
 21 C        5.0640     6.6060     0.9330 C.2   1 <1>   0.0620 
 22 C        6.2130     6.9960    -1.5300 C.3   1 <1>   0.1200 
 23 O        5.5200     7.8520     0.6310 O.3   1 <1>  -0.3420 
 24 C        6.5440     7.9140    -0.3440 C.3   1 <1>   0.1200 
 25 H        2.8420     1.2400    -1.9100 H     1 <1>   0.0800 
 26 H        2.0160     1.9300    -0.5600 H     1 <1>   0.0800 
 27 H       -2.0200    -0.7230     0.4010 H     1 <1>   0.0800 
 28 H       -0.9660    -1.6800    -0.6070 H     1 <1>   0.0800 
 29 H       -2.0220    -0.4910    -1.3400 H     1 <1>   0.0800 
 30 H       -1.5090     1.5320     0.9000 H     1 <1>   0.0800 
 31 H       -1.6180     1.9250    -0.8060 H     1 <1>   0.0800 
 32 H       -0.1870     2.3500     0.1070 H     1 <1>   0.0800 
 33 H        3.0890    -0.8990    -0.6770 H     1 <1>   0.0800 
 34 H        5.1040     0.3250    -0.4640 H     1 <1>   0.0800 
 35 H        1.7320    -1.2000     1.1480 H     1 <1>   0.0800 
 36 H        1.6280     0.5230     1.4920 H     1 <1>   0.0800 
 37 H        3.9410     2.1120     1.6050 H     1 <1>   0.3700 
 38 H        5.2720     0.0790     2.2060 H     1 <1>   0.0800 
 39 H        4.8220    -1.3460     1.2710 H     1 <1>   0.0800 
 40 H        4.0280     6.9070     2.8610 H     1 <1>   0.1500 
 41 H        7.0200     6.9800    -2.2400 H     1 <1>   0.0800 
 42 H        5.3160     7.3290    -2.0230 H     1 <1>   0.0800 
 43 H        6.6310     8.9360    -0.6670 H     1 <1>   0.0800 
 44 H        7.4670     7.6100     0.1170 H     1 <1>   0.0800 
@<TRIPOS>BOND
  1   1   2  2   
  2   1   3  2   
  3   1   4  am  
  4   1   5  1   
  5   4   6  1   
  6   4   7  1   
  7   5   8  1   
  8   5  25  1   
  9   5  26  1   
 10   6  27  1   
 11   6  28  1   
 12   6  29  1   
 13   7  30  1   
 14   7  31  1   
 15   7  32  1   
 16   8   9  1   
 17   8  10  1   
 18   8  33  1   
 19   9  11  1   
 20   9  12  1   
 21   9  34  1   
 22  10  13  1   
 23  10  35  1   
 24  10  36  1   
 25  11  14  am  
 26  11  37  1   
 27  12  13  1   
 28  12  38  1   
 29  12  39  1   
 30  14  15  2   
 31  14  16  1   
 32  16  17  1   
 33  16  18  2   
 34  17  19  1   
 35  18  20  1   
 36  18  21  1   
 37  19  21  2   
 38  19  40  1   
 39  20  22  1   
 40  21  23  1   
 41  22  24  1   
 42  22  41  1   
 43  22  42  1   
 44  23  24  1   
 45  24  43  1   
 46  24  44  1   
@<TRIPOS>SUBSTRUCTURE
  1 ****  11 GROUP 4 **** **** 0

# MOE 2024.06 (io_trps.svl 2023.06)
