@<TRIPOS>MOLECULE
NONAME
33 34 1 0 0 
SMALL
USER_CHARGES


@<TRIPOS>ATOM
  1 O        0.5560     0.7120     0.1450 O.2   1 <1>  -0.5700 
  2 C        0.2630     1.8040    -0.3300 C.2   1 <1>   0.6160 
  3 N        1.2720     2.5240    -0.9670 N.am  1 <1>  -0.4690 
  4 C       -1.0660     2.3670    -0.2400 C.2   1 <1>   0.0140 
  5 C        1.0260     3.7630    -1.5060 C.2   1 <1>  -0.0410 
  6 C        2.6430     1.9470    -1.0690 C.3   1 <1>   0.1400 
  7 C       -1.2600     3.6230    -0.7960 C.2   1 <1>   0.0770 
  8 C       -2.2050     1.7400     0.3790 C.2   1 <1>  -0.1380 
  9 C       -0.2090     4.3160    -1.4290 C.2   1 <1>  -0.1500 
 10 C        3.3810     2.0890     0.2650 C.3   1 <1>   0.1400 
 11 O       -2.4470     4.2410    -0.7610 O.3   1 <1>  -0.2270 
 12 C       -3.3850     2.4080     0.3880 C.2   1 <1>  -0.1360 
 13 C       -2.1270     0.3590     1.0190 C.3   1 <1>  -0.1020 
 14 N        4.7890     1.6460     0.1150 N.am  1 <1>  -0.7300 
 15 C       -3.5230     3.6960    -0.1920 C.2   1 <1>   0.7060 
 16 C        5.9170     2.3880     0.0690 C.2   1 <1>   0.5690 
 17 O       -4.5630     4.3240    -0.1990 O.2   1 <1>  -0.5700 
 18 O        6.9840     1.8500    -0.0620 O.2   1 <1>  -0.5700 
 19 C        5.8610     3.8920     0.1710 C.3   1 <1>  -0.1790 
 20 H        1.8400     4.2790    -1.9890 H     1 <1>   0.1500 
 21 H        3.1910     2.4590    -1.8400 H     1 <1>   0.0800 
 22 H        2.5730     0.9060    -1.3380 H     1 <1>   0.0800 
 23 H       -0.4190     5.2860    -1.8460 H     1 <1>   0.1500 
 24 H        2.9030     1.4800     1.0140 H     1 <1>   0.0800 
 25 H        3.3490     3.1140     0.5860 H     1 <1>   0.0800 
 26 H       -4.2770     2.0060     0.8310 H     1 <1>   0.1500 
 27 H       -1.4120     0.3610     1.8230 H     1 <1>   0.0800 
 28 H       -1.8250    -0.3730     0.2890 H     1 <1>   0.0800 
 29 H       -3.0780     0.0580     1.4190 H     1 <1>   0.0800 
 30 H        4.9380     0.6340     0.0600 H     1 <1>   0.3700 
 31 H        5.2340     4.2890    -0.6040 H     1 <1>   0.0800 
 32 H        6.8500     4.2980     0.0580 H     1 <1>   0.0800 
 33 H        5.4780     4.1770     1.1320 H     1 <1>   0.0800 
@<TRIPOS>BOND
  1   1   2  2   
  2   2   3  am  
  3   2   4  1   
  4   3   5  1   
  5   3   6  1   
  6   4   7  2   
  7   4   8  1   
  8   5   9  2   
  9   5  20  1   
 10   6  10  1   
 11   6  21  1   
 12   6  22  1   
 13   7   9  1   
 14   7  11  1   
 15   8  12  2   
 16   8  13  1   
 17   9  23  1   
 18  10  14  1   
 19  10  24  1   
 20  10  25  1   
 21  11  15  1   
 22  12  15  1   
 23  12  26  1   
 24  13  27  1   
 25  13  28  1   
 26  13  29  1   
 27  14  16  am  
 28  14  30  1   
 29  15  17  2   
 30  16  18  2   
 31  16  19  1   
 32  19  31  1   
 33  19  32  1   
 34  19  33  1   
@<TRIPOS>SUBSTRUCTURE
  1 ****   2 GROUP 4 **** **** 0

# MOE 2024.06 (io_trps.svl 2023.06)
