@<TRIPOS>MOLECULE
NONAME
45 47 1 0 0 
SMALL
USER_CHARGES


@<TRIPOS>ATOM
  1 S       -1.5660     0.0160     1.2000 S.3   1 <1>  -0.0800 
  2 C       -2.8450    -0.5390     0.1370 C.2   1 <1>  -0.1100 
  3 C       -1.8920     1.6880     0.7830 C.2   1 <1>  -0.1100 
  4 C       -3.4560     0.4990    -0.4680 C.2   1 <1>  -0.1810 
  5 C       -2.9050     1.7700    -0.0990 C.2   1 <1>  -0.1500 
  6 C       -4.6180     0.4180    -1.4540 C.3   1 <1>   0.0820 
  7 C       -5.2680    -0.9590    -1.5400 C.2   1 <1>   0.5690 
  8 O       -5.0930    -1.5930    -2.5550 O.2   1 <1>  -0.5700 
  9 N       -6.0410    -1.4540    -0.5170 N.am  1 <1>  -0.6600 
 10 C       -6.6280    -2.8310    -0.5900 C.3   1 <1>   0.1400 
 11 C       -6.3580    -0.7270     0.7460 C.3   1 <1>   0.1400 
 12 C       -8.1370    -2.8200    -0.8840 C.3   1 <1>   0.1400 
 13 C       -7.6240     0.1310     0.6080 C.3   1 <1>  -0.1600 
 14 N       -8.9010    -1.9400     0.0610 N.am  1 <1>  -0.6600 
 15 C       -8.7490    -0.4890    -0.2310 C.3   1 <1>   0.1400 
 16 C       -9.7190    -2.3610     1.0820 C.2   1 <1>   0.5690 
 17 O      -10.2680    -1.5670     1.8110 O.2   1 <1>  -0.5700 
 18 C       -9.9500    -3.8340     1.3840 C.3   1 <1>   0.0810 
 19 C      -11.0470    -4.4290     0.5200 C.2   1 <1>  -0.0400 
 20 O      -10.8360    -4.6650    -0.7470 O.3   1 <1>  -0.0190 
 21 C      -12.3030    -4.8040     0.8040 C.2   1 <1>  -0.1500 
 22 N      -11.8810    -5.1800    -1.3260 N.2   1 <1>  -0.4100 
 23 C      -12.7830    -5.2730    -0.4160 C.2   1 <1>   0.1080 
 24 C      -14.1750    -5.8180    -0.6480 C.3   1 <1>  -0.0590 
 25 H       -3.0070    -1.6020     0.0760 H     1 <1>   0.1500 
 26 H       -1.2800     2.4410     1.2460 H     1 <1>   0.1500 
 27 H       -3.2910     2.6860    -0.5110 H     1 <1>   0.1500 
 28 H       -4.2560     0.6860    -2.4290 H     1 <1>   0.0800 
 29 H       -5.3690     1.1340    -1.1840 H     1 <1>   0.0800 
 30 H       -6.4520    -3.3420     0.3400 H     1 <1>   0.0800 
 31 H       -6.1340    -3.4000    -1.3580 H     1 <1>   0.0800 
 32 H       -5.5320    -0.1090     1.0490 H     1 <1>   0.0800 
 33 H       -6.5140    -1.4460     1.5320 H     1 <1>   0.0800 
 34 H       -8.4990    -3.8300    -0.8440 H     1 <1>   0.0800 
 35 H       -8.2920    -2.4780    -1.8930 H     1 <1>   0.0800 
 36 H       -7.3670     1.0820     0.1820 H     1 <1>   0.0800 
 37 H       -8.0060     0.3290     1.5940 H     1 <1>   0.0800 
 38 H       -8.5310    -0.3560    -1.2770 H     1 <1>   0.0800 
 39 H       -9.6750     0.0230    -0.0280 H     1 <1>   0.0800 
 40 H      -10.2420    -3.9200     2.4140 H     1 <1>   0.0800 
 41 H       -9.0410    -4.3890     1.2620 H     1 <1>   0.0800 
 42 H      -12.8430    -4.7630     1.7320 H     1 <1>   0.1500 
 43 H      -14.3380    -6.6780    -0.0270 H     1 <1>   0.0800 
 44 H      -14.2900    -6.1040    -1.6780 H     1 <1>   0.0800 
 45 H      -14.9040    -5.0650    -0.4130 H     1 <1>   0.0800 
@<TRIPOS>BOND
  1   1   2  1   
  2   1   3  1   
  3   2   4  2   
  4   2  25  1   
  5   3   5  2   
  6   3  26  1   
  7   4   5  1   
  8   4   6  1   
  9   5  27  1   
 10   6   7  1   
 11   6  28  1   
 12   6  29  1   
 13   7   8  2   
 14   7   9  am  
 15   9  10  1   
 16   9  11  1   
 17  10  12  1   
 18  10  30  1   
 19  10  31  1   
 20  11  13  1   
 21  11  32  1   
 22  11  33  1   
 23  12  14  1   
 24  12  34  1   
 25  12  35  1   
 26  13  15  1   
 27  13  36  1   
 28  13  37  1   
 29  14  15  1   
 30  14  16  am  
 31  15  38  1   
 32  15  39  1   
 33  16  17  2   
 34  16  18  1   
 35  18  19  1   
 36  18  40  1   
 37  18  41  1   
 38  19  20  1   
 39  19  21  2   
 40  20  22  1   
 41  21  23  1   
 42  21  42  1   
 43  22  23  2   
 44  23  24  1   
 45  24  43  1   
 46  24  44  1   
 47  24  45  1   
@<TRIPOS>SUBSTRUCTURE
  1 ****  12 GROUP 4 **** **** 0

# MOE 2024.06 (io_trps.svl 2023.06)
