@<TRIPOS>MOLECULE
NONAME
45 47 1 0 0 
SMALL
USER_CHARGES


@<TRIPOS>ATOM
  1 O       -4.4200     2.4780    -1.2670 O.2   1 <1>  -0.5700 
  2 C       -3.3100     2.0030    -1.2900 C.2   1 <1>   0.5690 
  3 N       -3.0040     0.9210    -2.0450 N.am  1 <1>  -0.7300 
  4 C       -2.2110     2.5880    -0.4210 C.3   1 <1>   0.0820 
  5 C       -3.9470     0.0330    -2.7520 C.3   1 <1>   0.2200 
  6 C       -1.3510     1.4710     0.1660 C.2   1 <1>  -0.1810 
  7 C       -4.1640    -1.2510    -1.9610 C.3   1 <1>  -0.0800 
  8 C       -3.2410    -0.5260    -3.9800 C.3   1 <1>   0.1200 
  9 C       -1.5890     0.7830     1.3550 C.2   1 <1>   0.1080 
 10 C       -0.2420     0.8950    -0.3510 C.2   1 <1>  -0.3320 
 11 C       -2.9180    -2.0720    -2.3110 C.3   1 <1>   0.1200 
 12 C       -4.4050    -1.0820    -0.4480 C.3   1 <1>  -0.0160 
 13 O       -2.4000    -1.5320    -3.4940 O.3   1 <1>  -0.5600 
 14 N       -0.7130    -0.1470     1.5650 N.2   1 <1>  -0.7070 
 15 C       -2.7270     1.0380     2.3200 C.3   1 <1>  -0.0590 
 16 N        0.1270    -0.0700     0.5180 N.pl3 1 <1>   0.3000 
 17 C        0.5130     1.1780    -1.6400 C.3   1 <1>  -0.0600 
 18 C       -4.4800    -2.4220     0.2640 C.ar  1 <1>  -0.1440 
 19 C       -3.4630    -2.8530     1.0930 C.ar  1 <1>  -0.1500 
 20 C       -5.5580    -3.2720     0.1270 C.ar  1 <1>  -0.1500 
 21 C       -3.5680    -4.0820     1.7210 C.ar  1 <1>   0.1600 
 22 C       -5.5630    -4.4820     0.8000 C.ar  1 <1>   0.1600 
 23 N       -4.5930    -4.9100     1.5920 N.ar  1 <1>  -0.6200 
 24 H       -2.0740     0.5070    -1.9180 H     1 <1>   0.3700 
 25 H       -1.6090     3.2430    -1.0210 H     1 <1>   0.0800 
 26 H       -2.6500     3.1720     0.3660 H     1 <1>   0.0800 
 27 H       -4.8620     0.5520    -2.9890 H     1 <1>   0.0800 
 28 H       -5.0130    -1.7630    -2.3800 H     1 <1>   0.0800 
 29 H       -2.6600     0.2150    -4.5000 H     1 <1>   0.0800 
 30 H       -3.9460    -0.9800    -4.6530 H     1 <1>   0.0800 
 31 H       -3.1510    -3.1110    -2.4670 H     1 <1>   0.0800 
 32 H       -2.1610    -1.9790    -1.5510 H     1 <1>   0.0800 
 33 H       -5.3170    -0.5340    -0.2870 H     1 <1>   0.0800 
 34 H       -3.6080    -0.5160    -0.0080 H     1 <1>   0.0800 
 35 H       -3.6140     1.3340     1.7930 H     1 <1>   0.0800 
 36 H       -2.4460     1.8120     3.0090 H     1 <1>   0.0800 
 37 H       -2.9390     0.1420     2.8740 H     1 <1>   0.0800 
 38 H        0.9390    -0.6920     0.4240 H     1 <1>   0.2700 
 39 H        0.0460     1.9740    -2.1910 H     1 <1>   0.0800 
 40 H        0.5280     0.2990    -2.2610 H     1 <1>   0.0800 
 41 H        1.5250     1.4670    -1.4200 H     1 <1>   0.0800 
 42 H       -2.5900    -2.2450     1.2590 H     1 <1>   0.1500 
 43 H       -6.3920    -3.0050    -0.4950 H     1 <1>   0.1500 
 44 H       -2.7640    -4.4000     2.3630 H     1 <1>   0.1500 
 45 H       -6.4110    -5.1340     0.6810 H     1 <1>   0.1500 
@<TRIPOS>BOND
  1   1   2  2   
  2   2   3  am  
  3   2   4  1   
  4   3   5  1   
  5   3  24  1   
  6   4   6  1   
  7   4  25  1   
  8   4  26  1   
  9   5   7  1   
 10   5   8  1   
 11   5  27  1   
 12   6   9  1   
 13   6  10  2   
 14   7  11  1   
 15   7  12  1   
 16   7  28  1   
 17   8  13  1   
 18   8  29  1   
 19   8  30  1   
 20   9  14  2   
 21   9  15  1   
 22  10  16  1   
 23  10  17  1   
 24  11  13  1   
 25  11  31  1   
 26  11  32  1   
 27  12  18  1   
 28  12  33  1   
 29  12  34  1   
 30  14  16  1   
 31  15  35  1   
 32  15  36  1   
 33  15  37  1   
 34  16  38  1   
 35  17  39  1   
 36  17  40  1   
 37  17  41  1   
 38  18  19  ar  
 39  18  20  ar  
 40  19  21  ar  
 41  19  42  1   
 42  20  22  ar  
 43  20  43  1   
 44  21  23  ar  
 45  21  44  1   
 46  22  23  ar  
 47  22  45  1   
@<TRIPOS>SUBSTRUCTURE
  1 ****  12 GROUP 4 **** **** 0

# MOE 2024.06 (io_trps.svl 2023.06)
