@<TRIPOS>MOLECULE
NONAME
47 49 1 0 0 
SMALL
USER_CHARGES


@<TRIPOS>ATOM
  1 S        0.6870    -0.9660     2.7730 S.o2  1 <1>   1.4470 
  2 O        1.7180    -1.9660     2.9410 O.2   1 <1>  -0.6500 
  3 O        0.2060    -0.2230     3.9110 O.2   1 <1>  -0.6500 
  4 N       -0.6590    -1.7780     2.1940 N.am  1 <1>  -0.9140 
  5 C        1.0810     0.1400     1.3920 C.ar  1 <1>  -0.0090 
  6 C       -0.3560    -2.8540     1.2600 C.3   1 <1>   0.2760 
  7 C        0.1010     0.9470     0.8290 C.ar  1 <1>  -0.1500 
  8 C        2.3590     0.1950     0.8490 C.ar  1 <1>  -0.1500 
  9 C       -1.5640    -3.1260     0.3750 C.3   1 <1>  -0.0800 
 10 C       -0.2620    -4.1820     2.0070 C.3   1 <1>   0.1200 
 11 C        0.3660     1.7730    -0.2510 C.ar  1 <1>  -0.1430 
 12 C        2.6460     1.0160    -0.2270 C.ar  1 <1>  -0.1500 
 13 C       -2.4180    -4.0620     1.2390 C.3   1 <1>   0.1200 
 14 C       -2.3050    -1.8760    -0.1370 C.3   1 <1>  -0.0170 
 15 O       -1.5840    -4.5490     2.2520 O.3   1 <1>  -0.5600 
 16 C        1.6490     1.8090    -0.7890 C.ar  1 <1>   0.0830 
 17 C       -0.7450     2.6320    -0.8380 C.3   1 <1>  -0.0970 
 18 C       -3.4060    -2.2590    -1.1120 C.ar  1 <1>  -0.1430 
 19 O        1.8670     2.6280    -1.8500 O.3   1 <1>  -0.3630 
 20 C       -3.1430    -2.4850    -2.4470 C.ar  1 <1>  -0.1500 
 21 C       -4.7200    -2.3980    -0.7140 C.ar  1 <1>  -0.1500 
 22 C        3.1490     2.7930    -2.4140 C.3   1 <1>   0.0400 
 23 C       -4.1790    -2.8360    -3.2970 C.ar  1 <1>   0.1600 
 24 C       -5.6810    -2.7540    -1.6450 C.ar  1 <1>   0.1600 
 25 N       -5.4410    -2.9770    -2.9270 N.ar  1 <1>  -0.6200 
 26 H       -1.0740    -2.2220     3.0140 H     1 <1>   0.4200 
 27 H        0.5250    -2.6380     0.6770 H     1 <1>   0.0800 
 28 H       -0.8900     0.9210     1.2500 H     1 <1>   0.1500 
 29 H        3.1400    -0.4150     1.2720 H     1 <1>   0.1500 
 30 H       -1.2290    -3.6920    -0.4760 H     1 <1>   0.0800 
 31 H        0.2760    -4.1140     2.9370 H     1 <1>   0.0800 
 32 H        0.1830    -4.9390     1.3860 H     1 <1>   0.0800 
 33 H        3.6470     1.0240    -0.6140 H     1 <1>   0.1500 
 34 H       -2.8040    -4.8910     0.6710 H     1 <1>   0.0800 
 35 H       -3.2290    -3.5360     1.7130 H     1 <1>   0.0800 
 36 H       -1.6070    -1.2230    -0.6320 H     1 <1>   0.0800 
 37 H       -2.7330    -1.3280     0.6840 H     1 <1>   0.0800 
 38 H       -1.6710     2.4870    -0.3130 H     1 <1>   0.0800 
 39 H       -0.8930     2.3790    -1.8730 H     1 <1>   0.0800 
 40 H       -0.4730     3.6700    -0.7740 H     1 <1>   0.0800 
 41 H       -2.1460    -2.3920    -2.8360 H     1 <1>   0.1500 
 42 H       -5.0070    -2.2340     0.3080 H     1 <1>   0.1500 
 43 H        3.0710     3.5080    -3.2130 H     1 <1>   0.0800 
 44 H        3.4850     1.8470    -2.8010 H     1 <1>   0.0800 
 45 H        3.8180     3.1610    -1.6570 H     1 <1>   0.0800 
 46 H       -3.9580    -3.0080    -4.3370 H     1 <1>   0.1500 
 47 H       -6.7020    -2.8590    -1.3200 H     1 <1>   0.1500 
@<TRIPOS>BOND
  1   1   2  2   
  2   1   3  2   
  3   1   4  am  
  4   1   5  1   
  5   4   6  1   
  6   4  26  1   
  7   5   7  ar  
  8   5   8  ar  
  9   6   9  1   
 10   6  10  1   
 11   6  27  1   
 12   7  11  ar  
 13   7  28  1   
 14   8  12  ar  
 15   8  29  1   
 16   9  13  1   
 17   9  14  1   
 18   9  30  1   
 19  10  15  1   
 20  10  31  1   
 21  10  32  1   
 22  11  16  ar  
 23  11  17  1   
 24  12  16  ar  
 25  12  33  1   
 26  13  15  1   
 27  13  34  1   
 28  13  35  1   
 29  14  18  1   
 30  14  36  1   
 31  14  37  1   
 32  16  19  1   
 33  17  38  1   
 34  17  39  1   
 35  17  40  1   
 36  18  20  ar  
 37  18  21  ar  
 38  19  22  1   
 39  20  23  ar  
 40  20  41  1   
 41  21  24  ar  
 42  21  42  1   
 43  22  43  1   
 44  22  44  1   
 45  22  45  1   
 46  23  25  ar  
 47  23  46  1   
 48  24  25  ar  
 49  24  47  1   
@<TRIPOS>SUBSTRUCTURE
  1 ****  14 GROUP 4 **** **** 0

# MOE 2024.06 (io_trps.svl 2023.06)
