@<TRIPOS>MOLECULE
NONAME
54 56 1 0 0 
SMALL
USER_CHARGES


@<TRIPOS>ATOM
  1 O       -0.6990     0.1790     1.6700 O.2   1 <1>  -0.5700 
  2 C       -1.4710     1.0470     1.3070 C.2   1 <1>   0.5440 
  3 N       -2.8040     0.7270     1.1110 N.am  1 <1>  -0.6600 
  4 C       -0.9760     2.3950     1.0950 C.ar  1 <1>   0.0860 
  5 C       -3.7640     1.7040     0.5160 C.3   1 <1>   0.2200 
  6 C       -3.2980    -0.6370     1.4760 C.3   1 <1>   0.0600 
  7 C       -0.3570     2.7930    -0.0990 C.ar  1 <1>  -0.1440 
  8 C       -1.1420     3.3370     2.1060 C.ar  1 <1>  -0.1500 
  9 C       -4.7490     2.2520     1.5450 C.3   1 <1>  -0.1600 
 10 C       -4.6440     1.1300    -0.5960 C.3   1 <1>  -0.1600 
 11 C        0.0650     4.1110    -0.2630 C.ar  1 <1>  -0.1440 
 12 C       -0.1640     1.7350    -1.1880 C.3   1 <1>  -0.0970 
 13 C       -0.7250     4.6410     1.9450 C.ar  1 <1>  -0.1500 
 14 C       -5.9260     2.7750     0.7110 C.3   1 <1>  -0.0800 
 15 C       -5.8500     2.0780    -0.6530 C.3   1 <1>  -0.0800 
 16 C       -0.1250     5.0250     0.7620 C.ar  1 <1>  -0.1500 
 17 C        0.7430     4.6020    -1.5360 C.3   1 <1>  -0.0970 
 18 C       -7.3210     2.4540     1.2680 C.3   1 <1>  -0.1600 
 19 C       -7.2130     1.3980    -0.8540 C.3   1 <1>  -0.1600 
 20 C       -8.1930     2.1650     0.0410 C.3   1 <1>   0.4230 
 21 N       -8.6330     3.4380    -0.6170 N.4   1 <1>  -0.9590 
 22 C       -9.4780     4.2930     0.2790 C.3   1 <1>   0.2630 
 23 C       -9.3880     3.2010    -1.8900 C.3   1 <1>   0.2630 
 24 H       -3.2310     2.5380     0.0930 H     1 <1>   0.0800 
 25 H       -4.3190    -0.6000     1.8090 H     1 <1>   0.0800 
 26 H       -2.7010    -1.0510     2.2710 H     1 <1>   0.0800 
 27 H       -3.2240    -1.2860     0.6210 H     1 <1>   0.0800 
 28 H       -1.6040     3.0320     3.0290 H     1 <1>   0.1500 
 29 H       -5.0650     1.4660     2.2050 H     1 <1>   0.0800 
 30 H       -4.2980     3.0380     2.1250 H     1 <1>   0.0800 
 31 H       -4.1140     1.1070    -1.5320 H     1 <1>   0.0800 
 32 H       -4.9670     0.1360    -0.3500 H     1 <1>   0.0800 
 33 H        0.2900     2.1210    -2.0790 H     1 <1>   0.0800 
 34 H       -1.1130     1.3090    -1.4590 H     1 <1>   0.0800 
 35 H        0.4660     0.9460    -0.8130 H     1 <1>   0.0800 
 36 H       -0.8610     5.3570     2.7380 H     1 <1>   0.1500 
 37 H       -5.8170     3.8380     0.5650 H     1 <1>   0.0800 
 38 H       -5.6850     2.8220    -1.4150 H     1 <1>   0.0800 
 39 H        0.1980     6.0450     0.6490 H     1 <1>   0.1500 
 40 H        1.0020     5.6420    -1.4630 H     1 <1>   0.0800 
 41 H        0.0840     4.4780    -2.3760 H     1 <1>   0.0800 
 42 H        1.6460     4.0450    -1.7080 H     1 <1>   0.0800 
 43 H       -7.6890     3.2230     1.9190 H     1 <1>   0.0800 
 44 H       -7.2740     1.5450     1.8430 H     1 <1>   0.0800 
 45 H       -7.1700     0.3900    -0.4820 H     1 <1>   0.0800 
 46 H       -7.4920     1.3410    -1.8890 H     1 <1>   0.0800 
 47 H       -9.0480     1.5600     0.2990 H     1 <1>   0.0800 
 48 H       -7.7700     3.9550    -0.8410 H     1 <1>   0.4500 
 49 H      -10.3460     3.7460     0.6100 H     1 <1>   0.0800 
 50 H       -9.8080     5.1740    -0.2480 H     1 <1>   0.0800 
 51 H       -8.9200     4.6120     1.1430 H     1 <1>   0.0800 
 52 H      -10.2510     2.5820    -1.7040 H     1 <1>   0.0800 
 53 H       -8.7650     2.7130    -2.6200 H     1 <1>   0.0800 
 54 H       -9.7200     4.1380    -2.3070 H     1 <1>   0.0800 
@<TRIPOS>BOND
  1   1   2  2   
  2   2   3  am  
  3   2   4  1   
  4   3   5  1   
  5   3   6  1   
  6   4   7  ar  
  7   4   8  ar  
  8   5   9  1   
  9   5  10  1   
 10   5  24  1   
 11   6  25  1   
 12   6  26  1   
 13   6  27  1   
 14   7  11  ar  
 15   7  12  1   
 16   8  13  ar  
 17   8  28  1   
 18   9  14  1   
 19   9  29  1   
 20   9  30  1   
 21  10  15  1   
 22  10  31  1   
 23  10  32  1   
 24  11  16  ar  
 25  11  17  1   
 26  12  33  1   
 27  12  34  1   
 28  12  35  1   
 29  13  16  ar  
 30  13  36  1   
 31  14  15  1   
 32  14  18  1   
 33  14  37  1   
 34  15  19  1   
 35  15  38  1   
 36  16  39  1   
 37  17  40  1   
 38  17  41  1   
 39  17  42  1   
 40  18  20  1   
 41  18  43  1   
 42  18  44  1   
 43  19  20  1   
 44  19  45  1   
 45  19  46  1   
 46  20  21  1   
 47  20  47  1   
 48  21  22  1   
 49  21  23  1   
 50  21  48  1   
 51  22  49  1   
 52  22  50  1   
 53  22  51  1   
 54  23  52  1   
 55  23  53  1   
 56  23  54  1   
@<TRIPOS>SUBSTRUCTURE
  1 ****   5 GROUP 4 **** **** 0

# MOE 2024.06 (io_trps.svl 2023.06)
