@<TRIPOS>MOLECULE
NONAME
50 52 1 0 0 
SMALL
USER_CHARGES


@<TRIPOS>ATOM
  1 S       -0.0700    -0.3540    -0.6060 S.o2  1 <1>   1.4470 
  2 O        0.8750    -1.4310    -0.7700 O.2   1 <1>  -0.6500 
  3 O        0.3590     0.8930    -0.0230 O.2   1 <1>  -0.6500 
  4 N       -0.3730     0.0520    -2.1810 N.am  1 <1>  -0.9780 
  5 C       -1.6680    -0.9500     0.0440 C.ar  1 <1>  -0.0090 
  6 C       -2.7590    -0.1160     0.3250 C.ar  1 <1>  -0.1430 
  7 C       -1.8130    -2.3130     0.2630 C.ar  1 <1>  -0.1500 
  8 C       -3.9390    -0.6590     0.8360 C.ar  1 <1>  -0.1430 
  9 C       -2.6400     1.3910     0.0820 C.3   1 <1>  -0.0970 
 10 C       -2.9840    -2.8810     0.7450 C.ar  1 <1>   0.0860 
 11 C       -4.0350    -2.0240     1.0380 C.ar  1 <1>  -0.1500 
 12 C       -5.1510     0.1920     1.1970 C.3   1 <1>  -0.0970 
 13 C       -3.0930    -4.3130     0.9340 C.2   1 <1>   0.5440 
 14 O       -2.3770    -4.8750     1.7390 O.2   1 <1>  -0.5700 
 15 N       -3.9860    -5.0660     0.2110 N.am  1 <1>  -0.6600 
 16 C       -4.8390    -4.5890    -0.9080 C.3   1 <1>   0.1400 
 17 C       -4.1130    -6.5370     0.3620 C.3   1 <1>   0.1400 
 18 C       -5.8750    -5.6970    -1.0760 C.3   1 <1>   0.2000 
 19 C       -5.0960    -6.9720    -0.7310 C.3   1 <1>  -0.0800 
 20 O       -6.8700    -5.4930    -0.1310 O.3   1 <1>  -0.6800 
 21 C       -5.9590    -8.1880    -0.3460 C.3   1 <1>  -0.0170 
 22 C       -5.0940    -9.4190    -0.1220 C.ar  1 <1>  -0.1430 
 23 C       -4.6730    -9.8020     1.1360 C.ar  1 <1>  -0.1500 
 24 C       -4.6830   -10.2170    -1.1710 C.ar  1 <1>  -0.1500 
 25 C       -3.8810   -10.9290     1.2790 C.ar  1 <1>   0.1600 
 26 C       -3.8910   -11.3250    -0.9180 C.ar  1 <1>   0.1600 
 27 N       -3.4790   -11.7000     0.2820 N.ar  1 <1>  -0.6200 
 28 H        0.1170    -0.6720    -2.7000 H     1 <1>   0.4200 
 29 H        0.1740     0.9000    -2.3060 H     1 <1>   0.4200 
 30 H       -0.9880    -2.9750     0.0570 H     1 <1>   0.1500 
 31 H       -3.5860     1.8950     0.0970 H     1 <1>   0.0800 
 32 H       -2.2070     1.5880    -0.8810 H     1 <1>   0.0800 
 33 H       -2.0160     1.8340     0.8380 H     1 <1>   0.0800 
 34 H       -4.9390    -2.4490     1.4360 H     1 <1>   0.1500 
 35 H       -5.9160    -0.3970     1.6700 H     1 <1>   0.0800 
 36 H       -5.5700     0.6340     0.3110 H     1 <1>   0.0800 
 37 H       -4.8660     0.9710     1.8810 H     1 <1>   0.0800 
 38 H       -5.3050    -3.6420    -0.7000 H     1 <1>   0.0800 
 39 H       -4.2370    -4.5090    -1.7960 H     1 <1>   0.0800 
 40 H       -3.1550    -7.0160     0.2460 H     1 <1>   0.0800 
 41 H       -4.4990    -6.7530     1.3440 H     1 <1>   0.0800 
 42 H       -6.3260    -5.7160    -2.0530 H     1 <1>   0.0800 
 43 H       -4.5120    -7.2370    -1.5950 H     1 <1>   0.0800 
 44 H       -6.4430    -5.3560     0.7390 H     1 <1>   0.4000 
 45 H       -6.6660    -8.3880    -1.1320 H     1 <1>   0.0800 
 46 H       -6.5230    -7.9810     0.5470 H     1 <1>   0.0800 
 47 H       -4.9520    -9.2370     2.0060 H     1 <1>   0.1500 
 48 H       -4.9710    -9.9890    -2.1800 H     1 <1>   0.1500 
 49 H       -3.5610   -11.2110     2.2680 H     1 <1>   0.1500 
 50 H       -3.5800   -11.9360    -1.7480 H     1 <1>   0.1500 
@<TRIPOS>BOND
  1   1   2  2   
  2   1   3  2   
  3   1   4  am  
  4   1   5  1   
  5   4  28  1   
  6   4  29  1   
  7   5   6  ar  
  8   5   7  ar  
  9   6   8  ar  
 10   6   9  1   
 11   7  10  ar  
 12   7  30  1   
 13   8  11  ar  
 14   8  12  1   
 15   9  31  1   
 16   9  32  1   
 17   9  33  1   
 18  10  11  ar  
 19  10  13  1   
 20  11  34  1   
 21  12  35  1   
 22  12  36  1   
 23  12  37  1   
 24  13  14  2   
 25  13  15  am  
 26  15  16  1   
 27  15  17  1   
 28  16  18  1   
 29  16  38  1   
 30  16  39  1   
 31  17  19  1   
 32  17  40  1   
 33  17  41  1   
 34  18  19  1   
 35  18  20  1   
 36  18  42  1   
 37  19  21  1   
 38  19  43  1   
 39  20  44  1   
 40  21  22  1   
 41  21  45  1   
 42  21  46  1   
 43  22  23  ar  
 44  22  24  ar  
 45  23  25  ar  
 46  23  47  1   
 47  24  26  ar  
 48  24  48  1   
 49  25  27  ar  
 50  25  49  1   
 51  26  27  ar  
 52  26  50  1   
@<TRIPOS>SUBSTRUCTURE
  1 ****  15 GROUP 4 **** **** 0

# MOE 2024.06 (io_trps.svl 2023.06)
