@<TRIPOS>MOLECULE
NONAME
53 56 1 0 0 
SMALL
USER_CHARGES


@<TRIPOS>ATOM
  1 O        5.8010     0.6110     2.3920 O.2   1 <1>  -0.5700 
  2 C        5.1440     1.2360     1.5670 C.2   1 <1>   0.4690 
  3 C        5.5810     1.4090     0.2110 C.ar  1 <1>   0.0860 
  4 C        3.9160     1.8180     1.9460 C.2   1 <1>  -0.1360 
  5 C        4.7900     2.1660    -0.6780 C.ar  1 <1>   0.1000 
  6 C        6.7820     0.8490    -0.2410 C.ar  1 <1>  -0.1500 
  7 C        3.1520     2.5290     1.0820 C.2   1 <1>  -0.0380 
  8 N        3.5600     2.7100    -0.2330 N.pl3 1 <1>  -0.5690 
  9 C        5.2770     2.3550    -1.9810 C.ar  1 <1>  -0.1500 
 10 C        7.2220     1.0350    -1.5300 C.ar  1 <1>  -0.1500 
 11 C        1.8470     3.1400     1.5770 C.3   1 <1>  -0.1020 
 12 C        2.7730     3.6250    -1.1600 C.3   1 <1>   0.2700 
 13 C        6.4650     1.7990    -2.4020 C.ar  1 <1>  -0.1500 
 14 C        3.3450     5.0420    -1.2020 C.2   1 <1>   0.5690 
 15 O        3.0040     5.7820    -2.0970 O.2   1 <1>  -0.5700 
 16 N        4.2260     5.3710    -0.2220 N.am  1 <1>  -0.4930 
 17 C        5.1580     6.4190    -0.0590 C.2   1 <1>   0.0630 
 18 C        6.3960     6.1780     0.5410 C.2   1 <1>   0.3720 
 19 C        5.1610     7.7350    -0.3570 C.2   1 <1>  -0.3320 
 20 N        7.1330     7.2410     0.6120 N.2   1 <1>  -0.7070 
 21 N        6.7860     4.9060     0.9980 N.pl3 1 <1>  -0.8210 
 22 N        6.3690     8.2060     0.0480 N.pl3 1 <1>   0.3140 
 23 C        4.0780     8.5900    -0.9990 C.3   1 <1>  -0.0600 
 24 C        7.9590     4.3730     0.2560 C.3   1 <1>   0.2090 
 25 C        7.1020     4.8670     2.4450 C.3   1 <1>   0.2090 
 26 C        6.8680     9.5820    -0.0720 C.3   1 <1>   0.0160 
 27 C        8.9730     3.9240     1.3020 C.3   1 <1>  -0.1600 
 28 C        8.1710     3.7970     2.5870 C.3   1 <1>  -0.1600 
 29 H        3.6290     1.6630     2.9680 H     1 <1>   0.1500 
 30 H        7.3700     0.2620     0.4450 H     1 <1>   0.1500 
 31 H        4.7410     2.9460    -2.6970 H     1 <1>   0.1500 
 32 H        8.1470     0.5960    -1.8620 H     1 <1>   0.1500 
 33 H        1.8620     4.2080     1.4590 H     1 <1>   0.0800 
 34 H        1.6980     2.9260     2.6200 H     1 <1>   0.0800 
 35 H        1.0140     2.7280     1.0350 H     1 <1>   0.0800 
 36 H        1.7470     3.6890    -0.8590 H     1 <1>   0.0800 
 37 H        2.7590     3.2180    -2.1530 H     1 <1>   0.0800 
 38 H        6.8110     1.9570    -3.4090 H     1 <1>   0.1500 
 39 H        4.5170     4.5590     0.3390 H     1 <1>   0.3700 
 40 H        3.1420     8.0640    -1.0050 H     1 <1>   0.0800 
 41 H        4.3460     8.8220    -2.0140 H     1 <1>   0.0800 
 42 H        3.9420     9.5030    -0.4490 H     1 <1>   0.0800 
 43 H        8.3860     5.1160    -0.3970 H     1 <1>   0.0800 
 44 H        7.6380     3.5360    -0.3360 H     1 <1>   0.0800 
 45 H        6.2230     4.6220     3.0170 H     1 <1>   0.0800 
 46 H        7.4860     5.8210     2.7680 H     1 <1>   0.0800 
 47 H        6.7610     9.9080    -1.0890 H     1 <1>   0.0800 
 48 H        7.9050     9.6050     0.2070 H     1 <1>   0.0800 
 49 H        6.3030    10.2180     0.5820 H     1 <1>   0.0800 
 50 H        9.7190     4.6910     1.4090 H     1 <1>   0.0800 
 51 H        9.4510     3.0020     1.0230 H     1 <1>   0.0800 
 52 H        7.6970     2.8320     2.6350 H     1 <1>   0.0800 
 53 H        8.7720     3.9450     3.4660 H     1 <1>   0.0800 
@<TRIPOS>BOND
  1   1   2  2   
  2   2   3  1   
  3   2   4  1   
  4   3   5  ar  
  5   3   6  ar  
  6   4   7  2   
  7   4  29  1   
  8   5   8  1   
  9   5   9  ar  
 10   6  10  ar  
 11   6  30  1   
 12   7   8  1   
 13   7  11  1   
 14   8  12  1   
 15   9  13  ar  
 16   9  31  1   
 17  10  13  ar  
 18  10  32  1   
 19  11  33  1   
 20  11  34  1   
 21  11  35  1   
 22  12  14  1   
 23  12  36  1   
 24  12  37  1   
 25  13  38  1   
 26  14  15  2   
 27  14  16  am  
 28  16  17  1   
 29  16  39  1   
 30  17  18  1   
 31  17  19  2   
 32  18  20  2   
 33  18  21  1   
 34  19  22  1   
 35  19  23  1   
 36  20  22  1   
 37  21  24  1   
 38  21  25  1   
 39  22  26  1   
 40  23  40  1   
 41  23  41  1   
 42  23  42  1   
 43  24  27  1   
 44  24  43  1   
 45  24  44  1   
 46  25  28  1   
 47  25  45  1   
 48  25  46  1   
 49  26  47  1   
 50  26  48  1   
 51  26  49  1   
 52  27  28  1   
 53  27  50  1   
 54  27  51  1   
 55  28  52  1   
 56  28  53  1   
@<TRIPOS>SUBSTRUCTURE
  1 ****  21 GROUP 4 **** **** 0

# MOE 2024.06 (io_trps.svl 2023.06)
