@<TRIPOS>MOLECULE
NONAME
57 61 1 0 0 
SMALL
USER_CHARGES


@<TRIPOS>ATOM
  1 O       -0.5590     0.5120     0.6330 O.2   1 <1>  -0.5700 
  2 C       -1.6130     1.1090     0.5020 C.2   1 <1>   0.7150 
  3 N       -2.7740     0.4990     0.9230 N.am  1 <1>  -0.6600 
  4 C       -1.6280     2.4140    -0.0960 C.2   1 <1>  -0.2370 
  5 C       -4.1050     0.7550     0.3100 C.3   1 <1>   0.1400 
  6 C       -2.7600    -0.6340     1.8890 C.3   1 <1>   0.1400 
  7 N       -0.7980     2.8130    -1.0940 N.pl3 1 <1>   0.3140 
  8 C       -2.4090     3.4990     0.1680 C.2   1 <1>  -0.1500 
  9 C       -4.5700    -0.5080    -0.4170 C.3   1 <1>  -0.1600 
 10 C       -3.2130    -1.9090     1.1780 C.3   1 <1>  -0.1600 
 11 N       -1.0380     4.0740    -1.4810 N.2   1 <1>  -0.7070 
 12 C        0.2650     2.0290    -1.7430 C.3   1 <1>   0.0160 
 13 C       -2.0040     4.4830    -0.7150 C.2   1 <1>   0.1080 
 14 C       -4.5810    -1.7270     0.5150 C.3   1 <1>   0.4600 
 15 C       -2.5880     5.8870    -0.8100 C.3   1 <1>   0.1010 
 16 O       -5.5020    -1.5000     1.5600 O.3   1 <1>  -0.5600 
 17 C       -4.9750    -2.9910    -0.2390 C.2   1 <1>  -0.3320 
 18 C       -2.3550     6.6640     0.4910 C.3   1 <1>  -0.2400 
 19 C       -4.0830     5.8380    -1.1500 C.3   1 <1>  -0.2400 
 20 C       -6.8670    -1.7390     1.3070 C.3   1 <1>   0.1200 
 21 N       -4.2510    -3.6130    -1.2180 N.pl3 1 <1>   0.0330 
 22 C       -6.1160    -3.6760    -0.0290 C.2   1 <1>  -0.1810 
 23 C       -7.1250    -3.2230     0.9970 C.3   1 <1>   0.0210 
 24 C       -4.9550    -4.7190    -1.6300 C.ar  1 <1>  -0.1520 
 25 C       -6.1360    -4.7880    -0.8960 C.ar  1 <1>   0.0000 
 26 C       -4.6550    -5.6830    -2.5960 C.ar  1 <1>  -0.1500 
 27 C       -7.0340    -5.8340    -1.1260 C.ar  1 <1>  -0.1500 
 28 C       -5.5490    -6.7070    -2.8130 C.ar  1 <1>  -0.1500 
 29 C       -6.7380    -6.7830    -2.0780 C.ar  1 <1>  -0.1500 
 30 H       -4.0590     1.5660    -0.3940 H     1 <1>   0.0800 
 31 H       -4.8070     1.0160     1.0850 H     1 <1>   0.0800 
 32 H       -3.4290    -0.4110     2.7030 H     1 <1>   0.0800 
 33 H       -1.7730    -0.7730     2.2990 H     1 <1>   0.0800 
 34 H       -3.1820     3.5910     0.9090 H     1 <1>   0.1500 
 35 H       -3.8980    -0.6950    -1.2340 H     1 <1>   0.0800 
 36 H       -5.5440    -0.3560    -0.8380 H     1 <1>   0.0800 
 37 H       -3.2660    -2.7210     1.8790 H     1 <1>   0.0800 
 38 H       -2.4770    -2.1640     0.4390 H     1 <1>   0.0800 
 39 H       -0.1370     1.0910    -2.0740 H     1 <1>   0.0800 
 40 H        1.0540     1.8580    -1.0350 H     1 <1>   0.0800 
 41 H        0.6470     2.5780    -2.5830 H     1 <1>   0.0800 
 42 H       -2.0770     6.4020    -1.6060 H     1 <1>   0.0800 
 43 H       -2.8630     6.1910     1.3120 H     1 <1>   0.0800 
 44 H       -2.7120     7.6730     0.3930 H     1 <1>   0.0800 
 45 H       -1.3020     6.6920     0.7100 H     1 <1>   0.0800 
 46 H       -4.6350     5.3500    -0.3680 H     1 <1>   0.0800 
 47 H       -4.2260     5.2930    -2.0660 H     1 <1>   0.0800 
 48 H       -4.4680     6.8330    -1.2800 H     1 <1>   0.0800 
 49 H       -7.1750    -1.1270     0.4790 H     1 <1>   0.0800 
 50 H       -7.4200    -1.4420     2.1810 H     1 <1>   0.0800 
 51 H       -3.3350    -3.3300    -1.5800 H     1 <1>   0.2700 
 52 H       -8.1220    -3.3470     0.6170 H     1 <1>   0.0800 
 53 H       -7.0200    -3.8100     1.8920 H     1 <1>   0.0800 
 54 H       -3.7400    -5.6190    -3.1550 H     1 <1>   0.1500 
 55 H       -7.9420    -5.8800    -0.5540 H     1 <1>   0.1500 
 56 H       -5.3410    -7.4620    -3.5510 H     1 <1>   0.1500 
 57 H       -7.4190    -7.5940    -2.2660 H     1 <1>   0.1500 
@<TRIPOS>BOND
  1   1   2  2   
  2   2   3  am  
  3   2   4  1   
  4   3   5  1   
  5   3   6  1   
  6   4   7  1   
  7   4   8  2   
  8   5   9  1   
  9   5  30  1   
 10   5  31  1   
 11   6  10  1   
 12   6  32  1   
 13   6  33  1   
 14   7  11  1   
 15   7  12  1   
 16   8  13  1   
 17   8  34  1   
 18   9  14  1   
 19   9  35  1   
 20   9  36  1   
 21  10  14  1   
 22  10  37  1   
 23  10  38  1   
 24  11  13  2   
 25  12  39  1   
 26  12  40  1   
 27  12  41  1   
 28  13  15  1   
 29  14  16  1   
 30  14  17  1   
 31  15  18  1   
 32  15  19  1   
 33  15  42  1   
 34  16  20  1   
 35  17  21  1   
 36  17  22  2   
 37  18  43  1   
 38  18  44  1   
 39  18  45  1   
 40  19  46  1   
 41  19  47  1   
 42  19  48  1   
 43  20  23  1   
 44  20  49  1   
 45  20  50  1   
 46  21  24  1   
 47  21  51  1   
 48  22  23  1   
 49  22  25  1   
 50  23  52  1   
 51  23  53  1   
 52  24  25  ar  
 53  24  26  ar  
 54  25  27  ar  
 55  26  28  ar  
 56  26  54  1   
 57  27  29  ar  
 58  27  55  1   
 59  28  29  ar  
 60  28  56  1   
 61  29  57  1   
@<TRIPOS>SUBSTRUCTURE
  1 ****   9 GROUP 4 **** **** 0

# MOE 2024.06 (io_trps.svl 2023.06)
