@<TRIPOS>MOLECULE
NONAME
44 46 1 0 0 
SMALL
USER_CHARGES


@<TRIPOS>ATOM
  1 O       -1.1310     1.0110     2.7230 O.3   1 <1>  -0.5600 
  2 C        0.0210     0.9610     1.9360 C.3   1 <1>   0.1200 
  3 C       -2.2140     1.5070     1.9910 C.3   1 <1>   0.1200 
  4 C       -0.1940     1.9750     0.8180 C.3   1 <1>   0.2890 
  5 C       -1.6930     1.8580     0.5900 C.3   1 <1>  -0.0800 
  6 N        0.1140     3.3360     1.3320 N.pl3 1 <1>  -0.8690 
  7 C       -2.0280     0.7660    -0.4450 C.3   1 <1>  -0.0170 
  8 C        0.9470     4.2470     0.7980 C.ar  1 <1>   0.4100 
  9 C       -3.5300     0.6240    -0.6500 C.ar  1 <1>  -0.1430 
 10 N        1.5450     3.9690    -0.3430 N.ar  1 <1>  -0.6200 
 11 C        1.1580     5.4610     1.4750 C.ar  1 <1>  -0.1500 
 12 C       -4.2620     1.5620    -1.3490 C.ar  1 <1>  -0.1500 
 13 C       -4.2380    -0.4510    -0.1500 C.ar  1 <1>  -0.1500 
 14 C        2.3640     4.8790    -0.8320 C.ar  1 <1>   0.7710 
 15 C        2.0040     6.3780     0.9450 C.ar  1 <1>   0.2180 
 16 C       -5.6280     1.3890    -1.5050 C.ar  1 <1>   0.1600 
 17 C       -5.6040    -0.5290    -0.3620 C.ar  1 <1>   0.1600 
 18 N        2.6020     6.0560    -0.2270 N.ar  1 <1>  -0.1790 
 19 N        2.9650     4.5750    -1.9880 N.pl3 1 <1>  -0.8690 
 20 C        2.3070     7.7210     1.5870 C.3   1 <1>  -0.0970 
 21 N       -6.3170     0.3660    -1.0270 N.ar  1 <1>  -0.6200 
 22 C        3.9360     5.3010    -2.8550 C.3   1 <1>   0.1290 
 23 H        0.8830     1.1860     2.5390 H     1 <1>   0.0800 
 24 H        0.1040    -0.0350     1.5400 H     1 <1>   0.0800 
 25 H       -2.9930     0.7660     1.9800 H     1 <1>   0.0800 
 26 H       -2.5710     2.3870     2.4970 H     1 <1>   0.0800 
 27 H        0.3890     1.7440    -0.0570 H     1 <1>   0.0800 
 28 H       -2.1070     2.7920     0.2510 H     1 <1>   0.0800 
 29 H       -0.3160     3.4870     2.2500 H     1 <1>   0.4000 
 30 H       -1.6210    -0.1800    -0.1340 H     1 <1>   0.0800 
 31 H       -1.5760     1.0180    -1.3890 H     1 <1>   0.0800 
 32 H        0.6380     5.6270     2.4010 H     1 <1>   0.1500 
 33 H       -3.7870     2.4260    -1.7750 H     1 <1>   0.1500 
 34 H       -3.7440    -1.2280     0.4030 H     1 <1>   0.1500 
 35 H       -6.1830     2.1310    -2.0530 H     1 <1>   0.1500 
 36 H       -6.1400    -1.3740     0.0360 H     1 <1>   0.1500 
 37 H        3.2500     6.6740    -0.6980 H     1 <1>   0.4570 
 38 H        2.7040     3.6470    -2.3470 H     1 <1>   0.4000 
 39 H        1.7590     7.8290     2.5070 H     1 <1>   0.0800 
 40 H        2.0220     8.5250     0.9320 H     1 <1>   0.0800 
 41 H        3.3560     7.8030     1.8100 H     1 <1>   0.0800 
 42 H        4.1870     6.2660    -2.4540 H     1 <1>   0.0800 
 43 H        3.5140     5.4350    -3.8380 H     1 <1>   0.0800 
 44 H        4.8400     4.7210    -2.9510 H     1 <1>   0.0800 
@<TRIPOS>BOND
  1   1   2  1   
  2   1   3  1   
  3   2   4  1   
  4   2  23  1   
  5   2  24  1   
  6   3   5  1   
  7   3  25  1   
  8   3  26  1   
  9   4   5  1   
 10   4   6  1   
 11   4  27  1   
 12   5   7  1   
 13   5  28  1   
 14   6   8  1   
 15   6  29  1   
 16   7   9  1   
 17   7  30  1   
 18   7  31  1   
 19   8  10  ar  
 20   8  11  ar  
 21   9  12  ar  
 22   9  13  ar  
 23  10  14  ar  
 24  11  15  ar  
 25  11  32  1   
 26  12  16  ar  
 27  12  33  1   
 28  13  17  ar  
 29  13  34  1   
 30  14  18  ar  
 31  14  19  1   
 32  15  18  ar  
 33  15  20  1   
 34  16  21  ar  
 35  16  35  1   
 36  17  21  ar  
 37  17  36  1   
 38  18  37  1   
 39  19  22  1   
 40  19  38  1   
 41  20  39  1   
 42  20  40  1   
 43  20  41  1   
 44  22  42  1   
 45  22  43  1   
 46  22  44  1   
@<TRIPOS>SUBSTRUCTURE
  1 ****   4 GROUP 4 **** **** 0

# MOE 2024.06 (io_trps.svl 2023.06)
