@<TRIPOS>MOLECULE
NONAME
45 47 1 0 0 
SMALL
USER_CHARGES


@<TRIPOS>ATOM
  1 CL      -0.3550     0.7410     1.1800 Cl    1 <1>  -0.1770 
  2 C        0.0410     2.2340     0.3660 C.ar  1 <1>   0.1770 
  3 C       -0.9350     3.1970     0.1500 C.ar  1 <1>  -0.1440 
  4 C        1.3430     2.4300    -0.0560 C.ar  1 <1>  -0.1500 
  5 C       -0.5770     4.3700    -0.4950 C.ar  1 <1>  -0.1500 
  6 C       -2.3710     2.9760     0.6030 C.3   1 <1>  -0.0960 
  7 C        1.6790     3.6060    -0.7000 C.ar  1 <1>  -0.1500 
  8 C        0.7310     4.6050    -0.9200 C.ar  1 <1>   0.0860 
  9 C        1.0860     5.8570    -1.5580 C.2   1 <1>   0.5440 
 10 O        0.6530     6.0990    -2.6680 O.2   1 <1>  -0.5700 
 11 N        1.8770     6.8080    -0.9390 N.am  1 <1>  -0.6600 
 12 C        2.2480     6.7140     0.5240 C.3   1 <1>   0.2200 
 13 C        2.2610     8.0210    -1.7300 C.3   1 <1>   0.1400 
 14 C        1.7350     7.9190     1.3300 C.3   1 <1>   0.1200 
 15 C        3.7630     6.5070     0.7450 C.3   1 <1>   0.3430 
 16 C        3.2450     8.9890    -1.0520 C.3   1 <1>  -0.0800 
 17 O        2.6370     8.9840     1.2860 O.3   1 <1>  -0.5600 
 18 N        4.6000     6.9280    -0.4270 N.4   1 <1>  -0.9590 
 19 C        2.6100     9.7440     0.1250 C.3   1 <1>   0.1200 
 20 C        4.6190     8.3890    -0.7020 C.3   1 <1>   0.3430 
 21 C        5.9950     6.3250    -0.3150 C.3   1 <1>   0.2370 
 22 C        6.0220     4.7930    -0.2480 C.2   1 <1>   0.9060 
 23 O        5.0350     4.1890    -0.6890 O.co2 1 <1>  -0.9000 
 24 O        6.9710     4.2360     0.2990 O.co2 1 <1>  -0.9000 
 25 H        2.0860     1.6700     0.1120 H     1 <1>   0.1500 
 26 H       -1.3160     5.1300    -0.6850 H     1 <1>   0.1500 
 27 H       -2.9920     3.8160     0.3480 H     1 <1>   0.0800 
 28 H       -2.4040     2.8360     1.6680 H     1 <1>   0.0800 
 29 H       -2.7730     2.0990     0.1260 H     1 <1>   0.0800 
 30 H        2.6910     3.7480    -1.0410 H     1 <1>   0.1500 
 31 H        1.7570     5.8610     0.9540 H     1 <1>   0.0800 
 32 H        2.6910     7.6880    -2.6610 H     1 <1>   0.0800 
 33 H        1.3600     8.5550    -1.9810 H     1 <1>   0.0800 
 34 H        1.6520     7.6370     2.3650 H     1 <1>   0.0800 
 35 H        0.7650     8.2390     0.9900 H     1 <1>   0.0800 
 36 H        3.9180     5.4550     0.9240 H     1 <1>   0.0800 
 37 H        4.0750     7.0330     1.6320 H     1 <1>   0.0800 
 38 H        3.4400     9.7510    -1.7840 H     1 <1>   0.0800 
 39 H        4.1540     6.4220    -1.2150 H     1 <1>   0.4500 
 40 H        1.5940    10.0350    -0.0870 H     1 <1>   0.0800 
 41 H        3.1760    10.6370     0.3290 H     1 <1>   0.0800 
 42 H        5.0250     8.9100     0.1500 H     1 <1>   0.0800 
 43 H        5.2800     8.5640    -1.5350 H     1 <1>   0.0800 
 44 H        6.5830     6.6080    -1.1680 H     1 <1>   0.0800 
 45 H        6.4850     6.6920     0.5680 H     1 <1>   0.0800 
@<TRIPOS>BOND
  1   1   2  1   
  2   2   3  ar  
  3   2   4  ar  
  4   3   5  ar  
  5   3   6  1   
  6   4   7  ar  
  7   4  25  1   
  8   5   8  ar  
  9   5  26  1   
 10   6  27  1   
 11   6  28  1   
 12   6  29  1   
 13   7   8  ar  
 14   7  30  1   
 15   8   9  1   
 16   9  10  2   
 17   9  11  am  
 18  11  12  1   
 19  11  13  1   
 20  12  14  1   
 21  12  15  1   
 22  12  31  1   
 23  13  16  1   
 24  13  32  1   
 25  13  33  1   
 26  14  17  1   
 27  14  34  1   
 28  14  35  1   
 29  15  18  1   
 30  15  36  1   
 31  15  37  1   
 32  16  19  1   
 33  16  20  1   
 34  16  38  1   
 35  17  19  1   
 36  18  20  1   
 37  18  21  1   
 38  18  39  1   
 39  19  40  1   
 40  19  41  1   
 41  20  42  1   
 42  20  43  1   
 43  21  22  1   
 44  21  44  1   
 45  21  45  1   
 46  22  23  ar  
 47  22  24  ar  
@<TRIPOS>SUBSTRUCTURE
  1 ****  12 GROUP 4 **** **** 0

# MOE 2024.06 (io_trps.svl 2023.06)
