@<TRIPOS>MOLECULE
NONAME
50 52 1 0 0 
SMALL
USER_CHARGES


@<TRIPOS>ATOM
  1 O       -1.8730    -1.0930     2.5630 O.2   1 <1>  -0.5700 
  2 C       -2.5420    -0.9270     1.5730 C.2   1 <1>   0.5690 
  3 N       -2.5360     0.1660     0.7770 N.am  1 <1>  -0.6600 
  4 C       -3.5180    -1.9520     1.0670 C.3   1 <1>  -0.0990 
  5 C       -1.6420     1.3370     0.9830 C.3   1 <1>   0.2200 
  6 C       -3.4630     0.0210    -0.3610 C.3   1 <1>   0.1400 
  7 C       -4.3590    -1.1630     0.0410 C.3   1 <1>  -0.0800 
  8 C       -2.4460     2.6310     1.1050 C.3   1 <1>  -0.1600 
  9 C       -0.7300     1.5620    -0.2190 C.3   1 <1>  -0.1600 
 10 C       -5.6640    -0.6350     0.6580 C.3   1 <1>   0.2090 
 11 C       -2.4680     3.2880    -0.2820 C.3   1 <1>  -0.1600 
 12 C       -1.4710     2.5200    -1.1560 C.3   1 <1>  -0.1600 
 13 N       -6.5800    -1.7570     0.9710 N.pl3 1 <1>  -0.8690 
 14 C       -7.2920    -2.3740    -0.0150 C.ar  1 <1>   0.4100 
 15 N       -7.1080    -3.6760    -0.0620 N.ar  1 <1>  -0.6200 
 16 C       -8.1260    -1.6680    -0.8750 C.ar  1 <1>  -0.1500 
 17 C       -7.7690    -4.3520    -1.0190 C.ar  1 <1>   0.3960 
 18 C       -8.8040    -2.3370    -1.8620 C.ar  1 <1>  -0.1500 
 19 C       -7.6180    -5.8070    -1.1440 C.2   1 <1>   0.5440 
 20 C       -8.6080    -3.7000    -1.9250 C.ar  1 <1>  -0.1500 
 21 O       -7.5180    -6.2910    -2.2600 O.2   1 <1>  -0.5700 
 22 N       -7.6160    -6.6780    -0.0600 N.am  1 <1>  -0.6600 
 23 C       -7.2920    -8.1250    -0.2060 C.3   1 <1>   0.0600 
 24 C       -7.9440    -6.2560     1.3290 C.3   1 <1>   0.0600 
 25 H       -4.0960    -2.3580     1.8760 H     1 <1>   0.0800 
 26 H       -2.9700    -2.7390     0.5850 H     1 <1>   0.0800 
 27 H       -1.0550     1.1750     1.8730 H     1 <1>   0.0800 
 28 H       -2.8990    -0.2180    -1.2460 H     1 <1>   0.0800 
 29 H       -4.0290     0.9210    -0.5220 H     1 <1>   0.0800 
 30 H       -4.5930    -1.7590    -0.8230 H     1 <1>   0.0800 
 31 H       -1.9240     3.2840     1.7830 H     1 <1>   0.0800 
 32 H       -3.4320     2.4570     1.4970 H     1 <1>   0.0800 
 33 H       -0.4510     0.6400    -0.6970 H     1 <1>   0.0800 
 34 H        0.1640     2.0500     0.1280 H     1 <1>   0.0800 
 35 H       -6.1460     0.0390    -0.0290 H     1 <1>   0.0800 
 36 H       -5.4520    -0.0900     1.5630 H     1 <1>   0.0800 
 37 H       -2.1820     4.3240    -0.2040 H     1 <1>   0.0800 
 38 H       -3.4540     3.2380    -0.7100 H     1 <1>   0.0800 
 39 H       -2.0030     1.9580    -1.9040 H     1 <1>   0.0800 
 40 H       -0.7860     3.1850    -1.6520 H     1 <1>   0.0800 
 41 H       -6.1340    -2.4650     1.5600 H     1 <1>   0.4000 
 42 H       -8.2370    -0.6080    -0.7510 H     1 <1>   0.1500 
 43 H       -9.4560    -1.8280    -2.5520 H     1 <1>   0.1500 
 44 H       -9.1070    -4.2790    -2.6810 H     1 <1>   0.1500 
 45 H       -6.8780    -8.3300    -1.1780 H     1 <1>   0.0800 
 46 H       -8.1870    -8.7090    -0.0820 H     1 <1>   0.0800 
 47 H       -6.5710    -8.4140     0.5380 H     1 <1>   0.0800 
 48 H       -8.5910    -5.3960     1.3220 H     1 <1>   0.0800 
 49 H       -7.0370    -6.0070     1.8530 H     1 <1>   0.0800 
 50 H       -8.4470    -7.0520     1.8490 H     1 <1>   0.0800 
@<TRIPOS>BOND
  1   1   2  2   
  2   2   3  am  
  3   2   4  1   
  4   3   5  1   
  5   3   6  1   
  6   4   7  1   
  7   4  25  1   
  8   4  26  1   
  9   5   8  1   
 10   5   9  1   
 11   5  27  1   
 12   6   7  1   
 13   6  28  1   
 14   6  29  1   
 15   7  10  1   
 16   7  30  1   
 17   8  11  1   
 18   8  31  1   
 19   8  32  1   
 20   9  12  1   
 21   9  33  1   
 22   9  34  1   
 23  10  13  1   
 24  10  35  1   
 25  10  36  1   
 26  11  12  1   
 27  11  37  1   
 28  11  38  1   
 29  12  39  1   
 30  12  40  1   
 31  13  14  1   
 32  13  41  1   
 33  14  15  ar  
 34  14  16  ar  
 35  15  17  ar  
 36  16  18  ar  
 37  16  42  1   
 38  17  19  1   
 39  17  20  ar  
 40  18  20  ar  
 41  18  43  1   
 42  19  21  2   
 43  19  22  am  
 44  20  44  1   
 45  22  23  1   
 46  22  24  1   
 47  23  45  1   
 48  23  46  1   
 49  23  47  1   
 50  24  48  1   
 51  24  49  1   
 52  24  50  1   
@<TRIPOS>SUBSTRUCTURE
  1 ****   7 GROUP 4 **** **** 0

# MOE 2024.06 (io_trps.svl 2023.06)
