@<TRIPOS>MOLECULE
NONAME
52 53 1 0 0 
SMALL
USER_CHARGES


@<TRIPOS>ATOM
  1 O       -2.4110    -0.7780     2.4990 O.2   1 <1>  -0.5700 
  2 C       -2.3860     0.0610     1.6290 C.2   1 <1>   0.5690 
  3 N       -2.4880    -0.2710     0.3020 N.am  1 <1>  -0.6600 
  4 C       -2.2210     1.5180     2.0730 C.3   1 <1>   0.2010 
  5 C       -2.6690    -1.6940    -0.1300 C.3   1 <1>   0.3640 
  6 C       -2.4940     0.7410    -0.7990 C.3   1 <1>   0.1400 
  7 N       -0.8320     2.0390     1.8750 N.am  1 <1>  -0.7300 
  8 C       -1.3190    -2.2600    -0.6130 C.ar  1 <1>  -0.1430 
  9 C       -3.8390    -1.7780    -1.1540 C.3   1 <1>   0.2000 
 10 C       -2.7540     0.1270    -2.1850 C.3   1 <1>   0.1200 
 11 C       -0.4880     3.0180     1.0060 C.2   1 <1>   0.5690 
 12 C       -0.2620    -2.2880     0.2890 C.ar  1 <1>  -0.1500 
 13 C       -1.1010    -2.7610    -1.8950 C.ar  1 <1>  -0.1500 
 14 O       -3.8140    -0.7930    -2.1730 O.3   1 <1>  -0.5600 
 15 C       -5.2020    -1.6510    -0.4580 C.3   1 <1>   0.1200 
 16 O       -1.3030     3.5540     0.2960 O.2   1 <1>  -0.5700 
 17 C        0.9700     3.4250     0.9120 C.3   1 <1>  -0.0990 
 18 C        0.9790    -2.7870    -0.0660 C.ar  1 <1>   0.0830 
 19 C        0.1380    -3.2560    -2.2640 C.ar  1 <1>  -0.1500 
 20 O       -5.4720    -2.7900     0.2950 O.3   1 <1>  -0.6800 
 21 C        1.4580     4.1800     2.1580 C.3   1 <1>  -0.2400 
 22 O        1.9450    -2.8010     0.8830 O.3   1 <1>  -0.3630 
 23 C        1.1890    -3.2590    -1.3650 C.ar  1 <1>   0.0830 
 24 C        2.3020    -4.0740     1.3740 C.3   1 <1>   0.0400 
 25 O        2.3840    -3.7310    -1.8010 O.3   1 <1>  -0.3630 
 26 C        3.4600    -2.8190    -1.8150 C.3   1 <1>   0.0400 
 27 H       -2.4650     1.5820     3.1180 H     1 <1>   0.0800 
 28 H       -2.9250     2.1330     1.5430 H     1 <1>   0.0800 
 29 H       -2.9540    -2.2890     0.7210 H     1 <1>   0.0800 
 30 H       -3.2520     1.4800    -0.6040 H     1 <1>   0.0800 
 31 H       -1.5430     1.2410    -0.8250 H     1 <1>   0.0800 
 32 H       -0.1070     1.5550     2.4090 H     1 <1>   0.3700 
 33 H       -3.8180    -2.7320    -1.6460 H     1 <1>   0.0800 
 34 H       -1.8700    -0.3670    -2.5450 H     1 <1>   0.0800 
 35 H       -3.0030     0.9030    -2.8860 H     1 <1>   0.0800 
 36 H       -0.3960    -1.9250     1.2920 H     1 <1>   0.1500 
 37 H       -1.8830    -2.7720    -2.6330 H     1 <1>   0.1500 
 38 H       -5.9880    -1.5400    -1.1850 H     1 <1>   0.0800 
 39 H       -5.2050    -0.8060     0.2080 H     1 <1>   0.0800 
 40 H        1.5660     2.5440     0.7620 H     1 <1>   0.0800 
 41 H        1.0930     4.0540     0.0480 H     1 <1>   0.0800 
 42 H        0.2990    -3.6370    -3.2560 H     1 <1>   0.1500 
 43 H       -5.7160    -3.5410    -0.2810 H     1 <1>   0.4000 
 44 H        1.3760     3.5600     3.0340 H     1 <1>   0.0800 
 45 H        0.8660     5.0670     2.3070 H     1 <1>   0.0800 
 46 H        2.4870     4.4700     2.0370 H     1 <1>   0.0800 
 47 H        3.0310    -3.9430     2.1520 H     1 <1>   0.0800 
 48 H        2.7180    -4.6590     0.5730 H     1 <1>   0.0800 
 49 H        1.4220    -4.5520     1.7670 H     1 <1>   0.0800 
 50 H        4.2810    -3.2770    -2.3350 H     1 <1>   0.0800 
 51 H        3.7500    -2.5920    -0.8050 H     1 <1>   0.0800 
 52 H        3.1510    -1.9250    -2.3270 H     1 <1>   0.0800 
@<TRIPOS>BOND
  1   1   2  2   
  2   2   3  am  
  3   2   4  1   
  4   3   5  1   
  5   3   6  1   
  6   4   7  1   
  7   4  27  1   
  8   4  28  1   
  9   5   8  1   
 10   5   9  1   
 11   5  29  1   
 12   6  10  1   
 13   6  30  1   
 14   6  31  1   
 15   7  11  am  
 16   7  32  1   
 17   8  12  ar  
 18   8  13  ar  
 19   9  14  1   
 20   9  15  1   
 21   9  33  1   
 22  10  14  1   
 23  10  34  1   
 24  10  35  1   
 25  11  16  2   
 26  11  17  1   
 27  12  18  ar  
 28  12  36  1   
 29  13  19  ar  
 30  13  37  1   
 31  15  20  1   
 32  15  38  1   
 33  15  39  1   
 34  17  21  1   
 35  17  40  1   
 36  17  41  1   
 37  18  22  1   
 38  18  23  ar  
 39  19  23  ar  
 40  19  42  1   
 41  20  43  1   
 42  21  44  1   
 43  21  45  1   
 44  21  46  1   
 45  22  24  1   
 46  23  25  1   
 47  24  47  1   
 48  24  48  1   
 49  24  49  1   
 50  25  26  1   
 51  26  50  1   
 52  26  51  1   
 53  26  52  1   
@<TRIPOS>SUBSTRUCTURE
  1 ****   8 GROUP 4 **** **** 0

# MOE 2024.06 (io_trps.svl 2023.06)
