@<TRIPOS>MOLECULE
NONAME
50 52 1 0 0 
SMALL
USER_CHARGES


@<TRIPOS>ATOM
  1 O       -1.7740     0.1680    -2.4930 O.2   1 <1>  -0.5700 
  2 C       -2.0630     1.0010    -1.6380 C.2   1 <1>   0.5440 
  3 N       -2.9480     0.5790    -0.6450 N.am  1 <1>  -0.6600 
  4 C       -1.4640     2.3200    -1.6960 C.ar  1 <1>   0.3960 
  5 C       -3.8050    -0.6330    -0.8340 C.3   1 <1>   0.1400 
  6 C       -2.9830     1.2100     0.7070 C.3   1 <1>   0.1400 
  7 N       -2.1210     3.4120    -1.2180 N.ar  1 <1>  -0.6200 
  8 C       -0.1840     2.4500    -2.2600 C.ar  1 <1>   0.1600 
  9 C       -5.2850    -0.3730    -0.5150 C.3   1 <1>   0.1400 
 10 C       -4.2610     2.0390     0.8660 C.3   1 <1>  -0.1600 
 11 C       -1.4340     4.5170    -1.3200 C.ar  1 <1>   0.1600 
 12 N        0.5150     3.5530    -2.3620 N.ar  1 <1>  -0.6200 
 13 N       -5.5080    -0.1660     0.9500 N.am  1 <1>  -0.6600 
 14 C       -5.4630     1.2550     1.4100 C.3   1 <1>   0.1400 
 15 C       -0.1340     4.6210    -1.8670 C.ar  1 <1>   0.1390 
 16 C       -5.7960    -1.1770     1.8390 C.2   1 <1>   0.5690 
 17 O        0.4430     5.7200    -1.8980 O.3   1 <1>  -0.8290 
 18 O       -6.0230    -0.9450     3.0040 O.2   1 <1>  -0.5700 
 19 C       -5.8180    -2.6450     1.4190 C.3   1 <1>   0.0440 
 20 C       -6.9860    -3.0170     0.5100 C.ar  1 <1>  -0.1430 
 21 C       -8.2630    -2.5510     0.7780 C.ar  1 <1>  -0.1500 
 22 C       -6.7820    -3.8250    -0.5960 C.ar  1 <1>  -0.1500 
 23 C       -9.3300    -2.8730    -0.0470 C.ar  1 <1>  -0.1430 
 24 C       -7.8410    -4.1500    -1.4240 C.ar  1 <1>  -0.1500 
 25 C       -9.1170    -3.6790    -1.1600 C.ar  1 <1>  -0.1430 
 26 C      -10.7110    -2.3310     0.2910 C.3   1 <1>  -0.0970 
 27 C      -10.2550    -4.0590    -2.0960 C.3   1 <1>  -0.0970 
 28 H       -3.4290    -1.4300    -0.2200 H     1 <1>   0.0800 
 29 H       -3.7470    -0.9590    -1.8580 H     1 <1>   0.0800 
 30 H       -2.1260     1.8490     0.8300 H     1 <1>   0.0800 
 31 H       -2.9270     0.4510     1.4690 H     1 <1>   0.0800 
 32 H        0.2780     1.5610    -2.6430 H     1 <1>   0.1500 
 33 H       -5.8680    -1.2040    -0.8610 H     1 <1>   0.0800 
 34 H       -5.6210     0.4890    -1.0650 H     1 <1>   0.0800 
 35 H       -4.5140     2.4970    -0.0740 H     1 <1>   0.0800 
 36 H       -4.0610     2.8430     1.5510 H     1 <1>   0.0800 
 37 H       -1.8570     5.4390    -0.9710 H     1 <1>   0.1500 
 38 H       -6.3750     1.7470     1.1200 H     1 <1>   0.0800 
 39 H       -5.4140     1.2800     2.4850 H     1 <1>   0.0800 
 40 H       -5.8800    -3.2490     2.3060 H     1 <1>   0.0800 
 41 H       -4.8850    -2.8770     0.9440 H     1 <1>   0.0800 
 42 H       -8.4280    -1.9300     1.6420 H     1 <1>   0.1500 
 43 H       -5.8030    -4.2070    -0.8210 H     1 <1>   0.1500 
 44 H       -7.6620    -4.7780    -2.2790 H     1 <1>   0.1500 
 45 H      -10.6820    -1.7280     1.1800 H     1 <1>   0.0800 
 46 H      -11.3940    -3.1440     0.4570 H     1 <1>   0.0800 
 47 H      -11.0760    -1.7230    -0.5170 H     1 <1>   0.0800 
 48 H      -11.0120    -4.5970    -1.5550 H     1 <1>   0.0800 
 49 H       -9.9050    -4.6850    -2.8970 H     1 <1>   0.0800 
 50 H      -10.6900    -3.1750    -2.5250 H     1 <1>   0.0800 
@<TRIPOS>BOND
  1   1   2  2   
  2   2   3  am  
  3   2   4  1   
  4   3   5  1   
  5   3   6  1   
  6   4   7  ar  
  7   4   8  ar  
  8   5   9  1   
  9   5  28  1   
 10   5  29  1   
 11   6  10  1   
 12   6  30  1   
 13   6  31  1   
 14   7  11  ar  
 15   8  12  ar  
 16   8  32  1   
 17   9  13  1   
 18   9  33  1   
 19   9  34  1   
 20  10  14  1   
 21  10  35  1   
 22  10  36  1   
 23  11  15  ar  
 24  11  37  1   
 25  12  15  ar  
 26  13  14  1   
 27  13  16  am  
 28  14  38  1   
 29  14  39  1   
 30  15  17  1   
 31  16  18  2   
 32  16  19  1   
 33  19  20  1   
 34  19  40  1   
 35  19  41  1   
 36  20  21  ar  
 37  20  22  ar  
 38  21  23  ar  
 39  21  42  1   
 40  22  24  ar  
 41  22  43  1   
 42  23  25  ar  
 43  23  26  1   
 44  24  25  ar  
 45  24  44  1   
 46  25  27  1   
 47  26  45  1   
 48  26  46  1   
 49  26  47  1   
 50  27  48  1   
 51  27  49  1   
 52  27  50  1   
@<TRIPOS>SUBSTRUCTURE
  1 ****   9 GROUP 4 **** **** 0

# MOE 2024.06 (io_trps.svl 2023.06)
