@<TRIPOS>MOLECULE
NONAME
57 59 1 0 0 
SMALL
USER_CHARGES


@<TRIPOS>ATOM
  1 O        0.4630    -0.5260     1.1780 O.2   1 <1>  -0.5700 
  2 C        1.1920    -0.7490     0.2420 C.2   1 <1>   0.5690 
  3 N        1.9520     0.2060    -0.3700 N.am  1 <1>  -0.5470 
  4 C        1.2240    -2.1920    -0.2900 C.3   1 <1>   0.4040 
  5 C        2.0880     1.5600    -0.1620 C.ar  1 <1>   0.4270 
  6 N       -0.0550    -2.9540    -0.0240 N.4   1 <1>  -0.9590 
  7 N        2.8160     2.1200    -1.1110 N.ar  1 <1>  -0.6200 
  8 C        1.5410     2.2660     0.9070 C.ar  1 <1>  -0.1500 
  9 C        0.0880    -4.4210    -0.2200 C.3   1 <1>   0.3430 
 10 C       -1.2100    -2.3910    -0.7770 C.3   1 <1>   0.3430 
 11 C        3.0060     3.4260    -1.0000 C.ar  1 <1>   0.1600 
 12 C        1.7470     3.6220     1.0080 C.ar  1 <1>  -0.1500 
 13 C       -1.1700    -5.1250     0.2830 C.3   1 <1>  -0.1600 
 14 C       -2.4970    -3.0440    -0.2800 C.3   1 <1>  -0.1600 
 15 C        2.5030     4.2190     0.0210 C.ar  1 <1>  -0.1440 
 16 C       -2.4580    -4.5830    -0.3780 C.3   1 <1>  -0.0800 
 17 C        2.7690     5.7150     0.0710 C.3   1 <1>  -0.0970 
 18 C       -3.7510    -5.1990     0.2110 C.3   1 <1>   0.2000 
 19 O       -3.8020    -4.9100     1.5620 O.3   1 <1>  -0.6800 
 20 C       -3.8490    -6.7210     0.0330 C.3   1 <1>  -0.1600 
 21 C       -5.2030    -7.2980     0.4710 C.3   1 <1>  -0.0170 
 22 C       -5.2500    -8.7870     0.1750 C.ar  1 <1>  -0.1440 
 23 C       -4.7820    -9.7000     1.1070 C.ar  1 <1>  -0.1500 
 24 C       -5.7560    -9.2460    -1.0320 C.ar  1 <1>  -0.1500 
 25 C       -4.8180   -11.0570     0.8360 C.ar  1 <1>  -0.1500 
 26 C       -5.7920   -10.6020    -1.3040 C.ar  1 <1>  -0.1500 
 27 C       -5.3220   -11.5090    -0.3700 C.ar  1 <1>  -0.1500 
 28 H        2.5260    -0.0510    -1.1710 H     1 <1>   0.3700 
 29 H        2.0440    -2.6950     0.1920 H     1 <1>   0.0800 
 30 H        1.4190    -2.1710    -1.3480 H     1 <1>   0.0800 
 31 H       -0.2770    -2.7820     0.9730 H     1 <1>   0.4500 
 32 H        0.9620     1.7670     1.6600 H     1 <1>   0.1500 
 33 H        0.9420    -4.7880     0.3260 H     1 <1>   0.0800 
 34 H        0.2300    -4.6400    -1.2660 H     1 <1>   0.0800 
 35 H       -1.0910    -2.5760    -1.8320 H     1 <1>   0.0800 
 36 H       -1.2730    -1.3250    -0.6190 H     1 <1>   0.0800 
 37 H        3.5970     3.8920    -1.7690 H     1 <1>   0.1500 
 38 H        1.3350     4.1920     1.8240 H     1 <1>   0.1500 
 39 H       -1.2240    -5.0110     1.3520 H     1 <1>   0.0800 
 40 H       -1.0690    -6.1760     0.0800 H     1 <1>   0.0800 
 41 H       -3.3220    -2.6690    -0.8600 H     1 <1>   0.0800 
 42 H       -2.6620    -2.7380     0.7390 H     1 <1>   0.0800 
 43 H       -2.4280    -4.8420    -1.4230 H     1 <1>   0.0800 
 44 H        3.3590     6.0310    -0.7710 H     1 <1>   0.0800 
 45 H        3.2990     5.9620     0.9730 H     1 <1>   0.0800 
 46 H        1.8380     6.2530     0.0570 H     1 <1>   0.0800 
 47 H       -4.6050    -4.7330    -0.2520 H     1 <1>   0.0800 
 48 H       -4.6210    -5.2670     1.9570 H     1 <1>   0.4000 
 49 H       -3.0660    -7.2110     0.5830 H     1 <1>   0.0800 
 50 H       -3.7090    -6.9550    -1.0080 H     1 <1>   0.0800 
 51 H       -6.0030    -6.8030    -0.0520 H     1 <1>   0.0800 
 52 H       -5.3530    -7.1440     1.5250 H     1 <1>   0.0800 
 53 H       -4.3860    -9.3600     2.0470 H     1 <1>   0.1500 
 54 H       -6.1230    -8.5510    -1.7660 H     1 <1>   0.1500 
 55 H       -4.4530   -11.7610     1.5630 H     1 <1>   0.1500 
 56 H       -6.1850   -10.9530    -2.2430 H     1 <1>   0.1500 
 57 H       -5.3500   -12.5640    -0.5820 H     1 <1>   0.1500 
@<TRIPOS>BOND
  1   1   2  2   
  2   2   3  am  
  3   2   4  1   
  4   3   5  1   
  5   3  28  1   
  6   4   6  1   
  7   4  29  1   
  8   4  30  1   
  9   5   7  ar  
 10   5   8  ar  
 11   6   9  1   
 12   6  10  1   
 13   6  31  1   
 14   7  11  ar  
 15   8  12  ar  
 16   8  32  1   
 17   9  13  1   
 18   9  33  1   
 19   9  34  1   
 20  10  14  1   
 21  10  35  1   
 22  10  36  1   
 23  11  15  ar  
 24  11  37  1   
 25  12  15  ar  
 26  12  38  1   
 27  13  16  1   
 28  13  39  1   
 29  13  40  1   
 30  14  16  1   
 31  14  41  1   
 32  14  42  1   
 33  15  17  1   
 34  16  18  1   
 35  16  43  1   
 36  17  44  1   
 37  17  45  1   
 38  17  46  1   
 39  18  19  1   
 40  18  20  1   
 41  18  47  1   
 42  19  48  1   
 43  20  21  1   
 44  20  49  1   
 45  20  50  1   
 46  21  22  1   
 47  21  51  1   
 48  21  52  1   
 49  22  23  ar  
 50  22  24  ar  
 51  23  25  ar  
 52  23  53  1   
 53  24  26  ar  
 54  24  54  1   
 55  25  27  ar  
 56  25  55  1   
 57  26  27  ar  
 58  26  56  1   
 59  27  57  1   
@<TRIPOS>SUBSTRUCTURE
  1 ****  10 GROUP 4 **** **** 0

# MOE 2024.06 (io_trps.svl 2023.06)
