@<TRIPOS>MOLECULE
NONAME
53 56 1 0 0 
SMALL
USER_CHARGES


@<TRIPOS>ATOM
  1 O       -0.8630    -1.6260    -1.9860 O.2   1 <1>  -0.5700 
  2 C        0.1900    -1.8540    -1.4280 C.2   1 <1>   0.6900 
  3 N        0.3510    -2.5610    -0.2720 N.am  1 <1>  -0.4770 
  4 N        1.3720    -1.4610    -1.9270 N.am  1 <1>  -0.7300 
  5 C       -0.6360    -3.2040     0.4830 C.ar  1 <1>   0.1170 
  6 C        1.7960    -2.7240     0.0140 C.3   1 <1>   0.1400 
  7 C        2.4980    -2.0060    -1.1520 C.3   1 <1>   0.1400 
  8 C       -1.5460    -2.4930     1.2670 C.ar  1 <1>  -0.1430 
  9 C       -0.7110    -4.5880     0.4500 C.ar  1 <1>  -0.1500 
 10 C       -2.5000    -3.1810     1.9980 C.ar  1 <1>  -0.1500 
 11 C       -1.5120    -0.9710     1.3280 C.3   1 <1>  -0.0970 
 12 C       -1.6710    -5.2920     1.1650 C.ar  1 <1>   0.0860 
 13 C       -2.5590    -4.5610     1.9500 C.ar  1 <1>  -0.1500 
 14 C       -1.7460    -6.7350     1.0730 C.2   1 <1>   0.5440 
 15 O       -0.7840    -7.4170     1.3700 O.2   1 <1>  -0.5700 
 16 N       -2.8890    -7.3550     0.6250 N.am  1 <1>  -0.6600 
 17 C       -3.9540    -6.6710    -0.1500 C.3   1 <1>   0.1400 
 18 C       -2.9770    -8.8250     0.4590 C.3   1 <1>   0.1400 
 19 C       -4.6110    -7.7770    -0.9750 C.3   1 <1>   0.2000 
 20 C       -4.3240    -9.0750    -0.2220 C.3   1 <1>  -0.0800 
 21 O       -5.9790    -7.5870    -1.0880 O.3   1 <1>  -0.6800 
 22 C       -4.3200   -10.3060    -1.1390 C.3   1 <1>   0.0200 
 23 C       -3.9930   -11.5620    -0.3510 C.2   1 <1>  -0.3320 
 24 N       -4.8630   -12.1960     0.4630 N.pl3 1 <1>   0.3000 
 25 C       -2.8390   -12.2610    -0.2960 C.2   1 <1>  -0.1500 
 26 N       -4.3060   -13.2730     1.0450 N.2   1 <1>  -0.7070 
 27 C       -3.0960   -13.3050     0.5840 C.2   1 <1>   0.1080 
 28 C       -2.1060   -14.3730     0.9860 C.3   1 <1>  -0.0590 
 29 H        1.4420    -1.1290    -2.8890 H     1 <1>   0.3700 
 30 H        2.0380    -2.2600     0.9540 H     1 <1>   0.0800 
 31 H        2.0610    -3.7660     0.0440 H     1 <1>   0.0800 
 32 H        3.0660    -2.7000    -1.7470 H     1 <1>   0.0800 
 33 H        3.1350    -1.2140    -0.7960 H     1 <1>   0.0800 
 34 H       -0.0140    -5.1380    -0.1560 H     1 <1>   0.1500 
 35 H       -3.2040    -2.6430     2.6090 H     1 <1>   0.1500 
 36 H       -2.1660    -0.5980     2.0940 H     1 <1>   0.0800 
 37 H       -1.8260    -0.5650     0.3830 H     1 <1>   0.0800 
 38 H       -0.5140    -0.6300     1.5360 H     1 <1>   0.0800 
 39 H       -3.3020    -5.0860     2.5240 H     1 <1>   0.1500 
 40 H       -4.6580    -6.2290     0.5330 H     1 <1>   0.0800 
 41 H       -3.5350    -5.9150    -0.7920 H     1 <1>   0.0800 
 42 H       -2.1610    -9.1560    -0.1620 H     1 <1>   0.0800 
 43 H       -2.9160    -9.3220     1.4130 H     1 <1>   0.0800 
 44 H       -4.1860    -7.7940    -1.9640 H     1 <1>   0.0800 
 45 H       -5.0530    -9.2060     0.5570 H     1 <1>   0.0800 
 46 H       -6.3900    -7.5250    -0.2040 H     1 <1>   0.4000 
 47 H       -3.5850   -10.1760    -1.9150 H     1 <1>   0.0800 
 48 H       -5.2800   -10.4140    -1.6140 H     1 <1>   0.0800 
 49 H       -5.8380   -11.9260     0.6420 H     1 <1>   0.2700 
 50 H       -1.9090   -12.0770    -0.8040 H     1 <1>   0.1500 
 51 H       -1.1660   -14.2200     0.4910 H     1 <1>   0.0800 
 52 H       -2.4940   -15.3380     0.7200 H     1 <1>   0.0800 
 53 H       -1.9550   -14.3380     2.0490 H     1 <1>   0.0800 
@<TRIPOS>BOND
  1   1   2  2   
  2   2   3  am  
  3   2   4  am  
  4   3   5  1   
  5   3   6  1   
  6   4   7  1   
  7   4  29  1   
  8   5   8  ar  
  9   5   9  ar  
 10   6   7  1   
 11   6  30  1   
 12   6  31  1   
 13   7  32  1   
 14   7  33  1   
 15   8  10  ar  
 16   8  11  1   
 17   9  12  ar  
 18   9  34  1   
 19  10  13  ar  
 20  10  35  1   
 21  11  36  1   
 22  11  37  1   
 23  11  38  1   
 24  12  13  ar  
 25  12  14  1   
 26  13  39  1   
 27  14  15  2   
 28  14  16  am  
 29  16  17  1   
 30  16  18  1   
 31  17  19  1   
 32  17  40  1   
 33  17  41  1   
 34  18  20  1   
 35  18  42  1   
 36  18  43  1   
 37  19  20  1   
 38  19  21  1   
 39  19  44  1   
 40  20  22  1   
 41  20  45  1   
 42  21  46  1   
 43  22  23  1   
 44  22  47  1   
 45  22  48  1   
 46  23  24  1   
 47  23  25  2   
 48  24  26  1   
 49  24  49  1   
 50  25  27  1   
 51  25  50  1   
 52  26  27  2   
 53  27  28  1   
 54  28  51  1   
 55  28  52  1   
 56  28  53  1   
@<TRIPOS>SUBSTRUCTURE
  1 ****  14 GROUP 4 **** **** 0

# MOE 2024.06 (io_trps.svl 2023.06)
