@<TRIPOS>MOLECULE
NONAME
53 55 1 0 0 
SMALL
USER_CHARGES


@<TRIPOS>ATOM
  1 O       -1.5230     0.9400    -1.5530 O.2   1 <1>  -0.5700 
  2 C       -1.7580     1.2450    -0.4110 C.2   1 <1>   0.5690 
  3 N       -2.1850     0.3440     0.5030 N.am  1 <1>  -0.7300 
  4 C       -1.5540     2.6760     0.0130 C.3   1 <1>  -0.0990 
  5 C       -2.4010    -1.0960     0.2340 C.3   1 <1>   0.2200 
  6 C       -0.0640     3.0190    -0.0380 C.3   1 <1>   0.0960 
  7 C       -3.8920    -1.3810     0.2030 C.3   1 <1>  -0.0800 
  8 C       -1.9520    -1.9140     1.4410 C.3   1 <1>   0.1200 
  9 N        0.1510     4.4090     0.4060 N.pl3 1 <1>   0.3140 
 10 C       -4.2170    -1.5550     1.6910 C.3   1 <1>   0.1200 
 11 C       -4.2070    -2.6480    -0.6170 C.3   1 <1>  -0.0170 
 12 O       -3.0270    -1.9100     2.3340 O.3   1 <1>  -0.5600 
 13 N        0.1590     4.6940     1.7140 N.2   1 <1>  -0.7070 
 14 C        0.3160     5.5170    -0.3420 C.2   1 <1>  -0.3320 
 15 C       -5.7030    -2.9230    -0.6660 C.ar  1 <1>  -0.1440 
 16 C        0.3380     5.9710     1.7790 C.2   1 <1>   0.1080 
 17 C        0.4640     6.5750     0.5180 C.2   1 <1>  -0.0860 
 18 C        0.2930     5.4900    -1.8670 C.3   1 <1>  -0.0600 
 19 C       -6.2910    -3.9220     0.0830 C.ar  1 <1>  -0.1500 
 20 C       -6.5500    -2.1850    -1.4680 C.ar  1 <1>  -0.1500 
 21 C        0.4060     6.6830     3.1140 C.3   1 <1>  -0.0590 
 22 C        0.7020     7.9800     0.2980 C.2   1 <1>   0.5950 
 23 C       -7.6580    -4.1250     0.0000 C.ar  1 <1>   0.1600 
 24 C       -7.9050    -2.4700    -1.4780 C.ar  1 <1>   0.1600 
 25 O        0.3520     8.8490     1.0570 O.2   1 <1>  -0.5700 
 26 C        1.4620     8.4330    -0.9290 C.3   1 <1>  -0.1790 
 27 N       -8.4800    -3.4220    -0.7610 N.ar  1 <1>  -0.6200 
 28 H       -2.3780     0.6250     1.4680 H     1 <1>   0.3700 
 29 H       -2.1000     3.3130    -0.6570 H     1 <1>   0.0800 
 30 H       -1.9260     2.8200     1.0110 H     1 <1>   0.0800 
 31 H       -1.8910    -1.3890    -0.6690 H     1 <1>   0.0800 
 32 H        0.3180     2.8980    -1.0340 H     1 <1>   0.0800 
 33 H        0.4860     2.3710     0.6200 H     1 <1>   0.0800 
 34 H       -4.4380    -0.5550    -0.2170 H     1 <1>   0.0800 
 35 H       -1.0810    -1.5050     1.9200 H     1 <1>   0.0800 
 36 H       -1.7660    -2.9350     1.1600 H     1 <1>   0.0800 
 37 H       -4.9560    -2.3140     1.8790 H     1 <1>   0.0800 
 38 H       -4.5490    -0.6250     2.1170 H     1 <1>   0.0800 
 39 H       -3.6990    -3.5000    -0.2000 H     1 <1>   0.0800 
 40 H       -3.8490    -2.5180    -1.6240 H     1 <1>   0.0800 
 41 H        0.1450     6.4720    -2.2730 H     1 <1>   0.0800 
 42 H       -0.5150     4.8730    -2.2180 H     1 <1>   0.0800 
 43 H        1.2200     5.0930    -2.2440 H     1 <1>   0.0800 
 44 H       -5.7010    -4.5450     0.7300 H     1 <1>   0.1500 
 45 H       -6.1700    -1.3920    -2.0860 H     1 <1>   0.1500 
 46 H        1.3100     7.2590     3.1780 H     1 <1>   0.0800 
 47 H        0.3910     5.9670     3.9150 H     1 <1>   0.0800 
 48 H       -0.4390     7.3390     3.2170 H     1 <1>   0.0800 
 49 H       -8.0990    -4.9090     0.5930 H     1 <1>   0.1500 
 50 H       -8.5500    -1.8830    -2.1090 H     1 <1>   0.1500 
 51 H        2.1080     7.6510    -1.2800 H     1 <1>   0.0800 
 52 H        2.0620     9.2880    -0.6820 H     1 <1>   0.0800 
 53 H        0.7670     8.7100    -1.7000 H     1 <1>   0.0800 
@<TRIPOS>BOND
  1   1   2  2   
  2   2   3  am  
  3   2   4  1   
  4   3   5  1   
  5   3  28  1   
  6   4   6  1   
  7   4  29  1   
  8   4  30  1   
  9   5   7  1   
 10   5   8  1   
 11   5  31  1   
 12   6   9  1   
 13   6  32  1   
 14   6  33  1   
 15   7  10  1   
 16   7  11  1   
 17   7  34  1   
 18   8  12  1   
 19   8  35  1   
 20   8  36  1   
 21   9  13  1   
 22   9  14  1   
 23  10  12  1   
 24  10  37  1   
 25  10  38  1   
 26  11  15  1   
 27  11  39  1   
 28  11  40  1   
 29  13  16  2   
 30  14  17  2   
 31  14  18  1   
 32  15  19  ar  
 33  15  20  ar  
 34  16  17  1   
 35  16  21  1   
 36  17  22  1   
 37  18  41  1   
 38  18  42  1   
 39  18  43  1   
 40  19  23  ar  
 41  19  44  1   
 42  20  24  ar  
 43  20  45  1   
 44  21  46  1   
 45  21  47  1   
 46  21  48  1   
 47  22  25  2   
 48  22  26  1   
 49  23  27  ar  
 50  23  49  1   
 51  24  27  ar  
 52  24  50  1   
 53  26  51  1   
 54  26  52  1   
 55  26  53  1   
@<TRIPOS>SUBSTRUCTURE
  1 ****   2 GROUP 4 **** **** 0

# MOE 2024.06 (io_trps.svl 2023.06)
