@<TRIPOS>MOLECULE
NONAME
57 61 1 0 0 
SMALL
USER_CHARGES


@<TRIPOS>ATOM
  1 O       -2.1810     0.6750    -3.5500 O.2   1 <1>  -0.5700 
  2 C       -1.9030     1.0050    -2.4220 C.2   1 <1>   0.5690 
  3 N       -2.0340     0.1640    -1.3690 N.am  1 <1>  -0.7300 
  4 C       -1.3750     2.4170    -2.1410 C.3   1 <1>   0.1710 
  5 C       -2.4630    -1.2470    -1.4070 C.3   1 <1>   0.2200 
  6 N       -0.6960     2.5490    -0.8170 N.3   1 <1>  -0.8100 
  7 C       -3.5370    -1.4640    -0.3570 C.3   1 <1>  -0.0800 
  8 C       -1.3320    -2.1460    -0.9070 C.3   1 <1>   0.1200 
  9 C       -0.6110     3.9610    -0.3990 C.3   1 <1>   0.2530 
 10 C        0.6450     1.9440    -0.8270 C.3   1 <1>   0.1100 
 11 C       -2.6930    -1.6940     0.8980 C.3   1 <1>   0.1200 
 12 C       -4.4200    -2.6820    -0.6950 C.3   1 <1>  -0.0160 
 13 O       -1.5090    -2.2990     0.4730 O.3   1 <1>  -0.5600 
 14 C        0.1760     4.1330     0.8990 C.ar  1 <1>  -0.1440 
 15 C        1.1620     1.8270     0.6090 C.3   1 <1>  -0.0170 
 16 C       -5.5260    -2.8770     0.3380 C.ar  1 <1>  -0.1440 
 17 C        1.0250     3.1380     1.3690 C.ar  1 <1>  -0.1440 
 18 C        0.0520     5.3150     1.6140 C.ar  1 <1>  -0.1500 
 19 C       -6.6850    -2.0650     0.3730 C.ar  1 <1>   0.0000 
 20 C       -5.4180    -3.8620     1.2750 C.ar  1 <1>  -0.1500 
 21 C        1.7360     3.3330     2.5420 C.ar  1 <1>  -0.1500 
 22 C        0.7640     5.5070     2.7840 C.ar  1 <1>  -0.1500 
 23 C       -7.6360    -2.3220     1.3910 C.ar  1 <1>   0.3100 
 24 C       -6.9590    -1.0190    -0.5390 C.ar  1 <1>  -0.1500 
 25 C       -6.4210    -4.0360     2.2360 C.ar  1 <1>   0.1600 
 26 C        1.6080     4.5150     3.2490 C.ar  1 <1>  -0.1500 
 27 N       -7.4890    -3.3080     2.3120 N.ar  1 <1>  -0.6200 
 28 C       -8.7910    -1.5270     1.4580 C.ar  1 <1>  -0.1500 
 29 C       -8.0960    -0.2640    -0.4460 C.ar  1 <1>  -0.1500 
 30 C       -9.0250    -0.5180     0.5650 C.ar  1 <1>  -0.1500 
 31 H       -1.7040     0.5290    -0.4670 H     1 <1>   0.3700 
 32 H       -2.2240     3.0760    -2.1730 H     1 <1>   0.0800 
 33 H       -0.7040     2.7020    -2.9310 H     1 <1>   0.0800 
 34 H       -2.7790    -1.5110    -2.4030 H     1 <1>   0.0800 
 35 H       -4.1570    -0.5920    -0.2460 H     1 <1>   0.0800 
 36 H       -0.3600    -1.7280    -1.1010 H     1 <1>   0.0800 
 37 H       -1.4020    -3.1230    -1.3500 H     1 <1>   0.0800 
 38 H       -0.1310     4.5390    -1.1700 H     1 <1>   0.0800 
 39 H       -1.6070     4.3440    -0.2570 H     1 <1>   0.0800 
 40 H        0.6130     0.9610    -1.2670 H     1 <1>   0.0800 
 41 H        1.3180     2.5530    -1.4070 H     1 <1>   0.0800 
 42 H       -3.1720    -2.3220     1.6290 H     1 <1>   0.0800 
 43 H       -2.4320    -0.7540     1.3550 H     1 <1>   0.0800 
 44 H       -3.8110    -3.5690    -0.7380 H     1 <1>   0.0800 
 45 H       -4.8610    -2.5600    -1.6690 H     1 <1>   0.0800 
 46 H        0.6010     1.0660     1.1220 H     1 <1>   0.0800 
 47 H        2.1930     1.5230     0.5880 H     1 <1>   0.0800 
 48 H       -0.6010     6.0940     1.2610 H     1 <1>   0.1500 
 49 H       -4.5680    -4.5200     1.3060 H     1 <1>   0.1500 
 50 H        2.3900     2.5630     2.9110 H     1 <1>   0.1500 
 51 H        0.6620     6.4270     3.3330 H     1 <1>   0.1500 
 52 H       -6.2610    -0.8070    -1.3270 H     1 <1>   0.1500 
 53 H       -6.2940    -4.8250     2.9580 H     1 <1>   0.1500 
 54 H        2.1620     4.6610     4.1590 H     1 <1>   0.1500 
 55 H       -9.4930    -1.7430     2.2430 H     1 <1>   0.1500 
 56 H       -8.2910     0.5300    -1.1470 H     1 <1>   0.1500 
 57 H       -9.9170     0.0830     0.6290 H     1 <1>   0.1500 
@<TRIPOS>BOND
  1   1   2  2   
  2   2   3  am  
  3   2   4  1   
  4   3   5  1   
  5   3  31  1   
  6   4   6  1   
  7   4  32  1   
  8   4  33  1   
  9   5   7  1   
 10   5   8  1   
 11   5  34  1   
 12   6   9  1   
 13   6  10  1   
 14   7  11  1   
 15   7  12  1   
 16   7  35  1   
 17   8  13  1   
 18   8  36  1   
 19   8  37  1   
 20   9  14  1   
 21   9  38  1   
 22   9  39  1   
 23  10  15  1   
 24  10  40  1   
 25  10  41  1   
 26  11  13  1   
 27  11  42  1   
 28  11  43  1   
 29  12  16  1   
 30  12  44  1   
 31  12  45  1   
 32  14  17  ar  
 33  14  18  ar  
 34  15  17  1   
 35  15  46  1   
 36  15  47  1   
 37  16  19  ar  
 38  16  20  ar  
 39  17  21  ar  
 40  18  22  ar  
 41  18  48  1   
 42  19  23  ar  
 43  19  24  ar  
 44  20  25  ar  
 45  20  49  1   
 46  21  26  ar  
 47  21  50  1   
 48  22  26  ar  
 49  22  51  1   
 50  23  27  ar  
 51  23  28  ar  
 52  24  29  ar  
 53  24  52  1   
 54  25  27  ar  
 55  25  53  1   
 56  26  54  1   
 57  28  30  ar  
 58  28  55  1   
 59  29  30  ar  
 60  29  56  1   
 61  30  57  1   
@<TRIPOS>SUBSTRUCTURE
  1 ****   7 GROUP 4 **** **** 0

# MOE 2024.06 (io_trps.svl 2023.06)
