@<TRIPOS>MOLECULE
NONAME
50 52 1 0 0 
SMALL
USER_CHARGES


@<TRIPOS>ATOM
  1 O       -0.6290    -1.2590     0.8560 O.2   1 <1>  -0.5700 
  2 C        0.5350    -1.4320     0.5450 C.2   1 <1>   0.6900 
  3 N        1.1170    -0.7060    -0.4630 N.am  1 <1>  -0.6600 
  4 N        1.2590    -2.3830     1.1790 N.am  1 <1>  -0.7300 
  5 C        0.3110     0.2130    -1.3150 C.3   1 <1>   0.0600 
  6 C        2.5830    -0.6650    -0.7180 C.3   1 <1>   0.0600 
  7 C        0.7250    -3.3120     2.2210 C.3   1 <1>   0.2010 
  8 C        0.6290    -4.7650     1.7480 C.2   1 <1>   0.5690 
  9 O        1.4380    -5.5520     2.1840 O.2   1 <1>  -0.5700 
 10 N       -0.3400    -5.1570     0.8620 N.am  1 <1>  -0.6600 
 11 C       -1.3630    -4.2800     0.2340 C.3   1 <1>   0.1400 
 12 C       -0.5220    -6.5600     0.4300 C.3   1 <1>   0.1400 
 13 C       -2.2790    -5.2270    -0.5470 C.3   1 <1>   0.2000 
 14 C       -1.9780    -6.6330    -0.0280 C.3   1 <1>  -0.0800 
 15 O       -3.6180    -4.9310    -0.3410 O.3   1 <1>  -0.6800 
 16 C       -2.2460    -7.7230    -1.0780 C.3   1 <1>  -0.0160 
 17 C       -1.9130    -9.1030    -0.5380 C.ar  1 <1>   0.1670 
 18 N       -0.7050    -9.5410    -0.7200 N.ar  1 <1>  -0.6200 
 19 C       -2.9100    -9.8260     0.1350 C.ar  1 <1>  -0.1500 
 20 C       -0.3960   -10.7670    -0.2240 C.ar  1 <1>   0.3100 
 21 C       -2.6290   -11.0580     0.6400 C.ar  1 <1>  -0.1500 
 22 C       -1.3320   -11.5670     0.4680 C.ar  1 <1>   0.0000 
 23 C        0.9060   -11.2620    -0.4000 C.ar  1 <1>  -0.1500 
 24 C       -0.9280   -12.8280     0.9530 C.ar  1 <1>  -0.1500 
 25 C        1.2780   -12.4900     0.0790 C.ar  1 <1>  -0.1500 
 26 C        0.3490   -13.2810     0.7630 C.ar  1 <1>  -0.1500 
 27 H        2.1440    -2.6550     0.7580 H     1 <1>   0.3700 
 28 H        0.5760     0.0790    -2.3490 H     1 <1>   0.0800 
 29 H        0.5000     1.2320    -1.0270 H     1 <1>   0.0800 
 30 H       -0.7410     0.0120    -1.2040 H     1 <1>   0.0800 
 31 H        2.8760     0.3270    -1.0140 H     1 <1>   0.0800 
 32 H        2.8320    -1.3540    -1.5050 H     1 <1>   0.0800 
 33 H        3.1310    -0.9230     0.1710 H     1 <1>   0.0800 
 34 H        1.3750    -3.2770     3.0760 H     1 <1>   0.0800 
 35 H       -0.2480    -2.9870     2.5440 H     1 <1>   0.0800 
 36 H       -1.9050    -3.7420     0.9920 H     1 <1>   0.0800 
 37 H       -0.8890    -3.5880    -0.4390 H     1 <1>   0.0800 
 38 H        0.1500    -6.7680    -0.3850 H     1 <1>   0.0800 
 39 H       -0.3230    -7.2480     1.2360 H     1 <1>   0.0800 
 40 H       -2.0730    -5.1440    -1.6010 H     1 <1>   0.0800 
 41 H       -2.5730    -6.8280     0.8470 H     1 <1>   0.0800 
 42 H       -3.8140    -4.9080     0.6160 H     1 <1>   0.4000 
 43 H       -1.6520    -7.5390    -1.9570 H     1 <1>   0.0800 
 44 H       -3.2790    -7.6910    -1.3740 H     1 <1>   0.0800 
 45 H       -3.8880    -9.3940     0.2450 H     1 <1>   0.1500 
 46 H       -3.3660   -11.6420     1.1620 H     1 <1>   0.1500 
 47 H        1.6040   -10.6380    -0.9260 H     1 <1>   0.1500 
 48 H       -1.6470   -13.4310     1.4780 H     1 <1>   0.1500 
 49 H        2.2800   -12.8570    -0.0620 H     1 <1>   0.1500 
 50 H        0.6550   -14.2440     1.1350 H     1 <1>   0.1500 
@<TRIPOS>BOND
  1   1   2  2   
  2   2   3  am  
  3   2   4  am  
  4   3   5  1   
  5   3   6  1   
  6   4   7  1   
  7   4  27  1   
  8   5  28  1   
  9   5  29  1   
 10   5  30  1   
 11   6  31  1   
 12   6  32  1   
 13   6  33  1   
 14   7   8  1   
 15   7  34  1   
 16   7  35  1   
 17   8   9  2   
 18   8  10  am  
 19  10  11  1   
 20  10  12  1   
 21  11  13  1   
 22  11  36  1   
 23  11  37  1   
 24  12  14  1   
 25  12  38  1   
 26  12  39  1   
 27  13  14  1   
 28  13  15  1   
 29  13  40  1   
 30  14  16  1   
 31  14  41  1   
 32  15  42  1   
 33  16  17  1   
 34  16  43  1   
 35  16  44  1   
 36  17  18  ar  
 37  17  19  ar  
 38  18  20  ar  
 39  19  21  ar  
 40  19  45  1   
 41  20  22  ar  
 42  20  23  ar  
 43  21  22  ar  
 44  21  46  1   
 45  22  24  ar  
 46  23  25  ar  
 47  23  47  1   
 48  24  26  ar  
 49  24  48  1   
 50  25  26  ar  
 51  25  49  1   
 52  26  50  1   
@<TRIPOS>SUBSTRUCTURE
  1 ****  12 GROUP 4 **** **** 0

# MOE 2024.06 (io_trps.svl 2023.06)
