@<TRIPOS>MOLECULE
NONAME
50 53 1 0 0 
SMALL
USER_CHARGES


@<TRIPOS>ATOM
  1 S       -0.8470     0.7900     1.1430 S.o2  1 <1>   1.4470 
  2 O       -0.9420    -0.2650     2.1270 O.2   1 <1>  -0.6500 
  3 O       -1.4900     2.0580     1.4060 O.2   1 <1>  -0.6500 
  4 N       -1.4800     0.1990    -0.3190 N.am  1 <1>  -0.8490 
  5 C        0.8950     1.0960     0.7350 C.ar  1 <1>  -0.0090 
  6 C       -2.9360     0.4100    -0.4580 C.3   1 <1>   0.1960 
  7 C       -1.1570    -1.2170    -0.5990 C.3   1 <1>   0.1960 
  8 C        1.2370     1.8390    -0.3910 C.ar  1 <1>  -0.1500 
  9 C        1.9240     0.6020     1.5470 C.ar  1 <1>  -0.1500 
 10 C       -3.7640    -0.6210     0.3390 C.3   1 <1>   0.2950 
 11 C       -2.0850    -2.2420     0.1160 C.3   1 <1>   0.2000 
 12 C        2.5720     2.0610    -0.6700 C.ar  1 <1>   0.0820 
 13 C        3.2620     0.8300     1.2610 C.ar  1 <1>  -0.1500 
 14 O       -3.4270    -1.9080    -0.0860 O.3   1 <1>  -0.5600 
 15 C       -5.2670    -0.4380     0.1060 C.3   1 <1>  -0.1950 
 16 C       -1.9060    -3.6720    -0.4080 C.3   1 <1>  -0.1600 
 17 O        3.1150     2.7480    -1.6970 O.3   1 <1>  -0.2320 
 18 C        3.5750     1.5710     0.1350 C.ar  1 <1>   0.1170 
 19 C       -6.0590     0.5320     0.9260 C.3   1 <1>  -0.2000 
 20 C       -6.2700    -0.9470     1.0920 C.3   1 <1>  -0.2000 
 21 C       -0.5090    -4.2470    -0.1220 C.3   1 <1>  -0.1600 
 22 C        4.4400     2.6940    -1.5390 C.2   1 <1>   0.7800 
 23 N        4.7560     1.9800    -0.4320 N.am  1 <1>  -0.5470 
 24 C       -0.4160    -5.7080    -0.5750 C.3   1 <1>  -0.1600 
 25 O        5.2300     3.2190    -2.2950 O.2   1 <1>  -0.5700 
 26 C        0.9750    -6.2850    -0.2950 C.3   1 <1>  -0.2400 
 27 H       -3.2070     1.4050    -0.1520 H     1 <1>   0.0800 
 28 H       -3.2010     0.3190    -1.4970 H     1 <1>   0.0800 
 29 H       -1.2430    -1.3790    -1.6600 H     1 <1>   0.0800 
 30 H       -0.1330    -1.4120    -0.3330 H     1 <1>   0.0800 
 31 H        0.4760     2.2400    -1.0400 H     1 <1>   0.1500 
 32 H        1.6660     0.0290     2.4240 H     1 <1>   0.1500 
 33 H       -3.5510    -0.5410     1.3910 H     1 <1>   0.0800 
 34 H       -1.9050    -2.2440     1.1760 H     1 <1>   0.0800 
 35 H        4.0430     0.4460     1.8950 H     1 <1>   0.1500 
 36 H       -5.5250    -0.5200    -0.9360 H     1 <1>   0.1000 
 37 H       -2.6410    -4.2960     0.0720 H     1 <1>   0.0800 
 38 H       -2.0940    -3.6890    -1.4670 H     1 <1>   0.0800 
 39 H       -5.5770     1.0710     1.7240 H     1 <1>   0.1000 
 40 H       -6.8300     1.1100     0.4460 H     1 <1>   0.1000 
 41 H       -7.1740    -1.3940     0.7170 H     1 <1>   0.1000 
 42 H       -5.9130    -1.4300     1.9860 H     1 <1>   0.1000 
 43 H        0.2410    -3.6740    -0.6390 H     1 <1>   0.0800 
 44 H       -0.3090    -4.1900     0.9350 H     1 <1>   0.0800 
 45 H        5.7140     1.8360    -0.1180 H     1 <1>   0.3700 
 46 H       -1.1530    -6.2960    -0.0550 H     1 <1>   0.0800 
 47 H       -0.6210    -5.7750    -1.6300 H     1 <1>   0.0800 
 48 H        1.1930    -6.2470     0.7580 H     1 <1>   0.0800 
 49 H        1.7280    -5.7300    -0.8260 H     1 <1>   0.0800 
 50 H        1.0180    -7.3110    -0.6150 H     1 <1>   0.0800 
@<TRIPOS>BOND
  1   1   2  2   
  2   1   3  2   
  3   1   4  am  
  4   1   5  1   
  5   4   6  1   
  6   4   7  1   
  7   5   8  ar  
  8   5   9  ar  
  9   6  10  1   
 10   6  27  1   
 11   6  28  1   
 12   7  11  1   
 13   7  29  1   
 14   7  30  1   
 15   8  12  ar  
 16   8  31  1   
 17   9  13  ar  
 18   9  32  1   
 19  10  14  1   
 20  10  15  1   
 21  10  33  1   
 22  11  14  1   
 23  11  16  1   
 24  11  34  1   
 25  12  17  1   
 26  12  18  ar  
 27  13  18  ar  
 28  13  35  1   
 29  15  19  1   
 30  15  20  1   
 31  15  36  1   
 32  16  21  1   
 33  16  37  1   
 34  16  38  1   
 35  17  22  1   
 36  18  23  1   
 37  19  20  1   
 38  19  39  1   
 39  19  40  1   
 40  20  41  1   
 41  20  42  1   
 42  21  24  1   
 43  21  43  1   
 44  21  44  1   
 45  22  23  am  
 46  22  25  2   
 47  23  45  1   
 48  24  26  1   
 49  24  46  1   
 50  24  47  1   
 51  26  48  1   
 52  26  49  1   
 53  26  50  1   
@<TRIPOS>SUBSTRUCTURE
  1 ****   4 GROUP 4 **** **** 0

# MOE 2024.06 (io_trps.svl 2023.06)
