@<TRIPOS>MOLECULE
NONAME
39 40 1 0 0 
SMALL
USER_CHARGES


@<TRIPOS>ATOM
  1 CL       0.1290     1.4970     2.8610 Cl    1 <1>  -0.1230 
  2 C       -0.9250     2.3590     1.7620 C.2   1 <1>   0.4120 
  3 N       -2.1140     1.9430     1.4640 N.2   1 <1>  -0.7070 
  4 C       -0.5690     3.5420     1.1330 C.2   1 <1>  -0.1500 
  5 N       -2.5670     2.8800     0.6080 N.pl3 1 <1>   0.3000 
  6 C       -1.6550     3.8600     0.3880 C.2   1 <1>  -0.3320 
  7 C       -1.9120     5.0420    -0.5380 C.3   1 <1>   0.1000 
  8 C       -0.6110     5.7860    -0.8740 C.3   1 <1>  -0.1600 
  9 C       -2.9190     6.0070     0.1040 C.3   1 <1>  -0.1600 
 10 C       -0.8750     7.0000    -1.7670 C.3   1 <1>   0.1400 
 11 C       -3.1710     7.2320    -0.7800 C.3   1 <1>   0.1400 
 12 N       -1.8770     7.8830    -1.1140 N.am  1 <1>  -0.6600 
 13 C       -1.6020     9.2000    -0.8390 C.2   1 <1>   0.7800 
 14 O       -0.5350     9.7090    -1.1220 O.2   1 <1>  -0.5700 
 15 O       -2.5610     9.9120    -0.2410 O.3   1 <1>  -0.4300 
 16 C       -2.5080    11.2680     0.1490 C.3   1 <1>   0.2800 
 17 C       -3.8700    11.5520     0.7840 C.3   1 <1>  -0.2400 
 18 C       -2.3270    12.1680    -1.0790 C.3   1 <1>  -0.2400 
 19 C       -1.4090    11.4760     1.1980 C.3   1 <1>  -0.2400 
 20 H        0.3710     4.0480     1.2500 H     1 <1>   0.1500 
 21 H       -3.5050     2.8220     0.1900 H     1 <1>   0.2700 
 22 H       -2.3280     4.6680    -1.4590 H     1 <1>   0.0800 
 23 H        0.0680     5.1190    -1.3750 H     1 <1>   0.0800 
 24 H       -0.1370     6.1260     0.0290 H     1 <1>   0.0800 
 25 H       -2.5430     6.3390     1.0560 H     1 <1>   0.0800 
 26 H       -3.8520     5.5030     0.2790 H     1 <1>   0.0800 
 27 H       -1.2560     6.6840    -2.7220 H     1 <1>   0.0800 
 28 H        0.0480     7.5290    -1.9360 H     1 <1>   0.0800 
 29 H       -3.8280     7.9130    -0.2670 H     1 <1>   0.0800 
 30 H       -3.6550     6.9330    -1.6950 H     1 <1>   0.0800 
 31 H       -4.6570    11.3870     0.0700 H     1 <1>   0.0800 
 32 H       -3.9220    12.5730     1.1160 H     1 <1>   0.0800 
 33 H       -4.0260    10.9110     1.6330 H     1 <1>   0.0800 
 34 H       -3.0710    11.9420    -1.8210 H     1 <1>   0.0800 
 35 H       -1.3500    12.0450    -1.5090 H     1 <1>   0.0800 
 36 H       -2.4280    13.2000    -0.7960 H     1 <1>   0.0800 
 37 H       -1.5270    10.7780     2.0060 H     1 <1>   0.0800 
 38 H       -1.4660    12.4720     1.5950 H     1 <1>   0.0800 
 39 H       -0.4330    11.3550     0.7660 H     1 <1>   0.0800 
@<TRIPOS>BOND
  1   1   2  1   
  2   2   3  2   
  3   2   4  1   
  4   3   5  1   
  5   4   6  2   
  6   4  20  1   
  7   5   6  1   
  8   5  21  1   
  9   6   7  1   
 10   7   8  1   
 11   7   9  1   
 12   7  22  1   
 13   8  10  1   
 14   8  23  1   
 15   8  24  1   
 16   9  11  1   
 17   9  25  1   
 18   9  26  1   
 19  10  12  1   
 20  10  27  1   
 21  10  28  1   
 22  11  12  1   
 23  11  29  1   
 24  11  30  1   
 25  12  13  am  
 26  13  14  2   
 27  13  15  1   
 28  15  16  1   
 29  16  17  1   
 30  16  18  1   
 31  16  19  1   
 32  17  31  1   
 33  17  32  1   
 34  17  33  1   
 35  18  34  1   
 36  18  35  1   
 37  18  36  1   
 38  19  37  1   
 39  19  38  1   
 40  19  39  1   
@<TRIPOS>SUBSTRUCTURE
  1 ****   9 GROUP 4 **** **** 0

# MOE 2024.06 (io_trps.svl 2023.06)
