@<TRIPOS>MOLECULE
S3819 Decursinol angelate.cdx
44 46 1 0 0 
SMALL
USER_CHARGES


@<TRIPOS>ATOM
  1 O        1.0100     0.8210     0.6030 O.2   1 <1>  -0.5700 
  2 C        1.9020     0.0040     0.6980 C.2   1 <1>   0.7060 
  3 O        3.1120     0.3190     0.2230 O.3   1 <1>  -0.2330 
  4 C        1.7230    -1.2820     1.2940 C.2   1 <1>  -0.1360 
  5 C        4.1650    -0.5300     0.2840 C.ar  1 <1>   0.0820 
  6 C        2.7420    -2.1640     1.3790 C.2   1 <1>  -0.1780 
  7 C        4.0210    -1.7990     0.8620 C.ar  1 <1>   0.0280 
  8 C        5.3830    -0.1240    -0.2330 C.ar  1 <1>  -0.1500 
  9 C        5.1330    -2.6410     0.9000 C.ar  1 <1>  -0.1500 
 10 C        6.4740    -0.9690    -0.1830 C.ar  1 <1>   0.0830 
 11 C        6.3510    -2.2400     0.3840 C.ar  1 <1>  -0.1430 
 12 O        7.6390    -0.5210    -0.7050 O.3   1 <1>  -0.3630 
 13 C        7.5410    -3.1820     0.4350 C.3   1 <1>  -0.0170 
 14 C        8.8620    -1.2010    -0.4910 C.3   1 <1>   0.2800 
 15 C        8.6220    -2.7320    -0.5540 C.3   1 <1>   0.2000 
 16 C        9.7960    -0.7500    -1.6190 C.3   1 <1>  -0.2400 
 17 C        9.4160    -0.7130     0.8590 C.3   1 <1>  -0.2400 
 18 O        9.8310    -3.4200    -0.2640 O.3   1 <1>  -0.4300 
 19 C       10.0690    -4.6730    -0.6630 C.2   1 <1>   0.7060 
 20 O        9.2040    -5.2460    -1.2880 O.2   1 <1>  -0.5700 
 21 C       11.3600    -5.2570    -0.3130 C.2   1 <1>  -0.1240 
 22 C       11.8260    -6.5000    -0.5700 C.2   1 <1>  -0.2880 
 23 C       12.2990    -4.3180     0.4480 C.3   1 <1>  -0.1020 
 24 C       11.1490    -7.6570    -1.2940 C.3   1 <1>  -0.1020 
 25 H        0.7370    -1.4920     1.6630 H     1 <1>   0.1500 
 26 H        2.6300    -3.1380     1.8240 H     1 <1>   0.1500 
 27 H        5.4830     0.8510    -0.6740 H     1 <1>   0.1500 
 28 H        5.0310    -3.6180     1.3390 H     1 <1>   0.1500 
 29 H        7.2230    -4.1780     0.1840 H     1 <1>   0.0800 
 30 H        7.9370    -3.1870     1.4340 H     1 <1>   0.0800 
 31 H        8.3220    -2.9820    -1.5570 H     1 <1>   0.0800 
 32 H       10.7660    -1.2000    -1.5030 H     1 <1>   0.0800 
 33 H        9.9130     0.3180    -1.6040 H     1 <1>   0.0800 
 34 H        9.3970    -1.0460    -2.5730 H     1 <1>   0.0800 
 35 H       10.3640    -1.1770     1.0620 H     1 <1>   0.0800 
 36 H        8.7430    -0.9500     1.6620 H     1 <1>   0.0800 
 37 H        9.5600     0.3520     0.8350 H     1 <1>   0.0800 
 38 H       12.8100    -6.7980    -0.2490 H     1 <1>   0.1500 
 39 H       11.8470    -4.0120     1.3750 H     1 <1>   0.0800 
 40 H       12.5030    -3.4420    -0.1430 H     1 <1>   0.0800 
 41 H       13.2370    -4.7920     0.6750 H     1 <1>   0.0800 
 42 H       11.7310    -7.9350    -2.1540 H     1 <1>   0.0800 
 43 H       10.1580    -7.4200    -1.6270 H     1 <1>   0.0800 
 44 H       11.0840    -8.5060    -0.6370 H     1 <1>   0.0800 
@<TRIPOS>BOND
  1   1   2  2   
  2   2   3  1   
  3   2   4  1   
  4   3   5  1   
  5   4   6  2   
  6   4  25  1   
  7   5   7  ar  
  8   5   8  ar  
  9   6   7  1   
 10   6  26  1   
 11   7   9  ar  
 12   8  10  ar  
 13   8  27  1   
 14   9  11  ar  
 15   9  28  1   
 16  10  11  ar  
 17  10  12  1   
 18  11  13  1   
 19  12  14  1   
 20  13  15  1   
 21  13  29  1   
 22  13  30  1   
 23  14  15  1   
 24  14  16  1   
 25  14  17  1   
 26  15  18  1   
 27  15  31  1   
 28  16  32  1   
 29  16  33  1   
 30  16  34  1   
 31  17  35  1   
 32  17  36  1   
 33  17  37  1   
 34  18  19  1   
 35  19  20  2   
 36  19  21  1   
 37  21  22  2   
 38  21  23  1   
 39  22  24  1   
 40  22  38  1   
 41  23  39  1   
 42  23  40  1   
 43  23  41  1   
 44  24  42  1   
 45  24  43  1   
 46  24  44  1   
@<TRIPOS>SUBSTRUCTURE
  1 ****  11 GROUP 4 **** **** 0

# MOE 2024.06 (io_trps.svl 2023.06)
