@<TRIPOS>MOLECULE
NONAME
45 48 1 0 0 
SMALL
USER_CHARGES


@<TRIPOS>ATOM
  1 F        0.0260    -0.4690     0.0460 F     1 <1>  -0.3400 
  2 C       -1.1940    -0.7230    -0.4020 C.3   1 <1>   1.2400 
  3 F       -1.4460     0.1170    -1.3950 F     1 <1>  -0.3400 
  4 O       -1.2710    -2.0630    -0.8710 O.3   1 <1>  -0.3630 
  5 O       -2.1440    -0.5470     0.6370 O.3   1 <1>  -0.3630 
  6 C       -2.2240    -2.6350    -0.1270 C.ar  1 <1>   0.0830 
  7 C       -2.7410    -1.7370     0.7670 C.ar  1 <1>   0.0830 
  8 C       -2.6760    -3.9370    -0.1900 C.ar  1 <1>  -0.1500 
  9 C       -3.7390    -2.0980     1.6480 C.ar  1 <1>  -0.1500 
 10 C       -3.6960    -4.3220     0.6780 C.ar  1 <1>  -0.1440 
 11 C       -4.2110    -3.4040     1.5960 C.ar  1 <1>  -0.1500 
 12 C       -4.2480    -5.7360     0.6410 C.3   1 <1>   0.4870 
 13 N       -4.7310    -6.0480    -0.7410 N.4   1 <1>  -0.9590 
 14 C       -6.1680    -5.7720    -1.0520 C.3   1 <1>   0.4230 
 15 C       -4.3830    -7.4560    -1.1060 C.3   1 <1>   0.2630 
 16 C       -7.1770    -6.4210    -0.1060 C.3   1 <1>  -0.1600 
 17 C       -6.5380    -4.2950    -1.0380 C.3   1 <1>  -0.1600 
 18 C       -8.4860    -5.6690    -0.3870 C.3   1 <1>  -0.0800 
 19 C       -8.0700    -4.2880    -0.9580 C.3   1 <1>  -0.0800 
 20 C       -9.4410    -5.6330     0.8260 C.3   1 <1>   0.1400 
 21 C       -8.6290    -3.0790    -0.1800 C.3   1 <1>  -0.0990 
 22 N      -10.4080    -4.5320     0.6610 N.am  1 <1>  -0.7300 
 23 C      -10.0760    -3.3110     0.1940 C.2   1 <1>   0.5690 
 24 O      -10.8900    -2.4330     0.0840 O.2   1 <1>  -0.5700 
 25 H       -2.2240    -4.6090    -0.8980 H     1 <1>   0.1500 
 26 H       -4.1290    -1.3810     2.3490 H     1 <1>   0.1500 
 27 H       -4.9890    -3.6910     2.2850 H     1 <1>   0.1500 
 28 H       -5.0370    -5.8470     1.3630 H     1 <1>   0.0800 
 29 H       -3.4530    -6.4120     0.9120 H     1 <1>   0.0800 
 30 H       -4.1920    -5.4180    -1.3520 H     1 <1>   0.4500 
 31 H       -6.3800    -6.1350    -2.0450 H     1 <1>   0.0800 
 32 H       -4.9190    -8.1500    -0.4790 H     1 <1>   0.0800 
 33 H       -3.3250    -7.6260    -0.9840 H     1 <1>   0.0800 
 34 H       -4.6420    -7.6510    -2.1340 H     1 <1>   0.0800 
 35 H       -7.2900    -7.4730    -0.3010 H     1 <1>   0.0800 
 36 H       -6.9020    -6.2690     0.9200 H     1 <1>   0.0800 
 37 H       -6.1450    -3.8070    -0.1690 H     1 <1>   0.0800 
 38 H       -6.1940    -3.7870    -1.9220 H     1 <1>   0.0800 
 39 H       -9.0050    -6.1920    -1.1750 H     1 <1>   0.0800 
 40 H       -8.4650    -4.2300    -1.9600 H     1 <1>   0.0800 
 41 H       -8.8940    -5.4640     1.7370 H     1 <1>   0.0800 
 42 H       -9.9680    -6.5690     0.9120 H     1 <1>   0.0800 
 43 H       -8.5530    -2.1860    -0.7740 H     1 <1>   0.0800 
 44 H       -8.0840    -2.9230     0.7320 H     1 <1>   0.0800 
 45 H      -11.3800    -4.6750     0.9480 H     1 <1>   0.3700 
@<TRIPOS>BOND
  1   1   2  1   
  2   2   3  1   
  3   2   4  1   
  4   2   5  1   
  5   4   6  1   
  6   5   7  1   
  7   6   7  ar  
  8   6   8  ar  
  9   7   9  ar  
 10   8  10  ar  
 11   8  25  1   
 12   9  11  ar  
 13   9  26  1   
 14  10  11  ar  
 15  10  12  1   
 16  11  27  1   
 17  12  13  1   
 18  12  28  1   
 19  12  29  1   
 20  13  14  1   
 21  13  15  1   
 22  13  30  1   
 23  14  16  1   
 24  14  17  1   
 25  14  31  1   
 26  15  32  1   
 27  15  33  1   
 28  15  34  1   
 29  16  18  1   
 30  16  35  1   
 31  16  36  1   
 32  17  19  1   
 33  17  37  1   
 34  17  38  1   
 35  18  19  1   
 36  18  20  1   
 37  18  39  1   
 38  19  21  1   
 39  19  40  1   
 40  20  22  1   
 41  20  41  1   
 42  20  42  1   
 43  21  23  1   
 44  21  43  1   
 45  21  44  1   
 46  22  23  am  
 47  22  45  1   
 48  23  24  2   
@<TRIPOS>SUBSTRUCTURE
  1 ****  10 GROUP 4 **** **** 0

# MOE 2024.06 (io_trps.svl 2023.06)
