@<TRIPOS>MOLECULE
NONAME
58 62 1 0 0 
SMALL
USER_CHARGES


@<TRIPOS>ATOM
  1 O        0.5790     1.1080     0.2950 O.2   1 <1>  -0.5700 
  2 C        0.2650     2.2180    -0.0670 C.2   1 <1>   0.5690 
  3 N       -0.4330     3.0840     0.7290 N.am  1 <1>  -0.6600 
  4 C        0.6480     2.6640    -1.4750 C.3   1 <1>   0.1810 
  5 C       -0.8550     4.4340     0.2270 C.3   1 <1>   0.3640 
  6 C       -0.8640     2.7330     2.1120 C.3   1 <1>   0.0600 
  7 O        0.8850     4.0460    -1.5280 O.3   1 <1>  -0.5600 
  8 C       -2.3880     4.4910     0.1310 C.ar  1 <1>  -0.1430 
  9 C       -0.2200     4.8460    -1.1320 C.3   1 <1>   0.2610 
 10 C       -3.1280     5.5680     0.6220 C.ar  1 <1>  -0.1430 
 11 C       -3.0620     3.4350    -0.4740 C.ar  1 <1>  -0.1500 
 12 C        0.1550     6.3320    -1.0860 C.2   1 <1>   0.5690 
 13 C       -4.5100     5.5620     0.5000 C.ar  1 <1>  -0.1500 
 14 C       -2.4830     6.7770     1.2890 C.3   1 <1>  -0.0960 
 15 C       -4.4390     3.4380    -0.5900 C.ar  1 <1>  -0.1500 
 16 O       -0.4860     7.0760    -1.7950 O.2   1 <1>  -0.5700 
 17 N        1.1310     6.8270    -0.2490 N.am  1 <1>  -0.6600 
 18 C       -5.1650     4.5040    -0.1020 C.ar  1 <1>  -0.1500 
 19 C        1.4390     8.5020    -0.3090 C.3   1 <1>   0.2200 
 20 C        2.1650     5.7850     0.7070 C.3   1 <1>   0.1400 
 21 C        1.1330     8.6620     1.0970 C.3   1 <1>  -0.1600 
 22 C        2.8810     9.5140    -0.3600 C.3   1 <1>  -0.1600 
 23 C        3.8100     6.2920     0.9800 C.3   1 <1>  -0.0800 
 24 C        2.4710     8.0420     1.4840 C.3   1 <1>  -0.0800 
 25 C        4.1070     9.2290     0.8850 C.3   1 <1>  -0.0800 
 26 C        3.4280     7.1200     0.0830 C.3   1 <1>  -0.1600 
 27 C        4.8110     7.6580     1.3000 C.3   1 <1>  -0.1600 
 28 C        3.2420     9.2360     2.0470 C.3   1 <1>  -0.1600 
 29 H       -0.1360     2.4190    -2.1680 H     1 <1>   0.0800 
 30 H        1.5520     2.1660    -1.7750 H     1 <1>   0.0800 
 31 H       -0.5320     5.1420     0.9650 H     1 <1>   0.0800 
 32 H       -0.5100     3.4750     2.8060 H     1 <1>   0.0800 
 33 H       -0.4690     1.7750     2.4020 H     1 <1>   0.0800 
 34 H       -1.9390     2.6890     2.1600 H     1 <1>   0.0800 
 35 H       -0.9620     4.7330    -1.9010 H     1 <1>   0.0800 
 36 H       -2.5180     2.5910    -0.8600 H     1 <1>   0.1500 
 37 H       -5.0920     6.3870     0.8710 H     1 <1>   0.1500 
 38 H       -3.2300     7.4560     1.6600 H     1 <1>   0.0800 
 39 H       -1.8800     7.3110     0.5790 H     1 <1>   0.0800 
 40 H       -1.8760     6.4720     2.1220 H     1 <1>   0.0800 
 41 H       -4.9440     2.6110    -1.0600 H     1 <1>   0.1500 
 42 H       -6.2380     4.5140    -0.1900 H     1 <1>   0.1500 
 43 H        0.6760     8.9750    -0.9040 H     1 <1>   0.0800 
 44 H        1.6860     5.5900     1.6520 H     1 <1>   0.0800 
 45 H        2.2230     4.8250     0.2300 H     1 <1>   0.0800 
 46 H        0.9500     9.6940     1.3350 H     1 <1>   0.0800 
 47 H        0.2830     8.0980     1.4400 H     1 <1>   0.0800 
 48 H        3.3200     9.4480    -1.3400 H     1 <1>   0.0800 
 49 H        2.5580    10.5360    -0.2670 H     1 <1>   0.0800 
 50 H        4.4480     5.5200     0.5830 H     1 <1>   0.0800 
 51 H        2.2690     7.4730     2.3840 H     1 <1>   0.0800 
 52 H        4.8350    10.0200     0.9350 H     1 <1>   0.0800 
 53 H        4.1600     7.5500    -0.6340 H     1 <1>   0.0800 
 54 H        3.2130     6.5750    -0.8610 H     1 <1>   0.0800 
 55 H        5.1310     7.6140     2.3270 H     1 <1>   0.0800 
 56 H        5.7390     7.5550     0.7540 H     1 <1>   0.0800 
 57 H        3.7400     9.0310     2.9790 H     1 <1>   0.0800 
 58 H        2.7410    10.1820     2.1550 H     1 <1>   0.0800 
@<TRIPOS>BOND
  1   1   2  2   
  2   2   3  am  
  3   2   4  1   
  4   3   5  1   
  5   3   6  1   
  6   4   7  1   
  7   4  29  1   
  8   4  30  1   
  9   5   8  1   
 10   5   9  1   
 11   5  31  1   
 12   6  32  1   
 13   6  33  1   
 14   6  34  1   
 15   7   9  1   
 16   8  10  ar  
 17   8  11  ar  
 18   9  12  1   
 19   9  35  1   
 20  10  13  ar  
 21  10  14  1   
 22  11  15  ar  
 23  11  36  1   
 24  12  16  2   
 25  12  17  am  
 26  13  18  ar  
 27  13  37  1   
 28  14  38  1   
 29  14  39  1   
 30  14  40  1   
 31  15  18  ar  
 32  15  41  1   
 33  17  19  1   
 34  17  20  1   
 35  18  42  1   
 36  19  21  1   
 37  19  22  1   
 38  19  43  1   
 39  20  23  1   
 40  20  44  1   
 41  20  45  1   
 42  21  24  1   
 43  21  46  1   
 44  21  47  1   
 45  22  25  1   
 46  22  48  1   
 47  22  49  1   
 48  23  26  1   
 49  23  27  1   
 50  23  50  1   
 51  24  26  1   
 52  24  28  1   
 53  24  51  1   
 54  25  27  1   
 55  25  28  1   
 56  25  52  1   
 57  26  53  1   
 58  26  54  1   
 59  27  55  1   
 60  27  56  1   
 61  28  57  1   
 62  28  58  1   
@<TRIPOS>SUBSTRUCTURE
  1 ****  12 GROUP 4 **** **** 0

# MOE 2024.06 (io_trps.svl 2023.06)
