@<TRIPOS>MOLECULE
NONAME
47 48 1 0 0 
SMALL
USER_CHARGES


@<TRIPOS>ATOM
  1 O       -0.3210     0.7760     0.0670 O.2   1 <1>  -0.5700 
  2 C       -0.3990     1.9610    -0.1560 C.2   1 <1>   0.5690 
  3 N       -1.2270     2.7880     0.5560 N.am  1 <1>  -0.6600 
  4 C        0.4470     2.5400    -1.2900 C.3   1 <1>   0.1810 
  5 C       -1.3180     4.2520     0.2440 C.3   1 <1>   0.3640 
  6 C       -2.0330     2.3090     1.7170 C.3   1 <1>   0.0600 
  7 O        0.7160     3.9080    -1.1160 O.3   1 <1>  -0.5600 
  8 C       -2.7750     4.7060     0.0710 C.ar  1 <1>  -0.1430 
  9 C       -0.4420     4.7090    -0.9510 C.3   1 <1>   0.2610 
 10 C       -3.7090     4.0910    -0.7710 C.ar  1 <1>  -0.1430 
 11 C       -3.1710     5.8140     0.8120 C.ar  1 <1>  -0.1500 
 12 C       -0.0930     6.1960    -0.7890 C.2   1 <1>   0.5690 
 13 C       -5.0010     4.5920    -0.8370 C.ar  1 <1>  -0.1500 
 14 C       -3.3970     2.8730    -1.6350 C.3   1 <1>  -0.0960 
 15 C       -4.4610     6.3060     0.7350 C.ar  1 <1>  -0.1500 
 16 O       -0.7110     6.9720    -1.4830 O.2   1 <1>  -0.5700 
 17 N        0.8510     6.6650     0.1050 N.am  1 <1>  -0.6600 
 18 C       -5.3790     5.6920    -0.0910 C.ar  1 <1>  -0.1500 
 19 C        1.0820     8.1380     0.2290 C.3   1 <1>   0.1400 
 20 C        1.6990     5.8140     0.9910 C.3   1 <1>   0.1400 
 21 C        1.8700     8.6780    -0.9710 C.3   1 <1>   0.1200 
 22 C        3.1090     5.6970     0.4190 C.3   1 <1>  -0.2400 
 23 O        2.0420    10.0470    -0.8260 O.3   1 <1>  -0.6800 
 24 H       -0.0580     2.4040    -2.2290 H     1 <1>   0.0800 
 25 H        1.3900     2.0250    -1.3260 H     1 <1>   0.0800 
 26 H       -0.9350     4.7540     1.1140 H     1 <1>   0.0800 
 27 H       -1.8010     2.8930     2.5890 H     1 <1>   0.0800 
 28 H       -1.8180     1.2750     1.9290 H     1 <1>   0.0800 
 29 H       -3.0830     2.4020     1.4990 H     1 <1>   0.0800 
 30 H       -1.0130     4.6210    -1.8560 H     1 <1>   0.0800 
 31 H       -2.4750     6.3170     1.4600 H     1 <1>   0.1500 
 32 H       -5.7310     4.1280    -1.4760 H     1 <1>   0.1500 
 33 H       -4.1740     2.7070    -2.3590 H     1 <1>   0.0800 
 34 H       -3.3240     1.9940    -1.0210 H     1 <1>   0.0800 
 35 H       -2.4790     3.0040    -2.1720 H     1 <1>   0.0800 
 36 H       -4.7480     7.1650     1.3150 H     1 <1>   0.1500 
 37 H       -6.3850     6.0680    -0.1550 H     1 <1>   0.1500 
 38 H        0.1280     8.6340     0.2770 H     1 <1>   0.0800 
 39 H        1.6230     8.3510     1.1340 H     1 <1>   0.0800 
 40 H        1.7390     6.2470     1.9760 H     1 <1>   0.0800 
 41 H        1.2810     4.8290     1.0910 H     1 <1>   0.0800 
 42 H        1.3440     8.5010    -1.8930 H     1 <1>   0.0800 
 43 H        2.8450     8.2290    -1.0200 H     1 <1>   0.0800 
 44 H        3.6120     6.6460     0.4430 H     1 <1>   0.0800 
 45 H        3.0710     5.3310    -0.5920 H     1 <1>   0.0800 
 46 H        3.6790     5.0020     1.0090 H     1 <1>   0.0800 
 47 H        1.1990    10.5130    -0.9950 H     1 <1>   0.4000 
@<TRIPOS>BOND
  1   1   2  2   
  2   2   3  am  
  3   2   4  1   
  4   3   5  1   
  5   3   6  1   
  6   4   7  1   
  7   4  24  1   
  8   4  25  1   
  9   5   8  1   
 10   5   9  1   
 11   5  26  1   
 12   6  27  1   
 13   6  28  1   
 14   6  29  1   
 15   7   9  1   
 16   8  10  ar  
 17   8  11  ar  
 18   9  12  1   
 19   9  30  1   
 20  10  13  ar  
 21  10  14  1   
 22  11  15  ar  
 23  11  31  1   
 24  12  16  2   
 25  12  17  am  
 26  13  18  ar  
 27  13  32  1   
 28  14  33  1   
 29  14  34  1   
 30  14  35  1   
 31  15  18  ar  
 32  15  36  1   
 33  17  19  1   
 34  17  20  1   
 35  18  37  1   
 36  19  21  1   
 37  19  38  1   
 38  19  39  1   
 39  20  22  1   
 40  20  40  1   
 41  20  41  1   
 42  21  23  1   
 43  21  42  1   
 44  21  43  1   
 45  22  44  1   
 46  22  45  1   
 47  22  46  1   
 48  23  47  1   
@<TRIPOS>SUBSTRUCTURE
  1 ****   5 GROUP 4 **** **** 0

# MOE 2024.06 (io_trps.svl 2023.06)
