@<TRIPOS>MOLECULE
NONAME
60 64 1 0 0 
SMALL
USER_CHARGES


@<TRIPOS>ATOM
  1 CL      -1.9650    -1.6380    -1.6600 Cl    1 <1>  -0.1770 
  2 C       -0.4650    -0.9140    -1.1350 C.ar  1 <1>   0.1770 
  3 C        0.6800    -1.6730    -1.1100 C.ar  1 <1>  -0.1500 
  4 C       -0.4720     0.4300    -0.7520 C.ar  1 <1>  -0.1500 
  5 C        1.8670    -1.0690    -0.6820 C.ar  1 <1>  -0.1520 
  6 C        0.6970     1.0260    -0.3360 C.ar  1 <1>  -0.1500 
  7 N        3.1440    -1.5650    -0.5490 N.pl3 1 <1>   0.0480 
  8 C        1.8760     0.2720    -0.3010 C.ar  1 <1>   0.0000 
  9 C        3.9400    -0.5510    -0.0950 C.2   1 <1>  -0.3020 
 10 C        3.5660    -2.9650    -0.7330 C.3   1 <1>   0.0960 
 11 C        3.2040     0.5740     0.0630 C.2   1 <1>  -0.1500 
 12 C        3.4660    -3.6990     0.6030 C.3   1 <1>   0.1400 
 13 N        3.8280    -5.1280     0.4290 N.am  1 <1>  -0.7300 
 14 C        3.1170    -6.2740     0.5900 C.2   1 <1>   0.5690 
 15 O        3.6880    -7.3150     0.3900 O.2   1 <1>  -0.5700 
 16 C        1.6420    -6.3340     1.0090 C.3   1 <1>  -0.0190 
 17 C        0.6900    -5.6670    -0.0030 C.3   1 <1>  -0.1600 
 18 C        1.3970    -5.8310     2.4460 C.3   1 <1>  -0.1600 
 19 C       -0.7780    -5.8120     0.4220 C.3   1 <1>  -0.1600 
 20 C       -0.0790    -5.9740     2.8450 C.3   1 <1>  -0.1600 
 21 C       -1.0170    -5.2720     1.8460 C.3   1 <1>  -0.0800 
 22 C       -2.4770    -5.4620     2.2970 C.3   1 <1>   0.1400 
 23 N       -3.4350    -4.8100     1.3720 N.am  1 <1>  -0.6600 
 24 C       -4.3950    -5.4370     0.6340 C.2   1 <1>   0.5440 
 25 C       -3.5070    -3.3370     1.1880 C.3   1 <1>   0.2840 
 26 O       -4.5590    -6.6410     0.6200 O.2   1 <1>  -0.5700 
 27 C       -5.1560    -4.4610    -0.0910 C.ar  1 <1>   0.0860 
 28 C       -4.6640    -3.2050     0.2090 C.ar  1 <1>  -0.1430 
 29 C       -6.2230    -4.5910    -0.9710 C.ar  1 <1>  -0.1500 
 30 C       -5.2110    -2.0660    -0.3530 C.ar  1 <1>  -0.1500 
 31 C       -6.7800    -3.4560    -1.5390 C.ar  1 <1>  -0.1500 
 32 C       -6.2750    -2.2000    -1.2320 C.ar  1 <1>  -0.1500 
 33 H        0.6570    -2.7000    -1.4210 H     1 <1>   0.1500 
 34 H       -1.3940     0.9810    -0.7930 H     1 <1>   0.1500 
 35 H        0.7250     2.0590    -0.0380 H     1 <1>   0.1500 
 36 H        4.9910    -0.6870     0.0920 H     1 <1>   0.1500 
 37 H        4.5790    -2.9770    -1.0910 H     1 <1>   0.0800 
 38 H        2.9280    -3.4300    -1.4620 H     1 <1>   0.0800 
 39 H        3.5310     1.5420     0.4020 H     1 <1>   0.1500 
 40 H        2.4680    -3.6030     0.9840 H     1 <1>   0.0800 
 41 H        4.1430    -3.2530     1.3130 H     1 <1>   0.0800 
 42 H        4.8060    -5.3010     0.1820 H     1 <1>   0.3700 
 43 H        1.3870    -7.3800     1.0110 H     1 <1>   0.0800 
 44 H        0.8250    -6.1200    -0.9700 H     1 <1>   0.0800 
 45 H        0.9150    -4.6230    -0.0970 H     1 <1>   0.0800 
 46 H        1.6830    -4.8020     2.5440 H     1 <1>   0.0800 
 47 H        2.0050    -6.4020     3.1260 H     1 <1>   0.0800 
 48 H       -1.0620    -6.8510     0.3820 H     1 <1>   0.0800 
 49 H       -1.3970    -5.2830    -0.2820 H     1 <1>   0.0800 
 50 H       -0.2190    -5.5610     3.8290 H     1 <1>   0.0800 
 51 H       -0.3280    -7.0210     2.8920 H     1 <1>   0.0800 
 52 H       -0.7920    -4.2200     1.8620 H     1 <1>   0.0800 
 53 H       -2.6140    -5.0530     3.2830 H     1 <1>   0.0800 
 54 H       -2.7020    -6.5150     2.3430 H     1 <1>   0.0800 
 55 H       -2.5920    -2.9630     0.7640 H     1 <1>   0.0800 
 56 H       -3.7260    -2.8490     2.1210 H     1 <1>   0.0800 
 57 H       -6.6010    -5.5730    -1.1980 H     1 <1>   0.1500 
 58 H       -4.8180    -1.0920    -0.1190 H     1 <1>   0.1500 
 59 H       -7.6060    -3.5500    -2.2230 H     1 <1>   0.1500 
 60 H       -6.7120    -1.3240    -1.6800 H     1 <1>   0.1500 
@<TRIPOS>BOND
  1   1   2  1   
  2   2   3  ar  
  3   2   4  ar  
  4   3   5  ar  
  5   3  33  1   
  6   4   6  ar  
  7   4  34  1   
  8   5   7  1   
  9   5   8  ar  
 10   6   8  ar  
 11   6  35  1   
 12   7   9  1   
 13   7  10  1   
 14   8  11  1   
 15   9  11  2   
 16   9  36  1   
 17  10  12  1   
 18  10  37  1   
 19  10  38  1   
 20  11  39  1   
 21  12  13  1   
 22  12  40  1   
 23  12  41  1   
 24  13  14  am  
 25  13  42  1   
 26  14  15  2   
 27  14  16  1   
 28  16  17  1   
 29  16  18  1   
 30  16  43  1   
 31  17  19  1   
 32  17  44  1   
 33  17  45  1   
 34  18  20  1   
 35  18  46  1   
 36  18  47  1   
 37  19  21  1   
 38  19  48  1   
 39  19  49  1   
 40  20  21  1   
 41  20  50  1   
 42  20  51  1   
 43  21  22  1   
 44  21  52  1   
 45  22  23  1   
 46  22  53  1   
 47  22  54  1   
 48  23  24  am  
 49  23  25  1   
 50  24  26  2   
 51  24  27  1   
 52  25  28  1   
 53  25  55  1   
 54  25  56  1   
 55  27  28  ar  
 56  27  29  ar  
 57  28  30  ar  
 58  29  31  ar  
 59  29  57  1   
 60  30  32  ar  
 61  30  58  1   
 62  31  32  ar  
 63  31  59  1   
 64  32  60  1   
@<TRIPOS>SUBSTRUCTURE
  1 ****  19 GROUP 4 **** **** 0

# MOE 2024.06 (io_trps.svl 2023.06)
