@<TRIPOS>MOLECULE
NONAME
51 53 1 0 0 
SMALL
USER_CHARGES


@<TRIPOS>ATOM
  1 S        1.7370     0.4460    -1.8000 S.o2  1 <1>   1.3330 
  2 O        1.1920     1.3490    -2.7890 O.2   1 <1>  -0.6500 
  3 O        2.4000    -0.7640    -2.2330 O.2   1 <1>  -0.6500 
  4 N        0.4600     0.0030    -0.7730 N.am  1 <1>  -0.8490 
  5 C        2.8700     1.3580    -0.7500 C.3   1 <1>  -0.0550 
  6 C       -0.3300    -1.0990    -1.3290 C.3   1 <1>   0.1160 
  7 C       -0.4220     1.1210    -0.4170 C.3   1 <1>   0.1160 
  8 C        3.5580     0.5230     0.3530 C.3   1 <1>  -0.0800 
  9 C        4.6300     1.2410     1.1790 C.3   1 <1>   0.2200 
 10 C        2.6170    -0.0170     1.4260 C.3   1 <1>   0.1200 
 11 N        4.5940     2.7300     1.0860 N.am  1 <1>  -0.7300 
 12 C        4.3920     0.7410     2.6110 C.3   1 <1>   0.1200 
 13 O        3.4340    -0.2640     2.5200 O.3   1 <1>  -0.5600 
 14 C        3.6240     3.5960     1.4960 C.2   1 <1>   0.6300 
 15 O        2.5750     3.2080     1.9530 O.2   1 <1>  -0.5700 
 16 C        3.8780     5.1040     1.3380 C.3   1 <1>   0.0320 
 17 C        5.1350     5.4160     0.5320 C.ar  1 <1>  -0.0320 
 18 C        3.5080     6.0340     2.4610 C.3   1 <1>  -0.2000 
 19 C        2.7170     6.0500     1.1920 C.3   1 <1>  -0.2000 
 20 C        5.0760     5.4870    -0.8500 C.ar  1 <1>  -0.1500 
 21 C        6.3510     5.6000     1.1700 C.ar  1 <1>  -0.1500 
 22 C        6.2210     5.7360    -1.5870 C.ar  1 <1>  -0.1500 
 23 C        7.4960     5.8510     0.4330 C.ar  1 <1>  -0.1500 
 24 C        7.4370     5.9170    -0.9490 C.ar  1 <1>  -0.1440 
 25 C        8.6930     6.1970    -1.7550 C.3   1 <1>  -0.0970 
 26 H        3.6350     1.7760    -1.3740 H     1 <1>   0.0800 
 27 H        2.3380     2.1750    -0.3100 H     1 <1>   0.0800 
 28 H       -1.1130    -1.3790    -0.6450 H     1 <1>   0.0800 
 29 H        0.3000    -1.9580    -1.4890 H     1 <1>   0.0800 
 30 H       -0.7650    -0.8090    -2.2710 H     1 <1>   0.0800 
 31 H       -1.1750     0.7890     0.2780 H     1 <1>   0.0800 
 32 H       -0.9050     1.5160    -1.2960 H     1 <1>   0.0800 
 33 H        0.1420     1.9080     0.0530 H     1 <1>   0.0800 
 34 H        4.0200    -0.3320    -0.1090 H     1 <1>   0.0800 
 35 H        5.6030     0.9110     0.8570 H     1 <1>   0.0800 
 36 H        2.1320    -0.9330     1.1330 H     1 <1>   0.0800 
 37 H        1.8820     0.7150     1.7170 H     1 <1>   0.0800 
 38 H        5.4360     3.1560     0.6860 H     1 <1>   0.3700 
 39 H        3.9980     1.5130     3.2490 H     1 <1>   0.0800 
 40 H        5.2820     0.3210     3.0430 H     1 <1>   0.0800 
 41 H        3.0510     5.6210     3.3430 H     1 <1>   0.1000 
 42 H        4.1410     6.8770     2.6780 H     1 <1>   0.1000 
 43 H        2.8140     6.8990     0.5390 H     1 <1>   0.1000 
 44 H        1.7170     5.6510     1.2070 H     1 <1>   0.1000 
 45 H        4.1370     5.3470    -1.3570 H     1 <1>   0.1500 
 46 H        6.4090     5.5480     2.2430 H     1 <1>   0.1500 
 47 H        6.1590     5.7910    -2.6600 H     1 <1>   0.1500 
 48 H        8.4330     5.9970     0.9410 H     1 <1>   0.1500 
 49 H        8.6100     5.7790    -2.7420 H     1 <1>   0.0800 
 50 H        9.5520     5.7640    -1.2740 H     1 <1>   0.0800 
 51 H        8.8400     7.2590    -1.8390 H     1 <1>   0.0800 
@<TRIPOS>BOND
  1   1   2  2   
  2   1   3  2   
  3   1   4  am  
  4   1   5  1   
  5   4   6  1   
  6   4   7  1   
  7   5   8  1   
  8   5  26  1   
  9   5  27  1   
 10   6  28  1   
 11   6  29  1   
 12   6  30  1   
 13   7  31  1   
 14   7  32  1   
 15   7  33  1   
 16   8   9  1   
 17   8  10  1   
 18   8  34  1   
 19   9  11  1   
 20   9  12  1   
 21   9  35  1   
 22  10  13  1   
 23  10  36  1   
 24  10  37  1   
 25  11  14  am  
 26  11  38  1   
 27  12  13  1   
 28  12  39  1   
 29  12  40  1   
 30  14  15  2   
 31  14  16  1   
 32  16  17  1   
 33  16  18  1   
 34  16  19  1   
 35  17  20  ar  
 36  17  21  ar  
 37  18  19  1   
 38  18  41  1   
 39  18  42  1   
 40  19  43  1   
 41  19  44  1   
 42  20  22  ar  
 43  20  45  1   
 44  21  23  ar  
 45  21  46  1   
 46  22  24  ar  
 47  22  47  1   
 48  23  24  ar  
 49  23  48  1   
 50  24  25  1   
 51  25  49  1   
 52  25  50  1   
 53  25  51  1   
@<TRIPOS>SUBSTRUCTURE
  1 ****  11 GROUP 4 **** **** 0

# MOE 2024.06 (io_trps.svl 2023.06)
