@<TRIPOS>MOLECULE
NONAME
51 52 1 0 0 
SMALL
USER_CHARGES


@<TRIPOS>ATOM
  1 O        0.2570    -0.0930     1.4990 O.2   1 <1>  -0.5700 
  2 C        1.0480    -0.3270     0.6160 C.2   1 <1>   0.5690 
  3 N        1.9190     0.6140     0.1700 N.am  1 <1>  -0.7300 
  4 C        1.0230    -1.7390     0.0010 C.3   1 <1>   0.4040 
  5 C        2.0470     1.9640     0.7550 C.3   1 <1>   0.2840 
  6 N       -0.3000    -2.4470     0.2120 N.4   1 <1>  -0.9590 
  7 C        3.4290     2.4800     0.4000 C.ar  1 <1>  -0.1440 
  8 C       -0.1660    -3.9300     0.0530 C.3   1 <1>   0.3430 
  9 C       -1.3720    -1.8450    -0.6460 C.3   1 <1>   0.2630 
 10 C        3.6290     3.2160    -0.7580 C.ar  1 <1>  -0.1500 
 11 C        4.5100     2.2110     1.2270 C.ar  1 <1>  -0.1500 
 12 C       -1.3920    -4.6890     0.5660 C.3   1 <1>   0.0210 
 13 C        4.8920     3.6770    -1.0830 C.ar  1 <1>  -0.1500 
 14 C        5.7710     2.6760     0.9000 C.ar  1 <1>  -0.1500 
 15 C       -1.1240    -6.1720     0.4460 C.2   1 <1>  -0.1810 
 16 C        5.9770     3.4200    -0.2540 C.ar  1 <1>   0.1170 
 17 C       -0.3770    -6.9580     1.3180 C.2   1 <1>   0.1390 
 18 C       -1.5320    -7.0260    -0.5160 C.2   1 <1>  -0.3020 
 19 N        7.2610     3.8770    -0.5640 N.am  1 <1>  -0.5470 
 20 N       -0.3130    -8.1910     0.9270 N.2   1 <1>  -0.7070 
 21 N       -1.0360    -8.2400    -0.2030 N.pl3 1 <1>   0.3140 
 22 C        7.7080     5.1200    -0.8820 C.2   1 <1>   0.5690 
 23 C       -1.2150    -9.4940    -0.9440 C.3   1 <1>   0.0160 
 24 O        8.8710     5.2910    -1.1390 O.2   1 <1>  -0.5700 
 25 C        6.7740     6.3070    -0.8980 C.3   1 <1>  -0.1790 
 26 H        2.6300     0.4340    -0.5440 H     1 <1>   0.3700 
 27 H        1.8100    -2.3050     0.4680 H     1 <1>   0.0800 
 28 H        1.2380    -1.6690    -1.0510 H     1 <1>   0.0800 
 29 H        1.9220     1.9200     1.8240 H     1 <1>   0.0800 
 30 H        1.2880     2.6100     0.3480 H     1 <1>   0.0800 
 31 H       -0.5480    -2.2250     1.1950 H     1 <1>   0.4500 
 32 H        0.6940    -4.2740     0.6050 H     1 <1>   0.0800 
 33 H       -0.0090    -4.1770    -0.9850 H     1 <1>   0.0800 
 34 H       -1.1560    -2.0070    -1.6900 H     1 <1>   0.0800 
 35 H       -1.4390    -0.7830    -0.4660 H     1 <1>   0.0800 
 36 H       -2.3290    -2.2850    -0.4180 H     1 <1>   0.0800 
 37 H        2.8030     3.4330    -1.4150 H     1 <1>   0.1500 
 38 H        4.3740     1.6410     2.1300 H     1 <1>   0.1500 
 39 H       -2.2610    -4.4480    -0.0190 H     1 <1>   0.0800 
 40 H       -1.5830    -4.4490     1.5970 H     1 <1>   0.0800 
 41 H        5.0380     4.2360    -1.9890 H     1 <1>   0.1500 
 42 H        6.6020     2.4660     1.5490 H     1 <1>   0.1500 
 43 H        0.1010    -6.6090     2.2180 H     1 <1>   0.1500 
 44 H       -2.1370    -6.8550    -1.3880 H     1 <1>   0.1500 
 45 H        8.0210     3.2010    -0.4860 H     1 <1>   0.3700 
 46 H       -2.0160    -9.3860    -1.6510 H     1 <1>   0.0800 
 47 H       -1.4480   -10.2780    -0.2480 H     1 <1>   0.0800 
 48 H       -0.3020    -9.7300    -1.4560 H     1 <1>   0.0800 
 49 H        6.0590     6.2320    -0.1010 H     1 <1>   0.0800 
 50 H        6.2630     6.3520    -1.8410 H     1 <1>   0.0800 
 51 H        7.3410     7.2100    -0.7690 H     1 <1>   0.0800 
@<TRIPOS>BOND
  1   1   2  2   
  2   2   3  am  
  3   2   4  1   
  4   3   5  1   
  5   3  26  1   
  6   4   6  1   
  7   4  27  1   
  8   4  28  1   
  9   5   7  1   
 10   5  29  1   
 11   5  30  1   
 12   6   8  1   
 13   6   9  1   
 14   6  31  1   
 15   7  10  ar  
 16   7  11  ar  
 17   8  12  1   
 18   8  32  1   
 19   8  33  1   
 20   9  34  1   
 21   9  35  1   
 22   9  36  1   
 23  10  13  ar  
 24  10  37  1   
 25  11  14  ar  
 26  11  38  1   
 27  12  15  1   
 28  12  39  1   
 29  12  40  1   
 30  13  16  ar  
 31  13  41  1   
 32  14  16  ar  
 33  14  42  1   
 34  15  17  1   
 35  15  18  2   
 36  16  19  1   
 37  17  20  2   
 38  17  43  1   
 39  18  21  1   
 40  18  44  1   
 41  19  22  am  
 42  19  45  1   
 43  20  21  1   
 44  21  23  1   
 45  22  24  2   
 46  22  25  1   
 47  23  46  1   
 48  23  47  1   
 49  23  48  1   
 50  25  49  1   
 51  25  50  1   
 52  25  51  1   
@<TRIPOS>SUBSTRUCTURE
  1 ****   2 GROUP 4 **** **** 0

# MOE 2024.06 (io_trps.svl 2023.06)
