@<TRIPOS>MOLECULE
NONAME
54 56 1 0 0 
SMALL
USER_CHARGES


@<TRIPOS>ATOM
  1 O       -0.3080    -0.4050     0.5940 O.3   1 <1>  -0.5600 
  2 C       -0.3510    -0.4820    -0.8060 C.3   1 <1>   0.1200 
  3 C        0.6840    -1.2020     1.1820 C.3   1 <1>   0.1200 
  4 C       -0.5510    -1.9420    -1.2790 C.3   1 <1>   0.3430 
  5 C        0.4820    -2.6930     0.8230 C.3   1 <1>   0.3430 
  6 N       -0.6860    -2.8810    -0.1120 N.4   1 <1>  -0.9590 
  7 C       -0.9150    -4.3000    -0.5500 C.3   1 <1>   0.3430 
  8 C       -1.2940    -5.2520     0.6030 C.3   1 <1>   0.2090 
  9 N       -1.5020    -6.6450     0.0950 N.pl3 1 <1>  -0.8380 
 10 C       -2.7020    -7.3090     0.1180 C.ar  1 <1>   0.4100 
 11 C       -0.2250    -7.3770    -0.2010 C.3   1 <1>   0.2090 
 12 N       -2.6680    -8.6270     0.1180 N.ar  1 <1>  -0.6200 
 13 C       -3.9370    -6.6270     0.1330 C.ar  1 <1>  -0.1500 
 14 C       -0.0670    -7.5280    -1.7120 C.3   1 <1>  -0.2400 
 15 C       -3.8070    -9.3040     0.1540 C.ar  1 <1>   0.7710 
 16 C       -5.0940    -7.3340     0.1740 C.ar  1 <1>   0.2180 
 17 N       -4.9950    -8.6830     0.1900 N.ar  1 <1>  -0.1790 
 18 N       -3.7730   -10.6580     0.1570 N.pl3 1 <1>  -0.8380 
 19 C       -6.4750    -6.7010     0.1970 C.3   1 <1>  -0.0970 
 20 C       -4.9100   -11.6190     0.1330 C.3   1 <1>   0.2090 
 21 C       -2.4810   -11.4020     0.1490 C.3   1 <1>   0.2090 
 22 C       -4.2800   -12.9680    -0.1860 C.3   1 <1>  -0.1600 
 23 C       -2.8580   -12.8630     0.3500 C.3   1 <1>  -0.1600 
 24 H        0.5620    -0.0720    -1.2040 H     1 <1>   0.0800 
 25 H       -1.1680     0.1330    -1.1430 H     1 <1>   0.0800 
 26 H        0.6260    -1.0650     2.2480 H     1 <1>   0.0800 
 27 H        1.6480    -0.8550     0.8510 H     1 <1>   0.0800 
 28 H        0.2910    -2.2280    -1.8890 H     1 <1>   0.0800 
 29 H       -1.4310    -1.9900    -1.9000 H     1 <1>   0.0800 
 30 H        0.3240    -3.2490     1.7320 H     1 <1>   0.0800 
 31 H        1.3840    -3.0670     0.3670 H     1 <1>   0.0800 
 32 H       -1.5030    -2.5220     0.4080 H     1 <1>   0.4500 
 33 H       -0.0230    -4.6730    -1.0240 H     1 <1>   0.0800 
 34 H       -1.7120    -4.3240    -1.2750 H     1 <1>   0.0800 
 35 H       -2.1800    -4.8970     1.0950 H     1 <1>   0.0800 
 36 H       -0.5050    -5.2730     1.3350 H     1 <1>   0.0800 
 37 H       -0.2300    -8.3510     0.2620 H     1 <1>   0.0800 
 38 H        0.6210    -6.8460     0.1990 H     1 <1>   0.0800 
 39 H       -3.9520    -5.5570     0.0990 H     1 <1>   0.1500 
 40 H       -0.8840    -8.1010    -2.1130 H     1 <1>   0.0800 
 41 H        0.8450    -8.0560    -1.9250 H     1 <1>   0.0800 
 42 H       -0.0280    -6.5720    -2.1980 H     1 <1>   0.0800 
 43 H       -5.8020    -9.2920     0.2290 H     1 <1>   0.4570 
 44 H       -6.4010    -5.6280     0.1790 H     1 <1>   0.0800 
 45 H       -7.0050    -6.9850     1.0890 H     1 <1>   0.0800 
 46 H       -7.0450    -7.0110    -0.6620 H     1 <1>   0.0800 
 47 H       -5.6410   -11.3590    -0.6140 H     1 <1>   0.0800 
 48 H       -5.3690   -11.6580     1.1080 H     1 <1>   0.0800 
 49 H       -1.8250   -11.0580     0.9330 H     1 <1>   0.0800 
 50 H       -1.9990   -11.2680    -0.8050 H     1 <1>   0.0800 
 51 H       -4.2580   -13.1040    -1.2530 H     1 <1>   0.0800 
 52 H       -4.8250   -13.7820     0.2580 H     1 <1>   0.0800 
 53 H       -2.8420   -13.0880     1.4020 H     1 <1>   0.0800 
 54 H       -2.1780   -13.5230    -0.1580 H     1 <1>   0.0800 
@<TRIPOS>BOND
  1   1   2  1   
  2   1   3  1   
  3   2   4  1   
  4   2  24  1   
  5   2  25  1   
  6   3   5  1   
  7   3  26  1   
  8   3  27  1   
  9   4   6  1   
 10   4  28  1   
 11   4  29  1   
 12   5   6  1   
 13   5  30  1   
 14   5  31  1   
 15   6   7  1   
 16   6  32  1   
 17   7   8  1   
 18   7  33  1   
 19   7  34  1   
 20   8   9  1   
 21   8  35  1   
 22   8  36  1   
 23   9  10  1   
 24   9  11  1   
 25  10  12  ar  
 26  10  13  ar  
 27  11  14  1   
 28  11  37  1   
 29  11  38  1   
 30  12  15  ar  
 31  13  16  ar  
 32  13  39  1   
 33  14  40  1   
 34  14  41  1   
 35  14  42  1   
 36  15  17  ar  
 37  15  18  1   
 38  16  17  ar  
 39  16  19  1   
 40  17  43  1   
 41  18  20  1   
 42  18  21  1   
 43  19  44  1   
 44  19  45  1   
 45  19  46  1   
 46  20  22  1   
 47  20  47  1   
 48  20  48  1   
 49  21  23  1   
 50  21  49  1   
 51  21  50  1   
 52  22  23  1   
 53  22  51  1   
 54  22  52  1   
 55  23  53  1   
 56  23  54  1   
@<TRIPOS>SUBSTRUCTURE
  1 ****  10 GROUP 4 **** **** 0

# MOE 2024.06 (io_trps.svl 2023.06)
