@<TRIPOS>MOLECULE
NONAME
58 61 1 0 0 
SMALL
USER_CHARGES


@<TRIPOS>ATOM
  1 O        0.4080     1.0200    -0.1990 O.2   1 <1>  -0.5700 
  2 C       -0.3520     1.9520    -0.3910 C.2   1 <1>   0.7160 
  3 N       -1.6610     1.6850    -0.7440 N.am  1 <1>  -0.6600 
  4 C        0.1180     3.3050    -0.2070 C.2   1 <1>  -0.0860 
  5 C       -2.7600     2.6990    -0.6650 C.3   1 <1>   0.1400 
  6 C       -2.1520     0.2980    -0.9840 C.3   1 <1>   0.1400 
  7 C        0.8330     3.7930     0.8920 C.2   1 <1>   0.1080 
  8 C       -0.0100     4.4070    -1.0000 C.2   1 <1>  -0.3020 
  9 C       -3.7480     2.3520     0.4630 C.3   1 <1>   0.1440 
 10 C       -3.1430    -0.1010     0.1180 C.3   1 <1>  -0.1600 
 11 N        1.0930     5.0570     0.8040 N.2   1 <1>  -0.7070 
 12 C        1.2750     2.9660     2.0800 C.3   1 <1>  -0.0590 
 13 N        0.5770     5.4370    -0.3760 N.pl3 1 <1>   0.3140 
 14 C       -4.8380     3.4050     0.4620 C.ar  1 <1>   0.1660 
 15 C       -4.2880     0.9190     0.2590 C.3   1 <1>  -0.1600 
 16 C       -3.1090     2.5430     1.8660 C.3   1 <1>  -0.1600 
 17 C        0.6830     6.8250    -0.8640 C.3   1 <1>   0.0960 
 18 N       -5.8050     3.4960    -0.4160 N.ar  1 <1>  -0.6200 
 19 C       -4.6790     4.2890     1.4860 C.ar  1 <1>  -0.1430 
 20 C       -3.4710     3.9640     2.3290 C.3   1 <1>  -0.0170 
 21 C        1.8790     6.9810    -1.8140 C.3   1 <1>  -0.1600 
 22 C       -6.6460     4.5170    -0.2340 C.ar  1 <1>   0.7200 
 23 C       -5.5900     5.3090     1.5940 C.ar  1 <1>   0.1600 
 24 C        1.9970     8.4180    -2.3330 C.3   1 <1>  -0.2400 
 25 N       -6.5780     5.4320     0.7390 N.ar  1 <1>  -0.6200 
 26 N       -7.6800     4.6420    -1.1410 N.pl3 1 <1>  -0.8380 
 27 C       -8.5120     5.8740    -1.2250 C.3   1 <1>   0.1290 
 28 C       -8.0890     3.5250    -2.0370 C.3   1 <1>   0.1290 
 29 H       -3.2870     2.7130    -1.6040 H     1 <1>   0.0800 
 30 H       -2.3770     3.6870    -0.4950 H     1 <1>   0.0800 
 31 H       -1.3320    -0.4000    -1.0090 H     1 <1>   0.0800 
 32 H       -2.6400     0.2650    -1.9430 H     1 <1>   0.0800 
 33 H       -0.4840     4.4900    -1.9600 H     1 <1>   0.1500 
 34 H       -2.6080    -0.1890     1.0470 H     1 <1>   0.0800 
 35 H       -3.5510    -1.0690    -0.1120 H     1 <1>   0.0800 
 36 H        0.4480     2.4050     2.4710 H     1 <1>   0.0800 
 37 H        1.6620     3.6070     2.8510 H     1 <1>   0.0800 
 38 H        2.0480     2.2840     1.7730 H     1 <1>   0.0800 
 39 H       -4.8810     0.8980    -0.6390 H     1 <1>   0.0800 
 40 H       -4.9330     0.6460     1.0750 H     1 <1>   0.0800 
 41 H       -2.0460     2.3840     1.8680 H     1 <1>   0.0800 
 42 H       -3.5520     1.8470     2.5550 H     1 <1>   0.0800 
 43 H        0.8010     7.4710    -0.0120 H     1 <1>   0.0800 
 44 H       -0.2310     7.0810    -1.3670 H     1 <1>   0.0800 
 45 H       -2.6730     4.6510     2.1040 H     1 <1>   0.0800 
 46 H       -3.6960     3.9930     3.3810 H     1 <1>   0.0800 
 47 H        1.7670     6.3110    -2.6480 H     1 <1>   0.0800 
 48 H        2.7830     6.7200    -1.2870 H     1 <1>   0.0800 
 49 H       -5.5080     6.0310     2.3870 H     1 <1>   0.1500 
 50 H        1.1120     8.6980    -2.8790 H     1 <1>   0.0800 
 51 H        2.8440     8.5010    -2.9920 H     1 <1>   0.0800 
 52 H        2.1340     9.1040    -1.5150 H     1 <1>   0.0800 
 53 H       -7.9360     6.7390    -0.9440 H     1 <1>   0.0800 
 54 H       -9.3550     5.7850    -0.5620 H     1 <1>   0.0800 
 55 H       -8.8640     6.0160    -2.2320 H     1 <1>   0.0800 
 56 H       -7.8210     2.5760    -1.6060 H     1 <1>   0.0800 
 57 H       -7.5970     3.6290    -2.9880 H     1 <1>   0.0800 
 58 H       -9.1550     3.5400    -2.1830 H     1 <1>   0.0800 
@<TRIPOS>BOND
  1   1   2  2   
  2   2   3  am  
  3   2   4  1   
  4   3   5  1   
  5   3   6  1   
  6   4   7  1   
  7   4   8  2   
  8   5   9  1   
  9   5  29  1   
 10   5  30  1   
 11   6  10  1   
 12   6  31  1   
 13   6  32  1   
 14   7  11  2   
 15   7  12  1   
 16   8  13  1   
 17   8  33  1   
 18   9  14  1   
 19   9  15  1   
 20   9  16  1   
 21  10  15  1   
 22  10  34  1   
 23  10  35  1   
 24  11  13  1   
 25  12  36  1   
 26  12  37  1   
 27  12  38  1   
 28  13  17  1   
 29  14  18  ar  
 30  14  19  ar  
 31  15  39  1   
 32  15  40  1   
 33  16  20  1   
 34  16  41  1   
 35  16  42  1   
 36  17  21  1   
 37  17  43  1   
 38  17  44  1   
 39  18  22  ar  
 40  19  20  1   
 41  19  23  ar  
 42  20  45  1   
 43  20  46  1   
 44  21  24  1   
 45  21  47  1   
 46  21  48  1   
 47  22  25  ar  
 48  22  26  1   
 49  23  25  ar  
 50  23  49  1   
 51  24  50  1   
 52  24  51  1   
 53  24  52  1   
 54  26  27  1   
 55  26  28  1   
 56  27  53  1   
 57  27  54  1   
 58  27  55  1   
 59  28  56  1   
 60  28  57  1   
 61  28  58  1   
@<TRIPOS>SUBSTRUCTURE
  1 ****   5 GROUP 4 **** **** 0

# MOE 2024.06 (io_trps.svl 2023.06)
