@<TRIPOS>MOLECULE
NONAME
52 54 1 0 0 
SMALL
USER_CHARGES


@<TRIPOS>ATOM
  1 O       -1.2120     0.5480     1.4150 O.2   1 <1>  -0.5700 
  2 C       -1.8370     0.7610     0.4000 C.2   1 <1>   0.5690 
  3 N       -2.3810    -0.2680    -0.3280 N.am  1 <1>  -0.6600 
  4 C       -1.9250     2.2410    -0.0510 C.3   1 <1>   0.4840 
  5 C       -2.5180    -1.6210     0.2870 C.3   1 <1>   0.3200 
  6 C       -2.8490    -0.1620    -1.7520 C.3   1 <1>   0.1400 
  7 N       -0.5830     2.9400    -0.1680 N.4   1 <1>  -0.9590 
  8 C       -2.7940     3.0210     0.9480 C.3   1 <1>  -0.0170 
  9 C       -3.9590    -1.8460     0.7010 C.2   1 <1>  -0.3320 
 10 C       -4.3180     0.2680    -1.9030 C.3   1 <1>   0.1200 
 11 C       -0.7570     4.2620    -0.8330 C.3   1 <1>   0.4870 
 12 C        0.4630     2.0910    -0.7980 C.3   1 <1>   0.3430 
 13 C       -2.7730     4.5200     0.6960 C.ar  1 <1>  -0.1440 
 14 N       -4.5620    -3.0510     0.7140 N.pl3 1 <1>   0.0330 
 15 C       -4.8870    -0.9620     1.1300 C.2   1 <1>   0.0770 
 16 O       -4.5060     1.5350    -1.3650 O.3   1 <1>  -0.6800 
 17 C       -1.8110     5.0960    -0.1260 C.ar  1 <1>  -0.1440 
 18 C        1.8360     2.7220    -0.5990 C.3   1 <1>  -0.2400 
 19 C       -3.7220     5.3200     1.3110 C.ar  1 <1>  -0.1500 
 20 C       -5.8240    -2.8140     1.1290 C.2   1 <1>   0.0060 
 21 N       -6.0590    -1.5700     1.3830 N.2   1 <1>  -0.5650 
 22 C       -1.8130     6.4700    -0.3200 C.ar  1 <1>  -0.1500 
 23 C       -3.7190     6.6880     1.1130 C.ar  1 <1>  -0.1500 
 24 C       -6.8570    -3.9090     1.2840 C.3   1 <1>  -0.0600 
 25 C       -2.7630     7.2630     0.2970 C.ar  1 <1>  -0.1500 
 26 H       -2.4050     2.2700    -1.0110 H     1 <1>   0.0800 
 27 H       -1.8830    -1.7220     1.1510 H     1 <1>   0.0800 
 28 H       -2.2160    -2.3680    -0.4270 H     1 <1>   0.0800 
 29 H       -2.7300    -1.1190    -2.2310 H     1 <1>   0.0800 
 30 H       -2.2280     0.5310    -2.2910 H     1 <1>   0.0800 
 31 H       -0.2980     3.1190     0.8040 H     1 <1>   0.4500 
 32 H       -2.4480     2.8350     1.9500 H     1 <1>   0.0800 
 33 H       -3.8050     2.6600     0.8920 H     1 <1>   0.0800 
 34 H       -4.9770    -0.4240    -1.4100 H     1 <1>   0.0800 
 35 H       -4.5850     0.3090    -2.9450 H     1 <1>   0.0800 
 36 H       -1.0540     4.1190    -1.8590 H     1 <1>   0.0800 
 37 H        0.1750     4.8020    -0.8240 H     1 <1>   0.0800 
 38 H        0.2610     1.9630    -1.8500 H     1 <1>   0.0800 
 39 H        0.4700     1.1170    -0.3340 H     1 <1>   0.0800 
 40 H       -4.1670    -3.9650     0.4730 H     1 <1>   0.2700 
 41 H       -4.7730     0.1000     1.2680 H     1 <1>   0.1500 
 42 H       -5.4650     1.7520    -1.3610 H     1 <1>   0.4000 
 43 H        1.9350     3.6440    -1.1410 H     1 <1>   0.0800 
 44 H        2.5870     2.0470    -0.9700 H     1 <1>   0.0800 
 45 H        2.0320     2.8880     0.4460 H     1 <1>   0.0800 
 46 H       -4.4710     4.8840     1.9520 H     1 <1>   0.1500 
 47 H       -1.0800     6.9430    -0.9520 H     1 <1>   0.1500 
 48 H       -4.4590     7.3050     1.5930 H     1 <1>   0.1500 
 49 H       -6.5250    -4.6320     2.0060 H     1 <1>   0.0800 
 50 H       -7.0270    -4.3960     0.3410 H     1 <1>   0.0800 
 51 H       -7.7860    -3.4860     1.6250 H     1 <1>   0.0800 
 52 H       -2.7620     8.3300     0.1440 H     1 <1>   0.1500 
@<TRIPOS>BOND
  1   1   2  2   
  2   2   3  am  
  3   2   4  1   
  4   3   5  1   
  5   3   6  1   
  6   4   7  1   
  7   4   8  1   
  8   4  26  1   
  9   5   9  1   
 10   5  27  1   
 11   5  28  1   
 12   6  10  1   
 13   6  29  1   
 14   6  30  1   
 15   7  11  1   
 16   7  12  1   
 17   7  31  1   
 18   8  13  1   
 19   8  32  1   
 20   8  33  1   
 21   9  14  1   
 22   9  15  2   
 23  10  16  1   
 24  10  34  1   
 25  10  35  1   
 26  11  17  1   
 27  11  36  1   
 28  11  37  1   
 29  12  18  1   
 30  12  38  1   
 31  12  39  1   
 32  13  17  ar  
 33  13  19  ar  
 34  14  20  1   
 35  14  40  1   
 36  15  21  1   
 37  15  41  1   
 38  16  42  1   
 39  17  22  ar  
 40  18  43  1   
 41  18  44  1   
 42  18  45  1   
 43  19  23  ar  
 44  19  46  1   
 45  20  21  2   
 46  20  24  1   
 47  22  25  ar  
 48  22  47  1   
 49  23  25  ar  
 50  23  48  1   
 51  24  49  1   
 52  24  50  1   
 53  24  51  1   
 54  25  52  1   
@<TRIPOS>SUBSTRUCTURE
  1 ****   4 GROUP 4 **** **** 0

# MOE 2024.06 (io_trps.svl 2023.06)
