@<TRIPOS>MOLECULE
NONAME
52 53 1 0 0 
SMALL
USER_CHARGES


@<TRIPOS>ATOM
  1 S        0.3650     0.0090    -0.6950 S.o2  1 <1>   1.3330 
  2 O        0.1720     0.8190    -1.8760 O.2   1 <1>  -0.6500 
  3 O        0.3910    -1.4310    -0.8110 O.2   1 <1>  -0.6500 
  4 N       -0.8380     0.4200     0.4290 N.am  1 <1>  -0.8490 
  5 C        1.8640     0.6000     0.0880 C.3   1 <1>  -0.0550 
  6 C       -0.9510    -0.5430     1.5310 C.3   1 <1>   0.1160 
  7 C       -2.1470     0.5950    -0.2070 C.3   1 <1>   0.1160 
  8 C        3.1400     0.3000    -0.7370 C.3   1 <1>  -0.0800 
  9 C        4.3860     1.0520    -0.2760 C.3   1 <1>   0.2200 
 10 C        3.5920    -1.1350    -0.4770 C.3   1 <1>   0.1200 
 11 N        4.1200     2.4520     0.1410 N.am  1 <1>  -0.7300 
 12 C        4.9290     0.1630     0.8490 C.3   1 <1>   0.1200 
 13 O        4.2770    -1.0700     0.7300 O.3   1 <1>  -0.5600 
 14 C        5.0630     3.2960     0.6560 C.2   1 <1>   0.5690 
 15 O        6.1910     2.8990     0.8570 O.2   1 <1>  -0.5700 
 16 C        4.7000     4.7830     0.9840 C.3   1 <1>   0.4300 
 17 N        5.8440     5.4570     1.6720 N.pl3 1 <1>  -0.8690 
 18 C        3.5310     4.8460     1.9720 C.3   1 <1>  -0.2400 
 19 C        4.3140     5.5210    -0.3100 C.3   1 <1>  -0.2400 
 20 C        6.3670     6.6690     1.2440 C.ar  1 <1>   0.1000 
 21 C        5.7560     7.8700     1.5820 C.ar  1 <1>  -0.1500 
 22 C        7.5240     6.6980     0.4760 C.ar  1 <1>  -0.1500 
 23 C        6.2780     9.0740     1.1480 C.ar  1 <1>  -0.1500 
 24 C        8.0510     7.9000     0.0400 C.ar  1 <1>  -0.1500 
 25 C        7.4270     9.0910     0.3740 C.ar  1 <1>  -0.1500 
 26 H        1.7490     1.6560     0.2190 H     1 <1>   0.0800 
 27 H        1.9620     0.1660     1.0650 H     1 <1>   0.0800 
 28 H       -1.6670    -0.1940     2.2550 H     1 <1>   0.0800 
 29 H       -0.0010    -0.6610     2.0240 H     1 <1>   0.0800 
 30 H       -1.2680    -1.5050     1.1610 H     1 <1>   0.0800 
 31 H       -2.8860     0.8690     0.5260 H     1 <1>   0.0800 
 32 H       -2.4520    -0.3160    -0.6950 H     1 <1>   0.0800 
 33 H       -2.0980     1.3810    -0.9430 H     1 <1>   0.0800 
 34 H        2.9620     0.4630    -1.7860 H     1 <1>   0.0800 
 35 H        5.1150     1.0630    -1.0710 H     1 <1>   0.0800 
 36 H        4.2820    -1.4700    -1.2330 H     1 <1>   0.0800 
 37 H        2.7870    -1.8440    -0.3880 H     1 <1>   0.0800 
 38 H        3.2120     2.8290    -0.1320 H     1 <1>   0.3700 
 39 H        4.7040     0.5660     1.8210 H     1 <1>   0.0800 
 40 H        5.9890     0.0070     0.7470 H     1 <1>   0.0800 
 41 H        6.5730     4.7310     1.7480 H     1 <1>   0.4000 
 42 H        2.6490     4.4020     1.5500 H     1 <1>   0.0800 
 43 H        3.3130     5.8680     2.2220 H     1 <1>   0.0800 
 44 H        3.7860     4.3140     2.8710 H     1 <1>   0.0800 
 45 H        3.4890     5.0300    -0.7920 H     1 <1>   0.0800 
 46 H        5.1450     5.5270    -0.9920 H     1 <1>   0.0800 
 47 H        4.0180     6.5330    -0.1030 H     1 <1>   0.0800 
 48 H        4.8720     7.8480     2.1910 H     1 <1>   0.1500 
 49 H        8.0070     5.7730     0.2190 H     1 <1>   0.1500 
 50 H        5.7950     9.9980     1.4140 H     1 <1>   0.1500 
 51 H        8.9460     7.9110    -0.5570 H     1 <1>   0.1500 
 52 H        7.8350    10.0270     0.0350 H     1 <1>   0.1500 
@<TRIPOS>BOND
  1   1   2  2   
  2   1   3  2   
  3   1   4  am  
  4   1   5  1   
  5   4   6  1   
  6   4   7  1   
  7   5   8  1   
  8   5  26  1   
  9   5  27  1   
 10   6  28  1   
 11   6  29  1   
 12   6  30  1   
 13   7  31  1   
 14   7  32  1   
 15   7  33  1   
 16   8   9  1   
 17   8  10  1   
 18   8  34  1   
 19   9  11  1   
 20   9  12  1   
 21   9  35  1   
 22  10  13  1   
 23  10  36  1   
 24  10  37  1   
 25  11  14  am  
 26  11  38  1   
 27  12  13  1   
 28  12  39  1   
 29  12  40  1   
 30  14  15  2   
 31  14  16  1   
 32  16  17  1   
 33  16  18  1   
 34  16  19  1   
 35  17  20  1   
 36  17  41  1   
 37  18  42  1   
 38  18  43  1   
 39  18  44  1   
 40  19  45  1   
 41  19  46  1   
 42  19  47  1   
 43  20  21  ar  
 44  20  22  ar  
 45  21  23  ar  
 46  21  48  1   
 47  22  24  ar  
 48  22  49  1   
 49  23  25  ar  
 50  23  50  1   
 51  24  25  ar  
 52  24  51  1   
 53  25  52  1   
@<TRIPOS>SUBSTRUCTURE
  1 ****  11 GROUP 4 **** **** 0

# MOE 2024.06 (io_trps.svl 2023.06)
