@<TRIPOS>MOLECULE
NONAME
50 51 1 0 0 
SMALL
USER_CHARGES


@<TRIPOS>ATOM
  1 F       -0.5090     1.4910    -0.1380 F     1 <1>  -0.1900 
  2 C       -1.8160     1.5360    -0.0880 C.ar  1 <1>   0.1900 
  3 C       -2.4970     2.5040     0.6590 C.ar  1 <1>   0.0830 
  4 C       -2.4920     0.5770    -0.8170 C.ar  1 <1>  -0.1500 
  5 O       -1.9470     3.4980     1.4140 O.3   1 <1>  -0.3630 
  6 C       -3.8820     2.4670     0.6470 C.ar  1 <1>  -0.1500 
  7 C       -3.8750     0.5700    -0.8090 C.ar  1 <1>  -0.1500 
  8 C       -0.5550     3.6680     1.5650 C.3   1 <1>   0.0400 
  9 C       -4.5990     1.5090    -0.0720 C.ar  1 <1>   0.0530 
 10 C       -6.0390     1.5140    -0.0510 C.2   1 <1>   0.0870 
 11 O       -6.6810     2.6410    -0.2280 O.3   1 <1>  -0.0190 
 12 C       -6.9790     0.5500     0.1460 C.2   1 <1>  -0.0860 
 13 N       -7.9800     2.5040    -0.1770 N.2   1 <1>  -0.4100 
 14 C       -8.1860     1.2540     0.0400 C.2   1 <1>   0.3720 
 15 C       -6.8710    -0.8480     0.4240 C.2   1 <1>   0.7160 
 16 N       -9.4730     0.6960     0.1380 N.pl3 1 <1>  -0.8210 
 17 O       -5.9600    -1.5280    -0.0050 O.2   1 <1>  -0.5700 
 18 N       -7.8480    -1.4440     1.1540 N.am  1 <1>  -0.7300 
 19 C      -10.2520     1.2470     1.2860 C.3   1 <1>   0.1290 
 20 C      -10.2470     0.8420    -1.1300 C.3   1 <1>   0.1290 
 21 C       -8.2550    -2.8600     1.0570 C.3   1 <1>   0.2200 
 22 C       -9.4380    -3.0160     0.0390 C.3   1 <1>   0.2800 
 23 C       -8.5820    -3.3030     2.4870 C.3   1 <1>  -0.2400 
 24 O      -10.4100    -2.0650     0.3000 O.3   1 <1>  -0.6800 
 25 C       -8.9830    -2.7680    -1.4030 C.3   1 <1>  -0.2400 
 26 C      -10.1390    -4.3750     0.1200 C.3   1 <1>  -0.2400 
 27 H       -1.9420    -0.1530    -1.3840 H     1 <1>   0.1500 
 28 H       -4.4190     3.2050     1.2150 H     1 <1>   0.1500 
 29 H       -4.4000    -0.1730    -1.3830 H     1 <1>   0.1500 
 30 H       -0.3890     4.5070     2.2160 H     1 <1>   0.0800 
 31 H       -0.1200     3.8650     0.6010 H     1 <1>   0.0800 
 32 H       -0.1380     2.7780     2.0030 H     1 <1>   0.0800 
 33 H       -8.6360    -0.8270     1.3730 H     1 <1>   0.3700 
 34 H       -9.6600     1.2120     2.1840 H     1 <1>   0.0800 
 35 H      -11.1460     0.6670     1.4380 H     1 <1>   0.0800 
 36 H      -10.5230     2.2720     1.0940 H     1 <1>   0.0800 
 37 H       -9.6680     0.4700    -1.9580 H     1 <1>   0.0800 
 38 H      -10.4760     1.8790    -1.3110 H     1 <1>   0.0800 
 39 H      -11.1660     0.2830    -1.0730 H     1 <1>   0.0800 
 40 H       -7.4210    -3.4460     0.7080 H     1 <1>   0.0800 
 41 H       -9.4630    -2.8010     2.8450 H     1 <1>   0.0800 
 42 H       -7.7550    -3.0810     3.1390 H     1 <1>   0.0800 
 43 H       -8.7510    -4.3630     2.5210 H     1 <1>   0.0800 
 44 H      -10.0280    -1.1660     0.1550 H     1 <1>   0.4000 
 45 H       -8.5690    -1.7850    -1.5190 H     1 <1>   0.0800 
 46 H       -9.8080    -2.8790    -2.0840 H     1 <1>   0.0800 
 47 H       -8.2260    -3.4810    -1.6740 H     1 <1>   0.0800 
 48 H      -10.6080    -4.5090     1.0770 H     1 <1>   0.0800 
 49 H       -9.4280    -5.1670    -0.0310 H     1 <1>   0.0800 
 50 H      -10.8970    -4.4510    -0.6390 H     1 <1>   0.0800 
@<TRIPOS>BOND
  1   1   2  1   
  2   2   3  ar  
  3   2   4  ar  
  4   3   5  1   
  5   3   6  ar  
  6   4   7  ar  
  7   4  27  1   
  8   5   8  1   
  9   6   9  ar  
 10   6  28  1   
 11   7   9  ar  
 12   7  29  1   
 13   8  30  1   
 14   8  31  1   
 15   8  32  1   
 16   9  10  1   
 17  10  11  1   
 18  10  12  2   
 19  11  13  1   
 20  12  14  1   
 21  12  15  1   
 22  13  14  2   
 23  14  16  1   
 24  15  17  2   
 25  15  18  am  
 26  16  19  1   
 27  16  20  1   
 28  18  21  1   
 29  18  33  1   
 30  19  34  1   
 31  19  35  1   
 32  19  36  1   
 33  20  37  1   
 34  20  38  1   
 35  20  39  1   
 36  21  22  1   
 37  21  23  1   
 38  21  40  1   
 39  22  24  1   
 40  22  25  1   
 41  22  26  1   
 42  23  41  1   
 43  23  42  1   
 44  23  43  1   
 45  24  44  1   
 46  25  45  1   
 47  25  46  1   
 48  25  47  1   
 49  26  48  1   
 50  26  49  1   
 51  26  50  1   
@<TRIPOS>SUBSTRUCTURE
  1 ****  12 GROUP 4 **** **** 0

# MOE 2024.06 (io_trps.svl 2023.06)
