@<TRIPOS>MOLECULE
NONAME
52 54 1 0 0 
SMALL
USER_CHARGES


@<TRIPOS>ATOM
  1 O        3.7290     3.6900     0.4850 O.3   1 <1>  -0.0190 
  2 N        4.3260     2.5680     0.7480 N.2   1 <1>  -0.4100 
  3 C        2.9670     3.6040    -0.5710 C.2   1 <1>  -0.0400 
  4 C        3.9520     1.7430    -0.1620 C.2   1 <1>   0.1080 
  5 C        3.0690     2.3550    -1.0490 C.2   1 <1>  -0.1500 
  6 C        2.1730     4.8090    -1.0370 C.3   1 <1>   0.0200 
  7 C        4.4130     0.3050    -0.2490 C.3   1 <1>  -0.0590 
  8 C        1.0710     5.1840    -0.0240 C.3   1 <1>  -0.0800 
  9 C        0.2270     6.3580    -0.5090 C.3   1 <1>   0.2000 
 10 C        1.6360     5.7190     1.2950 C.3   1 <1>   0.3430 
 11 O       -0.9660     6.3510     0.2030 O.3   1 <1>  -0.6800 
 12 C        1.0250     7.5950    -0.0810 C.3   1 <1>   0.3430 
 13 N        1.8780     7.1730     1.0780 N.4   1 <1>  -0.9590 
 14 C        1.6630     7.9850     2.3120 C.3   1 <1>   0.3430 
 15 C        2.1670     9.4300     2.1520 C.3   1 <1>   0.1200 
 16 O        3.4690     9.4220     1.5930 O.3   1 <1>  -0.3630 
 17 C        3.5990     9.7120     0.2740 C.ar  1 <1>   0.0830 
 18 C        4.1100     8.7510    -0.5990 C.ar  1 <1>   0.0830 
 19 C        3.2250    10.9550    -0.2150 C.ar  1 <1>  -0.1500 
 20 O        4.4670     7.5260    -0.1470 O.3   1 <1>  -0.3630 
 21 C        4.2160     9.0240    -1.9510 C.ar  1 <1>  -0.1500 
 22 C        3.3360    11.2260    -1.5690 C.ar  1 <1>  -0.1500 
 23 C        5.7650     7.4480     0.3970 C.3   1 <1>   0.1200 
 24 C        3.8270    10.2620    -2.4360 C.ar  1 <1>  -0.1500 
 25 C        6.0000     6.0190     0.8740 C.3   1 <1>  -0.2400 
 26 H        2.6040     1.8950    -1.9010 H     1 <1>   0.1500 
 27 H        2.8510     5.6290    -1.2000 H     1 <1>   0.0800 
 28 H        1.7200     4.5670    -1.9830 H     1 <1>   0.0800 
 29 H        3.5680    -0.3550    -0.1890 H     1 <1>   0.0800 
 30 H        5.0840     0.0840     0.5610 H     1 <1>   0.0800 
 31 H        4.9260     0.1410    -1.1790 H     1 <1>   0.0800 
 32 H        0.4640     4.3130     0.1530 H     1 <1>   0.0800 
 33 H        0.0030     6.3490    -1.5630 H     1 <1>   0.0800 
 34 H        2.5350     5.2110     1.6020 H     1 <1>   0.0800 
 35 H        0.8870     5.5940     2.0600 H     1 <1>   0.0800 
 36 H       -1.5820     5.6670    -0.1370 H     1 <1>   0.4000 
 37 H        0.3570     8.3980     0.1790 H     1 <1>   0.0800 
 38 H        1.6600     7.9120    -0.8920 H     1 <1>   0.0800 
 39 H        2.8720     7.3100     0.7960 H     1 <1>   0.4500 
 40 H        0.6170     7.9930     2.5690 H     1 <1>   0.0800 
 41 H        2.2000     7.5340     3.1310 H     1 <1>   0.0800 
 42 H        2.2270     9.9070     3.1140 H     1 <1>   0.0800 
 43 H        1.5030    10.0000     1.5280 H     1 <1>   0.0800 
 44 H        2.8580    11.7130     0.4540 H     1 <1>   0.1500 
 45 H        4.6050     8.2760    -2.6200 H     1 <1>   0.1500 
 46 H        3.0470    12.1910    -1.9510 H     1 <1>   0.1500 
 47 H        6.4730     7.7170    -0.3690 H     1 <1>   0.0800 
 48 H        5.8400     8.1430     1.2160 H     1 <1>   0.0800 
 49 H        3.9140    10.4800    -3.4870 H     1 <1>   0.1500 
 50 H        5.9220     5.3320     0.0500 H     1 <1>   0.0800 
 51 H        5.2910     5.7530     1.6360 H     1 <1>   0.0800 
 52 H        6.9890     5.9350     1.2880 H     1 <1>   0.0800 
@<TRIPOS>BOND
  1   1   2  1   
  2   1   3  1   
  3   2   4  2   
  4   3   5  2   
  5   3   6  1   
  6   4   5  1   
  7   4   7  1   
  8   5  26  1   
  9   6   8  1   
 10   6  27  1   
 11   6  28  1   
 12   7  29  1   
 13   7  30  1   
 14   7  31  1   
 15   8   9  1   
 16   8  10  1   
 17   8  32  1   
 18   9  11  1   
 19   9  12  1   
 20   9  33  1   
 21  10  13  1   
 22  10  34  1   
 23  10  35  1   
 24  11  36  1   
 25  12  13  1   
 26  12  37  1   
 27  12  38  1   
 28  13  14  1   
 29  13  39  1   
 30  14  15  1   
 31  14  40  1   
 32  14  41  1   
 33  15  16  1   
 34  15  42  1   
 35  15  43  1   
 36  16  17  1   
 37  17  18  ar  
 38  17  19  ar  
 39  18  20  1   
 40  18  21  ar  
 41  19  22  ar  
 42  19  44  1   
 43  20  23  1   
 44  21  24  ar  
 45  21  45  1   
 46  22  24  ar  
 47  22  46  1   
 48  23  25  1   
 49  23  47  1   
 50  23  48  1   
 51  24  49  1   
 52  25  50  1   
 53  25  51  1   
 54  25  52  1   
@<TRIPOS>SUBSTRUCTURE
  1 ****  13 GROUP 4 **** **** 0

# MOE 2024.06 (io_trps.svl 2023.06)
