@<TRIPOS>MOLECULE
NONAME
41 44 1 0 0 
SMALL
USER_CHARGES


@<TRIPOS>ATOM
  1 O       -0.3760    -0.7380    -1.7770 O.2   1 <1>  -0.5700 
  2 C       -1.3200    -0.9380    -1.0480 C.2   1 <1>   0.5690 
  3 N       -1.7100    -0.0300    -0.0980 N.am  1 <1>  -0.6600 
  4 C       -2.1050    -2.2210    -1.2580 C.3   1 <1>  -0.0190 
  5 C       -2.9020    -0.2710     0.7770 C.3   1 <1>   0.2200 
  6 C       -0.9100     1.1900     0.2010 C.3   1 <1>   0.0600 
  7 C       -2.1350    -3.1420    -0.0200 C.3   1 <1>   0.1200 
  8 C       -3.4900    -1.9040    -1.8340 C.3   1 <1>   0.2090 
  9 C       -2.7710    -1.5520     1.6430 C.3   1 <1>   0.1200 
 10 C       -4.2070    -0.2450    -0.0490 C.3   1 <1>   0.2090 
 11 O       -1.8270    -2.4740     1.1690 O.3   1 <1>  -0.5600 
 12 N       -4.4780    -1.5170    -0.7870 N.pl3 1 <1>  -0.8220 
 13 C       -5.5170    -2.3580    -0.4480 C.2   1 <1>   0.5620 
 14 O       -6.3580    -1.9970     0.5160 O.3   1 <1>  -0.2800 
 15 N       -5.7560    -3.5120    -0.9710 N.2   1 <1>  -0.5650 
 16 C       -7.2140    -2.9950     0.6230 C.ar  1 <1>   0.1400 
 17 C       -6.8500    -3.9430    -0.2980 C.ar  1 <1>   0.2270 
 18 C       -8.3010    -3.1550     1.4660 C.ar  1 <1>  -0.1500 
 19 C       -7.5860    -5.1170    -0.4050 C.ar  1 <1>  -0.1500 
 20 C       -9.0320    -4.3250     1.3570 C.ar  1 <1>  -0.1500 
 21 C       -8.6790    -5.3060     0.4250 C.ar  1 <1>  -0.1440 
 22 C       -9.5070    -6.5760     0.3370 C.3   1 <1>  -0.0970 
 23 H       -1.5950    -2.7670    -2.0290 H     1 <1>   0.0800 
 24 H       -2.9780     0.5560     1.4600 H     1 <1>   0.0800 
 25 H       -1.5220     2.0660     0.0880 H     1 <1>   0.0800 
 26 H       -0.0700     1.2690    -0.4670 H     1 <1>   0.0800 
 27 H       -0.5380     1.1390     1.2100 H     1 <1>   0.0800 
 28 H       -1.3820    -3.9010    -0.1370 H     1 <1>   0.0800 
 29 H       -3.0850    -3.6350     0.0910 H     1 <1>   0.0800 
 30 H       -3.8460    -2.7710    -2.3640 H     1 <1>   0.0800 
 31 H       -3.4090    -1.1090    -2.5550 H     1 <1>   0.0800 
 32 H       -3.7180    -2.0510     1.7530 H     1 <1>   0.0800 
 33 H       -2.4420    -1.2640     2.6250 H     1 <1>   0.0800 
 34 H       -4.1650     0.5700    -0.7500 H     1 <1>   0.0800 
 35 H       -5.0210    -0.0370     0.6220 H     1 <1>   0.0800 
 36 H       -8.5560    -2.3880     2.1740 H     1 <1>   0.1500 
 37 H       -7.2860    -5.8490    -1.1320 H     1 <1>   0.1500 
 38 H       -9.8840    -4.4820     1.9970 H     1 <1>   0.1500 
 39 H       -9.4930    -7.0890     1.2820 H     1 <1>   0.0800 
 40 H       -9.1190    -7.2360    -0.4170 H     1 <1>   0.0800 
 41 H      -10.5250    -6.3330     0.0880 H     1 <1>   0.0800 
@<TRIPOS>BOND
  1   1   2  2   
  2   2   3  am  
  3   2   4  1   
  4   3   5  1   
  5   3   6  1   
  6   4   7  1   
  7   4   8  1   
  8   4  23  1   
  9   5   9  1   
 10   5  10  1   
 11   5  24  1   
 12   6  25  1   
 13   6  26  1   
 14   6  27  1   
 15   7  11  1   
 16   7  28  1   
 17   7  29  1   
 18   8  12  1   
 19   8  30  1   
 20   8  31  1   
 21   9  11  1   
 22   9  32  1   
 23   9  33  1   
 24  10  12  1   
 25  10  34  1   
 26  10  35  1   
 27  12  13  1   
 28  13  14  1   
 29  13  15  2   
 30  14  16  1   
 31  15  17  1   
 32  16  17  ar  
 33  16  18  ar  
 34  17  19  ar  
 35  18  20  ar  
 36  18  36  1   
 37  19  21  ar  
 38  19  37  1   
 39  20  21  ar  
 40  20  38  1   
 41  21  22  1   
 42  22  39  1   
 43  22  40  1   
 44  22  41  1   
@<TRIPOS>SUBSTRUCTURE
  1 ****  13 GROUP 4 **** **** 0

# MOE 2024.06 (io_trps.svl 2023.06)
