@<TRIPOS>MOLECULE
NONAME
52 54 1 0 0 
SMALL
USER_CHARGES


@<TRIPOS>ATOM
  1 O        4.4600    -0.3990     1.1330 O.2   1 <1>  -0.5700 
  2 C        3.3330    -0.6820     0.7580 C.2   1 <1>   0.5440 
  3 N        2.6670     0.3170     0.0800 N.am  1 <1>  -0.6600 
  4 C        2.7840    -2.0250     0.9500 C.ar  1 <1>   0.3960 
  5 C        2.5710     0.2620    -1.4100 C.3   1 <1>   0.1400 
  6 C        2.4640     1.6610     0.6900 C.3   1 <1>   0.1400 
  7 N        1.8360    -2.4900     0.1360 N.ar  1 <1>  -0.6200 
  8 C        3.2560    -2.8280     1.9730 C.ar  1 <1>  -0.1500 
  9 C        3.9570     0.4680    -2.0600 C.3   1 <1>   0.3430 
 10 C        3.6950     2.5720     0.5440 C.3   1 <1>  -0.1600 
 11 C        1.3950    -3.7080     0.3790 C.ar  1 <1>   0.4770 
 12 C        2.7280    -4.0840     2.1260 C.ar  1 <1>   0.1660 
 13 N        4.8670     1.2770    -1.1850 N.4   1 <1>  -0.9590 
 14 C        4.3210     2.6220    -0.8520 C.3   1 <1>   0.3430 
 15 N        1.7910    -4.5330     1.3280 N.ar  1 <1>  -0.6200 
 16 C        0.3100    -4.2330    -0.5310 C.3   1 <1>  -0.0970 
 17 C        3.1980    -5.0140     3.2240 C.3   1 <1>  -0.0970 
 18 C        6.2820     1.2760    -1.6400 C.3   1 <1>   0.4860 
 19 C        7.1470     1.9370    -0.5870 C.ar  1 <1>  -0.1430 
 20 C        7.7480     3.1590    -0.8500 C.ar  1 <1>   0.1600 
 21 C        7.3420     1.3500     0.6500 C.ar  1 <1>  -0.1500 
 22 N        8.4870     3.8370     0.0060 N.ar  1 <1>  -0.6200 
 23 C        8.1190     2.0410     1.5510 C.ar  1 <1>  -0.1500 
 24 C        8.6620     3.2660     1.1950 C.ar  1 <1>   0.3930 
 25 O        9.4070     3.8980     2.1240 O.3   1 <1>  -0.3620 
 26 C       10.0200     5.1410     1.8440 C.3   1 <1>   0.0400 
 27 H        1.8930     1.0230    -1.7560 H     1 <1>   0.0800 
 28 H        2.1670    -0.6860    -1.7210 H     1 <1>   0.0800 
 29 H        2.2400     1.5380     1.7380 H     1 <1>   0.0800 
 30 H        1.6060     2.1260     0.2340 H     1 <1>   0.0800 
 31 H        4.0230    -2.4670     2.6320 H     1 <1>   0.1500 
 32 H        3.8390     0.9370    -3.0240 H     1 <1>   0.0800 
 33 H        4.3950    -0.5040    -2.2190 H     1 <1>   0.0800 
 34 H        4.4430     2.2790     1.2600 H     1 <1>   0.0800 
 35 H        3.3970     3.5700     0.8140 H     1 <1>   0.0800 
 36 H        4.8550     0.7740    -0.2700 H     1 <1>   0.4500 
 37 H        5.1120     3.3540    -0.8450 H     1 <1>   0.0800 
 38 H        3.5870     2.9250    -1.5800 H     1 <1>   0.0800 
 39 H        0.0080    -3.4840    -1.2380 H     1 <1>   0.0800 
 40 H       -0.5400    -4.5210     0.0580 H     1 <1>   0.0800 
 41 H        0.6750    -5.0920    -1.0620 H     1 <1>   0.0800 
 42 H        3.9660    -4.5560     3.8200 H     1 <1>   0.0800 
 43 H        3.5870    -5.9160     2.7880 H     1 <1>   0.0800 
 44 H        2.3690    -5.2680     3.8590 H     1 <1>   0.0800 
 45 H        6.3710     1.8040    -2.5750 H     1 <1>   0.0800 
 46 H        6.6200     0.2630    -1.7860 H     1 <1>   0.0800 
 47 H        7.6150     3.6170    -1.8160 H     1 <1>   0.1500 
 48 H        6.9150     0.3970     0.9170 H     1 <1>   0.1500 
 49 H        8.3150     1.6500     2.5330 H     1 <1>   0.1500 
 50 H       10.5630     5.4540     2.7170 H     1 <1>   0.0800 
 51 H        9.2570     5.8610     1.6050 H     1 <1>   0.0800 
 52 H       10.6930     5.0180     1.0140 H     1 <1>   0.0800 
@<TRIPOS>BOND
  1   1   2  2   
  2   2   3  am  
  3   2   4  1   
  4   3   5  1   
  5   3   6  1   
  6   4   7  ar  
  7   4   8  ar  
  8   5   9  1   
  9   5  27  1   
 10   5  28  1   
 11   6  10  1   
 12   6  29  1   
 13   6  30  1   
 14   7  11  ar  
 15   8  12  ar  
 16   8  31  1   
 17   9  13  1   
 18   9  32  1   
 19   9  33  1   
 20  10  14  1   
 21  10  34  1   
 22  10  35  1   
 23  11  15  ar  
 24  11  16  1   
 25  12  15  ar  
 26  12  17  1   
 27  13  14  1   
 28  13  18  1   
 29  13  36  1   
 30  14  37  1   
 31  14  38  1   
 32  16  39  1   
 33  16  40  1   
 34  16  41  1   
 35  17  42  1   
 36  17  43  1   
 37  17  44  1   
 38  18  19  1   
 39  18  45  1   
 40  18  46  1   
 41  19  20  ar  
 42  19  21  ar  
 43  20  22  ar  
 44  20  47  1   
 45  21  23  ar  
 46  21  48  1   
 47  22  24  ar  
 48  23  24  ar  
 49  23  49  1   
 50  24  25  1   
 51  25  26  1   
 52  26  50  1   
 53  26  51  1   
 54  26  52  1   
@<TRIPOS>SUBSTRUCTURE
  1 ****   1 GROUP 4 **** **** 0

# MOE 2024.06 (io_trps.svl 2023.06)
