@<TRIPOS>MOLECULE
NONAME
57 61 1 0 0 
SMALL
USER_CHARGES


@<TRIPOS>ATOM
  1 O       -2.2850     0.1420     2.0340 O.2   1 <1>  -0.5700 
  2 C       -2.3980     0.7530     0.9970 C.2   1 <1>   0.5690 
  3 N       -2.8530     0.1210    -0.1350 N.am  1 <1>  -0.6600 
  4 C       -2.0680     2.2580     0.9950 C.3   1 <1>   0.1710 
  5 C       -3.2880     0.7440    -1.4110 C.3   1 <1>   0.1400 
  6 C       -3.1230    -1.3390    -0.1620 C.3   1 <1>   0.1400 
  7 N       -0.6610     2.6350     0.6730 N.3   1 <1>  -0.8100 
  8 C       -4.2700    -0.2660    -2.0020 C.3   1 <1>   0.2000 
  9 C       -3.7060    -1.6170    -1.5540 C.3   1 <1>  -0.0800 
 10 C       -0.4730     4.0940     0.8060 C.3   1 <1>   0.2530 
 11 C       -0.1990     2.1490    -0.6330 C.3   1 <1>   0.1100 
 12 O       -5.5060    -0.0610    -1.4090 O.3   1 <1>  -0.6800 
 13 C       -4.6940    -2.7990    -1.6210 C.3   1 <1>  -0.0170 
 14 C        0.8840     4.5860     0.3060 C.ar  1 <1>  -0.1440 
 15 C        1.3150     2.3400    -0.7460 C.3   1 <1>  -0.0170 
 16 C       -3.9970    -4.1150    -1.2870 C.ar  1 <1>  -0.1440 
 17 C        1.7250     3.7710    -0.4420 C.ar  1 <1>  -0.1440 
 18 C        1.2770     5.8850     0.5920 C.ar  1 <1>  -0.1500 
 19 C       -3.9860    -4.6940     0.0060 C.ar  1 <1>   0.0000 
 20 C       -3.3320    -4.7790    -2.2770 C.ar  1 <1>  -0.1500 
 21 C        2.9410     4.2580    -0.8940 C.ar  1 <1>  -0.1500 
 22 C        2.4910     6.3700     0.1380 C.ar  1 <1>  -0.1500 
 23 C       -3.2580    -5.8980     0.1790 C.ar  1 <1>   0.3100 
 24 C       -4.6480    -4.1600     1.1370 C.ar  1 <1>  -0.1500 
 25 C       -2.6580    -5.9740    -2.0020 C.ar  1 <1>   0.1600 
 26 C        3.3240     5.5560    -0.6070 C.ar  1 <1>  -0.1500 
 27 N       -2.6050    -6.5240    -0.8320 N.ar  1 <1>  -0.6200 
 28 C       -3.2020    -6.4850     1.4540 C.ar  1 <1>  -0.1500 
 29 C       -4.5740    -4.7580     2.3660 C.ar  1 <1>  -0.1500 
 30 C       -3.8400    -5.9340     2.5300 C.ar  1 <1>  -0.1500 
 31 H       -2.2880     2.6170     1.9850 H     1 <1>   0.0800 
 32 H       -2.7340     2.7630     0.3230 H     1 <1>   0.0800 
 33 H       -3.7540     1.7020    -1.2670 H     1 <1>   0.0800 
 34 H       -2.4370     0.8450    -2.0610 H     1 <1>   0.0800 
 35 H       -2.2180    -1.8990     0.0090 H     1 <1>   0.0800 
 36 H       -3.8320    -1.5700     0.6120 H     1 <1>   0.0800 
 37 H       -4.3810    -0.1770    -3.0700 H     1 <1>   0.0800 
 38 H       -2.8750    -1.8460    -2.1990 H     1 <1>   0.0800 
 39 H       -1.2370     4.6060     0.2470 H     1 <1>   0.0800 
 40 H       -0.5780     4.3610     1.8430 H     1 <1>   0.0800 
 41 H       -0.4100     1.0980    -0.7320 H     1 <1>   0.0800 
 42 H       -0.6970     2.6850    -1.4220 H     1 <1>   0.0800 
 43 H       -5.3860    -0.0330    -0.4380 H     1 <1>   0.4000 
 44 H       -5.0830    -2.8590    -2.6230 H     1 <1>   0.0800 
 45 H       -5.5420    -2.6350    -0.9820 H     1 <1>   0.0800 
 46 H        1.8010     1.6820    -0.0480 H     1 <1>   0.0800 
 47 H        1.6310     2.0700    -1.7370 H     1 <1>   0.0800 
 48 H        0.6370     6.5280     1.1700 H     1 <1>   0.1500 
 49 H       -3.3040    -4.4050    -3.2840 H     1 <1>   0.1500 
 50 H        3.5950     3.6270    -1.4690 H     1 <1>   0.1500 
 51 H        2.7870     7.3790     0.3640 H     1 <1>   0.1500 
 52 H       -5.2280    -3.2640     1.0430 H     1 <1>   0.1500 
 53 H       -2.1490    -6.4640    -2.8140 H     1 <1>   0.1500 
 54 H        4.2690     5.9300    -0.9610 H     1 <1>   0.1500 
 55 H       -2.6350    -7.3920     1.5540 H     1 <1>   0.1500 
 56 H       -5.0780    -4.3330     3.2170 H     1 <1>   0.1500 
 57 H       -3.7870    -6.3930     3.5020 H     1 <1>   0.1500 
@<TRIPOS>BOND
  1   1   2  2   
  2   2   3  am  
  3   2   4  1   
  4   3   5  1   
  5   3   6  1   
  6   4   7  1   
  7   4  31  1   
  8   4  32  1   
  9   5   8  1   
 10   5  33  1   
 11   5  34  1   
 12   6   9  1   
 13   6  35  1   
 14   6  36  1   
 15   7  10  1   
 16   7  11  1   
 17   8   9  1   
 18   8  12  1   
 19   8  37  1   
 20   9  13  1   
 21   9  38  1   
 22  10  14  1   
 23  10  39  1   
 24  10  40  1   
 25  11  15  1   
 26  11  41  1   
 27  11  42  1   
 28  12  43  1   
 29  13  16  1   
 30  13  44  1   
 31  13  45  1   
 32  14  17  ar  
 33  14  18  ar  
 34  15  17  1   
 35  15  46  1   
 36  15  47  1   
 37  16  19  ar  
 38  16  20  ar  
 39  17  21  ar  
 40  18  22  ar  
 41  18  48  1   
 42  19  23  ar  
 43  19  24  ar  
 44  20  25  ar  
 45  20  49  1   
 46  21  26  ar  
 47  21  50  1   
 48  22  26  ar  
 49  22  51  1   
 50  23  27  ar  
 51  23  28  ar  
 52  24  29  ar  
 53  24  52  1   
 54  25  27  ar  
 55  25  53  1   
 56  26  54  1   
 57  28  30  ar  
 58  28  55  1   
 59  29  30  ar  
 60  29  56  1   
 61  30  57  1   
@<TRIPOS>SUBSTRUCTURE
  1 ****   3 GROUP 4 **** **** 0

# MOE 2024.06 (io_trps.svl 2023.06)
