@<TRIPOS>MOLECULE
NONAME
45 47 1 0 0 
SMALL
USER_CHARGES


@<TRIPOS>ATOM
  1 O       -1.1170    -0.4550     0.5320 O.3   1 <1>  -0.3630 
  2 C       -2.1080     0.4650     0.6050 C.ar  1 <1>   0.3920 
  3 C        0.1930    -0.0790     0.1390 C.3   1 <1>   0.0400 
  4 N       -1.8490     1.7040     0.2060 N.ar  1 <1>  -0.6200 
  5 C       -3.3430     0.0410     1.0830 C.ar  1 <1>  -0.1430 
  6 C       -2.8550     2.5570     0.2930 C.ar  1 <1>   0.1600 
  7 C       -4.3830     0.9450     1.1620 C.ar  1 <1>  -0.1500 
  8 C       -3.5340    -1.3990     1.5100 C.3   1 <1>   0.4870 
  9 C       -4.1190     2.2360     0.7550 C.ar  1 <1>  -0.1500 
 10 N       -3.3830    -2.2950     0.3310 N.4   1 <1>  -0.9590 
 11 C       -4.4310    -2.0280    -0.6980 C.3   1 <1>   0.3430 
 12 C       -3.5270    -3.7280     0.7310 C.3   1 <1>   0.3430 
 13 C       -5.5610    -3.0120    -0.3880 C.3   1 <1>   0.2000 
 14 C       -4.8200    -4.2610     0.0860 C.3   1 <1>  -0.0800 
 15 O       -6.3070    -2.5160     0.6780 O.3   1 <1>  -0.6800 
 16 C       -4.5100    -5.2150    -1.0840 C.3   1 <1>   0.0210 
 17 C       -3.8790    -6.5040    -0.5920 C.2   1 <1>   0.1080 
 18 N       -2.7380    -6.5430     0.0250 N.2   1 <1>  -0.7070 
 19 C       -4.4400    -7.7670    -0.7430 C.2   1 <1>  -0.1500 
 20 N       -2.5340    -7.8540     0.2770 N.pl3 1 <1>   0.3000 
 21 C       -3.5550    -8.6110    -0.1750 C.2   1 <1>  -0.3320 
 22 C       -3.6200   -10.1220    -0.0380 C.3   1 <1>  -0.0600 
 23 H        0.8240    -0.9480     0.1710 H     1 <1>   0.0800 
 24 H        0.5600     0.6680     0.8210 H     1 <1>   0.0800 
 25 H        0.1590     0.3170    -0.8610 H     1 <1>   0.0800 
 26 H       -2.6620     3.5700    -0.0210 H     1 <1>   0.1500 
 27 H       -5.3600     0.6710     1.5260 H     1 <1>   0.1500 
 28 H       -4.5120    -1.5240     1.9460 H     1 <1>   0.0800 
 29 H       -2.7940    -1.6450     2.2540 H     1 <1>   0.0800 
 30 H       -4.8850     2.9910     0.7950 H     1 <1>   0.1500 
 31 H       -2.4420    -2.1050    -0.0490 H     1 <1>   0.4500 
 32 H       -4.7820    -1.0090    -0.6780 H     1 <1>   0.0800 
 33 H       -4.0340    -2.2440    -1.6750 H     1 <1>   0.0800 
 34 H       -2.6730    -4.2920     0.3940 H     1 <1>   0.0800 
 35 H       -3.5920    -3.8170     1.8030 H     1 <1>   0.0800 
 36 H       -6.2170    -3.1720    -1.2270 H     1 <1>   0.0800 
 37 H       -5.3980    -4.8060     0.8110 H     1 <1>   0.0800 
 38 H       -7.1130    -3.0570     0.8250 H     1 <1>   0.4000 
 39 H       -3.8400    -4.7550    -1.7880 H     1 <1>   0.0800 
 40 H       -5.4190    -5.4600    -1.6030 H     1 <1>   0.0800 
 41 H       -5.3770    -8.0010    -1.2170 H     1 <1>   0.1500 
 42 H       -1.6930    -8.2040     0.7540 H     1 <1>   0.2700 
 43 H       -4.5290   -10.4940    -0.4770 H     1 <1>   0.0800 
 44 H       -3.6020   -10.4040     1.0000 H     1 <1>   0.0800 
 45 H       -2.7860   -10.5780    -0.5410 H     1 <1>   0.0800 
@<TRIPOS>BOND
  1   1   2  1   
  2   1   3  1   
  3   2   4  ar  
  4   2   5  ar  
  5   3  23  1   
  6   3  24  1   
  7   3  25  1   
  8   4   6  ar  
  9   5   7  ar  
 10   5   8  1   
 11   6   9  ar  
 12   6  26  1   
 13   7   9  ar  
 14   7  27  1   
 15   8  10  1   
 16   8  28  1   
 17   8  29  1   
 18   9  30  1   
 19  10  11  1   
 20  10  12  1   
 21  10  31  1   
 22  11  13  1   
 23  11  32  1   
 24  11  33  1   
 25  12  14  1   
 26  12  34  1   
 27  12  35  1   
 28  13  14  1   
 29  13  15  1   
 30  13  36  1   
 31  14  16  1   
 32  14  37  1   
 33  15  38  1   
 34  16  17  1   
 35  16  39  1   
 36  16  40  1   
 37  17  18  2   
 38  17  19  1   
 39  18  20  1   
 40  19  21  2   
 41  19  41  1   
 42  20  21  1   
 43  20  42  1   
 44  21  22  1   
 45  22  43  1   
 46  22  44  1   
 47  22  45  1   
@<TRIPOS>SUBSTRUCTURE
  1 ****  10 GROUP 4 **** **** 0

# MOE 2024.06 (io_trps.svl 2023.06)
