@<TRIPOS>MOLECULE
NONAME
48 51 1 0 0 
SMALL
USER_CHARGES


@<TRIPOS>ATOM
  1 O        0.1750     1.0150    -0.6920 O.co2 1 <1>  -0.9000 
  2 C        1.0340     1.1340     0.1920 C.2   1 <1>   0.9470 
  3 O        0.7240     1.4990     1.3350 O.co2 1 <1>  -0.9000 
  4 C        2.5200     1.0650    -0.1760 C.3   1 <1>  -0.2420 
  5 C        3.5160    -0.0700    -0.2270 C.3   1 <1>  -0.2420 
  6 C        3.2470     2.2840     0.3560 C.3   1 <1>   0.2350 
  7 C        2.9040     0.4530    -1.5010 C.3   1 <1>  -0.2000 
  8 C        3.3610    -1.5500     0.1280 C.2   1 <1>   0.9470 
  9 C        4.8600     0.4610     0.2450 C.3   1 <1>   0.2350 
 10 N        4.6960     1.9400     0.3030 N.am  1 <1>  -0.6600 
 11 O        3.2440    -2.3850    -0.7800 O.co2 1 <1>  -0.9000 
 12 O        3.5140    -1.9030     1.3050 O.co2 1 <1>  -0.9000 
 13 C        5.7310     2.8180     0.2160 C.2   1 <1>   0.5690 
 14 O        6.8800     2.4550     0.1010 O.2   1 <1>  -0.5700 
 15 C        5.4320     4.3120     0.2660 C.3   1 <1>  -0.0990 
 16 C        6.6780     5.2060     0.4190 C.3   1 <1>  -0.1600 
 17 C        6.3040     6.6930     0.4920 C.3   1 <1>   0.0200 
 18 C        7.5330     7.5730     0.6140 C.2   1 <1>   0.2980 
 19 O        8.2440     7.5170     1.7100 O.3   1 <1>  -0.0190 
 20 N        7.9480     8.3850    -0.2650 N.2   1 <1>  -0.5650 
 21 N        9.2010     8.3650     1.5080 N.2   1 <1>  -0.4100 
 22 C        9.0310     8.8830     0.3430 C.2   1 <1>   0.4620 
 23 C        9.9100     9.8640    -0.2690 C.ar  1 <1>   0.0540 
 24 C        9.4590    11.0330    -0.9030 C.ar  1 <1>  -0.1440 
 25 C       11.2880     9.6450    -0.2250 C.ar  1 <1>  -0.1500 
 26 C       10.3640    11.9140    -1.4730 C.ar  1 <1>  -0.1500 
 27 C        7.9760    11.3770    -0.9790 C.3   1 <1>  -0.0970 
 28 C       12.1860    10.5280    -0.7910 C.ar  1 <1>  -0.1500 
 29 C       11.7230    11.6660    -1.4210 C.ar  1 <1>  -0.1500 
 30 H        2.9660     2.4660     1.3790 H     1 <1>   0.0800 
 31 H        3.0150     3.1430    -0.2470 H     1 <1>   0.0800 
 32 H        3.5100     1.0100    -2.1900 H     1 <1>   0.1000 
 33 H        2.1810    -0.1730    -1.9980 H     1 <1>   0.1000 
 34 H        5.6460     0.1810    -0.4340 H     1 <1>   0.0800 
 35 H        5.0820     0.0890     1.2310 H     1 <1>   0.0800 
 36 H        4.9170     4.5720    -0.6410 H     1 <1>   0.0800 
 37 H        4.7720     4.4910     1.0940 H     1 <1>   0.0800 
 38 H        7.2090     4.9210     1.3110 H     1 <1>   0.0800 
 39 H        7.3350     5.0450    -0.4200 H     1 <1>   0.0800 
 40 H        5.6670     6.8720     1.3390 H     1 <1>   0.0800 
 41 H        5.7680     6.9740    -0.3970 H     1 <1>   0.0800 
 42 H       11.6570     8.7600     0.2640 H     1 <1>   0.1500 
 43 H       10.0170    12.8060    -1.9640 H     1 <1>   0.1500 
 44 H        7.8290    12.3970    -1.2840 H     1 <1>   0.0800 
 45 H        7.5140    11.2460    -0.0170 H     1 <1>   0.0800 
 46 H        7.4890    10.7340    -1.6900 H     1 <1>   0.0800 
 47 H       13.2430    10.3300    -0.7430 H     1 <1>   0.1500 
 48 H       12.4170    12.3580    -1.8660 H     1 <1>   0.1500 
@<TRIPOS>BOND
  1   1   2  ar  
  2   2   3  ar  
  3   2   4  1   
  4   4   5  1   
  5   4   6  1   
  6   4   7  1   
  7   5   7  1   
  8   5   8  1   
  9   5   9  1   
 10   6  10  1   
 11   6  30  1   
 12   6  31  1   
 13   7  32  1   
 14   7  33  1   
 15   8  11  ar  
 16   8  12  ar  
 17   9  10  1   
 18   9  34  1   
 19   9  35  1   
 20  10  13  am  
 21  13  14  2   
 22  13  15  1   
 23  15  16  1   
 24  15  36  1   
 25  15  37  1   
 26  16  17  1   
 27  16  38  1   
 28  16  39  1   
 29  17  18  1   
 30  17  40  1   
 31  17  41  1   
 32  18  19  1   
 33  18  20  2   
 34  19  21  1   
 35  20  22  1   
 36  21  22  2   
 37  22  23  1   
 38  23  24  ar  
 39  23  25  ar  
 40  24  26  ar  
 41  24  27  1   
 42  25  28  ar  
 43  25  42  1   
 44  26  29  ar  
 45  26  43  1   
 46  27  44  1   
 47  27  45  1   
 48  27  46  1   
 49  28  29  ar  
 50  28  47  1   
 51  29  48  1   
@<TRIPOS>SUBSTRUCTURE
  1 ****  16 GROUP 4 **** **** 0

# MOE 2024.06 (io_trps.svl 2023.06)
