@<TRIPOS>MOLECULE
NONAME
44 46 1 0 0 
SMALL
USER_CHARGES


@<TRIPOS>ATOM
  1 O       -0.2990    -0.6050    -0.4670 O.3   1 <1>  -0.5600 
  2 C       -1.4760    -1.3540    -0.5670 C.3   1 <1>   0.1200 
  3 C        0.8580    -1.3190    -0.7800 C.3   1 <1>   0.1200 
  4 C       -1.4380    -2.5510     0.3990 C.3   1 <1>   0.2090 
  5 C        1.0330    -2.5090     0.1830 C.3   1 <1>   0.2090 
  6 N       -0.1930    -3.3850     0.1960 N.pl3 1 <1>  -0.8380 
  7 C       -0.2530    -4.7360     0.0370 C.ar  1 <1>   0.7710 
  8 N       -1.4350    -5.3310    -0.0580 N.ar  1 <1>  -0.6200 
  9 N        0.8930    -5.4420    -0.0130 N.ar  1 <1>  -0.1790 
 10 C       -1.4650    -6.6330    -0.2210 C.ar  1 <1>   0.4100 
 11 C        0.9070    -6.7880    -0.1670 C.ar  1 <1>   0.2180 
 12 N       -2.6940    -7.1620    -0.3270 N.pl3 1 <1>  -0.8690 
 13 C       -0.2920    -7.4090    -0.2740 C.ar  1 <1>  -0.1500 
 14 C        2.2430    -7.5200    -0.2080 C.3   1 <1>  -0.0170 
 15 C       -3.0840    -8.5560    -0.6730 C.3   1 <1>   0.2090 
 16 C        3.0140    -7.3900     1.1130 C.3   1 <1>  -0.2400 
 17 C       -3.2950    -9.3730     0.6020 C.3   1 <1>   0.0960 
 18 N       -3.3860   -10.8000     0.2640 N.pl3 1 <1>   0.3140 
 19 N       -2.3720   -11.4670    -0.2720 N.2   1 <1>  -0.7070 
 20 C       -4.4180   -11.6360     0.4120 C.2   1 <1>   0.0360 
 21 C       -2.8640   -12.6560    -0.4080 C.2   1 <1>   0.3660 
 22 N       -4.1300   -12.8160    -0.0020 N.2   1 <1>  -0.5650 
 23 H       -1.5920    -1.6880    -1.5840 H     1 <1>   0.0800 
 24 H       -2.2980    -0.7060    -0.3210 H     1 <1>   0.0800 
 25 H        1.6900    -0.6420    -0.6920 H     1 <1>   0.0800 
 26 H        0.7910    -1.6540    -1.8010 H     1 <1>   0.0800 
 27 H       -2.3370    -3.1250     0.2590 H     1 <1>   0.0800 
 28 H       -1.4520    -2.1780     1.4090 H     1 <1>   0.0800 
 29 H        1.2020    -2.1210     1.1740 H     1 <1>   0.0800 
 30 H        1.9090    -3.0550    -0.1140 H     1 <1>   0.0800 
 31 H        1.7460    -4.9150     0.1030 H     1 <1>   0.4570 
 32 H       -3.4710    -6.4930    -0.2710 H     1 <1>   0.4000 
 33 H       -0.3680    -8.4730    -0.3930 H     1 <1>   0.1500 
 34 H        2.8420    -7.1390    -1.0170 H     1 <1>   0.0800 
 35 H        2.0710    -8.5660    -0.4040 H     1 <1>   0.0800 
 36 H       -2.3140    -9.0040    -1.2790 H     1 <1>   0.0800 
 37 H       -3.9920    -8.5380    -1.2520 H     1 <1>   0.0800 
 38 H        3.2770    -6.3690     1.3220 H     1 <1>   0.0800 
 39 H        3.9240    -7.9640     1.0600 H     1 <1>   0.0800 
 40 H        2.4270    -7.7740     1.9310 H     1 <1>   0.0800 
 41 H       -4.1950    -9.0660     1.1010 H     1 <1>   0.0800 
 42 H       -2.4570    -9.2450     1.2620 H     1 <1>   0.0800 
 43 H       -5.3640   -11.3400     0.8280 H     1 <1>   0.1500 
 44 H       -2.3100   -13.4850    -0.8200 H     1 <1>   0.1500 
@<TRIPOS>BOND
  1   1   2  1   
  2   1   3  1   
  3   2   4  1   
  4   2  23  1   
  5   2  24  1   
  6   3   5  1   
  7   3  25  1   
  8   3  26  1   
  9   4   6  1   
 10   4  27  1   
 11   4  28  1   
 12   5   6  1   
 13   5  29  1   
 14   5  30  1   
 15   6   7  1   
 16   7   8  ar  
 17   7   9  ar  
 18   8  10  ar  
 19   9  11  ar  
 20   9  31  1   
 21  10  12  1   
 22  10  13  ar  
 23  11  13  ar  
 24  11  14  1   
 25  12  15  1   
 26  12  32  1   
 27  13  33  1   
 28  14  16  1   
 29  14  34  1   
 30  14  35  1   
 31  15  17  1   
 32  15  36  1   
 33  15  37  1   
 34  16  38  1   
 35  16  39  1   
 36  16  40  1   
 37  17  18  1   
 38  17  41  1   
 39  17  42  1   
 40  18  19  1   
 41  18  20  1   
 42  19  21  2   
 43  20  22  2   
 44  20  43  1   
 45  21  22  1   
 46  21  44  1   
@<TRIPOS>SUBSTRUCTURE
  1 ****  10 GROUP 4 **** **** 0

# MOE 2024.06 (io_trps.svl 2023.06)
