@<TRIPOS>MOLECULE
NONAME
40 41 1 0 0 
SMALL
USER_CHARGES


@<TRIPOS>ATOM
  1 S        0.9160    -0.0050    -1.3080 S.3   1 <1>  -0.0800 
  2 C        1.7010    -0.1950     0.2540 C.2   1 <1>  -0.1400 
  3 C       -0.6280    -0.5150    -0.6470 C.2   1 <1>  -0.1400 
  4 C        0.8150    -0.6170     1.1750 C.2   1 <1>  -0.1500 
  5 C        3.1770     0.1310     0.3350 C.3   1 <1>   0.3200 
  6 C       -0.5090    -0.7990     0.6630 C.2   1 <1>  -0.1500 
  7 C       -1.8070    -0.5590    -1.5960 C.3   1 <1>  -0.0600 
  8 N        3.3400     1.5630     0.0480 N.am  1 <1>  -0.7300 
  9 C        4.2280     2.3820     0.6590 C.2   1 <1>   0.5690 
 10 O        5.0360     1.9620     1.4510 O.2   1 <1>  -0.5700 
 11 C        4.1980     3.8760     0.3460 C.3   1 <1>  -0.0190 
 12 C        2.8130     4.4950     0.6240 C.3   1 <1>  -0.1600 
 13 C        4.6670     4.1720    -1.0990 C.3   1 <1>  -0.1600 
 14 C        2.8190     6.0290     0.4620 C.3   1 <1>   0.2000 
 15 C        4.1710     5.5250    -1.6470 C.3   1 <1>  -0.1600 
 16 O        1.5550     6.4220    -0.0140 O.3   1 <1>  -0.5600 
 17 C        3.9120     6.5290    -0.5210 C.3   1 <1>   0.2000 
 18 C        0.5570     6.5070     0.9560 C.3   1 <1>   0.0400 
 19 O        3.4990     7.7140    -1.0920 O.3   1 <1>  -0.6800 
 20 H        1.0330    -0.8110     2.2110 H     1 <1>   0.1500 
 21 H        3.7240    -0.4480    -0.3890 H     1 <1>   0.0800 
 22 H        3.5540    -0.0950     1.3180 H     1 <1>   0.0800 
 23 H       -1.3050    -1.1340     1.3050 H     1 <1>   0.1500 
 24 H       -2.6880    -0.8870    -1.0760 H     1 <1>   0.0800 
 25 H       -1.6020    -1.2420    -2.4000 H     1 <1>   0.0800 
 26 H       -1.9860     0.4190    -2.0040 H     1 <1>   0.0800 
 27 H        2.6410     1.9400    -0.5930 H     1 <1>   0.3700 
 28 H        4.8960     4.3430     1.0190 H     1 <1>   0.0800 
 29 H        2.5060     4.2460     1.6240 H     1 <1>   0.0800 
 30 H        2.1020     4.0700    -0.0640 H     1 <1>   0.0800 
 31 H        5.7430     4.1540    -1.1120 H     1 <1>   0.0800 
 32 H        4.3310     3.3970    -1.7670 H     1 <1>   0.0800 
 33 H        2.9950     6.5020     1.4140 H     1 <1>   0.0800 
 34 H        3.2490     5.3690    -2.1810 H     1 <1>   0.0800 
 35 H        4.8960     5.9240    -2.3340 H     1 <1>   0.0800 
 36 H        4.8310     6.7180     0.0060 H     1 <1>   0.0800 
 37 H       -0.3500     6.8270     0.4740 H     1 <1>   0.0800 
 38 H        0.8440     7.2300     1.7000 H     1 <1>   0.0800 
 39 H        0.4040     5.5410     1.4040 H     1 <1>   0.0800 
 40 H        2.5160     7.6650    -1.1250 H     1 <1>   0.4000 
@<TRIPOS>BOND
  1   1   2  1   
  2   1   3  1   
  3   2   4  2   
  4   2   5  1   
  5   3   6  2   
  6   3   7  1   
  7   4   6  1   
  8   4  20  1   
  9   5   8  1   
 10   5  21  1   
 11   5  22  1   
 12   6  23  1   
 13   7  24  1   
 14   7  25  1   
 15   7  26  1   
 16   8   9  am  
 17   8  27  1   
 18   9  10  2   
 19   9  11  1   
 20  11  12  1   
 21  11  13  1   
 22  11  28  1   
 23  12  14  1   
 24  12  29  1   
 25  12  30  1   
 26  13  15  1   
 27  13  31  1   
 28  13  32  1   
 29  14  16  1   
 30  14  17  1   
 31  14  33  1   
 32  15  17  1   
 33  15  34  1   
 34  15  35  1   
 35  16  18  1   
 36  17  19  1   
 37  17  36  1   
 38  18  37  1   
 39  18  38  1   
 40  18  39  1   
 41  19  40  1   
@<TRIPOS>SUBSTRUCTURE
  1 ****   8 GROUP 4 **** **** 0

# MOE 2024.06 (io_trps.svl 2023.06)
