@<TRIPOS>MOLECULE
NONAME
47 48 1 0 0 
SMALL
USER_CHARGES


@<TRIPOS>ATOM
  1 F        1.1220    -1.0440     1.3040 F     1 <1>  -0.1900 
  2 C        0.6340    -2.1930     0.9150 C.ar  1 <1>   0.1900 
  3 C        1.4370    -3.0480     0.1880 C.ar  1 <1>  -0.1500 
  4 C       -0.6660    -2.5130     1.2470 C.ar  1 <1>  -0.1500 
  5 C        0.9280    -4.2690    -0.2290 C.ar  1 <1>  -0.1440 
  6 C       -1.1710    -3.7320     0.8320 C.ar  1 <1>  -0.1500 
  7 C       -0.3900    -4.6210     0.0910 C.ar  1 <1>   0.1170 
  8 C        1.8340    -5.1910    -1.0380 C.3   1 <1>  -0.0960 
  9 N       -0.8850    -5.8720    -0.3190 N.am  1 <1>  -0.5470 
 10 C       -2.1720    -6.2650    -0.5940 C.2   1 <1>   0.5690 
 11 O       -3.1190    -5.5190    -0.5470 O.2   1 <1>  -0.5700 
 12 C       -2.4540    -7.7330    -0.9700 C.3   1 <1>   0.4040 
 13 N       -3.3110    -8.5090     0.0200 N.4   1 <1>  -0.9590 
 14 C       -3.3170    -9.9690    -0.3240 C.3   1 <1>   0.3430 
 15 C       -4.7020    -7.9370     0.0720 C.3   1 <1>   0.2630 
 16 C       -3.9490   -10.8350     0.7670 C.3   1 <1>   0.0210 
 17 C       -3.7720   -12.2830     0.3660 C.2   1 <1>  -0.1810 
 18 C       -2.7010   -13.1130     0.6950 C.2   1 <1>   0.1080 
 19 C       -4.5860   -13.0520    -0.3920 C.2   1 <1>  -0.3320 
 20 N       -2.8240   -14.2920     0.1810 N.2   1 <1>  -0.7070 
 21 C       -1.5080   -12.7540     1.5540 C.3   1 <1>  -0.0590 
 22 N       -3.9920   -14.2620    -0.4820 N.pl3 1 <1>   0.3000 
 23 C       -5.9200   -12.7510    -1.0570 C.3   1 <1>  -0.0600 
 24 H        2.4430    -2.7470    -0.0420 H     1 <1>   0.1500 
 25 H       -1.2640    -1.8220     1.8140 H     1 <1>   0.1500 
 26 H       -2.1810    -3.9820     1.0950 H     1 <1>   0.1500 
 27 H        2.7700    -4.7080    -1.2590 H     1 <1>   0.0800 
 28 H        1.3680    -5.4460    -1.9720 H     1 <1>   0.0800 
 29 H        2.0460    -6.0870    -0.4830 H     1 <1>   0.0800 
 30 H       -0.1350    -6.5350    -0.5100 H     1 <1>   0.3700 
 31 H       -1.5070    -8.2310    -1.0860 H     1 <1>   0.0800 
 32 H       -2.9390    -7.7320    -1.9310 H     1 <1>   0.0800 
 33 H       -2.8930    -8.3900     0.9560 H     1 <1>   0.4500 
 34 H       -2.3050   -10.3100    -0.4700 H     1 <1>   0.0800 
 35 H       -3.8500   -10.1300    -1.2480 H     1 <1>   0.0800 
 36 H       -5.1700    -7.9950    -0.8970 H     1 <1>   0.0800 
 37 H       -4.6750    -6.9020     0.3750 H     1 <1>   0.0800 
 38 H       -5.3080    -8.4750     0.7820 H     1 <1>   0.0800 
 39 H       -4.9980   -10.6270     0.8650 H     1 <1>   0.0800 
 40 H       -3.4700   -10.6660     1.7150 H     1 <1>   0.0800 
 41 H       -1.0350   -11.8630     1.1870 H     1 <1>   0.0800 
 42 H       -0.7920   -13.5570     1.5310 H     1 <1>   0.0800 
 43 H       -1.8230   -12.6070     2.5700 H     1 <1>   0.0800 
 44 H       -4.3530   -15.0850    -0.9810 H     1 <1>   0.2700 
 45 H       -6.2240   -11.7370    -0.8750 H     1 <1>   0.0800 
 46 H       -6.6790   -13.4070    -0.6680 H     1 <1>   0.0800 
 47 H       -5.8470   -12.9020    -2.1200 H     1 <1>   0.0800 
@<TRIPOS>BOND
  1   1   2  1   
  2   2   3  ar  
  3   2   4  ar  
  4   3   5  ar  
  5   3  24  1   
  6   4   6  ar  
  7   4  25  1   
  8   5   7  ar  
  9   5   8  1   
 10   6   7  ar  
 11   6  26  1   
 12   7   9  1   
 13   8  27  1   
 14   8  28  1   
 15   8  29  1   
 16   9  10  am  
 17   9  30  1   
 18  10  11  2   
 19  10  12  1   
 20  12  13  1   
 21  12  31  1   
 22  12  32  1   
 23  13  14  1   
 24  13  15  1   
 25  13  33  1   
 26  14  16  1   
 27  14  34  1   
 28  14  35  1   
 29  15  36  1   
 30  15  37  1   
 31  15  38  1   
 32  16  17  1   
 33  16  39  1   
 34  16  40  1   
 35  17  18  1   
 36  17  19  2   
 37  18  20  2   
 38  18  21  1   
 39  19  22  1   
 40  19  23  1   
 41  20  22  1   
 42  21  41  1   
 43  21  42  1   
 44  21  43  1   
 45  22  44  1   
 46  23  45  1   
 47  23  46  1   
 48  23  47  1   
@<TRIPOS>SUBSTRUCTURE
  1 ****  12 GROUP 4 **** **** 0

# MOE 2024.06 (io_trps.svl 2023.06)
