@<TRIPOS>MOLECULE
NONAME
42 43 1 0 0 
SMALL
USER_CHARGES


@<TRIPOS>ATOM
  1 N        0.0550    -0.0430     0.1640 N.ar  1 <1>  -0.6200 
  2 C        1.1730    -0.6920     0.4260 C.ar  1 <1>   0.4100 
  3 C       -1.0090    -0.7860    -0.0550 C.ar  1 <1>   0.4760 
  4 N        2.2800     0.0830     0.6910 N.pl3 1 <1>  -0.8380 
  5 C        1.2100    -2.0820     0.4470 C.ar  1 <1>  -0.1440 
  6 N       -1.0970    -2.1020    -0.0500 N.ar  1 <1>  -0.6200 
  7 C       -2.2930    -0.0490    -0.3490 C.3   1 <1>  -0.0970 
  8 C        2.5300     1.2350    -0.2220 C.3   1 <1>   0.3530 
  9 C        2.5880     0.3430     2.1230 C.3   1 <1>   0.1290 
 10 C        0.0310    -2.7350     0.2030 C.ar  1 <1>   0.1600 
 11 C        2.4820    -2.8840     0.7080 C.3   1 <1>  -0.0160 
 12 C        3.9090     1.8520     0.0030 C.ar  1 <1>  -0.1430 
 13 C        3.0730    -3.3940    -0.6120 C.3   1 <1>  -0.1600 
 14 C        5.0990     1.2290    -0.3420 C.ar  1 <1>  -0.1430 
 15 C        4.0200     3.1020     0.5820 C.ar  1 <1>  -0.1500 
 16 C        4.3840    -4.1540    -0.3850 C.3   1 <1>  -0.2400 
 17 C        6.2960     1.8860    -0.0890 C.ar  1 <1>   0.1600 
 18 C        5.1170    -0.1530    -0.9780 C.3   1 <1>  -0.0970 
 19 C        5.2690     3.6600     0.7860 C.ar  1 <1>   0.1600 
 20 N        6.4120     3.0810     0.4650 N.ar  1 <1>  -0.6200 
 21 H       -2.1340     1.0140    -0.3240 H     1 <1>   0.0800 
 22 H       -3.0300    -0.3100     0.3860 H     1 <1>   0.0800 
 23 H       -2.6500    -0.3280    -1.3220 H     1 <1>   0.0800 
 24 H        1.7690     1.9790    -0.0610 H     1 <1>   0.0800 
 25 H        2.4440     0.9020    -1.2410 H     1 <1>   0.0800 
 26 H        2.1500    -0.4210     2.7420 H     1 <1>   0.0800 
 27 H        2.1890     1.2970     2.4180 H     1 <1>   0.0800 
 28 H        3.6540     0.3420     2.2720 H     1 <1>   0.0800 
 29 H       -0.0010    -3.8110     0.2080 H     1 <1>   0.1500 
 30 H        2.2520    -3.7180     1.3470 H     1 <1>   0.0800 
 31 H        3.2100    -2.2800     1.2190 H     1 <1>   0.0800 
 32 H        3.2520    -2.5590    -1.2660 H     1 <1>   0.0800 
 33 H        2.3650    -4.0440    -1.0970 H     1 <1>   0.0800 
 34 H        3.1430     3.6480     0.8780 H     1 <1>   0.1500 
 35 H        5.1160    -3.5150     0.0770 H     1 <1>   0.0800 
 36 H        4.7770    -4.4970    -1.3260 H     1 <1>   0.0800 
 37 H        4.2200    -5.0090     0.2480 H     1 <1>   0.0800 
 38 H        7.2180     1.3980    -0.3560 H     1 <1>   0.1500 
 39 H        4.4750    -0.1790    -1.8390 H     1 <1>   0.0800 
 40 H        4.7720    -0.8790    -0.2640 H     1 <1>   0.0800 
 41 H        6.1100    -0.4250    -1.2880 H     1 <1>   0.0800 
 42 H        5.3310     4.6350     1.2380 H     1 <1>   0.1500 
@<TRIPOS>BOND
  1   1   2  ar  
  2   1   3  ar  
  3   2   4  1   
  4   2   5  ar  
  5   3   6  ar  
  6   3   7  1   
  7   4   8  1   
  8   4   9  1   
  9   5  10  ar  
 10   5  11  1   
 11   6  10  ar  
 12   7  21  1   
 13   7  22  1   
 14   7  23  1   
 15   8  12  1   
 16   8  24  1   
 17   8  25  1   
 18   9  26  1   
 19   9  27  1   
 20   9  28  1   
 21  10  29  1   
 22  11  13  1   
 23  11  30  1   
 24  11  31  1   
 25  12  14  ar  
 26  12  15  ar  
 27  13  16  1   
 28  13  32  1   
 29  13  33  1   
 30  14  17  ar  
 31  14  18  1   
 32  15  19  ar  
 33  15  34  1   
 34  16  35  1   
 35  16  36  1   
 36  16  37  1   
 37  17  20  ar  
 38  17  38  1   
 39  18  39  1   
 40  18  40  1   
 41  18  41  1   
 42  19  20  ar  
 43  19  42  1   
@<TRIPOS>SUBSTRUCTURE
  1 ****   4 GROUP 4 **** **** 0

# MOE 2024.06 (io_trps.svl 2023.06)
