@<TRIPOS>MOLECULE
NONAME
45 47 1 0 0 
SMALL
USER_CHARGES


@<TRIPOS>ATOM
  1 S       -0.2440     0.1650     0.6740 S.3   1 <1>  -0.0800 
  2 C        1.0190    -1.0420     0.5830 C.2   1 <1>   0.1980 
  3 C        0.9720     1.4070     0.6020 C.2   1 <1>  -0.1400 
  4 N        2.1940    -0.5650     0.5070 N.2   1 <1>  -0.5650 
  5 C        0.6040    -2.4950     0.5950 C.3   1 <1>   0.0200 
  6 C        2.1790     0.8190     0.5180 C.2   1 <1>   0.0460 
  7 C        0.4820     2.8410     0.6450 C.3   1 <1>  -0.0600 
  8 C        0.1110    -2.9080    -0.7900 C.3   1 <1>   0.1400 
  9 C        3.5300     1.4950     0.4340 C.3   1 <1>  -0.0590 
 10 N       -0.2650    -4.3430    -0.7940 N.am  1 <1>  -0.7300 
 11 C       -1.4930    -4.8360    -0.4810 C.2   1 <1>   0.5690 
 12 O       -2.3810    -4.1010    -0.1180 O.2   1 <1>  -0.5700 
 13 C       -1.7410    -6.3480    -0.5770 C.3   1 <1>   0.2610 
 14 O       -0.4950    -7.0380    -0.6230 O.3   1 <1>  -0.5600 
 15 C       -2.6420    -6.8260     0.5990 C.3   1 <1>   0.3640 
 16 C       -0.5950    -8.4420    -0.7200 C.3   1 <1>   0.1810 
 17 N       -2.3960    -8.2420     0.9740 N.am  1 <1>  -0.7300 
 18 C       -4.1240    -6.6910     0.2580 C.ar  1 <1>  -0.1440 
 19 C       -1.4830    -9.0360     0.3730 C.2   1 <1>   0.5690 
 20 C       -4.8620    -5.6320     0.7700 C.ar  1 <1>   0.1600 
 21 C       -4.7670    -7.6060    -0.5580 C.ar  1 <1>  -0.1500 
 22 O       -1.3880   -10.1990     0.6690 O.2   1 <1>  -0.5700 
 23 N       -6.1510    -5.4270     0.5520 N.ar  1 <1>  -0.6200 
 24 C       -6.1080    -7.4020    -0.8010 C.ar  1 <1>  -0.1500 
 25 C       -6.7430    -6.3140    -0.2290 C.ar  1 <1>   0.1600 
 26 H        1.4530    -3.0930     0.8710 H     1 <1>   0.0800 
 27 H       -0.1760    -2.6350     1.3220 H     1 <1>   0.0800 
 28 H        1.3050     3.5290     0.5930 H     1 <1>   0.0800 
 29 H       -0.0560     3.0140     1.5590 H     1 <1>   0.0800 
 30 H       -0.1760     3.0260    -0.1860 H     1 <1>   0.0800 
 31 H        0.8830    -2.7370    -1.5200 H     1 <1>   0.0800 
 32 H       -0.7470    -2.3130    -1.0590 H     1 <1>   0.0800 
 33 H        3.4300     2.5630     0.4480 H     1 <1>   0.0800 
 34 H        4.0210     1.2030    -0.4760 H     1 <1>   0.0800 
 35 H        4.1350     1.1900     1.2680 H     1 <1>   0.0800 
 36 H        0.4740    -5.0220    -1.0070 H     1 <1>   0.3700 
 37 H       -2.2450    -6.5360    -1.5080 H     1 <1>   0.0800 
 38 H       -2.4240    -6.2200     1.4620 H     1 <1>   0.0800 
 39 H       -0.9920    -8.6920    -1.6860 H     1 <1>   0.0800 
 40 H        0.3960    -8.8490    -0.6330 H     1 <1>   0.0800 
 41 H       -3.0140    -8.6570     1.6730 H     1 <1>   0.3700 
 42 H       -4.3690    -4.9050     1.3950 H     1 <1>   0.1500 
 43 H       -4.2550    -8.4500    -0.9880 H     1 <1>   0.1500 
 44 H       -6.6600    -8.0800    -1.4260 H     1 <1>   0.1500 
 45 H       -7.7920    -6.1660    -0.4240 H     1 <1>   0.1500 
@<TRIPOS>BOND
  1   1   2  1   
  2   1   3  1   
  3   2   4  2   
  4   2   5  1   
  5   3   6  2   
  6   3   7  1   
  7   4   6  1   
  8   5   8  1   
  9   5  26  1   
 10   5  27  1   
 11   6   9  1   
 12   7  28  1   
 13   7  29  1   
 14   7  30  1   
 15   8  10  1   
 16   8  31  1   
 17   8  32  1   
 18   9  33  1   
 19   9  34  1   
 20   9  35  1   
 21  10  11  am  
 22  10  36  1   
 23  11  12  2   
 24  11  13  1   
 25  13  14  1   
 26  13  15  1   
 27  13  37  1   
 28  14  16  1   
 29  15  17  1   
 30  15  18  1   
 31  15  38  1   
 32  16  19  1   
 33  16  39  1   
 34  16  40  1   
 35  17  19  am  
 36  17  41  1   
 37  18  20  ar  
 38  18  21  ar  
 39  19  22  2   
 40  20  23  ar  
 41  20  42  1   
 42  21  24  ar  
 43  21  43  1   
 44  23  25  ar  
 45  24  25  ar  
 46  24  44  1   
 47  25  45  1   
@<TRIPOS>SUBSTRUCTURE
  1 ****  11 GROUP 4 **** **** 0

# MOE 2024.06 (io_trps.svl 2023.06)
