@<TRIPOS>MOLECULE
NONAME
47 50 1 0 0 
SMALL
USER_CHARGES


@<TRIPOS>ATOM
  1 S       -1.3410     0.2390    -3.0040 S.3   1 <1>  -0.0800 
  2 C       -0.9520     1.8090    -2.3400 C.2   1 <1>   0.4620 
  3 C       -2.8180     0.2550    -2.0930 C.2   1 <1>  -0.1100 
  4 N       -1.8270     2.2750    -1.5360 N.2   1 <1>  -0.5650 
  5 N        0.2060     2.4060    -2.7090 N.pl3 1 <1>  -0.8840 
  6 C       -2.9150     1.3980    -1.3760 C.2   1 <1>   0.1410 
  7 C       -4.0520     1.7160    -0.5110 C.2   1 <1>   0.7160 
  8 O       -4.9900     0.9410    -0.4520 O.2   1 <1>  -0.5700 
  9 N       -4.0780     2.8390     0.2880 N.am  1 <1>  -0.6600 
 10 C       -5.3100     3.6700     0.5270 C.3   1 <1>   0.2200 
 11 C       -2.9660     3.0180     1.2700 C.3   1 <1>   0.1400 
 12 C       -4.9790     5.1630     0.8340 C.3   1 <1>   0.1380 
 13 C       -6.3970     3.6190    -0.5590 C.3   1 <1>  -0.1600 
 14 C       -3.3610     3.9280     2.4410 C.3   1 <1>  -0.1600 
 15 C       -4.4990     5.9780    -0.4090 C.2   1 <1>  -0.2760 
 16 C       -6.3220     5.7260     1.3700 C.3   1 <1>   0.1200 
 17 C       -3.9060     5.2830     1.9540 C.3   1 <1>  -0.1600 
 18 C       -7.6480     4.3420    -0.0410 C.3   1 <1>   0.1200 
 19 C       -5.0350     7.1270    -0.8470 C.2   1 <1>  -0.2880 
 20 C       -3.3220     5.4100    -1.2080 C.3   1 <1>  -0.0220 
 21 O       -7.3430     5.6290     0.4100 O.3   1 <1>  -0.5600 
 22 C       -4.5780     7.8800    -2.0890 C.3   1 <1>   0.2580 
 23 C       -2.7260     6.4450    -2.1700 C.3   1 <1>   0.1200 
 24 O       -3.7430     7.0830    -2.8760 O.3   1 <1>  -0.5600 
 25 H       -3.4800    -0.5870    -2.1760 H     1 <1>   0.1500 
 26 H        0.8120     2.0100    -3.4280 H     1 <1>   0.4000 
 27 H        0.4100     3.3530    -2.3930 H     1 <1>   0.4000 
 28 H       -5.7630     3.2520     1.4100 H     1 <1>   0.0800 
 29 H       -2.6730     2.0550     1.6520 H     1 <1>   0.0800 
 30 H       -2.1120     3.4390     0.7700 H     1 <1>   0.0800 
 31 H       -6.6880     2.6120    -0.7810 H     1 <1>   0.0800 
 32 H       -6.0620     4.0840    -1.4680 H     1 <1>   0.0800 
 33 H       -4.0980     3.4260     3.0430 H     1 <1>   0.0800 
 34 H       -2.5000     4.0920     3.0640 H     1 <1>   0.0800 
 35 H       -6.2170     6.7640     1.6300 H     1 <1>   0.0800 
 36 H       -6.6400     5.1920     2.2480 H     1 <1>   0.0800 
 37 H       -3.0790     5.8680     1.5930 H     1 <1>   0.0800 
 38 H       -4.3000     5.8170     2.8010 H     1 <1>   0.0800 
 39 H       -8.0910     3.7990     0.7760 H     1 <1>   0.0800 
 40 H       -8.3770     4.4380    -0.8270 H     1 <1>   0.0800 
 41 H       -5.8580     7.6310    -0.3740 H     1 <1>   0.1500 
 42 H       -3.6450     4.5590    -1.7790 H     1 <1>   0.0800 
 43 H       -2.5330     5.0940    -0.5570 H     1 <1>   0.0800 
 44 H       -4.0440     8.7740    -1.8190 H     1 <1>   0.0800 
 45 H       -5.4260     8.1450    -2.6950 H     1 <1>   0.0800 
 46 H       -2.0790     5.9630    -2.8820 H     1 <1>   0.0800 
 47 H       -2.1670     7.1900    -1.6310 H     1 <1>   0.0800 
@<TRIPOS>BOND
  1   1   2  1   
  2   1   3  1   
  3   2   4  2   
  4   2   5  1   
  5   3   6  2   
  6   3  25  1   
  7   4   6  1   
  8   5  26  1   
  9   5  27  1   
 10   6   7  1   
 11   7   8  2   
 12   7   9  am  
 13   9  10  1   
 14   9  11  1   
 15  10  12  1   
 16  10  13  1   
 17  10  28  1   
 18  11  14  1   
 19  11  29  1   
 20  11  30  1   
 21  12  15  1   
 22  12  16  1   
 23  12  17  1   
 24  13  18  1   
 25  13  31  1   
 26  13  32  1   
 27  14  17  1   
 28  14  33  1   
 29  14  34  1   
 30  15  19  2   
 31  15  20  1   
 32  16  21  1   
 33  16  35  1   
 34  16  36  1   
 35  17  37  1   
 36  17  38  1   
 37  18  21  1   
 38  18  39  1   
 39  18  40  1   
 40  19  22  1   
 41  19  41  1   
 42  20  23  1   
 43  20  42  1   
 44  20  43  1   
 45  22  24  1   
 46  22  44  1   
 47  22  45  1   
 48  23  24  1   
 49  23  46  1   
 50  23  47  1   
@<TRIPOS>SUBSTRUCTURE
  1 ****   9 GROUP 4 **** **** 0

# MOE 2024.06 (io_trps.svl 2023.06)
