@<TRIPOS>MOLECULE
NONAME
63 66 1 0 0 
SMALL
USER_CHARGES


@<TRIPOS>ATOM
  1 O       -1.8590     0.3780    -1.4590 O.2   1 <1>  -0.5700 
  2 C       -1.8770     0.4040    -0.2550 C.2   1 <1>   0.5690 
  3 N       -1.8990    -0.7260     0.4880 N.am  1 <1>  -0.7300 
  4 C       -1.8810     1.7530     0.4400 C.3   1 <1>  -0.0990 
  5 C       -1.8370    -2.1050    -0.0580 C.3   1 <1>   0.2200 
  6 C       -0.6700     2.6080     0.0160 C.3   1 <1>  -0.1600 
  7 C       -3.1970    -2.7920    -0.0090 C.3   1 <1>  -0.0800 
  8 C       -1.0600    -2.9740     0.9210 C.3   1 <1>   0.1200 
  9 C       -0.7460     4.0220     0.5950 C.3   1 <1>   0.3430 
 10 C       -3.2690    -3.2870     1.4430 C.3   1 <1>   0.1200 
 11 C       -4.3920    -1.9210    -0.4530 C.3   1 <1>  -0.0170 
 12 O       -1.9640    -3.2460     1.9480 O.3   1 <1>  -0.5600 
 13 N        0.4320     4.8180     0.1530 N.4   1 <1>  -0.9590 
 14 C       -5.7580    -2.6150    -0.5230 C.ar  1 <1>  -0.1440 
 15 C        0.6040     6.0350     0.9920 C.3   1 <1>   0.3430 
 16 C        0.3520     5.2020    -1.2820 C.3   1 <1>   0.3430 
 17 C       -6.9240    -1.8400    -0.7480 C.ar  1 <1>   0.0000 
 18 C       -5.9320    -3.9640    -0.3860 C.ar  1 <1>  -0.1500 
 19 C        2.0680     6.4850     1.0160 C.3   1 <1>  -0.1600 
 20 C        1.7070     4.9920    -1.9590 C.3   1 <1>  -0.1600 
 21 C       -8.1730    -2.5080    -0.7760 C.ar  1 <1>   0.3100 
 22 C       -6.9240    -0.4400    -0.9560 C.ar  1 <1>  -0.1500 
 23 C       -7.2120    -4.5260    -0.4410 C.ar  1 <1>   0.1600 
 24 C        2.7260     6.7420    -0.3530 C.3   1 <1>  -0.1600 
 25 C        2.9430     5.4570    -1.1680 C.3   1 <1>  -0.1600 
 26 N       -8.3000    -3.8490    -0.6200 N.ar  1 <1>  -0.6200 
 27 C       -9.3440    -1.7600    -0.9790 C.ar  1 <1>  -0.1500 
 28 C       -8.0830     0.2600    -1.1550 C.ar  1 <1>  -0.1500 
 29 C       -9.3100    -0.4050    -1.1640 C.ar  1 <1>  -0.1500 
 30 H       -1.9660    -0.7030     1.5090 H     1 <1>   0.3700 
 31 H       -2.7940     2.2510     0.1680 H     1 <1>   0.0800 
 32 H       -1.8800     1.6100     1.5050 H     1 <1>   0.0800 
 33 H       -1.4030    -2.1080    -1.0450 H     1 <1>   0.0800 
 34 H       -0.6520     2.6530    -1.0590 H     1 <1>   0.0800 
 35 H        0.2300     2.1220     0.3510 H     1 <1>   0.0800 
 36 H       -3.1400    -3.6490    -0.6550 H     1 <1>   0.0800 
 37 H       -0.1900    -2.4840     1.3200 H     1 <1>   0.0800 
 38 H       -0.7810    -3.9090     0.4680 H     1 <1>   0.0800 
 39 H       -0.7560     3.9560     1.6710 H     1 <1>   0.0800 
 40 H       -1.6570     4.5030     0.2770 H     1 <1>   0.0800 
 41 H       -3.6320    -4.2970     1.5100 H     1 <1>   0.0800 
 42 H       -3.8760    -2.6420     2.0540 H     1 <1>   0.0800 
 43 H       -4.1710    -1.5150    -1.4260 H     1 <1>   0.0800 
 44 H       -4.4780    -1.0970     0.2310 H     1 <1>   0.0800 
 45 H        1.2790     4.2470     0.2640 H     1 <1>   0.4500 
 46 H       -0.0170     6.8310     0.6160 H     1 <1>   0.0800 
 47 H        0.2990     5.8260     2.0050 H     1 <1>   0.0800 
 48 H       -0.3910     4.6120    -1.7950 H     1 <1>   0.0800 
 49 H        0.0670     6.2380    -1.3670 H     1 <1>   0.0800 
 50 H       -5.1170    -4.6440    -0.2350 H     1 <1>   0.1500 
 51 H        2.1110     7.4020     1.5800 H     1 <1>   0.0800 
 52 H        2.6490     5.7650     1.5660 H     1 <1>   0.0800 
 53 H        1.8200     3.9510    -2.2080 H     1 <1>   0.0800 
 54 H        1.6790     5.5260    -2.8940 H     1 <1>   0.0800 
 55 H       -5.9930     0.0940    -0.9640 H     1 <1>   0.1500 
 56 H       -7.2980    -5.5930    -0.3240 H     1 <1>   0.1500 
 57 H        2.1640     7.4640    -0.9220 H     1 <1>   0.0800 
 58 H        3.6940     7.1790    -0.1690 H     1 <1>   0.0800 
 59 H        3.2830     4.6710    -0.5150 H     1 <1>   0.0800 
 60 H        3.7390     5.6290    -1.8740 H     1 <1>   0.0800 
 61 H      -10.2760    -2.2950    -0.9850 H     1 <1>   0.1500 
 62 H       -8.0660     1.3250    -1.3100 H     1 <1>   0.1500 
 63 H      -10.2160     0.1560    -1.3200 H     1 <1>   0.1500 
@<TRIPOS>BOND
  1   1   2  2   
  2   2   3  am  
  3   2   4  1   
  4   3   5  1   
  5   3  30  1   
  6   4   6  1   
  7   4  31  1   
  8   4  32  1   
  9   5   7  1   
 10   5   8  1   
 11   5  33  1   
 12   6   9  1   
 13   6  34  1   
 14   6  35  1   
 15   7  10  1   
 16   7  11  1   
 17   7  36  1   
 18   8  12  1   
 19   8  37  1   
 20   8  38  1   
 21   9  13  1   
 22   9  39  1   
 23   9  40  1   
 24  10  12  1   
 25  10  41  1   
 26  10  42  1   
 27  11  14  1   
 28  11  43  1   
 29  11  44  1   
 30  13  15  1   
 31  13  16  1   
 32  13  45  1   
 33  14  17  ar  
 34  14  18  ar  
 35  15  19  1   
 36  15  46  1   
 37  15  47  1   
 38  16  20  1   
 39  16  48  1   
 40  16  49  1   
 41  17  21  ar  
 42  17  22  ar  
 43  18  23  ar  
 44  18  50  1   
 45  19  24  1   
 46  19  51  1   
 47  19  52  1   
 48  20  25  1   
 49  20  53  1   
 50  20  54  1   
 51  21  26  ar  
 52  21  27  ar  
 53  22  28  ar  
 54  22  55  1   
 55  23  26  ar  
 56  23  56  1   
 57  24  25  1   
 58  24  57  1   
 59  24  58  1   
 60  25  59  1   
 61  25  60  1   
 62  27  29  ar  
 63  27  61  1   
 64  28  29  ar  
 65  28  62  1   
 66  29  63  1   
@<TRIPOS>SUBSTRUCTURE
  1 ****   2 GROUP 4 **** **** 0

# MOE 2024.06 (io_trps.svl 2023.06)
