@<TRIPOS>MOLECULE
NONAME
43 46 1 0 0 
SMALL
USER_CHARGES


@<TRIPOS>ATOM
  1 CL      -1.5890    -0.6460    -1.9850 Cl    1 <1>  -0.1770 
  2 C       -2.3320     0.4980    -0.8910 C.ar  1 <1>   0.1770 
  3 C       -3.0270     0.0250     0.2230 C.ar  1 <1>  -0.1440 
  4 C       -2.2170     1.8500    -1.1730 C.ar  1 <1>  -0.1500 
  5 C       -3.6260     0.9360     1.0900 C.ar  1 <1>  -0.1500 
  6 C       -3.1260    -1.4640     0.4910 C.3   1 <1>   0.4870 
  7 C       -2.8260     2.7260    -0.2980 C.ar  1 <1>   0.0820 
  8 C       -3.5080     2.2810     0.7970 C.ar  1 <1>   0.0820 
  9 N       -3.9940    -2.0950    -0.5420 N.4   1 <1>  -0.9590 
 10 O       -2.8610     4.0600    -0.3510 O.3   1 <1>  -0.3630 
 11 O       -4.0040     3.3150     1.4810 O.3   1 <1>  -0.3620 
 12 C       -5.3940    -1.5520    -0.5510 C.3   1 <1>   0.3430 
 13 C       -4.0790    -3.5760    -0.3760 C.3   1 <1>   0.3430 
 14 C       -3.6020     4.4980     0.7880 C.3   1 <1>   0.4000 
 15 C       -6.3260    -2.7590    -0.4060 C.3   1 <1>   0.2000 
 16 C       -5.4670    -3.8650     0.1930 C.3   1 <1>  -0.0800 
 17 O       -7.4040    -2.4870     0.4210 O.3   1 <1>  -0.6800 
 18 C       -5.9910    -5.2770    -0.1360 C.3   1 <1>  -0.0160 
 19 C       -5.1490    -6.3690     0.5100 C.ar  1 <1>   0.1670 
 20 N       -3.8790    -6.4330     0.1390 N.ar  1 <1>  -0.6200 
 21 C       -5.7250    -7.2400     1.4360 C.ar  1 <1>   0.1600 
 22 C       -3.2360    -7.4260     0.7380 C.ar  1 <1>   0.1600 
 23 N       -5.0780    -8.2170     2.0450 N.ar  1 <1>  -0.6200 
 24 C       -3.8160    -8.2880     1.6610 C.ar  1 <1>   0.1600 
 25 H       -1.6790     2.2090    -2.0320 H     1 <1>   0.1500 
 26 H       -4.1680     0.6390     1.9710 H     1 <1>   0.1500 
 27 H       -3.5350    -1.6330     1.4740 H     1 <1>   0.0800 
 28 H       -2.1380    -1.8970     0.4560 H     1 <1>   0.0800 
 29 H       -3.5480    -1.8900    -1.4500 H     1 <1>   0.4500 
 30 H       -5.5420    -0.8800     0.2790 H     1 <1>   0.0800 
 31 H       -5.5970    -1.0300    -1.4720 H     1 <1>   0.0800 
 32 H       -3.9870    -4.0550    -1.3390 H     1 <1>   0.0800 
 33 H       -3.3040    -3.9610     0.2690 H     1 <1>   0.0800 
 34 H       -2.9710     5.0940     1.4230 H     1 <1>   0.0800 
 35 H       -4.4720     5.0440     0.4660 H     1 <1>   0.0800 
 36 H       -6.7100    -3.0340    -1.3750 H     1 <1>   0.0800 
 37 H       -5.4110    -3.7490     1.2620 H     1 <1>   0.0800 
 38 H       -7.1610    -2.4330     1.3670 H     1 <1>   0.4000 
 39 H       -5.9930    -5.4340    -1.2010 H     1 <1>   0.0800 
 40 H       -7.0100    -5.3620     0.2010 H     1 <1>   0.0800 
 41 H       -6.7660    -7.1270     1.6860 H     1 <1>   0.1500 
 42 H       -2.1990    -7.5690     0.4880 H     1 <1>   0.1500 
 43 H       -3.2130    -9.0650     2.0970 H     1 <1>   0.1500 
@<TRIPOS>BOND
  1   1   2  1   
  2   2   3  ar  
  3   2   4  ar  
  4   3   5  ar  
  5   3   6  1   
  6   4   7  ar  
  7   4  25  1   
  8   5   8  ar  
  9   5  26  1   
 10   6   9  1   
 11   6  27  1   
 12   6  28  1   
 13   7   8  ar  
 14   7  10  1   
 15   8  11  1   
 16   9  12  1   
 17   9  13  1   
 18   9  29  1   
 19  10  14  1   
 20  11  14  1   
 21  12  15  1   
 22  12  30  1   
 23  12  31  1   
 24  13  16  1   
 25  13  32  1   
 26  13  33  1   
 27  14  34  1   
 28  14  35  1   
 29  15  16  1   
 30  15  17  1   
 31  15  36  1   
 32  16  18  1   
 33  16  37  1   
 34  17  38  1   
 35  18  19  1   
 36  18  39  1   
 37  18  40  1   
 38  19  20  ar  
 39  19  21  ar  
 40  20  22  ar  
 41  21  23  ar  
 42  21  41  1   
 43  22  24  ar  
 44  22  42  1   
 45  23  24  ar  
 46  24  43  1   
@<TRIPOS>SUBSTRUCTURE
  1 ****   9 GROUP 4 **** **** 0

# MOE 2024.06 (io_trps.svl 2023.06)
