@<TRIPOS>MOLECULE
NONAME
56 58 1 0 0 
SMALL
USER_CHARGES


@<TRIPOS>ATOM
  1 O        0.6990    -0.9430    -0.0740 O.3   1 <1>  -0.5600 
  2 C        0.0020    -1.8140     0.7920 C.3   1 <1>   0.2800 
  3 C        0.0310     0.1420    -0.6610 C.3   1 <1>   0.1200 
  4 C       -1.4200    -1.3040     1.1180 C.3   1 <1>  -0.1600 
  5 C        0.8470    -1.9140     2.0720 C.3   1 <1>  -0.1600 
  6 C       -0.0120    -3.1970     0.1080 C.3   1 <1>  -0.1600 
  7 C       -1.3070    -0.3250    -1.2330 C.3   1 <1>  -0.1600 
  8 C       -2.2190    -0.8510    -0.1170 C.3   1 <1>   0.2800 
  9 C        2.2860    -2.3880     1.8170 C.3   1 <1>   0.3430 
 10 C        1.3200    -3.9540     0.1890 C.3   1 <1>   0.3430 
 11 O       -3.0120     0.1930     0.2920 O.3   1 <1>  -0.6800 
 12 C       -3.1850    -1.9160    -0.6340 C.3   1 <1>  -0.2400 
 13 N        2.4200    -2.9970     0.4600 N.4   1 <1>  -0.9590 
 14 C        3.7690    -3.5830     0.1820 C.3   1 <1>   0.3430 
 15 C        4.8750    -2.5260     0.1450 C.3   1 <1>   0.1200 
 16 O        6.0810    -3.1990    -0.1190 O.3   1 <1>  -0.3630 
 17 C        7.2730    -2.5450    -0.1760 C.ar  1 <1>   0.0820 
 18 C        8.4230    -3.3140    -0.3600 C.ar  1 <1>  -0.1440 
 19 C        7.3710    -1.1600    -0.0570 C.ar  1 <1>  -0.1500 
 20 C        9.6550    -2.6730    -0.4170 C.ar  1 <1>  -0.1500 
 21 C        8.2840    -4.8350    -0.4910 C.3   1 <1>  -0.0170 
 22 C        8.6050    -0.5410    -0.1170 C.ar  1 <1>  -0.1500 
 23 C        9.7460    -1.2980    -0.2960 C.ar  1 <1>  -0.1500 
 24 C        9.5890    -5.6140    -0.6910 C.3   1 <1>  -0.2400 
 25 H        0.6590     0.5330    -1.4430 H     1 <1>   0.0800 
 26 H       -0.1080     0.9060     0.0860 H     1 <1>   0.0800 
 27 H       -1.3180    -0.4750     1.7970 H     1 <1>   0.0800 
 28 H       -1.9670    -2.0630     1.6480 H     1 <1>   0.0800 
 29 H        0.3760    -2.6030     2.7500 H     1 <1>   0.0800 
 30 H        0.8760    -0.9620     2.5710 H     1 <1>   0.0800 
 31 H       -0.2890    -3.0880    -0.9250 H     1 <1>   0.0800 
 32 H       -0.7620    -3.8190     0.5640 H     1 <1>   0.0800 
 33 H       -1.1070    -1.1010    -1.9490 H     1 <1>   0.0800 
 34 H       -1.7890     0.4750    -1.7660 H     1 <1>   0.0800 
 35 H        2.5710    -3.0980     2.5770 H     1 <1>   0.0800 
 36 H        2.9450    -1.5380     1.8880 H     1 <1>   0.0800 
 37 H        1.4920    -4.4730    -0.7410 H     1 <1>   0.0800 
 38 H        1.2770    -4.6840     0.9820 H     1 <1>   0.0800 
 39 H       -2.4690     0.9560     0.5590 H     1 <1>   0.4000 
 40 H       -2.6580    -2.7850    -0.9760 H     1 <1>   0.0800 
 41 H       -3.7570    -1.5260    -1.4580 H     1 <1>   0.0800 
 42 H       -3.8650    -2.2150     0.1440 H     1 <1>   0.0800 
 43 H        2.2310    -2.2080    -0.1900 H     1 <1>   0.4500 
 44 H        3.7510    -4.0790    -0.7740 H     1 <1>   0.0800 
 45 H        4.0080    -4.3130     0.9380 H     1 <1>   0.0800 
 46 H        4.9760    -2.0300     1.0940 H     1 <1>   0.0800 
 47 H        4.7050    -1.8200    -0.6480 H     1 <1>   0.0800 
 48 H        6.5080    -0.5390     0.0800 H     1 <1>   0.1500 
 49 H       10.5650    -3.2250    -0.5570 H     1 <1>   0.1500 
 50 H        7.6360    -5.0440    -1.3250 H     1 <1>   0.0800 
 51 H        7.8010    -5.2080     0.3950 H     1 <1>   0.0800 
 52 H        8.6810     0.5290    -0.0250 H     1 <1>   0.1500 
 53 H       10.7080    -0.8180    -0.3430 H     1 <1>   0.1500 
 54 H       10.0810    -5.2980    -1.5940 H     1 <1>   0.0800 
 55 H        9.3780    -6.6660    -0.7720 H     1 <1>   0.0800 
 56 H       10.2480    -5.4640     0.1450 H     1 <1>   0.0800 
@<TRIPOS>BOND
  1   1   2  1   
  2   1   3  1   
  3   2   4  1   
  4   2   5  1   
  5   2   6  1   
  6   3   7  1   
  7   3  25  1   
  8   3  26  1   
  9   4   8  1   
 10   4  27  1   
 11   4  28  1   
 12   5   9  1   
 13   5  29  1   
 14   5  30  1   
 15   6  10  1   
 16   6  31  1   
 17   6  32  1   
 18   7   8  1   
 19   7  33  1   
 20   7  34  1   
 21   8  11  1   
 22   8  12  1   
 23   9  13  1   
 24   9  35  1   
 25   9  36  1   
 26  10  13  1   
 27  10  37  1   
 28  10  38  1   
 29  11  39  1   
 30  12  40  1   
 31  12  41  1   
 32  12  42  1   
 33  13  14  1   
 34  13  43  1   
 35  14  15  1   
 36  14  44  1   
 37  14  45  1   
 38  15  16  1   
 39  15  46  1   
 40  15  47  1   
 41  16  17  1   
 42  17  18  ar  
 43  17  19  ar  
 44  18  20  ar  
 45  18  21  1   
 46  19  22  ar  
 47  19  48  1   
 48  20  23  ar  
 49  20  49  1   
 50  21  24  1   
 51  21  50  1   
 52  21  51  1   
 53  22  23  ar  
 54  22  52  1   
 55  23  53  1   
 56  24  54  1   
 57  24  55  1   
 58  24  56  1   
@<TRIPOS>SUBSTRUCTURE
  1 ****  13 GROUP 4 **** **** 0

# MOE 2024.06 (io_trps.svl 2023.06)
