@<TRIPOS>MOLECULE
NONAME
53 56 1 0 0 
SMALL
USER_CHARGES


@<TRIPOS>ATOM
  1 CL      -1.2910    -0.0060     2.7930 Cl    1 <1>  -0.1770 
  2 C       -2.4620    -0.7390     1.7320 C.ar  1 <1>   0.1770 
  3 C       -2.8470    -2.0430     1.9420 C.ar  1 <1>  -0.1500 
  4 C       -2.9870     0.0100     0.6890 C.ar  1 <1>  -0.1500 
  5 C       -3.7830    -2.6280     1.0950 C.ar  1 <1>   0.1170 
  6 C       -3.9150    -0.5630    -0.1560 C.ar  1 <1>  -0.1500 
  7 N       -4.1970    -3.9440     1.2800 N.am  1 <1>  -0.5470 
  8 C       -4.3290    -1.8860     0.0300 C.ar  1 <1>   0.0280 
  9 C       -5.1160    -4.5510     0.4820 C.2   1 <1>   0.6160 
 10 C       -5.2880    -2.5210    -0.8250 C.2   1 <1>  -0.1780 
 11 O       -5.4570    -5.6920     0.7290 O.2   1 <1>  -0.5700 
 12 C       -5.6670    -3.8060    -0.6040 C.2   1 <1>  -0.1240 
 13 C       -6.6590    -4.5460    -1.4740 C.3   1 <1>   0.4810 
 14 N       -8.0480    -4.3020    -0.9980 N.4   1 <1>  -0.9590 
 15 C       -8.3340    -4.9440     0.3220 C.3   1 <1>   0.3430 
 16 C       -9.0850    -4.6510    -1.9960 C.3   1 <1>   0.3430 
 17 C       -9.8110    -4.7940     0.7030 C.3   1 <1>  -0.1600 
 18 C      -10.4130    -3.9980    -1.5990 C.3   1 <1>  -0.1600 
 19 C      -10.5380    -3.6910    -0.0880 C.3   1 <1>   0.2800 
 20 O       -9.7950    -2.5020     0.1220 O.3   1 <1>  -0.5600 
 21 C      -12.0140    -3.5560     0.3980 C.3   1 <1>   0.2000 
 22 C      -10.4360    -1.3880     0.6850 C.3   1 <1>   0.1200 
 23 O      -12.7680    -4.6850     0.0650 O.3   1 <1>  -0.6800 
 24 C      -12.7050    -2.2370    -0.0590 C.3   1 <1>   0.2800 
 25 C      -11.6970    -1.0760    -0.1240 C.3   1 <1>  -0.1600 
 26 O      -13.6300    -1.9280     0.9170 O.3   1 <1>  -0.6800 
 27 C      -13.5090    -2.3270    -1.3640 C.3   1 <1>  -0.2400 
 28 H       -2.4220    -2.5990     2.7570 H     1 <1>   0.1500 
 29 H       -2.6630     1.0270     0.5540 H     1 <1>   0.1500 
 30 H       -4.3230     0.0140    -0.9670 H     1 <1>   0.1500 
 31 H       -3.8100    -4.5150     2.0330 H     1 <1>   0.3700 
 32 H       -5.6800    -1.9330    -1.6380 H     1 <1>   0.1500 
 33 H       -6.4410    -5.6020    -1.4670 H     1 <1>   0.0800 
 34 H       -6.5610    -4.1880    -2.4860 H     1 <1>   0.0800 
 35 H       -8.1750    -3.2900    -0.8120 H     1 <1>   0.4500 
 36 H       -8.0680    -5.9890     0.2980 H     1 <1>   0.0800 
 37 H       -7.7310    -4.4700     1.0800 H     1 <1>   0.0800 
 38 H       -8.7990    -4.3120    -2.9780 H     1 <1>   0.0800 
 39 H       -9.2050    -5.7230    -2.0260 H     1 <1>   0.0800 
 40 H       -9.8850    -4.6030     1.7580 H     1 <1>   0.0800 
 41 H      -10.3050    -5.7330     0.5270 H     1 <1>   0.0800 
 42 H      -11.1940    -4.6700    -1.9070 H     1 <1>   0.0800 
 43 H      -10.5460    -3.0930    -2.1610 H     1 <1>   0.0800 
 44 H      -11.9790    -3.5400     1.4740 H     1 <1>   0.0800 
 45 H      -10.6700    -1.5990     1.7160 H     1 <1>   0.0800 
 46 H       -9.7490    -0.5600     0.6490 H     1 <1>   0.0800 
 47 H      -13.6760    -4.5620     0.4150 H     1 <1>   0.4000 
 48 H      -11.3910    -0.9040    -1.1410 H     1 <1>   0.0800 
 49 H      -12.1420    -0.1630     0.2310 H     1 <1>   0.0800 
 50 H      -14.1720    -1.1670     0.6330 H     1 <1>   0.4000 
 51 H      -12.8770    -2.6320    -2.1760 H     1 <1>   0.0800 
 52 H      -13.9320    -1.3710    -1.6170 H     1 <1>   0.0800 
 53 H      -14.3050    -3.0450    -1.2780 H     1 <1>   0.0800 
@<TRIPOS>BOND
  1   1   2  1   
  2   2   3  ar  
  3   2   4  ar  
  4   3   5  ar  
  5   3  28  1   
  6   4   6  ar  
  7   4  29  1   
  8   5   7  1   
  9   5   8  ar  
 10   6   8  ar  
 11   6  30  1   
 12   7   9  am  
 13   7  31  1   
 14   8  10  1   
 15   9  11  2   
 16   9  12  1   
 17  10  12  2   
 18  10  32  1   
 19  12  13  1   
 20  13  14  1   
 21  13  33  1   
 22  13  34  1   
 23  14  15  1   
 24  14  16  1   
 25  14  35  1   
 26  15  17  1   
 27  15  36  1   
 28  15  37  1   
 29  16  18  1   
 30  16  38  1   
 31  16  39  1   
 32  17  19  1   
 33  17  40  1   
 34  17  41  1   
 35  18  19  1   
 36  18  42  1   
 37  18  43  1   
 38  19  20  1   
 39  19  21  1   
 40  20  22  1   
 41  21  23  1   
 42  21  24  1   
 43  21  44  1   
 44  22  25  1   
 45  22  45  1   
 46  22  46  1   
 47  23  47  1   
 48  24  25  1   
 49  24  26  1   
 50  24  27  1   
 51  25  48  1   
 52  25  49  1   
 53  26  50  1   
 54  27  51  1   
 55  27  52  1   
 56  27  53  1   
@<TRIPOS>SUBSTRUCTURE
  1 ****  14 GROUP 4 **** **** 0

# MOE 2024.06 (io_trps.svl 2023.06)
