@<TRIPOS>MOLECULE
NONAME
47 48 1 0 0 
SMALL
USER_CHARGES


@<TRIPOS>ATOM
  1 O       -4.2720    -2.3160    -1.8940 O.co2 1 <1>  -0.9000 
  2 C       -3.6400    -1.8340    -0.9340 C.2   1 <1>   0.9790 
  3 O       -2.7400    -2.5040    -0.4140 O.co2 1 <1>  -0.9000 
  4 C       -4.1090    -0.5830    -0.3730 C.ar  1 <1>  -0.1790 
  5 C       -4.6730    -0.5050     0.9070 C.ar  1 <1>  -0.1440 
  6 C       -4.0540     0.5800    -1.1420 C.ar  1 <1>  -0.1500 
  7 C       -5.1740     0.7030     1.3700 C.ar  1 <1>  -0.1500 
  8 C       -4.7130    -1.7230     1.8300 C.3   1 <1>   0.2540 
  9 C       -4.5530     1.7790    -0.6730 C.ar  1 <1>  -0.1500 
 10 C       -5.1200     1.8420     0.5860 C.ar  1 <1>  -0.1500 
 11 N       -5.7350    -2.7360     1.4790 N.3   1 <1>  -0.8100 
 12 C       -5.1970    -3.9810     0.8900 C.3   1 <1>   0.2900 
 13 C       -7.1100    -2.2870     1.1450 C.3   1 <1>   0.1100 
 14 C       -6.1820    -5.1090     1.1180 C.2   1 <1>  -0.3320 
 15 C       -7.6470    -2.6970    -0.2470 C.3   1 <1>   0.3430 
 16 N       -6.7240    -5.3640     2.3200 N.pl3 1 <1>   0.0330 
 17 C       -6.6960    -6.0250     0.2670 C.2   1 <1>   0.0460 
 18 N       -6.9220    -2.0750    -1.3920 N.4   1 <1>  -0.9590 
 19 C       -7.5590    -6.4030     2.1170 C.2   1 <1>   0.0360 
 20 N       -7.5770    -6.8230     0.8940 N.2   1 <1>  -0.5650 
 21 C       -6.3950    -6.2340    -1.2010 C.3   1 <1>  -0.0590 
 22 C       -7.0840    -0.6010    -1.4900 C.3   1 <1>   0.2630 
 23 C       -7.1900    -2.7510    -2.6840 C.3   1 <1>   0.2630 
 24 H       -3.6110     0.5270    -2.1230 H     1 <1>   0.1500 
 25 H       -5.6010     0.7680     2.3550 H     1 <1>   0.1500 
 26 H       -4.9140    -1.3880     2.8320 H     1 <1>   0.0800 
 27 H       -3.7360    -2.1750     1.8550 H     1 <1>   0.0800 
 28 H       -4.4940     2.6630    -1.2840 H     1 <1>   0.1500 
 29 H       -5.5050     2.7750     0.9590 H     1 <1>   0.1500 
 30 H       -4.2560    -4.2310     1.3520 H     1 <1>   0.0800 
 31 H       -5.0180    -3.8600    -0.1610 H     1 <1>   0.0800 
 32 H       -7.1930    -1.2220     1.2650 H     1 <1>   0.0800 
 33 H       -7.7700    -2.7250     1.8720 H     1 <1>   0.0800 
 34 H       -8.6870    -2.4260    -0.3060 H     1 <1>   0.0800 
 35 H       -7.5930    -3.7680    -0.3290 H     1 <1>   0.0800 
 36 H       -6.5330    -4.8530     3.1870 H     1 <1>   0.2700 
 37 H       -5.8870    -2.2330    -1.2500 H     1 <1>   0.4500 
 38 H       -8.1460    -6.8300     2.9120 H     1 <1>   0.1500 
 39 H       -5.6570    -5.5340    -1.5470 H     1 <1>   0.0800 
 40 H       -7.2950    -6.1200    -1.7750 H     1 <1>   0.0800 
 41 H       -6.0180    -7.2300    -1.3450 H     1 <1>   0.0800 
 42 H       -8.1090    -0.3450    -1.6970 H     1 <1>   0.0800 
 43 H       -6.4560    -0.2200    -2.2790 H     1 <1>   0.0800 
 44 H       -6.7790    -0.1320    -0.5690 H     1 <1>   0.0800 
 45 H       -8.2140    -2.6090    -2.9830 H     1 <1>   0.0800 
 46 H       -6.9870    -3.8050    -2.5940 H     1 <1>   0.0800 
 47 H       -6.5360    -2.3500    -3.4420 H     1 <1>   0.0800 
@<TRIPOS>BOND
  1   1   2  ar  
  2   2   3  ar  
  3   2   4  1   
  4   4   5  ar  
  5   4   6  ar  
  6   5   7  ar  
  7   5   8  1   
  8   6   9  ar  
  9   6  24  1   
 10   7  10  ar  
 11   7  25  1   
 12   8  11  1   
 13   8  26  1   
 14   8  27  1   
 15   9  10  ar  
 16   9  28  1   
 17  10  29  1   
 18  11  12  1   
 19  11  13  1   
 20  12  14  1   
 21  12  30  1   
 22  12  31  1   
 23  13  15  1   
 24  13  32  1   
 25  13  33  1   
 26  14  16  1   
 27  14  17  2   
 28  15  18  1   
 29  15  34  1   
 30  15  35  1   
 31  16  19  1   
 32  16  36  1   
 33  17  20  1   
 34  17  21  1   
 35  18  22  1   
 36  18  23  1   
 37  18  37  1   
 38  19  20  2   
 39  19  38  1   
 40  21  39  1   
 41  21  40  1   
 42  21  41  1   
 43  22  42  1   
 44  22  43  1   
 45  22  44  1   
 46  23  45  1   
 47  23  46  1   
 48  23  47  1   
@<TRIPOS>SUBSTRUCTURE
  1 ****  11 GROUP 4 **** **** 0

# MOE 2024.06 (io_trps.svl 2023.06)
