@<TRIPOS>MOLECULE
NONAME
56 59 1 0 0 
SMALL
USER_CHARGES


@<TRIPOS>ATOM
  1 O        0.0230     0.9930     1.1660 O.3   1 <1>  -0.3630 
  2 C        1.2290     0.9280     0.5450 C.ar  1 <1>   0.0830 
  3 C       -0.7110     2.2000     1.2410 C.3   1 <1>   0.0400 
  4 C        1.9680    -0.2220     0.6860 C.ar  1 <1>  -0.1440 
  5 C        1.7220     1.9840    -0.2420 C.ar  1 <1>  -0.1500 
  6 C        3.2290    -0.3670     0.0560 C.ar  1 <1>   0.0000 
  7 C        1.3900    -1.3510     1.5200 C.3   1 <1>   0.4870 
  8 C        2.9250     1.8590    -0.8740 C.ar  1 <1>  -0.1500 
  9 C        3.6990     0.6910    -0.7560 C.ar  1 <1>   0.0000 
 10 C        4.0480    -1.5120     0.1760 C.ar  1 <1>  -0.1500 
 11 N        0.8810    -2.4300     0.6310 N.4   1 <1>  -0.9590 
 12 C        4.9270     0.5480    -1.4320 C.ar  1 <1>  -0.1500 
 13 C        5.2320    -1.6370    -0.4990 C.ar  1 <1>   0.0830 
 14 C        0.0650    -1.9640    -0.5250 C.3   1 <1>   0.3430 
 15 C        0.1250    -3.5150     1.2910 C.3   1 <1>   0.3430 
 16 C        5.6790    -0.5860    -1.3180 C.ar  1 <1>  -0.1500 
 17 O        5.9230    -2.7940    -0.3510 O.3   1 <1>  -0.3630 
 18 C       -0.8500    -3.1380    -0.8940 C.3   1 <1>   0.2000 
 19 C       -0.6080    -4.2320     0.1560 C.3   1 <1>  -0.0800 
 20 C        7.3000    -2.8600    -0.6600 C.3   1 <1>   0.0400 
 21 O       -2.1790    -2.7350    -0.8260 O.3   1 <1>  -0.6800 
 22 C        0.1800    -5.4390    -0.4110 C.3   1 <1>   0.0210 
 23 C        1.6910    -5.2700    -0.5110 C.2   1 <1>   0.1080 
 24 N        2.2880    -4.2320    -1.0160 N.2   1 <1>  -0.7070 
 25 C        2.5960    -6.2260    -0.0670 C.2   1 <1>  -0.1500 
 26 N        3.6090    -4.5200    -0.9290 N.pl3 1 <1>   0.3000 
 27 C        3.8130    -5.7140    -0.3420 C.2   1 <1>  -0.3320 
 28 C        5.1890    -6.3010    -0.0820 C.3   1 <1>  -0.0600 
 29 H       -1.5790     2.0310     1.8520 H     1 <1>   0.0800 
 30 H       -1.0160     2.4890     0.2500 H     1 <1>   0.0800 
 31 H       -0.0930     2.9590     1.6890 H     1 <1>   0.0800 
 32 H        1.1610     2.8920    -0.3610 H     1 <1>   0.1500 
 33 H        0.5840    -0.9720     2.1250 H     1 <1>   0.0800 
 34 H        2.1470    -1.7400     2.1810 H     1 <1>   0.0800 
 35 H        3.3030     2.6630    -1.4820 H     1 <1>   0.1500 
 36 H        3.7510    -2.3200     0.8150 H     1 <1>   0.1500 
 37 H        1.6900    -2.8990     0.1680 H     1 <1>   0.4500 
 38 H        5.2660     1.3590    -2.0520 H     1 <1>   0.1500 
 39 H       -0.5270    -1.1050    -0.2530 H     1 <1>   0.0800 
 40 H        0.7080    -1.7110    -1.3520 H     1 <1>   0.0800 
 41 H        0.7810    -4.1840     1.8250 H     1 <1>   0.0800 
 42 H       -0.5930    -3.0930     1.9740 H     1 <1>   0.0800 
 43 H        6.6040    -0.6660    -1.8570 H     1 <1>   0.1500 
 44 H       -0.6590    -3.4750    -1.8990 H     1 <1>   0.0800 
 45 H       -1.5470    -4.6140     0.5190 H     1 <1>   0.0800 
 46 H        7.6780    -3.8050    -0.3150 H     1 <1>   0.0800 
 47 H        7.8120    -2.0580    -0.1560 H     1 <1>   0.0800 
 48 H        7.4260    -2.7850    -1.7260 H     1 <1>   0.0800 
 49 H       -2.4350    -2.4190     0.0610 H     1 <1>   0.4000 
 50 H       -0.2000    -5.6960    -1.3840 H     1 <1>   0.0800 
 51 H       -0.0080    -6.2870     0.2240 H     1 <1>   0.0800 
 52 H        2.3600    -7.1710     0.3910 H     1 <1>   0.1500 
 53 H        4.3540    -3.8750    -1.2400 H     1 <1>   0.2700 
 54 H        5.1000    -7.2630     0.3910 H     1 <1>   0.0800 
 55 H        5.7540    -5.6520     0.5630 H     1 <1>   0.0800 
 56 H        5.7210    -6.4240    -1.0090 H     1 <1>   0.0800 
@<TRIPOS>BOND
  1   1   2  1   
  2   1   3  1   
  3   2   4  ar  
  4   2   5  ar  
  5   3  29  1   
  6   3  30  1   
  7   3  31  1   
  8   4   6  ar  
  9   4   7  1   
 10   5   8  ar  
 11   5  32  1   
 12   6   9  ar  
 13   6  10  ar  
 14   7  11  1   
 15   7  33  1   
 16   7  34  1   
 17   8   9  ar  
 18   8  35  1   
 19   9  12  ar  
 20  10  13  ar  
 21  10  36  1   
 22  11  14  1   
 23  11  15  1   
 24  11  37  1   
 25  12  16  ar  
 26  12  38  1   
 27  13  16  ar  
 28  13  17  1   
 29  14  18  1   
 30  14  39  1   
 31  14  40  1   
 32  15  19  1   
 33  15  41  1   
 34  15  42  1   
 35  16  43  1   
 36  17  20  1   
 37  18  19  1   
 38  18  21  1   
 39  18  44  1   
 40  19  22  1   
 41  19  45  1   
 42  20  46  1   
 43  20  47  1   
 44  20  48  1   
 45  21  49  1   
 46  22  23  1   
 47  22  50  1   
 48  22  51  1   
 49  23  24  2   
 50  23  25  1   
 51  24  26  1   
 52  25  27  2   
 53  25  52  1   
 54  26  27  1   
 55  26  53  1   
 56  27  28  1   
 57  28  54  1   
 58  28  55  1   
 59  28  56  1   
@<TRIPOS>SUBSTRUCTURE
  1 ****  11 GROUP 4 **** **** 0

# MOE 2024.06 (io_trps.svl 2023.06)
