@<TRIPOS>MOLECULE
NONAME
57 59 1 0 0 
SMALL
USER_CHARGES


@<TRIPOS>ATOM
  1 O       -5.0620     1.1390     2.4110 O.2   1 <1>  -0.5700 
  2 C       -4.1790     1.6670     1.7670 C.2   1 <1>   0.6900 
  3 N       -3.7960     1.1930     0.5440 N.am  1 <1>  -0.6600 
  4 N       -3.5670     2.7290     2.3010 N.am  1 <1>  -0.8000 
  5 C       -4.3210    -0.1070     0.0430 C.3   1 <1>   0.1400 
  6 C       -3.1750     2.0340    -0.5150 C.3   1 <1>   0.1400 
  7 C       -5.4030     0.1560    -1.0070 C.3   1 <1>  -0.0190 
  8 C       -4.2020     2.3020    -1.6250 C.3   1 <1>  -0.1600 
  9 C       -5.9630    -1.1850    -1.4780 C.2   1 <1>   0.5690 
 10 C       -4.8280     1.0030    -2.1620 C.3   1 <1>  -0.1600 
 11 O       -5.2230    -1.8970    -2.1180 O.2   1 <1>  -0.5700 
 12 N       -7.2340    -1.5980    -1.1590 N.am  1 <1>  -0.6600 
 13 C       -7.6990    -2.9670    -1.5420 C.3   1 <1>   0.1400 
 14 C       -8.2030    -0.8680    -0.2900 C.3   1 <1>   0.1400 
 15 C       -7.5080    -3.9740    -0.3960 C.3   1 <1>   0.1400 
 16 C       -7.8900    -1.0580     1.2000 C.3   1 <1>  -0.1600 
 17 N       -8.1650    -3.5210     0.8740 N.am  1 <1>  -0.6600 
 18 C       -7.4110    -2.4600     1.6000 C.3   1 <1>   0.1400 
 19 C       -9.3570    -3.9890     1.3640 C.2   1 <1>   0.5690 
 20 O       -9.8320    -3.5620     2.3900 O.2   1 <1>  -0.5700 
 21 C      -10.1230    -5.0640     0.6050 C.3   1 <1>  -0.0990 
 22 C      -11.4950    -5.3970     1.2090 C.3   1 <1>  -0.0170 
 23 C      -12.1920    -6.4620     0.3780 C.ar  1 <1>  -0.1430 
 24 C      -11.9870    -7.8100     0.6360 C.ar  1 <1>   0.1600 
 25 C      -13.0370    -6.1060    -0.6550 C.ar  1 <1>  -0.1500 
 26 N      -12.5380    -8.8060    -0.0390 N.ar  1 <1>  -0.6200 
 27 C      -13.6230    -7.1300    -1.3660 C.ar  1 <1>  -0.1500 
 28 C      -13.3440    -8.4420    -1.0230 C.ar  1 <1>   0.1600 
 29 H       -3.8070     2.9590     3.2630 H     1 <1>   0.3700 
 30 H       -2.6390     2.9890     1.9870 H     1 <1>   0.3700 
 31 H       -4.7290    -0.6870     0.8540 H     1 <1>   0.0800 
 32 H       -3.5150    -0.6730    -0.3930 H     1 <1>   0.0800 
 33 H       -2.3260     1.5110    -0.9220 H     1 <1>   0.0800 
 34 H       -2.8310     2.9700    -0.1120 H     1 <1>   0.0800 
 35 H       -6.1710     0.7310    -0.5320 H     1 <1>   0.0800 
 36 H       -3.7250     2.8310    -2.4300 H     1 <1>   0.0800 
 37 H       -4.9750     2.9390    -1.2300 H     1 <1>   0.0800 
 38 H       -5.6100     1.2370    -2.8630 H     1 <1>   0.0800 
 39 H       -4.0760     0.4350    -2.6820 H     1 <1>   0.0800 
 40 H       -7.1510    -3.3120    -2.4030 H     1 <1>   0.0800 
 41 H       -8.7370    -2.9330    -1.8230 H     1 <1>   0.0800 
 42 H       -9.1940    -1.2460    -0.4790 H     1 <1>   0.0800 
 43 H       -8.2220     0.1790    -0.5390 H     1 <1>   0.0800 
 44 H       -6.4530    -4.1030    -0.2240 H     1 <1>   0.0800 
 45 H       -7.8920    -4.9290    -0.7030 H     1 <1>   0.0800 
 46 H       -8.7780    -0.8310     1.7630 H     1 <1>   0.0800 
 47 H       -7.1480    -0.3440     1.5060 H     1 <1>   0.0800 
 48 H       -7.5290    -2.5890     2.6630 H     1 <1>   0.0800 
 49 H       -6.3620    -2.5540     1.3790 H     1 <1>   0.0800 
 50 H       -9.5260    -5.9560     0.5890 H     1 <1>   0.0800 
 51 H      -10.2660    -4.7310    -0.4060 H     1 <1>   0.0800 
 52 H      -12.1020    -4.5080     1.2470 H     1 <1>   0.0800 
 53 H      -11.3720    -5.7470     2.2200 H     1 <1>   0.0800 
 54 H      -11.3310    -8.0870     1.4440 H     1 <1>   0.1500 
 55 H      -13.2330    -5.0750    -0.8970 H     1 <1>   0.1500 
 56 H      -14.2920    -6.9170    -2.1800 H     1 <1>   0.1500 
 57 H      -13.8090    -9.2330    -1.5870 H     1 <1>   0.1500 
@<TRIPOS>BOND
  1   1   2  2   
  2   2   3  am  
  3   2   4  am  
  4   3   5  1   
  5   3   6  1   
  6   4  29  1   
  7   4  30  1   
  8   5   7  1   
  9   5  31  1   
 10   5  32  1   
 11   6   8  1   
 12   6  33  1   
 13   6  34  1   
 14   7   9  1   
 15   7  10  1   
 16   7  35  1   
 17   8  10  1   
 18   8  36  1   
 19   8  37  1   
 20   9  11  2   
 21   9  12  am  
 22  10  38  1   
 23  10  39  1   
 24  12  13  1   
 25  12  14  1   
 26  13  15  1   
 27  13  40  1   
 28  13  41  1   
 29  14  16  1   
 30  14  42  1   
 31  14  43  1   
 32  15  17  1   
 33  15  44  1   
 34  15  45  1   
 35  16  18  1   
 36  16  46  1   
 37  16  47  1   
 38  17  18  1   
 39  17  19  am  
 40  18  48  1   
 41  18  49  1   
 42  19  20  2   
 43  19  21  1   
 44  21  22  1   
 45  21  50  1   
 46  21  51  1   
 47  22  23  1   
 48  22  52  1   
 49  22  53  1   
 50  23  24  ar  
 51  23  25  ar  
 52  24  26  ar  
 53  24  54  1   
 54  25  27  ar  
 55  25  55  1   
 56  26  28  ar  
 57  27  28  ar  
 58  27  56  1   
 59  28  57  1   
@<TRIPOS>SUBSTRUCTURE
  1 ****  17 GROUP 4 **** **** 0

# MOE 2024.06 (io_trps.svl 2023.06)
