@<TRIPOS>MOLECULE
NONAME
61 62 1 0 0 
SMALL
USER_CHARGES


@<TRIPOS>ATOM
  1 O       -1.1030     0.1940    -1.3710 O.2   1 <1>  -0.5700 
  2 C       -1.5400     0.7210    -0.3640 C.2   1 <1>   0.5440 
  3 N       -1.9670    -0.0680     0.6810 N.am  1 <1>  -0.6600 
  4 C       -1.5910     2.1640    -0.2840 C.ar  1 <1>   0.0860 
  5 C       -2.0610    -1.5530     0.5320 C.3   1 <1>   0.3210 
  6 C       -2.4070     0.4760     2.0070 C.3   1 <1>   0.1400 
  7 C       -0.5210     2.8950     0.2110 C.ar  1 <1>  -0.1500 
  8 C       -2.7260     2.8500    -0.6850 C.ar  1 <1>  -0.1500 
  9 C       -3.5180    -1.9910     0.4430 C.2   1 <1>   0.0460 
 10 C       -3.7460     1.2470     1.9940 C.3   1 <1>   0.1200 
 11 C       -0.5550     4.2780     0.3370 C.ar  1 <1>  -0.1440 
 12 C       -2.8450     4.2300    -0.5850 C.ar  1 <1>  -0.1440 
 13 N       -4.2480    -2.2200     1.5570 N.2   1 <1>  -0.5650 
 14 C       -4.2700    -2.1780    -0.6670 C.2   1 <1>  -0.3320 
 15 O       -4.6580     0.6950     1.1060 O.3   1 <1>  -0.6800 
 16 C       -1.7370     4.9220    -0.0670 C.ar  1 <1>   0.0830 
 17 C        0.6820     5.0420     0.9050 C.3   1 <1>   0.1430 
 18 C       -4.1690     4.9300    -1.0260 C.3   1 <1>   0.1430 
 19 C       -5.4140    -2.5470     1.1040 C.2   1 <1>   0.0360 
 20 N       -5.4930    -2.5400    -0.2420 N.pl3 1 <1>   0.0330 
 21 C       -3.9180    -2.0110    -2.1360 C.3   1 <1>  -0.0600 
 22 O       -1.8250     6.2510     0.0410 O.3   1 <1>  -0.5320 
 23 C        0.3170     5.7880     2.2010 C.3   1 <1>  -0.2400 
 24 C        1.2390     6.0290    -0.1360 C.3   1 <1>  -0.2400 
 25 C        1.8580     4.1120     1.2720 C.3   1 <1>  -0.2400 
 26 C       -5.2310     3.9430    -1.5530 C.3   1 <1>  -0.2400 
 27 C       -3.9110     5.9200    -2.1780 C.3   1 <1>  -0.2400 
 28 C       -4.8300     5.6500     0.1640 C.3   1 <1>  -0.2400 
 29 H       -1.5960    -2.0310     1.3750 H     1 <1>   0.0800 
 30 H       -1.5410    -1.8810    -0.3500 H     1 <1>   0.0800 
 31 H       -1.6410     1.1260     2.3920 H     1 <1>   0.0800 
 32 H       -2.5010    -0.3370     2.7060 H     1 <1>   0.0800 
 33 H        0.3370     2.3150     0.4880 H     1 <1>   0.1500 
 34 H       -3.5150     2.2280    -1.0630 H     1 <1>   0.1500 
 35 H       -3.5960     2.2750     1.7210 H     1 <1>   0.0800 
 36 H       -4.1850     1.2230     2.9760 H     1 <1>   0.0800 
 37 H       -4.5180    -0.2870     1.0740 H     1 <1>   0.4000 
 38 H       -6.2560    -2.8010     1.7240 H     1 <1>   0.1500 
 39 H       -6.3150    -2.7530    -0.8140 H     1 <1>   0.2700 
 40 H       -2.9000    -1.6820    -2.2480 H     1 <1>   0.0800 
 41 H       -4.5570    -1.2740    -2.5870 H     1 <1>   0.0800 
 42 H       -4.0340    -2.9450    -2.6570 H     1 <1>   0.0800 
 43 H       -2.6820     6.5760    -0.2840 H     1 <1>   0.4500 
 44 H       -0.3860     6.5770     2.0190 H     1 <1>   0.0800 
 45 H        1.1900     6.2310     2.6450 H     1 <1>   0.0800 
 46 H       -0.1190     5.1040     2.9060 H     1 <1>   0.0800 
 47 H        0.5450     6.8190    -0.3450 H     1 <1>   0.0800 
 48 H        1.4460     5.5130    -1.0570 H     1 <1>   0.0800 
 49 H        2.1480     6.4830     0.2150 H     1 <1>   0.0800 
 50 H        1.5640     3.4090     2.0310 H     1 <1>   0.0800 
 51 H        2.6870     4.6800     1.6550 H     1 <1>   0.0800 
 52 H        2.2020     3.5760     0.4050 H     1 <1>   0.0800 
 53 H       -4.8660     3.4150    -2.4160 H     1 <1>   0.0800 
 54 H       -6.1280     4.4600    -1.8430 H     1 <1>   0.0800 
 55 H       -5.4990     3.2290    -0.7930 H     1 <1>   0.0800 
 56 H       -3.4160     5.4110    -2.9870 H     1 <1>   0.0800 
 57 H       -3.3010     6.7530    -1.8900 H     1 <1>   0.0800 
 58 H       -4.8390     6.3170    -2.5500 H     1 <1>   0.0800 
 59 H       -4.9820     4.9510     0.9680 H     1 <1>   0.0800 
 60 H       -5.7880     6.0490    -0.1190 H     1 <1>   0.0800 
 61 H       -4.2440     6.4640     0.5420 H     1 <1>   0.0800 
@<TRIPOS>BOND
  1   1   2  2   
  2   2   3  am  
  3   2   4  1   
  4   3   5  1   
  5   3   6  1   
  6   4   7  ar  
  7   4   8  ar  
  8   5   9  1   
  9   5  29  1   
 10   5  30  1   
 11   6  10  1   
 12   6  31  1   
 13   6  32  1   
 14   7  11  ar  
 15   7  33  1   
 16   8  12  ar  
 17   8  34  1   
 18   9  13  1   
 19   9  14  2   
 20  10  15  1   
 21  10  35  1   
 22  10  36  1   
 23  11  16  ar  
 24  11  17  1   
 25  12  16  ar  
 26  12  18  1   
 27  13  19  2   
 28  14  20  1   
 29  14  21  1   
 30  15  37  1   
 31  16  22  1   
 32  17  23  1   
 33  17  24  1   
 34  17  25  1   
 35  18  26  1   
 36  18  27  1   
 37  18  28  1   
 38  19  20  1   
 39  19  38  1   
 40  20  39  1   
 41  21  40  1   
 42  21  41  1   
 43  21  42  1   
 44  22  43  1   
 45  23  44  1   
 46  23  45  1   
 47  23  46  1   
 48  24  47  1   
 49  24  48  1   
 50  24  49  1   
 51  25  50  1   
 52  25  51  1   
 53  25  52  1   
 54  26  53  1   
 55  26  54  1   
 56  26  55  1   
 57  27  56  1   
 58  27  57  1   
 59  27  58  1   
 60  28  59  1   
 61  28  60  1   
 62  28  61  1   
@<TRIPOS>SUBSTRUCTURE
  1 ****   4 GROUP 4 **** **** 0

# MOE 2024.06 (io_trps.svl 2023.06)
