@<TRIPOS>MOLECULE
NONAME
40 42 1 0 0 
SMALL
USER_CHARGES


@<TRIPOS>ATOM
  1 F       -2.2140     1.3270     0.6850 F     1 <1>  -0.1900 
  2 C       -1.3460     2.2580     0.3830 C.ar  1 <1>   0.1900 
  3 C       -1.3670     3.4520     1.0480 C.ar  1 <1>  -0.1500 
  4 C       -0.4210     1.9910    -0.6170 C.ar  1 <1>  -0.1500 
  5 C       -0.4350     4.4510     0.7260 C.ar  1 <1>  -0.1710 
  6 C        0.4960     2.9690    -0.9400 C.ar  1 <1>  -0.1500 
  7 O       -0.5130     5.5130     1.3860 O.3   1 <1>  -0.8290 
  8 C        0.5350     4.2220    -0.3020 C.ar  1 <1>   0.0860 
  9 C        1.5380     5.1790    -0.7190 C.2   1 <1>   0.5440 
 10 O        2.4790     4.8650    -1.4470 O.2   1 <1>  -0.5700 
 11 N        1.5880     6.4900    -0.3200 N.am  1 <1>  -0.6600 
 12 C        2.0540     6.7560     1.0800 C.3   1 <1>   0.2200 
 13 C        1.5400     7.5770    -1.3270 C.3   1 <1>   0.1400 
 14 C        1.4600     8.0390     1.6700 C.3   1 <1>   0.1200 
 15 C        3.5950     6.7740     1.1250 C.3   1 <1>   0.3430 
 16 C        2.5330     8.7190    -1.0470 C.3   1 <1>  -0.0800 
 17 O        2.2450     9.1520     1.3240 O.3   1 <1>  -0.5600 
 18 N        4.1900     6.9220    -0.2490 N.4   1 <1>  -0.9590 
 19 C        2.0160     9.6630     0.0540 C.3   1 <1>   0.1200 
 20 C        4.0020     8.2880    -0.8320 C.3   1 <1>   0.3430 
 21 C        5.5910     6.4360    -0.3170 C.3   1 <1>   0.2630 
 22 H       -2.0830     3.6560     1.8200 H     1 <1>   0.1500 
 23 H       -0.4360     1.0400    -1.1160 H     1 <1>   0.1500 
 24 H        1.2110     2.7650    -1.7160 H     1 <1>   0.1500 
 25 H        1.7330     5.9460     1.7100 H     1 <1>   0.0800 
 26 H        1.7420     7.1590    -2.2990 H     1 <1>   0.0800 
 27 H        0.5340     7.9630    -1.3510 H     1 <1>   0.0800 
 28 H        1.4710     7.9670     2.7430 H     1 <1>   0.0800 
 29 H        0.4370     8.1710     1.3580 H     1 <1>   0.0800 
 30 H        3.9150     5.8380     1.5510 H     1 <1>   0.0800 
 31 H        3.9330     7.5650     1.7740 H     1 <1>   0.0800 
 32 H        2.5290     9.3230    -1.9350 H     1 <1>   0.0800 
 33 H        3.5800     6.2810    -0.8140 H     1 <1>   0.4500 
 34 H        0.9620     9.8600    -0.0560 H     1 <1>   0.0800 
 35 H        2.5370    10.6030     0.0020 H     1 <1>   0.0800 
 36 H        4.4910     9.0160    -0.2060 H     1 <1>   0.0800 
 37 H        4.4890     8.3070    -1.7930 H     1 <1>   0.0800 
 38 H        6.2310     7.0530     0.2930 H     1 <1>   0.0800 
 39 H        5.9440     6.4630    -1.3340 H     1 <1>   0.0800 
 40 H        5.6450     5.4190     0.0360 H     1 <1>   0.0800 
@<TRIPOS>BOND
  1   1   2  1   
  2   2   3  ar  
  3   2   4  ar  
  4   3   5  ar  
  5   3  22  1   
  6   4   6  ar  
  7   4  23  1   
  8   5   7  1   
  9   5   8  ar  
 10   6   8  ar  
 11   6  24  1   
 12   8   9  1   
 13   9  10  2   
 14   9  11  am  
 15  11  12  1   
 16  11  13  1   
 17  12  14  1   
 18  12  15  1   
 19  12  25  1   
 20  13  16  1   
 21  13  26  1   
 22  13  27  1   
 23  14  17  1   
 24  14  28  1   
 25  14  29  1   
 26  15  18  1   
 27  15  30  1   
 28  15  31  1   
 29  16  19  1   
 30  16  20  1   
 31  16  32  1   
 32  17  19  1   
 33  18  20  1   
 34  18  21  1   
 35  18  33  1   
 36  19  34  1   
 37  19  35  1   
 38  20  36  1   
 39  20  37  1   
 40  21  38  1   
 41  21  39  1   
 42  21  40  1   
@<TRIPOS>SUBSTRUCTURE
  1 ****  11 GROUP 4 **** **** 0

# MOE 2024.06 (io_trps.svl 2023.06)
