@<TRIPOS>MOLECULE
NONAME
55 59 1 0 0 
SMALL
USER_CHARGES


@<TRIPOS>ATOM
  1 S       -2.1350    -0.0260     1.2890 S.3   1 <1>  -0.0800 
  2 C       -1.6700     1.2790     0.2080 C.2   1 <1>  -0.1400 
  3 C       -3.4840    -0.4500     0.2440 C.2   1 <1>  -0.1100 
  4 C       -2.5070     1.3550    -0.8330 C.2   1 <1>  -0.1810 
  5 C       -0.4690     2.1740     0.4700 C.3   1 <1>   0.4600 
  6 C       -3.5420     0.3670    -0.8250 C.2   1 <1>  -0.1500 
  7 C       -2.3050     2.4300    -1.8760 C.3   1 <1>   0.0210 
  8 O       -0.2990     3.0620    -0.6230 O.3   1 <1>  -0.5600 
  9 C       -0.6280     3.0060     1.7440 C.3   1 <1>  -0.1600 
 10 C        0.8240     1.3550     0.5550 C.3   1 <1>  -0.1600 
 11 C       -1.4570     3.5610    -1.2620 C.3   1 <1>   0.1200 
 12 C        0.5530     3.9580     1.9690 C.3   1 <1>   0.3430 
 13 C        1.9840     2.1100     1.2100 C.3   1 <1>   0.3430 
 14 N        1.7490     3.5820     1.1430 N.4   1 <1>  -0.9590 
 15 C        2.9650     4.4260     1.3850 C.3   1 <1>   0.4230 
 16 C        2.6040     5.9200     1.3090 C.3   1 <1>  -0.1600 
 17 C        4.0510     4.0790     0.3530 C.3   1 <1>  -0.1600 
 18 C        3.8350     6.8250     1.4030 C.3   1 <1>   0.1400 
 19 C        5.2630     4.9970     0.4870 C.3   1 <1>   0.1400 
 20 N        4.8160     6.4050     0.3760 N.am  1 <1>  -0.6600 
 21 C        5.2830     7.2290    -0.6400 C.2   1 <1>   0.5440 
 22 O        5.6320     6.6780    -1.6700 O.2   1 <1>  -0.5700 
 23 C        5.3640     8.6910    -0.5510 C.ar  1 <1>   0.3960 
 24 N        5.4720     9.3100     0.6400 N.ar  1 <1>  -0.6200 
 25 C        5.3420     9.4300    -1.7420 C.ar  1 <1>   0.1600 
 26 C        5.5510    10.6250     0.5440 C.ar  1 <1>   0.1600 
 27 N        5.4090    10.7490    -1.8380 N.ar  1 <1>  -0.6200 
 28 C        5.5190    11.3230    -0.6540 C.ar  1 <1>   0.1600 
 29 H       -4.1000    -1.2800     0.5440 H     1 <1>   0.1500 
 30 H       -4.2730     0.3160    -1.6130 H     1 <1>   0.1500 
 31 H       -3.2550     2.8250    -2.1880 H     1 <1>   0.0800 
 32 H       -1.8080     2.0180    -2.7360 H     1 <1>   0.0800 
 33 H       -0.7010     2.3410     2.5850 H     1 <1>   0.0800 
 34 H       -1.5480     3.5610     1.7140 H     1 <1>   0.0800 
 35 H        1.1010     1.0330    -0.4330 H     1 <1>   0.0800 
 36 H        0.6570     0.4640     1.1320 H     1 <1>   0.0800 
 37 H       -2.0390     4.1040    -0.5370 H     1 <1>   0.0800 
 38 H       -1.1430     4.2440    -2.0320 H     1 <1>   0.0800 
 39 H        0.8110     3.9660     3.0150 H     1 <1>   0.0800 
 40 H        0.2390     4.9520     1.6950 H     1 <1>   0.0800 
 41 H        2.8940     1.8370     0.7030 H     1 <1>   0.0800 
 42 H        2.0730     1.8110     2.2420 H     1 <1>   0.0800 
 43 H        1.4490     3.7510     0.1640 H     1 <1>   0.4500 
 44 H        3.3530     4.2200     2.3700 H     1 <1>   0.0800 
 45 H        1.9510     6.1940     2.1160 H     1 <1>   0.0800 
 46 H        2.1080     6.1300     0.3770 H     1 <1>   0.0800 
 47 H        3.6650     4.1790    -0.6470 H     1 <1>   0.0800 
 48 H        4.4060     3.0750     0.4870 H     1 <1>   0.0800 
 49 H        4.2910     6.7560     2.3770 H     1 <1>   0.0800 
 50 H        3.5290     7.8450     1.2470 H     1 <1>   0.0800 
 51 H        5.9860     4.7650    -0.2790 H     1 <1>   0.0800 
 52 H        5.7420     4.8550     1.4410 H     1 <1>   0.0800 
 53 H        5.2620     8.8870    -2.6680 H     1 <1>   0.1500 
 54 H        5.6460    11.1820     1.4600 H     1 <1>   0.1500 
 55 H        5.5880    12.3970    -0.6320 H     1 <1>   0.1500 
@<TRIPOS>BOND
  1   1   2  1   
  2   1   3  1   
  3   2   4  2   
  4   2   5  1   
  5   3   6  2   
  6   3  29  1   
  7   4   6  1   
  8   4   7  1   
  9   5   8  1   
 10   5   9  1   
 11   5  10  1   
 12   6  30  1   
 13   7  11  1   
 14   7  31  1   
 15   7  32  1   
 16   8  11  1   
 17   9  12  1   
 18   9  33  1   
 19   9  34  1   
 20  10  13  1   
 21  10  35  1   
 22  10  36  1   
 23  11  37  1   
 24  11  38  1   
 25  12  14  1   
 26  12  39  1   
 27  12  40  1   
 28  13  14  1   
 29  13  41  1   
 30  13  42  1   
 31  14  15  1   
 32  14  43  1   
 33  15  16  1   
 34  15  17  1   
 35  15  44  1   
 36  16  18  1   
 37  16  45  1   
 38  16  46  1   
 39  17  19  1   
 40  17  47  1   
 41  17  48  1   
 42  18  20  1   
 43  18  49  1   
 44  18  50  1   
 45  19  20  1   
 46  19  51  1   
 47  19  52  1   
 48  20  21  am  
 49  21  22  2   
 50  21  23  1   
 51  23  24  ar  
 52  23  25  ar  
 53  24  26  ar  
 54  25  27  ar  
 55  25  53  1   
 56  26  28  ar  
 57  26  54  1   
 58  27  28  ar  
 59  28  55  1   
@<TRIPOS>SUBSTRUCTURE
  1 ****  14 GROUP 4 **** **** 0

# MOE 2024.06 (io_trps.svl 2023.06)
