@<TRIPOS>MOLECULE
NONAME
38 39 1 0 0 
SMALL
USER_CHARGES


@<TRIPOS>ATOM
  1 O        0.2270    -0.1910     0.0720 O.2   1 <1>  -0.5700 
  2 C        1.2920    -0.7520    -0.0890 C.2   1 <1>   0.5440 
  3 N        2.4500    -0.0180    -0.1990 N.am  1 <1>  -0.4940 
  4 C        1.3510    -2.1930    -0.1310 C.ar  1 <1>   0.0860 
  5 C        2.6290     1.3660    -0.3070 C.2   1 <1>   0.2040 
  6 C        0.3880    -2.9590     0.5240 C.ar  1 <1>   0.1600 
  7 C        2.3470    -2.8940    -0.8090 C.ar  1 <1>  -0.1500 
  8 O        1.6280     2.1980    -0.4730 O.3   1 <1>  -0.0190 
  9 C        3.7630     2.0960    -0.2770 C.2   1 <1>  -0.1810 
 10 N        0.3500    -4.2780     0.5830 N.ar  1 <1>  -0.6200 
 11 C        2.3180    -4.2660    -0.7610 C.ar  1 <1>  -0.1500 
 12 N        2.0340     3.4400    -0.5530 N.2   1 <1>  -0.4100 
 13 C        3.3110     3.4050    -0.4350 C.2   1 <1>   0.1080 
 14 C        5.2010     1.6340    -0.1100 C.3   1 <1>   0.0210 
 15 C        1.3180    -4.9310    -0.0530 C.ar  1 <1>   0.4100 
 16 C        4.1790     4.6460    -0.4730 C.3   1 <1>  -0.0590 
 17 C        5.6100     1.6790     1.3630 C.3   1 <1>  -0.2400 
 18 N        1.3010    -6.3090     0.0060 N.pl3 1 <1>  -0.8380 
 19 C        2.5240    -7.0790     0.3510 C.3   1 <1>   0.1290 
 20 C        0.0190    -7.0330     0.2340 C.3   1 <1>   0.1290 
 21 H        3.3100    -0.5520    -0.1350 H     1 <1>   0.3700 
 22 H       -0.4010    -2.4350     1.0360 H     1 <1>   0.1500 
 23 H        3.1100    -2.3840    -1.3690 H     1 <1>   0.1500 
 24 H        3.0550    -4.8500    -1.2780 H     1 <1>   0.1500 
 25 H        5.8530     2.2620    -0.6910 H     1 <1>   0.0800 
 26 H        5.3030     0.6290    -0.4790 H     1 <1>   0.0800 
 27 H        4.7460     4.7250     0.4360 H     1 <1>   0.0800 
 28 H        3.5620     5.5200    -0.5720 H     1 <1>   0.0800 
 29 H        4.8490     4.5980    -1.3100 H     1 <1>   0.0800 
 30 H        5.5320     2.6820     1.7420 H     1 <1>   0.0800 
 31 H        6.6270     1.3460     1.4760 H     1 <1>   0.0800 
 32 H        4.9700     1.0420     1.9470 H     1 <1>   0.0800 
 33 H        3.3590    -6.4180     0.5030 H     1 <1>   0.0800 
 34 H        2.7570    -7.7640    -0.4450 H     1 <1>   0.0800 
 35 H        2.3620    -7.6350     1.2590 H     1 <1>   0.0800 
 36 H       -0.7950    -6.4920    -0.2180 H     1 <1>   0.0800 
 37 H       -0.1660    -7.1180     1.2910 H     1 <1>   0.0800 
 38 H        0.0650    -8.0140    -0.2040 H     1 <1>   0.0800 
@<TRIPOS>BOND
  1   1   2  2   
  2   2   3  am  
  3   2   4  1   
  4   3   5  1   
  5   3  21  1   
  6   4   6  ar  
  7   4   7  ar  
  8   5   8  1   
  9   5   9  2   
 10   6  10  ar  
 11   6  22  1   
 12   7  11  ar  
 13   7  23  1   
 14   8  12  1   
 15   9  13  1   
 16   9  14  1   
 17  10  15  ar  
 18  11  15  ar  
 19  11  24  1   
 20  12  13  2   
 21  13  16  1   
 22  14  17  1   
 23  14  25  1   
 24  14  26  1   
 25  15  18  1   
 26  16  27  1   
 27  16  28  1   
 28  16  29  1   
 29  17  30  1   
 30  17  31  1   
 31  17  32  1   
 32  18  19  1   
 33  18  20  1   
 34  19  33  1   
 35  19  34  1   
 36  19  35  1   
 37  20  36  1   
 38  20  37  1   
 39  20  38  1   
@<TRIPOS>SUBSTRUCTURE
  1 ****   2 GROUP 4 **** **** 0

# MOE 2024.06 (io_trps.svl 2023.06)
