@<TRIPOS>MOLECULE
NONAME
45 46 1 0 0 
SMALL
USER_CHARGES


@<TRIPOS>ATOM
  1 S        0.1830     1.0590    -0.1630 S.o2  1 <1>   1.3330 
  2 O       -0.7800     2.1220    -0.3390 O.2   1 <1>  -0.6500 
  3 O       -0.0770    -0.2440    -0.7350 O.2   1 <1>  -0.6500 
  4 N        0.3990     0.8550     1.5100 N.am  1 <1>  -0.8490 
  5 C        1.7890     1.6110    -0.7410 C.3   1 <1>  -0.0550 
  6 C       -0.5910    -0.0610     2.0820 C.3   1 <1>   0.1160 
  7 C        0.3920     2.1200     2.2560 C.3   1 <1>   0.1160 
  8 C        2.8880     0.5260    -0.7110 C.3   1 <1>  -0.0800 
  9 C        4.2320     0.9630    -1.2770 C.3   1 <1>   0.2200 
 10 C        3.2660     0.0110     0.6830 C.3   1 <1>   0.1200 
 11 N        4.5900     2.3110    -0.7770 N.am  1 <1>  -0.7300 
 12 C        5.1510    -0.0600    -0.6250 C.3   1 <1>   0.1200 
 13 O        4.6430    -0.2390     0.6620 O.3   1 <1>  -0.5600 
 14 C        4.4430     3.4820    -1.4600 C.2   1 <1>   0.5440 
 15 O        4.0700     3.4270    -2.6140 O.2   1 <1>  -0.5700 
 16 C        4.7240     4.7620    -0.8420 C.ar  1 <1>   0.0860 
 17 C        4.4100     5.0550     0.4880 C.ar  1 <1>   0.1900 
 18 C        5.3270     5.7810    -1.5840 C.ar  1 <1>  -0.1500 
 19 F        3.8140     4.1330     1.2060 F     1 <1>  -0.1900 
 20 C        4.6790     6.2760     1.1010 C.ar  1 <1>   0.0820 
 21 C        5.6130     7.0110    -1.0210 C.ar  1 <1>  -0.1500 
 22 O        4.3190     6.4100     2.4160 O.3   1 <1>  -0.3620 
 23 C        5.2930     7.2470     0.3040 C.ar  1 <1>   0.1900 
 24 C        4.5510     7.5790     3.1720 C.3   1 <1>   0.0400 
 25 F        5.5940     8.4320     0.7660 F     1 <1>  -0.1900 
 26 H        1.6850     1.9460    -1.7560 H     1 <1>   0.0800 
 27 H        2.0930     2.4580    -0.1600 H     1 <1>   0.0800 
 28 H       -0.4190    -0.1860     3.1370 H     1 <1>   0.0800 
 29 H       -0.5130    -1.0280     1.6130 H     1 <1>   0.0800 
 30 H       -1.5870     0.3190     1.9260 H     1 <1>   0.0800 
 31 H        0.6060     1.9370     3.2950 H     1 <1>   0.0800 
 32 H       -0.5700     2.6000     2.1760 H     1 <1>   0.0800 
 33 H        1.1430     2.7870     1.8710 H     1 <1>   0.0800 
 34 H        2.5450    -0.3180    -1.2850 H     1 <1>   0.0800 
 35 H        4.2700     0.9270    -2.3530 H     1 <1>   0.0800 
 36 H        2.7450    -0.8980     0.9310 H     1 <1>   0.0800 
 37 H        3.0870     0.7510     1.4440 H     1 <1>   0.0800 
 38 H        4.8360     2.3260     0.2180 H     1 <1>   0.3700 
 39 H        6.1730     0.2710    -0.5720 H     1 <1>   0.0800 
 40 H        5.0950    -1.0050    -1.1370 H     1 <1>   0.0800 
 41 H        5.5710     5.5960    -2.6180 H     1 <1>   0.1500 
 42 H        6.0800     7.7870    -1.6030 H     1 <1>   0.1500 
 43 H        4.1860     7.4100     4.1690 H     1 <1>   0.0800 
 44 H        4.0170     8.3990     2.7240 H     1 <1>   0.0800 
 45 H        5.6080     7.7750     3.2010 H     1 <1>   0.0800 
@<TRIPOS>BOND
  1   1   2  2   
  2   1   3  2   
  3   1   4  am  
  4   1   5  1   
  5   4   6  1   
  6   4   7  1   
  7   5   8  1   
  8   5  26  1   
  9   5  27  1   
 10   6  28  1   
 11   6  29  1   
 12   6  30  1   
 13   7  31  1   
 14   7  32  1   
 15   7  33  1   
 16   8   9  1   
 17   8  10  1   
 18   8  34  1   
 19   9  11  1   
 20   9  12  1   
 21   9  35  1   
 22  10  13  1   
 23  10  36  1   
 24  10  37  1   
 25  11  14  am  
 26  11  38  1   
 27  12  13  1   
 28  12  39  1   
 29  12  40  1   
 30  14  15  2   
 31  14  16  1   
 32  16  17  ar  
 33  16  18  ar  
 34  17  19  1   
 35  17  20  ar  
 36  18  21  ar  
 37  18  41  1   
 38  20  22  1   
 39  20  23  ar  
 40  21  23  ar  
 41  21  42  1   
 42  22  24  1   
 43  23  25  1   
 44  24  43  1   
 45  24  44  1   
 46  24  45  1   
@<TRIPOS>SUBSTRUCTURE
  1 ****  19 GROUP 4 **** **** 0

# MOE 2024.06 (io_trps.svl 2023.06)
