@<TRIPOS>MOLECULE
NONAME
40 42 1 0 0 
SMALL
USER_CHARGES


@<TRIPOS>ATOM
  1 F       -1.0780     0.3220    -1.4720 F     1 <1>  -0.1900 
  2 C       -1.8090    -0.6310    -0.9280 C.ar  1 <1>   0.1900 
  3 C       -2.9190    -0.3450    -0.1330 C.ar  1 <1>   0.4100 
  4 C       -1.4750    -1.9350    -1.1650 C.ar  1 <1>   0.1600 
  5 N       -3.6280    -1.3400     0.3700 N.ar  1 <1>  -0.6200 
  6 N       -3.3450     0.9470     0.1760 N.pl3 1 <1>  -0.8380 
  7 N       -2.1760    -2.9310    -0.6600 N.ar  1 <1>  -0.6200 
  8 C       -3.2140    -2.5620     0.0840 C.ar  1 <1>   0.7200 
  9 C       -4.7580     1.2040     0.5740 C.3   1 <1>   0.1290 
 10 C       -2.3720     1.9870     0.6080 C.3   1 <1>   0.1290 
 11 N       -3.9700    -3.5340     0.6320 N.pl3 1 <1>  -0.8690 
 12 C       -4.3650    -4.7170    -0.1400 C.3   1 <1>   0.4330 
 13 C       -5.8910    -4.7430    -0.2670 C.ar  1 <1>  -0.1430 
 14 C       -3.7940    -5.9460     0.5750 C.3   1 <1>  -0.1600 
 15 C       -6.6290    -5.8950    -0.0020 C.ar  1 <1>  -0.1430 
 16 C       -6.5570    -3.5960    -0.6820 C.ar  1 <1>  -0.1500 
 17 C       -4.4740    -7.2330     0.0990 C.3   1 <1>  -0.1600 
 18 C       -8.0090    -5.8760    -0.1410 C.ar  1 <1>  -0.1500 
 19 C       -5.9650    -7.1920     0.4470 C.3   1 <1>  -0.0170 
 20 C       -7.9330    -3.5840    -0.8190 C.ar  1 <1>  -0.1500 
 21 C       -8.6610    -4.7260    -0.5460 C.ar  1 <1>  -0.1500 
 22 H       -0.6220    -2.1670    -1.7780 H     1 <1>   0.1500 
 23 H       -5.4180     0.5360     0.0470 H     1 <1>   0.0800 
 24 H       -5.0300     2.2160     0.3330 H     1 <1>   0.0800 
 25 H       -4.8720     1.0430     1.6320 H     1 <1>   0.0800 
 26 H       -1.3980     1.5550     0.7580 H     1 <1>   0.0800 
 27 H       -2.6920     2.4320     1.5340 H     1 <1>   0.0800 
 28 H       -2.3040     2.7520    -0.1460 H     1 <1>   0.0800 
 29 H       -4.7680    -3.1370     1.1220 H     1 <1>   0.4000 
 30 H       -3.9540    -4.6730    -1.1350 H     1 <1>   0.0800 
 31 H       -3.9430    -5.8430     1.6350 H     1 <1>   0.0800 
 32 H       -2.7370    -5.9960     0.3840 H     1 <1>   0.0800 
 33 H       -6.0040    -2.6990    -0.9060 H     1 <1>   0.1500 
 34 H       -4.0170    -8.0860     0.5700 H     1 <1>   0.0800 
 35 H       -4.3560    -7.3320    -0.9660 H     1 <1>   0.0800 
 36 H       -8.5850    -6.7600     0.0680 H     1 <1>   0.1500 
 37 H       -6.4570    -8.0320    -0.0110 H     1 <1>   0.0800 
 38 H       -6.0840    -7.2810     1.5130 H     1 <1>   0.0800 
 39 H       -8.4350    -2.6880    -1.1390 H     1 <1>   0.1500 
 40 H       -9.7320    -4.7210    -0.6510 H     1 <1>   0.1500 
@<TRIPOS>BOND
  1   1   2  1   
  2   2   3  ar  
  3   2   4  ar  
  4   3   5  ar  
  5   3   6  1   
  6   4   7  ar  
  7   4  22  1   
  8   5   8  ar  
  9   6   9  1   
 10   6  10  1   
 11   7   8  ar  
 12   8  11  1   
 13   9  23  1   
 14   9  24  1   
 15   9  25  1   
 16  10  26  1   
 17  10  27  1   
 18  10  28  1   
 19  11  12  1   
 20  11  29  1   
 21  12  13  1   
 22  12  14  1   
 23  12  30  1   
 24  13  15  ar  
 25  13  16  ar  
 26  14  17  1   
 27  14  31  1   
 28  14  32  1   
 29  15  18  ar  
 30  15  19  1   
 31  16  20  ar  
 32  16  33  1   
 33  17  19  1   
 34  17  34  1   
 35  17  35  1   
 36  18  21  ar  
 37  18  36  1   
 38  19  37  1   
 39  19  38  1   
 40  20  21  ar  
 41  20  39  1   
 42  21  40  1   
@<TRIPOS>SUBSTRUCTURE
  1 ****  11 GROUP 4 **** **** 0

# MOE 2024.06 (io_trps.svl 2023.06)
