@<TRIPOS>MOLECULE
NONAME
43 44 1 0 0 
SMALL
USER_CHARGES


@<TRIPOS>ATOM
  1 CL       1.6290    -2.3390     2.6220 Cl    1 <1>  -0.1770 
  2 C        1.4650    -2.0920     0.8900 C.ar  1 <1>   0.1770 
  3 C        1.2340    -3.2200     0.0630 C.ar  1 <1>   0.4100 
  4 C        1.5520    -0.8540     0.3320 C.ar  1 <1>   0.2170 
  5 N        1.0860    -3.0990    -1.2440 N.ar  1 <1>  -0.6200 
  6 N        1.1470    -4.4630     0.5870 N.pl3 1 <1>  -0.8690 
  7 N        1.3990    -0.7850    -1.0190 N.ar  1 <1>  -0.1790 
  8 C        1.8030     0.4440     1.0890 C.3   1 <1>  -0.0970 
  9 C        1.1700    -1.8880    -1.7580 C.ar  1 <1>   0.7710 
 10 C        1.0480    -5.7570    -0.1410 C.3   1 <1>   0.2890 
 11 N        1.0110    -1.7940    -3.0730 N.pl3 1 <1>  -0.9000 
 12 C       -0.3530    -6.3410    -0.0200 C.3   1 <1>  -0.0800 
 13 C        1.8560    -6.8060     0.6100 C.3   1 <1>   0.1200 
 14 C       -0.2970    -7.1380     1.2930 C.3   1 <1>   0.1200 
 15 C       -1.4940    -5.3070    -0.0750 C.3   1 <1>  -0.0550 
 16 O        1.0450    -7.1770     1.6800 O.3   1 <1>  -0.5600 
 17 S       -3.1120    -6.0540    -0.2350 S.o2  1 <1>   1.3330 
 18 O       -3.4040    -6.8120     0.9610 O.2   1 <1>  -0.6500 
 19 O       -3.1580    -6.6990    -1.5270 O.2   1 <1>  -0.6500 
 20 N       -4.1380    -4.7010    -0.2700 N.am  1 <1>  -0.8490 
 21 C       -4.5350    -4.2420     1.0660 C.3   1 <1>   0.1160 
 22 C       -5.3330    -4.9330    -1.0870 C.3   1 <1>   0.1160 
 23 H        1.2240    -4.6110     1.6040 H     1 <1>   0.4000 
 24 H        1.4490     0.0990    -1.5170 H     1 <1>   0.4570 
 25 H        1.9100     0.2710     2.1450 H     1 <1>   0.0800 
 26 H        0.9830     1.1260     0.9510 H     1 <1>   0.0800 
 27 H        2.7080     0.9130     0.7420 H     1 <1>   0.0800 
 28 H        1.3700    -5.6570    -1.1640 H     1 <1>   0.0800 
 29 H        1.0330    -0.9640    -3.6700 H     1 <1>   0.4000 
 30 H        0.8370    -2.6610    -3.5930 H     1 <1>   0.4000 
 31 H       -0.4890    -7.0450    -0.8240 H     1 <1>   0.0800 
 32 H        2.7950    -6.4290     0.9760 H     1 <1>   0.0800 
 33 H        2.0200    -7.6770    -0.0010 H     1 <1>   0.0800 
 34 H       -0.6500    -8.1470     1.1600 H     1 <1>   0.0800 
 35 H       -0.8530    -6.6640     2.0840 H     1 <1>   0.0800 
 36 H       -1.3350    -4.6660    -0.9200 H     1 <1>   0.0800 
 37 H       -1.4690    -4.6990     0.8080 H     1 <1>   0.0800 
 38 H       -5.1080    -3.3330     0.9910 H     1 <1>   0.0800 
 39 H       -3.6630    -4.0460     1.6670 H     1 <1>   0.0800 
 40 H       -5.1320    -4.9920     1.5600 H     1 <1>   0.0800 
 41 H       -5.9570    -4.0560    -1.0960 H     1 <1>   0.0800 
 42 H       -5.8970    -5.7660    -0.6980 H     1 <1>   0.0800 
 43 H       -5.0490    -5.1540    -2.1030 H     1 <1>   0.0800 
@<TRIPOS>BOND
  1   1   2  1   
  2   2   3  ar  
  3   2   4  ar  
  4   3   5  ar  
  5   3   6  1   
  6   4   7  ar  
  7   4   8  1   
  8   5   9  ar  
  9   6  10  1   
 10   6  23  1   
 11   7   9  ar  
 12   7  24  1   
 13   8  25  1   
 14   8  26  1   
 15   8  27  1   
 16   9  11  1   
 17  10  12  1   
 18  10  13  1   
 19  10  28  1   
 20  11  29  1   
 21  11  30  1   
 22  12  14  1   
 23  12  15  1   
 24  12  31  1   
 25  13  16  1   
 26  13  32  1   
 27  13  33  1   
 28  14  16  1   
 29  14  34  1   
 30  14  35  1   
 31  15  17  1   
 32  15  36  1   
 33  15  37  1   
 34  17  18  2   
 35  17  19  2   
 36  17  20  am  
 37  20  21  1   
 38  20  22  1   
 39  21  38  1   
 40  21  39  1   
 41  21  40  1   
 42  22  41  1   
 43  22  42  1   
 44  22  43  1   
@<TRIPOS>SUBSTRUCTURE
  1 ****  15 GROUP 4 **** **** 0

# MOE 2024.06 (io_trps.svl 2023.06)
