@<TRIPOS>MOLECULE
NONAME
39 41 1 0 0 
SMALL
USER_CHARGES


@<TRIPOS>ATOM
  1 O       -0.7430     0.0830    -0.8860 O.2   1 <1>  -0.5700 
  2 C       -1.7130     0.7980    -0.6870 C.2   1 <1>   0.7160 
  3 N       -2.8170     0.2110    -0.0950 N.am  1 <1>  -0.6600 
  4 C       -1.6300     2.1970    -1.0890 C.2   1 <1>   0.1410 
  5 C       -4.1440     0.8420     0.0980 C.3   1 <1>   0.1400 
  6 C       -2.8700    -1.2360     0.2110 C.3   1 <1>   0.1400 
  7 N       -2.5180     3.1730    -0.7770 N.2   1 <1>  -0.2270 
  8 C       -0.6550     2.7780    -1.8310 C.2   1 <1>  -0.3020 
  9 C       -5.0140    -0.2190     0.7860 C.3   1 <1>  -0.0800 
 10 C       -4.3400    -1.5690     0.4760 C.3   1 <1>  -0.0800 
 11 N       -2.1270     4.2840    -1.2890 N.2   1 <1>  -0.4180 
 12 N       -0.9860     4.0570    -1.9380 N.pl3 1 <1>   0.3000 
 13 C       -6.5400    -0.1560     0.4730 C.3   1 <1>   0.2800 
 14 C       -5.0150    -2.2790    -0.7080 C.3   1 <1>  -0.1600 
 15 O       -6.7350     0.2630    -0.8290 O.3   1 <1>  -0.6800 
 16 C       -7.1490    -1.5690     0.5600 C.3   1 <1>  -0.1600 
 17 C       -7.2880     0.8780     1.3430 C.3   1 <1>  -0.1600 
 18 C       -6.5010    -2.5740    -0.4200 C.3   1 <1>  -0.1600 
 19 C       -7.4280     0.5350     2.8380 C.3   1 <1>  -0.2400 
 20 H       -4.0680     1.7190     0.7170 H     1 <1>   0.0800 
 21 H       -4.5270     1.1220    -0.8670 H     1 <1>   0.0800 
 22 H       -2.4730    -1.8120    -0.6080 H     1 <1>   0.0800 
 23 H       -2.2800    -1.4240     1.0910 H     1 <1>   0.0800 
 24 H        0.2240     2.3330    -2.2610 H     1 <1>   0.1500 
 25 H       -4.8820    -0.0730     1.8400 H     1 <1>   0.0800 
 26 H       -4.4010    -2.2200     1.3310 H     1 <1>   0.0800 
 27 H       -0.4760     4.7980    -2.4320 H     1 <1>   0.2700 
 28 H       -4.9440    -1.6430    -1.5750 H     1 <1>   0.0800 
 29 H       -4.5020    -3.1970    -0.9380 H     1 <1>   0.0800 
 30 H       -7.6700     0.1390    -1.0710 H     1 <1>   0.4000 
 31 H       -6.9920    -1.9380     1.5580 H     1 <1>   0.0800 
 32 H       -8.2120    -1.5330     0.4030 H     1 <1>   0.0800 
 33 H       -6.7800     1.8240     1.2590 H     1 <1>   0.0800 
 34 H       -8.2810     1.0100     0.9500 H     1 <1>   0.0800 
 35 H       -6.5980    -3.5650    -0.0100 H     1 <1>   0.0800 
 36 H       -7.0350    -2.5590    -1.3540 H     1 <1>   0.0800 
 37 H       -6.4700     0.4150     3.3080 H     1 <1>   0.0800 
 38 H       -8.0000    -0.3660     2.9750 H     1 <1>   0.0800 
 39 H       -7.9450     1.3330     3.3410 H     1 <1>   0.0800 
@<TRIPOS>BOND
  1   1   2  2   
  2   2   3  am  
  3   2   4  1   
  4   3   5  1   
  5   3   6  1   
  6   4   7  1   
  7   4   8  2   
  8   5   9  1   
  9   5  20  1   
 10   5  21  1   
 11   6  10  1   
 12   6  22  1   
 13   6  23  1   
 14   7  11  2   
 15   8  12  1   
 16   8  24  1   
 17   9  10  1   
 18   9  13  1   
 19   9  25  1   
 20  10  14  1   
 21  10  26  1   
 22  11  12  1   
 23  12  27  1   
 24  13  15  1   
 25  13  16  1   
 26  13  17  1   
 27  14  18  1   
 28  14  28  1   
 29  14  29  1   
 30  15  30  1   
 31  16  18  1   
 32  16  31  1   
 33  16  32  1   
 34  17  19  1   
 35  17  33  1   
 36  17  34  1   
 37  18  35  1   
 38  18  36  1   
 39  19  37  1   
 40  19  38  1   
 41  19  39  1   
@<TRIPOS>SUBSTRUCTURE
  1 ****   5 GROUP 4 **** **** 0

# MOE 2024.06 (io_trps.svl 2023.06)
