@<TRIPOS>MOLECULE
NONAME
25 25 1 0 0 
SMALL
USER_CHARGES


@<TRIPOS>ATOM
  1 F        1.2500    -0.4070     1.4440 F     1 <1>  -0.3400 
  2 C        1.5110     0.6160     0.6320 C.3   1 <1>   0.6610 
  3 F        0.3520     0.8720     0.0260 F     1 <1>  -0.3400 
  4 C        2.6150     0.2500    -0.3760 C.2   1 <1>   0.4230 
  5 O        2.4440    -0.6420    -1.1780 O.2   1 <1>  -0.5700 
  6 C        3.8770     0.9450    -0.2910 C.ar  1 <1>   0.0860 
  7 C        3.9850     2.3320    -0.1110 C.ar  1 <1>   0.0820 
  8 C        5.0580     0.2090    -0.4090 C.ar  1 <1>  -0.1500 
  9 O        2.8260     3.0380    -0.0870 O.3   1 <1>  -0.3620 
 10 C        5.2440     2.9400     0.0240 C.ar  1 <1>   0.0830 
 11 C        6.2970     0.8040    -0.3100 C.ar  1 <1>  -0.1500 
 12 C        2.6910     4.2420    -0.8170 C.3   1 <1>   0.0400 
 13 O        5.3130     4.2780     0.2800 O.3   1 <1>  -0.3630 
 14 C        6.3930     2.1650    -0.0870 C.ar  1 <1>  -0.1500 
 15 C        6.5350     4.9370     0.5340 C.3   1 <1>   0.0400 
 16 H        1.7500     1.4570     1.2530 H     1 <1>   0.0800 
 17 H        4.9940    -0.8530    -0.5820 H     1 <1>   0.1500 
 18 H        7.1910     0.2100    -0.4050 H     1 <1>   0.1500 
 19 H        1.6520     4.3730    -1.0600 H     1 <1>   0.0800 
 20 H        3.2760     4.1790    -1.7180 H     1 <1>   0.0800 
 21 H        3.0250     5.0600    -0.2050 H     1 <1>   0.0800 
 22 H        7.3740     2.5930    -0.0050 H     1 <1>   0.1500 
 23 H        6.3210     5.9680     0.7490 H     1 <1>   0.0800 
 24 H        7.1570     4.8700    -0.3410 H     1 <1>   0.0800 
 25 H        7.0110     4.4790     1.3830 H     1 <1>   0.0800 
@<TRIPOS>BOND
  1   1   2  1   
  2   2   3  1   
  3   2   4  1   
  4   2  16  1   
  5   4   5  2   
  6   4   6  1   
  7   6   7  ar  
  8   6   8  ar  
  9   7   9  1   
 10   7  10  ar  
 11   8  11  ar  
 12   8  17  1   
 13   9  12  1   
 14  10  13  1   
 15  10  14  ar  
 16  11  14  ar  
 17  11  18  1   
 18  12  19  1   
 19  12  20  1   
 20  12  21  1   
 21  13  15  1   
 22  14  22  1   
 23  15  23  1   
 24  15  24  1   
 25  15  25  1   
@<TRIPOS>SUBSTRUCTURE
  1 ****   7 GROUP 4 **** **** 0

# MOE 2024.06 (io_trps.svl 2023.06)
