@<TRIPOS>MOLECULE
NONAME
43 46 1 0 0 
SMALL
USER_CHARGES


@<TRIPOS>ATOM
  1 S       -0.3030    -0.0910    -0.8770 S.3   1 <1>  -0.0800 
  2 C       -0.6870     1.4070    -0.0320 C.2   1 <1>   0.4620 
  3 C       -1.4730    -0.9380     0.0980 C.2   1 <1>  -0.1400 
  4 N       -1.5900     1.2510     0.8700 N.2   1 <1>  -0.5650 
  5 N       -0.0460     2.5760    -0.3710 N.pl3 1 <1>  -0.8220 
  6 C       -2.0230    -0.0530     0.9440 C.2   1 <1>   0.0770 
  7 C       -1.6320    -2.4140    -0.1830 C.3   1 <1>   0.5230 
  8 C       -0.4000     3.8700     0.2880 C.3   1 <1>   0.2090 
  9 C        1.0470     2.7090    -1.3830 C.3   1 <1>   0.2090 
 10 N       -2.7920    -2.9560     0.5650 N.4   1 <1>  -0.8970 
 11 C        0.8640     4.6120     0.7550 C.3   1 <1>   0.1200 
 12 C        2.2240     3.5240    -0.8130 C.3   1 <1>   0.1200 
 13 C       -3.1550    -4.3770     0.2270 C.3   1 <1>   0.4720 
 14 C       -4.1380    -2.4970     0.0650 C.3   1 <1>   0.4720 
 15 O        1.7860     4.7480    -0.2920 O.3   1 <1>  -0.5600 
 16 C       -4.3170    -3.8550    -0.6430 C.3   1 <1>   0.1080 
 17 C       -5.6370    -4.5130    -0.3030 C.ar  1 <1>   0.2020 
 18 N       -5.9420    -4.5700     0.9840 N.ar  1 <1>  -0.6200 
 19 C       -6.4430    -5.0090    -1.3180 C.ar  1 <1>  -0.1500 
 20 C       -7.1010    -5.1470     1.2740 C.ar  1 <1>   0.1600 
 21 C       -7.6440    -5.6060    -1.0010 C.ar  1 <1>  -0.1500 
 22 C       -7.9720    -5.6710     0.3350 C.ar  1 <1>  -0.1500 
 23 H       -2.7790    -0.2620     1.6820 H     1 <1>   0.1500 
 24 H       -0.7310    -2.9300     0.1080 H     1 <1>   0.0800 
 25 H       -1.7770    -2.5580    -1.2420 H     1 <1>   0.0800 
 26 H       -1.0420     3.7020     1.1350 H     1 <1>   0.0800 
 27 H       -0.9340     4.4880    -0.4120 H     1 <1>   0.0800 
 28 H        0.6620     3.2130    -2.2530 H     1 <1>   0.0800 
 29 H        1.4130     1.7480    -1.6910 H     1 <1>   0.0800 
 30 H       -2.7140    -2.8290     1.5800 H     1 <1>   0.4500 
 31 H        1.3340     4.0770     1.5620 H     1 <1>   0.0800 
 32 H        0.6080     5.5980     1.0980 H     1 <1>   0.0800 
 33 H        2.9380     3.7350    -1.5890 H     1 <1>   0.0800 
 34 H        2.7160     2.9730    -0.0310 H     1 <1>   0.0800 
 35 H       -3.4750    -4.9090     1.1040 H     1 <1>   0.0000 
 36 H       -2.3790    -4.8700    -0.3300 H     1 <1>   0.0000 
 37 H       -4.0570    -1.6620    -0.6070 H     1 <1>   0.0000 
 38 H       -4.8170    -2.3420     0.8830 H     1 <1>   0.0000 
 39 H       -4.0770    -3.8190    -1.6920 H     1 <1>   0.0000 
 40 H       -6.1460    -4.9350    -2.3500 H     1 <1>   0.1500 
 41 H       -7.3740    -5.2070     2.3150 H     1 <1>   0.1500 
 42 H       -8.2970    -6.0030    -1.7600 H     1 <1>   0.1500 
 43 H       -8.8960    -6.1250     0.6490 H     1 <1>   0.1500 
@<TRIPOS>BOND
  1   1   2  1   
  2   1   3  1   
  3   2   4  2   
  4   2   5  1   
  5   3   6  2   
  6   3   7  1   
  7   4   6  1   
  8   5   8  1   
  9   5   9  1   
 10   6  23  1   
 11   7  10  1   
 12   7  24  1   
 13   7  25  1   
 14   8  11  1   
 15   8  26  1   
 16   8  27  1   
 17   9  12  1   
 18   9  28  1   
 19   9  29  1   
 20  10  13  1   
 21  10  14  1   
 22  10  30  1   
 23  11  15  1   
 24  11  31  1   
 25  11  32  1   
 26  12  15  1   
 27  12  33  1   
 28  12  34  1   
 29  13  16  1   
 30  13  35  1   
 31  13  36  1   
 32  14  16  1   
 33  14  37  1   
 34  14  38  1   
 35  16  17  1   
 36  16  39  1   
 37  17  18  ar  
 38  17  19  ar  
 39  18  20  ar  
 40  19  21  ar  
 41  19  40  1   
 42  20  22  ar  
 43  20  41  1   
 44  21  22  ar  
 45  21  42  1   
 46  22  43  1   
@<TRIPOS>SUBSTRUCTURE
  1 ****   3 GROUP 4 **** **** 0

# MOE 2024.06 (io_trps.svl 2023.06)
