@<TRIPOS>MOLECULE
NONAME
25 26 1 0 0 
SMALL
USER_CHARGES


@<TRIPOS>ATOM
  1 O       -2.0990     3.1030    -0.6520 O.2   1 <1>  -0.5700 
  2 C       -3.1240     2.4590    -0.6160 C.2   1 <1>   0.5690 
  3 N       -4.3480     3.0710    -0.5840 N.am  1 <1>  -0.6600 
  4 C       -3.0420     0.9080    -0.5830 C.3   1 <1>   0.2510 
  5 C       -5.6200     2.3260    -0.5150 C.3   1 <1>   0.2200 
  6 C       -4.5410     4.4980    -0.2600 C.3   1 <1>   0.1400 
  7 N       -4.3370     0.2010    -0.7720 N.3   1 <1>  -0.9000 
  8 C       -2.4210     0.4010     0.7210 C.3   1 <1>  -0.2400 
  9 C       -5.4280     0.8700    -0.0390 C.3   1 <1>   0.1100 
 10 C       -6.4820     3.1880     0.4010 C.3   1 <1>  -0.1600 
 11 C       -6.0210     4.6170     0.1070 C.3   1 <1>  -0.1600 
 12 H       -2.3890     0.6130    -1.3860 H     1 <1>   0.0800 
 13 H       -6.0550     2.3200    -1.5000 H     1 <1>   0.0800 
 14 H       -3.9150     4.7590     0.5770 H     1 <1>   0.0800 
 15 H       -4.2880     5.1130    -1.1060 H     1 <1>   0.0800 
 16 H       -4.5600     0.2590    -1.7730 H     1 <1>   0.3600 
 17 H       -2.9950     0.7250     1.5690 H     1 <1>   0.0800 
 18 H       -1.4250     0.7950     0.8210 H     1 <1>   0.0800 
 19 H       -2.3650    -0.6720     0.7110 H     1 <1>   0.0800 
 20 H       -6.3430     0.3240    -0.1890 H     1 <1>   0.0800 
 21 H       -5.2140     0.8580     1.0160 H     1 <1>   0.0800 
 22 H       -7.5320     3.0480     0.2110 H     1 <1>   0.0800 
 23 H       -6.2740     2.9460     1.4280 H     1 <1>   0.0800 
 24 H       -6.1700     5.2750     0.9450 H     1 <1>   0.0800 
 25 H       -6.5580     5.0090    -0.7400 H     1 <1>   0.0800 
@<TRIPOS>BOND
  1   1   2  2   
  2   2   3  am  
  3   2   4  1   
  4   3   5  1   
  5   3   6  1   
  6   4   7  1   
  7   4   8  1   
  8   4  12  1   
  9   5   9  1   
 10   5  10  1   
 11   5  13  1   
 12   6  11  1   
 13   6  14  1   
 14   6  15  1   
 15   7   9  1   
 16   7  16  1   
 17   8  17  1   
 18   8  18  1   
 19   8  19  1   
 20   9  20  1   
 21   9  21  1   
 22  10  11  1   
 23  10  22  1   
 24  10  23  1   
 25  11  24  1   
 26  11  25  1   
@<TRIPOS>SUBSTRUCTURE
  1 ****   3 GROUP 4 **** **** 0

# MOE 2024.06 (io_trps.svl 2023.06)
