@<TRIPOS>MOLECULE
NONAME
52 54 1 0 0 
SMALL
USER_CHARGES


@<TRIPOS>ATOM
  1 O        1.1900    -1.6550    -1.4810 O.2   1 <1>  -0.5700 
  2 C        1.3460    -1.2630    -0.3520 C.2   1 <1>   0.5690 
  3 N        0.3100    -1.0850     0.5090 N.am  1 <1>  -0.7300 
  4 C        2.7520    -0.9540     0.1200 C.3   1 <1>  -0.0990 
  5 C       -1.1170    -1.3420     0.1870 C.3   1 <1>   0.0600 
  6 C        3.2990     0.3340    -0.5200 C.3   1 <1>  -0.0800 
  7 C        4.7400     0.6450    -0.1170 C.3   1 <1>   0.2090 
  8 C        2.5200     1.5890    -0.1300 C.3   1 <1>  -0.1600 
  9 N        4.8440     2.1280    -0.1390 N.pl3 1 <1>  -0.8380 
 10 C        3.5020     2.7290    -0.3540 C.3   1 <1>   0.2090 
 11 C        5.9830     2.8620    -0.0510 C.ar  1 <1>   0.4100 
 12 N        5.8810     4.1690    -0.2040 N.ar  1 <1>  -0.6200 
 13 C        7.2290     2.2530     0.1940 C.ar  1 <1>  -0.1500 
 14 C        6.9750     4.9090    -0.1270 C.ar  1 <1>   0.7710 
 15 C        8.3410     3.0220     0.2650 C.ar  1 <1>   0.2180 
 16 N        8.1800     4.3550     0.0970 N.ar  1 <1>  -0.1790 
 17 N        6.8830     6.2590    -0.2820 N.pl3 1 <1>  -0.8380 
 18 C        9.7380     2.4690     0.5190 C.3   1 <1>  -0.0170 
 19 C        7.9580     7.2870    -0.0490 C.3   1 <1>   0.2090 
 20 C        5.5920     6.9230    -0.7000 C.3   1 <1>   0.2090 
 21 C       10.6810     2.7100    -0.6670 C.3   1 <1>  -0.2400 
 22 C        7.4570     8.4150     0.8740 C.3   1 <1>   0.1200 
 23 C        5.2220     8.0740     0.2520 C.3   1 <1>   0.1200 
 24 O        6.2850     8.9770     0.3660 O.3   1 <1>  -0.5600 
 25 H        0.4970    -0.7570     1.4580 H     1 <1>   0.3700 
 26 H        3.3780    -1.7820    -0.1580 H     1 <1>   0.0800 
 27 H        2.7650    -0.8740     1.1910 H     1 <1>   0.0800 
 28 H       -1.2160    -1.6870    -0.8290 H     1 <1>   0.0800 
 29 H       -1.6850    -0.4360     0.3010 H     1 <1>   0.0800 
 30 H       -1.5100    -2.0950     0.8470 H     1 <1>   0.0800 
 31 H        3.2720     0.2310    -1.5920 H     1 <1>   0.0800 
 32 H        5.4330     0.1960    -0.8080 H     1 <1>   0.0800 
 33 H        4.9370     0.2950     0.8810 H     1 <1>   0.0800 
 34 H        2.2550     1.5640     0.9120 H     1 <1>   0.0800 
 35 H        1.6270     1.7150    -0.7180 H     1 <1>   0.0800 
 36 H        3.3250     3.5410     0.3310 H     1 <1>   0.0800 
 37 H        3.4360     3.0890    -1.3670 H     1 <1>   0.0800 
 38 H        7.2740     1.1890     0.3200 H     1 <1>   0.1500 
 39 H        8.9650     4.9890     0.1000 H     1 <1>   0.4570 
 40 H        9.6750     1.4090     0.6980 H     1 <1>   0.0800 
 41 H       10.1500     2.9170     1.4080 H     1 <1>   0.0800 
 42 H        8.2440     7.7220    -0.9930 H     1 <1>   0.0800 
 43 H        8.8330     6.8530     0.3970 H     1 <1>   0.0800 
 44 H        4.7690     6.2300    -0.7290 H     1 <1>   0.0800 
 45 H        5.7060     7.3220    -1.6940 H     1 <1>   0.0800 
 46 H       10.2800     2.2650    -1.5630 H     1 <1>   0.0800 
 47 H       11.6370     2.2560    -0.4700 H     1 <1>   0.0800 
 48 H       10.8400     3.7590    -0.8420 H     1 <1>   0.0800 
 49 H        8.1910     9.1990     0.9380 H     1 <1>   0.0800 
 50 H        7.2600     8.0440     1.8650 H     1 <1>   0.0800 
 51 H        4.9790     7.6960     1.2300 H     1 <1>   0.0800 
 52 H        4.3740     8.6130    -0.1300 H     1 <1>   0.0800 
@<TRIPOS>BOND
  1   1   2  2   
  2   2   3  am  
  3   2   4  1   
  4   3   5  1   
  5   3  25  1   
  6   4   6  1   
  7   4  26  1   
  8   4  27  1   
  9   5  28  1   
 10   5  29  1   
 11   5  30  1   
 12   6   7  1   
 13   6   8  1   
 14   6  31  1   
 15   7   9  1   
 16   7  32  1   
 17   7  33  1   
 18   8  10  1   
 19   8  34  1   
 20   8  35  1   
 21   9  10  1   
 22   9  11  1   
 23  10  36  1   
 24  10  37  1   
 25  11  12  ar  
 26  11  13  ar  
 27  12  14  ar  
 28  13  15  ar  
 29  13  38  1   
 30  14  16  ar  
 31  14  17  1   
 32  15  16  ar  
 33  15  18  1   
 34  16  39  1   
 35  17  19  1   
 36  17  20  1   
 37  18  21  1   
 38  18  40  1   
 39  18  41  1   
 40  19  22  1   
 41  19  42  1   
 42  19  43  1   
 43  20  23  1   
 44  20  44  1   
 45  20  45  1   
 46  21  46  1   
 47  21  47  1   
 48  21  48  1   
 49  22  24  1   
 50  22  49  1   
 51  22  50  1   
 52  23  24  1   
 53  23  51  1   
 54  23  52  1   
@<TRIPOS>SUBSTRUCTURE
  1 ****  11 GROUP 4 **** **** 0

# MOE 2024.06 (io_trps.svl 2023.06)
