@<TRIPOS>MOLECULE
NONAME
50 53 1 0 0 
SMALL
USER_CHARGES


@<TRIPOS>ATOM
  1 O       -0.0660    -0.7720     0.7560 O.3   1 <1>  -0.5600 
  2 C       -0.2210    -1.9880     0.0610 C.3   1 <1>   0.2800 
  3 C       -0.8860     0.2950     0.3940 C.3   1 <1>   0.1200 
  4 C       -1.7080    -2.2230    -0.3960 C.3   1 <1>   0.2000 
  5 C        0.7860    -1.9730    -1.1140 C.3   1 <1>  -0.1600 
  6 C        0.2160    -3.0870     1.0530 C.3   1 <1>  -0.1600 
  7 C       -2.3560    -0.0210     0.7140 C.3   1 <1>  -0.1600 
  8 O       -1.9070    -1.8010    -1.7230 O.3   1 <1>  -0.6800 
  9 C       -2.7290    -1.5070     0.5330 C.3   1 <1>   0.2800 
 10 C        2.2390    -1.8510    -0.6510 C.3   1 <1>   0.2090 
 11 C        1.6670    -2.9200     1.4990 C.3   1 <1>   0.2090 
 12 O       -2.6890    -2.1050     1.7780 O.3   1 <1>  -0.6800 
 13 C       -4.1840    -1.6670     0.0740 C.3   1 <1>  -0.2400 
 14 N        2.5470    -2.9600     0.2970 N.pl3 1 <1>  -0.8380 
 15 C        3.7630    -3.5770     0.2790 C.ar  1 <1>   0.7710 
 16 N        3.7890    -4.8750     0.6930 N.ar  1 <1>  -0.1790 
 17 N        4.8300    -2.9460    -0.1370 N.ar  1 <1>  -0.5670 
 18 C        4.9050    -5.6120     0.7390 C.ar  1 <1>   0.4610 
 19 C        5.9850    -3.6550    -0.0980 C.ar  1 <1>   0.1050 
 20 N        4.8670    -6.8900     1.1540 N.pl3 1 <1>  -0.9000 
 21 C        6.0720    -4.9600     0.3250 C.ar  1 <1>   0.0000 
 22 N        7.2400    -3.2720    -0.4400 N.pl3 1 <1>   0.3140 
 23 C        7.4350    -5.2690     0.1960 C.2   1 <1>   0.1390 
 24 N        8.1280    -4.2800    -0.2540 N.2   1 <1>  -0.7070 
 25 C        7.6730    -1.9610    -0.9470 C.3   1 <1>   0.0160 
 26 H       -0.5620     1.1610     0.9460 H     1 <1>   0.0800 
 27 H       -0.7450     0.4890    -0.6550 H     1 <1>   0.0800 
 28 H       -1.9190    -3.2780    -0.3990 H     1 <1>   0.0800 
 29 H        0.6800    -2.8770    -1.6850 H     1 <1>   0.0800 
 30 H        0.5720    -1.1540    -1.7750 H     1 <1>   0.0800 
 31 H       -0.4080    -3.0610     1.9250 H     1 <1>   0.0800 
 32 H        0.0930    -4.0530     0.5990 H     1 <1>   0.0800 
 33 H       -2.9530     0.5840     0.0560 H     1 <1>   0.0800 
 34 H       -2.5790     0.3030     1.7150 H     1 <1>   0.0800 
 35 H       -1.8450    -0.8300    -1.7790 H     1 <1>   0.4000 
 36 H        2.3890    -0.9040    -0.1580 H     1 <1>   0.0800 
 37 H        2.8910    -1.8910    -1.5080 H     1 <1>   0.0800 
 38 H        1.9250    -3.6910     2.2040 H     1 <1>   0.0800 
 39 H        1.7840    -1.9690     1.9960 H     1 <1>   0.0800 
 40 H       -3.3280    -1.6670     2.3700 H     1 <1>   0.4000 
 41 H       -4.3280    -1.2150    -0.8900 H     1 <1>   0.0800 
 42 H       -4.8590    -1.1980     0.7660 H     1 <1>   0.0800 
 43 H       -4.4310    -2.7110    -0.0120 H     1 <1>   0.0800 
 44 H        2.8820    -5.2570     0.9130 H     1 <1>   0.4570 
 45 H        4.0370    -7.4100     1.4620 H     1 <1>   0.4000 
 46 H        5.7110    -7.4770     1.1940 H     1 <1>   0.4000 
 47 H        7.8650    -6.2260     0.4420 H     1 <1>   0.1500 
 48 H        6.8290    -1.3000    -1.0190 H     1 <1>   0.0800 
 49 H        8.1170    -2.0910    -1.9160 H     1 <1>   0.0800 
 50 H        8.4000    -1.5480    -0.2730 H     1 <1>   0.0800 
@<TRIPOS>BOND
  1   1   2  1   
  2   1   3  1   
  3   2   4  1   
  4   2   5  1   
  5   2   6  1   
  6   3   7  1   
  7   3  26  1   
  8   3  27  1   
  9   4   8  1   
 10   4   9  1   
 11   4  28  1   
 12   5  10  1   
 13   5  29  1   
 14   5  30  1   
 15   6  11  1   
 16   6  31  1   
 17   6  32  1   
 18   7   9  1   
 19   7  33  1   
 20   7  34  1   
 21   8  35  1   
 22   9  12  1   
 23   9  13  1   
 24  10  14  1   
 25  10  36  1   
 26  10  37  1   
 27  11  14  1   
 28  11  38  1   
 29  11  39  1   
 30  12  40  1   
 31  13  41  1   
 32  13  42  1   
 33  13  43  1   
 34  14  15  1   
 35  15  16  ar  
 36  15  17  ar  
 37  16  18  ar  
 38  16  44  1   
 39  17  19  ar  
 40  18  20  1   
 41  18  21  ar  
 42  19  21  ar  
 43  19  22  1   
 44  20  45  1   
 45  20  46  1   
 46  21  23  1   
 47  22  24  1   
 48  22  25  1   
 49  23  24  2   
 50  23  47  1   
 51  25  48  1   
 52  25  49  1   
 53  25  50  1   
@<TRIPOS>SUBSTRUCTURE
  1 ****  14 GROUP 4 **** **** 0

# MOE 2024.06 (io_trps.svl 2023.06)
