@<TRIPOS>MOLECULE
NONAME
53 56 1 0 0 
SMALL
USER_CHARGES


@<TRIPOS>ATOM
  1 O        1.2660    -3.6990    -0.2730 O.3   1 <1>  -0.3630 
  2 C        0.4610    -4.5690     0.3690 C.ar  1 <1>   0.3920 
  3 C        2.5010    -4.1170    -0.8130 C.3   1 <1>   0.1200 
  4 N        0.8230    -5.8450     0.4560 N.ar  1 <1>  -0.6200 
  5 C       -0.7120    -4.0610     0.9060 C.ar  1 <1>  -0.1500 
  6 C        3.1700    -2.9080    -1.4630 C.3   1 <1>  -0.2400 
  7 C       -0.0140    -6.6360     1.1010 C.ar  1 <1>   0.1600 
  8 C       -1.5780    -4.8980     1.5730 C.ar  1 <1>  -0.1500 
  9 C       -1.2150    -6.2300     1.6650 C.ar  1 <1>  -0.1440 
 10 C       -2.1100    -7.2310     2.3660 C.3   1 <1>   0.4860 
 11 N       -2.8940    -7.9850     1.3540 N.4   1 <1>  -0.9590 
 12 C       -3.6790    -7.1550     0.3920 C.3   1 <1>   0.3430 
 13 C       -3.8130    -9.0260     1.8730 C.3   1 <1>   0.3430 
 14 C       -4.8500    -8.0330    -0.0700 C.3   1 <1>   0.2000 
 15 C       -4.7350    -9.3590     0.6960 C.3   1 <1>  -0.0800 
 16 O       -6.0490    -7.4150     0.2680 O.3   1 <1>  -0.6800 
 17 C       -4.2100   -10.5220    -0.1860 C.3   1 <1>  -0.0170 
 18 C       -2.6990   -10.5720    -0.4050 C.ar  1 <1>   0.1670 
 19 N       -2.1150    -9.5240    -0.9070 N.ar  1 <1>  -0.6200 
 20 C       -2.0060   -11.7410    -0.0500 C.ar  1 <1>  -0.1500 
 21 C       -0.7720    -9.5780    -1.1170 C.ar  1 <1>   0.3100 
 22 C       -0.6580   -11.8120    -0.2200 C.ar  1 <1>  -0.1500 
 23 C        0.0060   -10.7010    -0.7630 C.ar  1 <1>   0.0000 
 24 C       -0.1250    -8.4640    -1.6750 C.ar  1 <1>  -0.1500 
 25 C        1.4000   -10.6600    -0.9640 C.ar  1 <1>  -0.1500 
 26 C        1.2320    -8.4430    -1.8580 C.ar  1 <1>  -0.1500 
 27 C        2.0020    -9.5530    -1.4980 C.ar  1 <1>  -0.1500 
 28 H        3.1070    -4.5080    -0.0140 H     1 <1>   0.0800 
 29 H        2.3120    -4.8890    -1.5390 H     1 <1>   0.0800 
 30 H       -0.9220    -3.0130     0.7930 H     1 <1>   0.1500 
 31 H        3.3420    -2.1420    -0.7290 H     1 <1>   0.0800 
 32 H        2.5480    -2.5210    -2.2510 H     1 <1>   0.0800 
 33 H        4.1150    -3.1990    -1.8840 H     1 <1>   0.0800 
 34 H        0.2840    -7.6690     1.1750 H     1 <1>   0.1500 
 35 H       -2.4900    -4.5120     1.9980 H     1 <1>   0.1500 
 36 H       -2.7750    -6.7110     3.0360 H     1 <1>   0.0800 
 37 H       -1.5050    -7.9100     2.9450 H     1 <1>   0.0800 
 38 H       -2.2290    -8.4900     0.7320 H     1 <1>   0.4500 
 39 H       -4.0560    -6.2640     0.8660 H     1 <1>   0.0800 
 40 H       -3.0610    -6.8820    -0.4480 H     1 <1>   0.0800 
 41 H       -3.2750    -9.8970     2.2140 H     1 <1>   0.0800 
 42 H       -4.3960    -8.6250     2.6860 H     1 <1>   0.0800 
 43 H       -4.8390    -8.1620    -1.1400 H     1 <1>   0.0800 
 44 H       -5.7020    -9.6580     1.0650 H     1 <1>   0.0800 
 45 H       -6.2310    -7.4190     1.2270 H     1 <1>   0.4000 
 46 H       -4.6920   -10.4890    -1.1490 H     1 <1>   0.0800 
 47 H       -4.5190   -11.4460     0.2700 H     1 <1>   0.0800 
 48 H       -2.5430   -12.5830     0.3520 H     1 <1>   0.1500 
 49 H       -0.0950   -12.6920     0.0410 H     1 <1>   0.1500 
 50 H       -0.7210    -7.6160    -1.9560 H     1 <1>   0.1500 
 51 H        1.9880   -11.5190    -0.6920 H     1 <1>   0.1500 
 52 H        1.7190    -7.5780    -2.2770 H     1 <1>   0.1500 
 53 H        3.0680    -9.5210    -1.6490 H     1 <1>   0.1500 
@<TRIPOS>BOND
  1   1   2  1   
  2   1   3  1   
  3   2   4  ar  
  4   2   5  ar  
  5   3   6  1   
  6   3  28  1   
  7   3  29  1   
  8   4   7  ar  
  9   5   8  ar  
 10   5  30  1   
 11   6  31  1   
 12   6  32  1   
 13   6  33  1   
 14   7   9  ar  
 15   7  34  1   
 16   8   9  ar  
 17   8  35  1   
 18   9  10  1   
 19  10  11  1   
 20  10  36  1   
 21  10  37  1   
 22  11  12  1   
 23  11  13  1   
 24  11  38  1   
 25  12  14  1   
 26  12  39  1   
 27  12  40  1   
 28  13  15  1   
 29  13  41  1   
 30  13  42  1   
 31  14  15  1   
 32  14  16  1   
 33  14  43  1   
 34  15  17  1   
 35  15  44  1   
 36  16  45  1   
 37  17  18  1   
 38  17  46  1   
 39  17  47  1   
 40  18  19  ar  
 41  18  20  ar  
 42  19  21  ar  
 43  20  22  ar  
 44  20  48  1   
 45  21  23  ar  
 46  21  24  ar  
 47  22  23  ar  
 48  22  49  1   
 49  23  25  ar  
 50  24  26  ar  
 51  24  50  1   
 52  25  27  ar  
 53  25  51  1   
 54  26  27  ar  
 55  26  52  1   
 56  27  53  1   
@<TRIPOS>SUBSTRUCTURE
  1 ****   7 GROUP 4 **** **** 0

# MOE 2024.06 (io_trps.svl 2023.06)
