@<TRIPOS>MOLECULE
NONAME
55 58 1 0 0 
SMALL
USER_CHARGES


@<TRIPOS>ATOM
  1 O        0.4880    -0.2520    -0.5980 O.2   1 <1>  -0.5700 
  2 C        1.1510    -1.2030    -0.2630 C.2   1 <1>   0.5690 
  3 N        0.6740    -2.2270     0.5090 N.am  1 <1>  -0.6600 
  4 C        2.5920    -1.2880    -0.7180 C.3   1 <1>  -0.0990 
  5 C        1.5650    -3.3340     0.9300 C.3   1 <1>   0.1400 
  6 C       -0.7080    -2.2320     1.0600 C.3   1 <1>   0.0600 
  7 C        2.9010    -2.7090    -1.2240 C.3   1 <1>  -0.0800 
  8 C        2.4190    -3.8210    -0.2620 C.3   1 <1>  -0.0800 
  9 C        4.3970    -2.9450    -1.4720 C.3   1 <1>  -0.1600 
 10 C        3.6810    -4.5790     0.1700 C.3   1 <1>  -0.1600 
 11 C        4.6640    -4.3630    -0.9800 C.3   1 <1>   0.4230 
 12 N        6.1120    -4.6130    -0.6770 N.4   1 <1>  -0.9590 
 13 C        6.6170    -4.2710     0.6960 C.3   1 <1>   0.4810 
 14 C        6.4530    -6.0320    -1.0020 C.3   1 <1>   0.2630 
 15 C        6.7040    -2.7580     0.8600 C.2   1 <1>  -0.0380 
 16 N        7.6090    -2.0490     0.0910 N.pl3 1 <1>  -0.6000 
 17 C        5.8960    -2.0860     1.7190 C.2   1 <1>  -0.1360 
 18 C        7.6790    -0.6630     0.1310 C.ar  1 <1>   0.1000 
 19 C        5.9140    -0.6730     1.8190 C.2   1 <1>   0.4690 
 20 C        6.8330     0.0590     0.9890 C.ar  1 <1>   0.0860 
 21 C        8.5820     0.0280    -0.6730 C.ar  1 <1>  -0.1500 
 22 O        5.1350    -0.1140     2.5740 O.2   1 <1>  -0.5700 
 23 C        6.9150     1.4520     0.9960 C.ar  1 <1>  -0.1500 
 24 C        8.6370     1.4020    -0.6430 C.ar  1 <1>  -0.1500 
 25 C        7.7970     2.1580     0.1870 C.ar  1 <1>   0.0860 
 26 C        7.8640     3.6090     0.1850 C.2   1 <1>   0.5440 
 27 O        8.7810     4.2020    -0.3400 O.2   1 <1>  -0.5700 
 28 N        6.9090     4.3820     0.7520 N.am  1 <1>  -0.8000 
 29 H        2.7610    -0.5690    -1.4990 H     1 <1>   0.0800 
 30 H        3.2140    -1.0300     0.1200 H     1 <1>   0.0800 
 31 H        2.1950    -2.9650     1.7210 H     1 <1>   0.0800 
 32 H        0.9820    -4.1520     1.3180 H     1 <1>   0.0800 
 33 H       -1.2250    -3.1200     0.7410 H     1 <1>   0.0800 
 34 H       -1.2570    -1.3730     0.7120 H     1 <1>   0.0800 
 35 H       -0.6730    -2.2040     2.1350 H     1 <1>   0.0800 
 36 H        2.3700    -2.8380    -2.1550 H     1 <1>   0.0800 
 37 H        1.8050    -4.4960    -0.8360 H     1 <1>   0.0800 
 38 H        4.9650    -2.2190    -0.9270 H     1 <1>   0.0800 
 39 H        4.6250    -2.8480    -2.5190 H     1 <1>   0.0800 
 40 H        3.4700    -5.6230     0.3230 H     1 <1>   0.0800 
 41 H        4.0370    -4.1450     1.0820 H     1 <1>   0.0800 
 42 H        4.3610    -5.0190    -1.7820 H     1 <1>   0.0800 
 43 H        6.6270    -3.9960    -1.3180 H     1 <1>   0.4500 
 44 H        5.9740    -4.6930     1.4500 H     1 <1>   0.0800 
 45 H        7.6030    -4.6830     0.8370 H     1 <1>   0.0800 
 46 H        5.9180    -6.7050    -0.3510 H     1 <1>   0.0800 
 47 H        7.5110    -6.2040    -0.8830 H     1 <1>   0.0800 
 48 H        6.1850    -6.2570    -2.0220 H     1 <1>   0.0800 
 49 H        8.3390    -2.5150    -0.4640 H     1 <1>   0.4000 
 50 H        5.1880    -2.5750     2.3620 H     1 <1>   0.1500 
 51 H        9.2440    -0.5130    -1.3250 H     1 <1>   0.1500 
 52 H        6.2630     1.9860     1.6650 H     1 <1>   0.1500 
 53 H        9.3400     1.9250    -1.2720 H     1 <1>   0.1500 
 54 H        7.0110     5.3960     0.6970 H     1 <1>   0.3700 
 55 H        6.0420     4.0320     1.1580 H     1 <1>   0.3700 
@<TRIPOS>BOND
  1   1   2  2   
  2   2   3  am  
  3   2   4  1   
  4   3   5  1   
  5   3   6  1   
  6   4   7  1   
  7   4  29  1   
  8   4  30  1   
  9   5   8  1   
 10   5  31  1   
 11   5  32  1   
 12   6  33  1   
 13   6  34  1   
 14   6  35  1   
 15   7   8  1   
 16   7   9  1   
 17   7  36  1   
 18   8  10  1   
 19   8  37  1   
 20   9  11  1   
 21   9  38  1   
 22   9  39  1   
 23  10  11  1   
 24  10  40  1   
 25  10  41  1   
 26  11  12  1   
 27  11  42  1   
 28  12  13  1   
 29  12  14  1   
 30  12  43  1   
 31  13  15  1   
 32  13  44  1   
 33  13  45  1   
 34  14  46  1   
 35  14  47  1   
 36  14  48  1   
 37  15  16  1   
 38  15  17  2   
 39  16  18  1   
 40  16  49  1   
 41  17  19  1   
 42  17  50  1   
 43  18  20  ar  
 44  18  21  ar  
 45  19  20  1   
 46  19  22  2   
 47  20  23  ar  
 48  21  24  ar  
 49  21  51  1   
 50  23  25  ar  
 51  23  52  1   
 52  24  25  ar  
 53  24  53  1   
 54  25  26  1   
 55  26  27  2   
 56  26  28  am  
 57  28  54  1   
 58  28  55  1   
@<TRIPOS>SUBSTRUCTURE
  1 ****  19 GROUP 4 **** **** 0

# MOE 2024.06 (io_trps.svl 2023.06)
