@<TRIPOS>MOLECULE
NONAME
39 41 1 0 0 
SMALL
USER_CHARGES


@<TRIPOS>ATOM
  1 O       -0.8720     0.3460     0.4330 O.3   1 <1>  -0.5600 
  2 C       -1.7230     0.8100     1.4470 C.3   1 <1>   0.1200 
  3 C       -1.0650    -0.9660    -0.0160 C.3   1 <1>   0.1200 
  4 C       -3.0760     1.2860     0.8540 C.3   1 <1>   0.4230 
  5 C       -2.5160    -1.2430    -0.4730 C.3   1 <1>  -0.0800 
  6 N       -2.9920     1.2470    -0.6590 N.4   1 <1>  -0.9590 
  7 C       -4.2960     0.5400     1.4820 C.3   1 <1>   0.2090 
  8 C       -3.4200    -1.7190     0.6840 C.3   1 <1>   0.2090 
  9 C       -3.1360    -0.1020    -1.3020 C.3   1 <1>   0.3430 
 10 C       -3.8010     2.2910    -1.3540 C.3   1 <1>   0.2630 
 11 N       -4.6080    -0.8260     0.9170 N.pl3 1 <1>  -0.8380 
 12 C       -5.8360    -1.2260     0.4890 C.ar  1 <1>   0.7710 
 13 N       -5.8980    -1.9330    -0.6310 N.ar  1 <1>  -0.6200 
 14 N       -6.9380    -0.8960     1.1960 N.ar  1 <1>  -0.1790 
 15 C       -7.0850    -2.3070    -1.0480 C.ar  1 <1>   0.4100 
 16 C       -8.1770    -1.2740     0.7860 C.ar  1 <1>   0.2110 
 17 N       -7.1170    -3.0150    -2.1770 N.pl3 1 <1>  -0.9000 
 18 C       -8.2670    -1.9900    -0.3590 C.ar  1 <1>  -0.1500 
 19 H       -1.8360     0.0500     2.2000 H     1 <1>   0.0800 
 20 H       -1.2310     1.6490     1.9080 H     1 <1>   0.0800 
 21 H       -0.3940    -1.1040    -0.8480 H     1 <1>   0.0800 
 22 H       -0.7580    -1.6430     0.7630 H     1 <1>   0.0800 
 23 H       -3.1680     2.3160     1.1540 H     1 <1>   0.0800 
 24 H       -2.4510    -2.0900    -1.1330 H     1 <1>   0.0800 
 25 H       -1.9850     1.4570    -0.8040 H     1 <1>   0.4500 
 26 H       -5.1530     1.1790     1.3530 H     1 <1>   0.0800 
 27 H       -4.1300     0.4500     2.5430 H     1 <1>   0.0800 
 28 H       -2.8550    -1.8040     1.5980 H     1 <1>   0.0800 
 29 H       -3.7590    -2.7190     0.4610 H     1 <1>   0.0800 
 30 H       -4.1780    -0.3190    -1.4700 H     1 <1>   0.0800 
 31 H       -2.6540    -0.0770    -2.2670 H     1 <1>   0.0800 
 32 H       -4.8540     2.0940    -1.2320 H     1 <1>   0.0800 
 33 H       -3.5740     2.2950    -2.4090 H     1 <1>   0.0800 
 34 H       -3.5790     3.2680    -0.9560 H     1 <1>   0.0800 
 35 H       -6.7900    -0.4280     2.0840 H     1 <1>   0.4570 
 36 H       -9.0400    -1.0030     1.3770 H     1 <1>   0.1500 
 37 H       -6.2540    -3.2860    -2.6560 H     1 <1>   0.4000 
 38 H       -7.9660    -3.3890    -2.6120 H     1 <1>   0.4000 
 39 H       -9.2080    -2.3280    -0.7560 H     1 <1>   0.1500 
@<TRIPOS>BOND
  1   1   2  1   
  2   1   3  1   
  3   2   4  1   
  4   2  19  1   
  5   2  20  1   
  6   3   5  1   
  7   3  21  1   
  8   3  22  1   
  9   4   6  1   
 10   4   7  1   
 11   4  23  1   
 12   5   8  1   
 13   5   9  1   
 14   5  24  1   
 15   6   9  1   
 16   6  10  1   
 17   6  25  1   
 18   7  11  1   
 19   7  26  1   
 20   7  27  1   
 21   8  11  1   
 22   8  28  1   
 23   8  29  1   
 24   9  30  1   
 25   9  31  1   
 26  10  32  1   
 27  10  33  1   
 28  10  34  1   
 29  11  12  1   
 30  12  13  ar  
 31  12  14  ar  
 32  13  15  ar  
 33  14  16  ar  
 34  14  35  1   
 35  15  17  1   
 36  15  18  ar  
 37  16  18  ar  
 38  16  36  1   
 39  17  37  1   
 40  17  38  1   
 41  18  39  1   
@<TRIPOS>SUBSTRUCTURE
  1 ****  11 GROUP 4 **** **** 0

# MOE 2024.06 (io_trps.svl 2023.06)
