@<TRIPOS>MOLECULE
NONAME
42 43 1 0 0 
SMALL
USER_CHARGES


@<TRIPOS>ATOM
  1 O       -0.2050    -0.4080     0.1090 O.2   1 <1>  -0.5700 
  2 C        0.8140    -0.9990    -0.1630 C.2   1 <1>   0.5690 
  3 N        2.0190    -0.3650    -0.1420 N.am  1 <1>  -0.7300 
  4 C        0.7240    -2.4990    -0.5640 C.3   1 <1>   0.4840 
  5 C        2.2160     1.0300     0.2810 C.3   1 <1>   0.2780 
  6 N       -0.5650    -2.8800    -1.2560 N.4   1 <1>  -0.9590 
  7 C        0.9170    -3.3730     0.6810 C.3   1 <1>  -0.2400 
  8 C        3.5420     1.0790     1.0060 C.2   1 <1>  -0.2880 
  9 C       -0.7000    -4.3140    -1.6420 C.3   1 <1>   0.5240 
 10 C       -0.9660    -1.9590    -2.3620 C.3   1 <1>   0.2630 
 11 C        4.6400     1.7040     0.5700 C.2   1 <1>  -0.3000 
 12 C       -1.6580    -4.9690    -0.6510 C.2   1 <1>   0.1080 
 13 N       -2.4050    -4.2800     0.1670 N.2   1 <1>  -0.7070 
 14 C       -1.8390    -6.3400    -0.4980 C.2   1 <1>  -0.1500 
 15 N       -3.0920    -5.2130     0.8650 N.pl3 1 <1>   0.3000 
 16 C       -2.7610    -6.4610     0.4800 C.2   1 <1>  -0.2370 
 17 C       -3.3700    -7.7050     1.0920 C.3   1 <1>  -0.0150 
 18 C       -2.9090    -8.1620     2.4380 C.3   1 <1>  -0.2000 
 19 C       -2.5630    -8.9570     1.2150 C.3   1 <1>  -0.2000 
 20 H        2.9030    -0.8390    -0.3390 H     1 <1>   0.3700 
 21 H        1.5410    -2.6880    -1.2390 H     1 <1>   0.0800 
 22 H        1.4180     1.3520     0.9300 H     1 <1>   0.0800 
 23 H        2.2380     1.6690    -0.5870 H     1 <1>   0.0800 
 24 H       -1.3000    -2.7980    -0.5190 H     1 <1>   0.4500 
 25 H        0.0840    -3.2550     1.3530 H     1 <1>   0.0800 
 26 H        1.8060    -3.0640     1.2040 H     1 <1>   0.0800 
 27 H        1.0350    -4.4100     0.4320 H     1 <1>   0.0800 
 28 H        3.5140     0.5460     1.9420 H     1 <1>   0.1500 
 29 H        0.2550    -4.8110    -1.6180 H     1 <1>   0.0800 
 30 H       -1.1150    -4.4000    -2.6320 H     1 <1>   0.0800 
 31 H       -0.2430    -1.9870    -3.1610 H     1 <1>   0.0800 
 32 H       -1.0420    -0.9460    -1.9990 H     1 <1>   0.0800 
 33 H       -1.9290    -2.2440    -2.7520 H     1 <1>   0.0800 
 34 H        5.5720     1.7240     1.1110 H     1 <1>   0.1500 
 35 H        4.7080     2.2500    -0.3560 H     1 <1>   0.1500 
 36 H       -1.3510    -7.1300    -1.0420 H     1 <1>   0.1500 
 37 H       -3.7750    -4.9770     1.5980 H     1 <1>   0.2700 
 38 H       -4.4160    -7.8200     0.8570 H     1 <1>   0.1000 
 39 H       -3.6310    -8.5650     3.1270 H     1 <1>   0.1000 
 40 H       -2.1210    -7.6210     2.9340 H     1 <1>   0.1000 
 41 H       -1.5400    -8.9610     0.8820 H     1 <1>   0.1000 
 42 H       -3.0510    -9.9030     1.0570 H     1 <1>   0.1000 
@<TRIPOS>BOND
  1   1   2  2   
  2   2   3  am  
  3   2   4  1   
  4   3   5  1   
  5   3  20  1   
  6   4   6  1   
  7   4   7  1   
  8   4  21  1   
  9   5   8  1   
 10   5  22  1   
 11   5  23  1   
 12   6   9  1   
 13   6  10  1   
 14   6  24  1   
 15   7  25  1   
 16   7  26  1   
 17   7  27  1   
 18   8  11  2   
 19   8  28  1   
 20   9  12  1   
 21   9  29  1   
 22   9  30  1   
 23  10  31  1   
 24  10  32  1   
 25  10  33  1   
 26  11  34  1   
 27  11  35  1   
 28  12  13  2   
 29  12  14  1   
 30  13  15  1   
 31  14  16  2   
 32  14  36  1   
 33  15  16  1   
 34  15  37  1   
 35  16  17  1   
 36  17  18  1   
 37  17  19  1   
 38  17  38  1   
 39  18  19  1   
 40  18  39  1   
 41  18  40  1   
 42  19  41  1   
 43  19  42  1   
@<TRIPOS>SUBSTRUCTURE
  1 ****   6 GROUP 4 **** **** 0

# MOE 2024.06 (io_trps.svl 2023.06)
