@<TRIPOS>MOLECULE
NONAME
48 50 1 0 0 
SMALL
USER_CHARGES


@<TRIPOS>ATOM
  1 F        1.3840     1.4140    -1.1620 F     1 <1>  -0.3400 
  2 C        1.1500     2.4330    -0.3490 C.3   1 <1>   1.1640 
  3 F        1.9050     3.4370    -0.7920 F     1 <1>  -0.3400 
  4 F        1.6790     2.1060     0.8220 F     1 <1>  -0.3400 
  5 C       -0.3290     2.8310    -0.2140 C.ar  1 <1>  -0.1440 
  6 C       -0.7440     3.9420     0.5370 C.ar  1 <1>  -0.1440 
  7 C       -1.2960     2.0490    -0.8440 C.ar  1 <1>  -0.1500 
  8 C       -2.1030     4.2100     0.6540 C.ar  1 <1>  -0.1500 
  9 C        0.2100     4.8910     1.2750 C.3   1 <1>   0.3530 
 10 C       -2.6410     2.3410    -0.7300 C.ar  1 <1>  -0.1500 
 11 C       -3.0470     3.4220     0.0250 C.ar  1 <1>  -0.1500 
 12 N        0.6230     6.0560     0.4210 N.pl3 1 <1>  -0.8380 
 13 C        1.8670     6.5960     0.4570 C.ar  1 <1>   0.7710 
 14 C       -0.5290     6.8820    -0.0770 C.3   1 <1>   0.1290 
 15 N        1.9970     7.9030     0.6200 N.ar  1 <1>  -0.6200 
 16 N        2.9330     5.7920     0.3110 N.ar  1 <1>  -0.1790 
 17 C        3.2110     8.4210     0.6630 C.ar  1 <1>   0.4100 
 18 C        4.1970     6.2720     0.3660 C.ar  1 <1>   0.2110 
 19 N        3.3220     9.7680     0.8130 N.pl3 1 <1>  -0.8380 
 20 C        4.3530     7.6030     0.5540 C.ar  1 <1>  -0.1500 
 21 C        4.4300    10.5950     0.2240 C.3   1 <1>   0.2090 
 22 C        2.2440    10.5990     1.4380 C.3   1 <1>   0.2090 
 23 C        3.8730    11.5990    -0.8010 C.3   1 <1>   0.2000 
 24 C        1.6570    11.5570     0.3950 C.3   1 <1>  -0.1600 
 25 O        4.8850    12.4450    -1.2180 O.3   1 <1>  -0.6800 
 26 C        2.7390    12.4550    -0.2270 C.3   1 <1>  -0.1600 
 27 H       -1.0210     1.1890    -1.4340 H     1 <1>   0.1500 
 28 H       -2.4480     5.0440     1.2400 H     1 <1>   0.1500 
 29 H        1.0700     4.3610     1.6420 H     1 <1>   0.0800 
 30 H       -0.2960     5.2760     2.1450 H     1 <1>   0.0800 
 31 H       -3.3740     1.7250    -1.2240 H     1 <1>   0.1500 
 32 H       -4.0960     3.6470     0.1220 H     1 <1>   0.1500 
 33 H       -1.1380     6.3040    -0.7500 H     1 <1>   0.0800 
 34 H       -0.1830     7.7480    -0.6170 H     1 <1>   0.0800 
 35 H       -1.1320     7.2160     0.7500 H     1 <1>   0.0800 
 36 H        2.7200     4.8290     0.0610 H     1 <1>   0.4570 
 37 H        5.0270     5.5910     0.2570 H     1 <1>   0.1500 
 38 H        5.3270     8.0450     0.6300 H     1 <1>   0.1500 
 39 H        5.1480     9.9750    -0.2780 H     1 <1>   0.0800 
 40 H        4.9240    11.1260     1.0190 H     1 <1>   0.0800 
 41 H        2.6650    11.1640     2.2530 H     1 <1>   0.0800 
 42 H        1.4620     9.9800     1.8440 H     1 <1>   0.0800 
 43 H        3.5280    11.0590    -1.6660 H     1 <1>   0.0800 
 44 H        0.9050    12.1690     0.8610 H     1 <1>   0.0800 
 45 H        1.1760    10.9760    -0.3730 H     1 <1>   0.0800 
 46 H        5.0560    13.1310    -0.5460 H     1 <1>   0.4000 
 47 H        2.3040    13.0500    -1.0110 H     1 <1>   0.0800 
 48 H        3.1240    13.1100     0.5340 H     1 <1>   0.0800 
@<TRIPOS>BOND
  1   1   2  1   
  2   2   3  1   
  3   2   4  1   
  4   2   5  1   
  5   5   6  ar  
  6   5   7  ar  
  7   6   8  ar  
  8   6   9  1   
  9   7  10  ar  
 10   7  27  1   
 11   8  11  ar  
 12   8  28  1   
 13   9  12  1   
 14   9  29  1   
 15   9  30  1   
 16  10  11  ar  
 17  10  31  1   
 18  11  32  1   
 19  12  13  1   
 20  12  14  1   
 21  13  15  ar  
 22  13  16  ar  
 23  14  33  1   
 24  14  34  1   
 25  14  35  1   
 26  15  17  ar  
 27  16  18  ar  
 28  16  36  1   
 29  17  19  1   
 30  17  20  ar  
 31  18  20  ar  
 32  18  37  1   
 33  19  21  1   
 34  19  22  1   
 35  20  38  1   
 36  21  23  1   
 37  21  39  1   
 38  21  40  1   
 39  22  24  1   
 40  22  41  1   
 41  22  42  1   
 42  23  25  1   
 43  23  26  1   
 44  23  43  1   
 45  24  26  1   
 46  24  44  1   
 47  24  45  1   
 48  25  46  1   
 49  26  47  1   
 50  26  48  1   
@<TRIPOS>SUBSTRUCTURE
  1 ****  13 GROUP 4 **** **** 0

# MOE 2024.06 (io_trps.svl 2023.06)
