@<TRIPOS>MOLECULE
NONAME
44 46 1 0 0 
SMALL
USER_CHARGES


@<TRIPOS>ATOM
  1 O       -0.0810    -1.2520    -0.8300 O.2   1 <1>  -0.5700 
  2 C        1.0240    -1.5040    -0.3940 C.2   1 <1>   0.6900 
  3 N        1.2320    -2.4610     0.5790 N.am  1 <1>  -0.4200 
  4 N        2.0970    -0.8210    -0.8950 N.am  1 <1>  -0.5390 
  5 C        2.5190    -2.7560     0.9940 C.2   1 <1>   0.6160 
  6 C        0.0680    -3.1820     1.1660 C.3   1 <1>   0.1400 
  7 C        3.3930    -1.0590    -0.4900 C.2   1 <1>  -0.0290 
  8 O        2.7190    -3.6410     1.8050 O.2   1 <1>  -0.5700 
  9 C        3.6040    -2.0140     0.4410 C.2   1 <1>  -0.1360 
 10 C       -0.2020    -4.4720     0.3850 C.3   1 <1>   0.1100 
 11 C        4.4820    -0.2230    -1.1300 C.3   1 <1>  -0.1020 
 12 N       -1.4180    -5.1440     0.8780 N.3   1 <1>  -0.8100 
 13 C       -1.3860    -6.5830     0.5470 C.3   1 <1>   0.1100 
 14 C       -2.6440    -4.5260     0.3180 C.3   1 <1>   0.1100 
 15 C       -2.6250    -7.3210     1.0850 C.3   1 <1>   0.1400 
 16 C       -3.9130    -5.2050     0.8570 C.3   1 <1>   0.1400 
 17 N       -3.8800    -6.6760     0.5970 N.am  1 <1>  -0.6600 
 18 C       -4.7440    -7.2810    -0.2960 C.2   1 <1>   0.7150 
 19 O       -5.4080    -6.5690    -1.0310 O.2   1 <1>  -0.5700 
 20 C       -4.8750    -8.7220    -0.3580 C.2   1 <1>   0.0550 
 21 O       -5.0150    -9.3510    -1.5220 O.3   1 <1>  -0.2800 
 22 C       -4.8860    -9.6580     0.6340 C.2   1 <1>  -0.1500 
 23 C       -5.1120   -10.6420    -1.3020 C.2   1 <1>  -0.0100 
 24 C       -5.0370   -10.9010     0.0210 C.2   1 <1>  -0.1500 
 25 H        1.8640    -0.1230    -1.6010 H     1 <1>   0.3700 
 26 H       -0.7950    -2.5440     1.1400 H     1 <1>   0.0800 
 27 H        0.2720    -3.4260     2.1940 H     1 <1>   0.0800 
 28 H        4.5810    -2.2640     0.8090 H     1 <1>   0.1500 
 29 H        0.6470    -5.1210     0.5240 H     1 <1>   0.0800 
 30 H       -0.3030    -4.2570    -0.6650 H     1 <1>   0.0800 
 31 H        4.3120     0.8200    -0.9290 H     1 <1>   0.0800 
 32 H        4.4880    -0.3770    -2.1940 H     1 <1>   0.0800 
 33 H        5.4460    -0.4940    -0.7400 H     1 <1>   0.0800 
 34 H       -0.5070    -7.0270     0.9810 H     1 <1>   0.0800 
 35 H       -1.3350    -6.7120    -0.5210 H     1 <1>   0.0800 
 36 H       -2.6380    -4.6010    -0.7570 H     1 <1>   0.0800 
 37 H       -2.6800    -3.4830     0.5770 H     1 <1>   0.0800 
 38 H       -2.6090    -7.2960     2.1610 H     1 <1>   0.0800 
 39 H       -2.5720    -8.3480     0.7720 H     1 <1>   0.0800 
 40 H       -4.7780    -4.7560     0.4000 H     1 <1>   0.0800 
 41 H       -3.9780    -5.0360     1.9170 H     1 <1>   0.0800 
 42 H       -4.8030    -9.4900     1.6930 H     1 <1>   0.1500 
 43 H       -5.2330   -11.3070    -2.1400 H     1 <1>   0.1500 
 44 H       -5.0860   -11.8520     0.5220 H     1 <1>   0.1500 
@<TRIPOS>BOND
  1   1   2  2   
  2   2   3  am  
  3   2   4  am  
  4   3   5  am  
  5   3   6  1   
  6   4   7  1   
  7   4  25  1   
  8   5   8  2   
  9   5   9  1   
 10   6  10  1   
 11   6  26  1   
 12   6  27  1   
 13   7   9  2   
 14   7  11  1   
 15   9  28  1   
 16  10  12  1   
 17  10  29  1   
 18  10  30  1   
 19  11  31  1   
 20  11  32  1   
 21  11  33  1   
 22  12  13  1   
 23  12  14  1   
 24  13  15  1   
 25  13  34  1   
 26  13  35  1   
 27  14  16  1   
 28  14  36  1   
 29  14  37  1   
 30  15  17  1   
 31  15  38  1   
 32  15  39  1   
 33  16  17  1   
 34  16  40  1   
 35  16  41  1   
 36  17  18  am  
 37  18  19  2   
 38  18  20  1   
 39  20  21  1   
 40  20  22  2   
 41  21  23  1   
 42  22  24  1   
 43  22  42  1   
 44  23  24  2   
 45  23  43  1   
 46  24  44  1   
@<TRIPOS>SUBSTRUCTURE
  1 ****  12 GROUP 4 **** **** 0

# MOE 2024.06 (io_trps.svl 2023.06)
