@<TRIPOS>MOLECULE
NONAME
48 50 1 0 0 
SMALL
USER_CHARGES


@<TRIPOS>ATOM
  1 O       -4.0000     2.7030     1.4100 O.2   1 <1>  -0.5700 
  2 C       -3.5590     2.1170     0.4440 C.2   1 <1>   0.5690 
  3 N       -3.6820     0.7510     0.3460 N.am  1 <1>  -0.6600 
  4 C       -2.8920     2.9580    -0.6600 C.3   1 <1>   0.2370 
  5 C       -4.4060    -0.0200     1.4110 C.3   1 <1>   0.3210 
  6 C       -3.1620    -0.0810    -0.7920 C.3   1 <1>   0.1400 
  7 N       -1.4230     2.7330    -0.6910 N.pl3 1 <1>   0.0480 
  8 C       -3.1680     4.4720    -0.5670 C.3   1 <1>  -0.2400 
  9 C       -3.5870    -1.2070     1.9070 C.2   1 <1>   0.0460 
 10 C       -4.2540    -0.3990    -1.8210 C.3   1 <1>   0.1200 
 11 C       -0.5540     2.7430     0.3610 C.ar  1 <1>  -0.1520 
 12 C       -0.6620     2.4080    -1.7790 C.2   1 <1>   0.0060 
 13 N       -3.9350    -2.4730     1.5890 N.2   1 <1>  -0.5650 
 14 C       -2.4610    -1.1900     2.6580 C.2   1 <1>  -0.3320 
 15 O       -4.6990     0.7690    -2.4350 O.3   1 <1>  -0.6800 
 16 C        0.6710     2.3830    -0.1680 C.ar  1 <1>   0.2270 
 17 C       -0.6830     3.0340     1.7230 C.ar  1 <1>  -0.1500 
 18 N        0.5740     2.1810    -1.5090 N.2   1 <1>  -0.5650 
 19 C       -1.2090     2.3270    -3.1930 C.3   1 <1>  -0.0600 
 20 C       -3.0220    -3.1930     2.1540 C.2   1 <1>   0.0360 
 21 N       -2.0960    -2.4740     2.8200 N.pl3 1 <1>   0.0330 
 22 C       -1.6810    -0.0180     3.2280 C.3   1 <1>  -0.0600 
 23 C        1.7900     2.2820     0.6550 C.ar  1 <1>  -0.1500 
 24 C        0.4270     2.9360     2.5310 C.ar  1 <1>  -0.1500 
 25 C        1.6660     2.5560     2.0000 C.ar  1 <1>  -0.1500 
 26 H       -3.2990     2.6240    -1.5910 H     1 <1>   0.0800 
 27 H       -5.3400    -0.3760     1.0160 H     1 <1>   0.0800 
 28 H       -4.6290     0.6070     2.2550 H     1 <1>   0.0800 
 29 H       -2.7670    -1.0080    -0.4160 H     1 <1>   0.0800 
 30 H       -2.3440     0.4040    -1.2830 H     1 <1>   0.0800 
 31 H       -2.7730     4.8700     0.3510 H     1 <1>   0.0800 
 32 H       -4.2290     4.6470    -0.5830 H     1 <1>   0.0800 
 33 H       -2.7220     4.9860    -1.3990 H     1 <1>   0.0800 
 34 H       -5.0880    -0.8820    -1.3420 H     1 <1>   0.0800 
 35 H       -3.8620    -1.0490    -2.5850 H     1 <1>   0.0800 
 36 H       -5.4880     0.5840    -2.9830 H     1 <1>   0.4000 
 37 H       -1.6330     3.3320     2.1310 H     1 <1>   0.1500 
 38 H       -1.6400     3.2690    -3.4760 H     1 <1>   0.0800 
 39 H       -1.9530     1.5560    -3.2690 H     1 <1>   0.0800 
 40 H       -0.4110     2.0990    -3.8770 H     1 <1>   0.0800 
 41 H       -2.9860    -4.2680     2.1090 H     1 <1>   0.1500 
 42 H       -1.2850    -2.8300     3.3330 H     1 <1>   0.2700 
 43 H       -2.1960     0.9050     3.0280 H     1 <1>   0.0800 
 44 H       -0.7070     0.0340     2.7750 H     1 <1>   0.0800 
 45 H       -1.5710    -0.1220     4.2920 H     1 <1>   0.0800 
 46 H        2.7260     1.9940     0.2150 H     1 <1>   0.1500 
 47 H        0.3520     3.1540     3.5820 H     1 <1>   0.1500 
 48 H        2.5200     2.4850     2.6500 H     1 <1>   0.1500 
@<TRIPOS>BOND
  1   1   2  2   
  2   2   3  am  
  3   2   4  1   
  4   3   5  1   
  5   3   6  1   
  6   4   7  1   
  7   4   8  1   
  8   4  26  1   
  9   5   9  1   
 10   5  27  1   
 11   5  28  1   
 12   6  10  1   
 13   6  29  1   
 14   6  30  1   
 15   7  11  1   
 16   7  12  1   
 17   8  31  1   
 18   8  32  1   
 19   8  33  1   
 20   9  13  1   
 21   9  14  2   
 22  10  15  1   
 23  10  34  1   
 24  10  35  1   
 25  11  16  ar  
 26  11  17  ar  
 27  12  18  2   
 28  12  19  1   
 29  13  20  2   
 30  14  21  1   
 31  14  22  1   
 32  15  36  1   
 33  16  18  1   
 34  16  23  ar  
 35  17  24  ar  
 36  17  37  1   
 37  19  38  1   
 38  19  39  1   
 39  19  40  1   
 40  20  21  1   
 41  20  41  1   
 42  21  42  1   
 43  22  43  1   
 44  22  44  1   
 45  22  45  1   
 46  23  25  ar  
 47  23  46  1   
 48  24  25  ar  
 49  24  47  1   
 50  25  48  1   
@<TRIPOS>SUBSTRUCTURE
  1 ****   3 GROUP 4 **** **** 0

# MOE 2024.06 (io_trps.svl 2023.06)
