@<TRIPOS>MOLECULE
NONAME
46 49 1 0 0 
SMALL
USER_CHARGES


@<TRIPOS>ATOM
  1 O       -0.7190     0.5520     1.1140 O.2   1 <1>  -0.5700 
  2 C       -0.3310     1.5600     0.5550 C.2   1 <1>   0.5440 
  3 N        0.8960     1.5180    -0.0330 N.am  1 <1>  -0.5390 
  4 C       -1.0890     2.7850     0.4790 C.ar  1 <1>   0.0860 
  5 C        1.4700     2.6170    -0.6130 C.2   1 <1>  -0.0410 
  6 C       -0.5300     3.9090    -0.1690 C.ar  1 <1>   0.0280 
  7 C       -2.3770     2.8690     1.0160 C.ar  1 <1>  -0.1500 
  8 C        0.8360     3.8290    -0.6580 C.2   1 <1>  -0.0140 
  9 C       -1.3480     5.0390    -0.3200 C.ar  1 <1>  -0.1500 
 10 C       -3.1350     4.0100     0.8890 C.ar  1 <1>  -0.1500 
 11 C        1.5600     4.9780    -1.1540 C.2   1 <1>   0.6160 
 12 C       -2.6200     5.0970     0.2060 C.ar  1 <1>  -0.1500 
 13 O        2.4350     4.8540    -1.9930 O.2   1 <1>  -0.5700 
 14 N        1.4540     6.2280    -0.5940 N.am  1 <1>  -0.6600 
 15 C        1.9350     6.3780     0.8230 C.3   1 <1>   0.2200 
 16 C        1.4620     7.4300    -1.4920 C.3   1 <1>   0.1400 
 17 C        1.3620     7.6170     1.5300 C.3   1 <1>   0.1200 
 18 C        3.4870     6.3790     0.8720 C.3   1 <1>   0.3430 
 19 C        2.4640     8.5340    -1.0990 C.3   1 <1>  -0.0800 
 20 O        2.1660     8.7330     1.2910 O.3   1 <1>  -0.5600 
 21 N        4.1170     6.6730    -0.4670 N.4   1 <1>  -0.9590 
 22 C        1.9600     9.3800     0.0810 C.3   1 <1>   0.1200 
 23 C        3.9310     8.0880    -0.9190 C.3   1 <1>   0.3430 
 24 C        5.5520     6.2740    -0.5020 C.3   1 <1>   0.2630 
 25 H        1.3530     0.6030     0.0090 H     1 <1>   0.3700 
 26 H        2.4610     2.4870    -1.0220 H     1 <1>   0.1500 
 27 H       -2.7820     2.0140     1.5310 H     1 <1>   0.1500 
 28 H       -1.0020     5.8940    -0.8670 H     1 <1>   0.1500 
 29 H       -4.1270     4.0560     1.3070 H     1 <1>   0.1500 
 30 H       -3.2230     5.9810     0.0840 H     1 <1>   0.1500 
 31 H        1.5870     5.5270     1.3830 H     1 <1>   0.0800 
 32 H        1.6760     7.1190    -2.5020 H     1 <1>   0.0800 
 33 H        0.4690     7.8480    -1.5060 H     1 <1>   0.0800 
 34 H        1.3780     7.4540     2.5940 H     1 <1>   0.0800 
 35 H        0.3450     7.8160     1.2360 H     1 <1>   0.0800 
 36 H        3.8040     5.4030     1.1990 H     1 <1>   0.0800 
 37 H        3.8260     7.0900     1.6070 H     1 <1>   0.0800 
 38 H        2.4700     9.2190    -1.9270 H     1 <1>   0.0800 
 39 H        3.5910     6.0810    -1.1480 H     1 <1>   0.4500 
 40 H        0.9150     9.6230    -0.0150 H     1 <1>   0.0800 
 41 H        2.5110    10.3050     0.1280 H     1 <1>   0.0800 
 42 H        4.4140     8.7550    -0.2230 H     1 <1>   0.0800 
 43 H        4.4260     8.2030    -1.8700 H     1 <1>   0.0800 
 44 H        6.1230     6.8620     0.1980 H     1 <1>   0.0800 
 45 H        5.9550     6.4230    -1.4910 H     1 <1>   0.0800 
 46 H        5.6550     5.2310    -0.2470 H     1 <1>   0.0800 
@<TRIPOS>BOND
  1   1   2  2   
  2   2   3  am  
  3   2   4  1   
  4   3   5  1   
  5   3  25  1   
  6   4   6  ar  
  7   4   7  ar  
  8   5   8  2   
  9   5  26  1   
 10   6   8  1   
 11   6   9  ar  
 12   7  10  ar  
 13   7  27  1   
 14   8  11  1   
 15   9  12  ar  
 16   9  28  1   
 17  10  12  ar  
 18  10  29  1   
 19  11  13  2   
 20  11  14  am  
 21  12  30  1   
 22  14  15  1   
 23  14  16  1   
 24  15  17  1   
 25  15  18  1   
 26  15  31  1   
 27  16  19  1   
 28  16  32  1   
 29  16  33  1   
 30  17  20  1   
 31  17  34  1   
 32  17  35  1   
 33  18  21  1   
 34  18  36  1   
 35  18  37  1   
 36  19  22  1   
 37  19  23  1   
 38  19  38  1   
 39  20  22  1   
 40  21  23  1   
 41  21  24  1   
 42  21  39  1   
 43  22  40  1   
 44  22  41  1   
 45  23  42  1   
 46  23  43  1   
 47  24  44  1   
 48  24  45  1   
 49  24  46  1   
@<TRIPOS>SUBSTRUCTURE
  1 ****  14 GROUP 4 **** **** 0

# MOE 2024.06 (io_trps.svl 2023.06)
