@<TRIPOS>MOLECULE
NONAME
41 44 1 0 0 
SMALL
USER_CHARGES


@<TRIPOS>ATOM
  1 CL      -0.7620    -0.1190     1.5070 Cl    1 <1>  -0.1240 
  2 C       -1.4220    -1.2760     0.3870 C.2   1 <1>   0.1640 
  3 S       -1.7760    -2.8660     1.0160 S.3   1 <1>  -0.0800 
  4 C       -1.7240    -1.1750    -0.9180 C.2   1 <1>  -0.1500 
  5 C       -2.3640    -3.4130    -0.5660 C.2   1 <1>  -0.0450 
  6 C       -2.2530    -2.3870    -1.4530 C.2   1 <1>  -0.1500 
  7 C       -2.8360    -4.7640    -0.7330 C.2   1 <1>   0.7150 
  8 O       -3.0690    -5.2040    -1.8430 O.2   1 <1>  -0.5700 
  9 N       -3.1090    -5.5980     0.3280 N.am  1 <1>  -0.6600 
 10 C       -4.1550    -5.2280     1.3270 C.3   1 <1>   0.1400 
 11 C       -2.9340    -7.0700     0.1580 C.3   1 <1>   0.1400 
 12 C       -5.5090    -5.9150     1.0180 C.3   1 <1>   0.4230 
 13 C       -4.2760    -7.7270    -0.2080 C.3   1 <1>   0.3430 
 14 N       -5.3590    -7.4120     0.8010 N.4   1 <1>  -0.9590 
 15 C       -6.2040    -5.2470    -0.1930 C.3   1 <1>   0.1200 
 16 C       -6.6910    -8.0050     0.4280 C.3   1 <1>   0.5180 
 17 O       -7.4310    -5.8680    -0.4450 O.3   1 <1>  -0.5600 
 18 C       -6.5300    -9.5200     0.1900 C.3   1 <1>  -0.1950 
 19 C       -7.3430    -7.2330    -0.7460 C.3   1 <1>   0.1200 
 20 C       -6.1690   -10.1470    -1.1260 C.3   1 <1>  -0.2000 
 21 C       -7.5440   -10.3390    -0.5520 C.3   1 <1>  -0.2000 
 22 H       -1.5910    -0.2940    -1.5200 H     1 <1>   0.1500 
 23 H       -2.5310    -2.4550    -2.4920 H     1 <1>   0.1500 
 24 H       -3.8190    -5.5170     2.3080 H     1 <1>   0.0800 
 25 H       -4.2960    -4.1610     1.3400 H     1 <1>   0.0800 
 26 H       -2.2190    -7.2640    -0.6250 H     1 <1>   0.0800 
 27 H       -2.5450    -7.4960     1.0660 H     1 <1>   0.0800 
 28 H       -6.1520    -5.7500     1.8670 H     1 <1>   0.0800 
 29 H       -4.1320    -8.7920    -0.2760 H     1 <1>   0.0800 
 30 H       -4.5690    -7.3720    -1.1830 H     1 <1>   0.0800 
 31 H       -5.0830    -7.8370     1.6920 H     1 <1>   0.4500 
 32 H       -5.6010    -5.3030    -1.0820 H     1 <1>   0.0800 
 33 H       -6.4040    -4.2110     0.0160 H     1 <1>   0.0800 
 34 H       -7.3570    -7.8910     1.2680 H     1 <1>   0.0800 
 35 H       -6.1520    -9.9990     1.0770 H     1 <1>   0.1000 
 36 H       -8.3450    -7.5870    -0.9100 H     1 <1>   0.0800 
 37 H       -6.7860    -7.3510    -1.6590 H     1 <1>   0.0800 
 38 H       -6.0940    -9.5680    -2.0310 H     1 <1>   0.1000 
 39 H       -5.5130   -11.0030    -1.1430 H     1 <1>   0.1000 
 40 H       -7.8040   -11.3140    -0.1730 H     1 <1>   0.1000 
 41 H       -8.3700    -9.8830    -1.0730 H     1 <1>   0.1000 
@<TRIPOS>BOND
  1   1   2  1   
  2   2   3  1   
  3   2   4  2   
  4   3   5  1   
  5   4   6  1   
  6   4  22  1   
  7   5   6  2   
  8   5   7  1   
  9   6  23  1   
 10   7   8  2   
 11   7   9  am  
 12   9  10  1   
 13   9  11  1   
 14  10  12  1   
 15  10  24  1   
 16  10  25  1   
 17  11  13  1   
 18  11  26  1   
 19  11  27  1   
 20  12  14  1   
 21  12  15  1   
 22  12  28  1   
 23  13  14  1   
 24  13  29  1   
 25  13  30  1   
 26  14  16  1   
 27  14  31  1   
 28  15  17  1   
 29  15  32  1   
 30  15  33  1   
 31  16  18  1   
 32  16  19  1   
 33  16  34  1   
 34  17  19  1   
 35  18  20  1   
 36  18  21  1   
 37  18  35  1   
 38  19  36  1   
 39  19  37  1   
 40  20  21  1   
 41  20  38  1   
 42  20  39  1   
 43  21  40  1   
 44  21  41  1   
@<TRIPOS>SUBSTRUCTURE
  1 ****   9 GROUP 4 **** **** 0

# MOE 2024.06 (io_trps.svl 2023.06)
