@<TRIPOS>MOLECULE
NONAME
46 48 1 0 0 
SMALL
USER_CHARGES


@<TRIPOS>ATOM
  1 O        3.1830     1.2140     3.5530 O.co2 1 <1>  -0.9030 
  2 C        3.5770     0.0600     3.3200 C.2   1 <1>   0.9770 
  3 O        3.1370    -0.8870     3.9920 O.co2 1 <1>  -0.9030 
  4 C        4.5460    -0.1730     2.2610 C.ar  1 <1>  -0.1870 
  5 C        5.0520     0.8890     1.5170 C.ar  1 <1>  -0.1170 
  6 C        5.0010    -1.4700     1.9560 C.ar  1 <1>  -0.1580 
  7 C        5.9690     0.6460     0.5100 C.ar  1 <1>   0.3020 
  8 C        5.9180    -1.7110     0.9530 C.ar  1 <1>  -0.1170 
  9 N        6.6210     1.4860    -0.3640 N.pl3 1 <1>  -0.7040 
 10 C        6.4020    -0.6320     0.2230 C.ar  1 <1>   0.3020 
 11 C        7.4300     0.7710    -1.1390 C.cat 1 <1>   1.0690 
 12 N        7.3080    -0.5360    -0.8310 N.pl3 1 <1>  -0.7680 
 13 N        8.2360     1.3090    -2.0810 N.pl3 1 <1>  -0.5970 
 14 C        7.8330    -1.7360    -1.5290 C.3   1 <1>   0.2670 
 15 C        8.0170     2.7040    -2.5780 C.3   1 <1>   0.3420 
 16 C        9.5360     0.7220    -2.5230 C.3   1 <1>   0.0790 
 17 C        8.3570     3.7250    -1.5020 C.2   1 <1>   0.3280 
 18 N        7.4900     4.3290    -0.7920 N.2   1 <1>  -0.4160 
 19 N        9.6070     4.0200    -1.1830 N.2   1 <1>  -0.5700 
 20 O        8.1430     5.0830     0.0400 O.3   1 <1>  -0.0280 
 21 C        9.4030     4.8510    -0.2390 C.2   1 <1>   0.2910 
 22 C       10.4790     5.5670     0.5580 C.3   1 <1>   0.0110 
 23 C       10.9040     4.7940     1.8220 C.3   1 <1>  -0.0890 
 24 C        9.7450     4.6170     2.8140 C.3   1 <1>  -0.2470 
 25 C       12.0650     5.5160     2.5170 C.3   1 <1>  -0.2470 
 26 H        4.7250     1.8940     1.7280 H     1 <1>   0.1420 
 27 H        4.6080    -2.2900     2.5380 H     1 <1>   0.1420 
 28 H        6.2480    -2.7110     0.7460 H     1 <1>   0.1420 
 29 H        6.5950     2.5080    -0.3080 H     1 <1>   0.4440 
 30 H        7.1070    -2.5310    -1.4940 H     1 <1>   0.0710 
 31 H        8.7380    -2.0710    -1.0510 H     1 <1>   0.0710 
 32 H        8.0330    -1.5170    -2.5630 H     1 <1>   0.0710 
 33 H        6.9870     2.8240    -2.8640 H     1 <1>   0.0710 
 34 H        8.6240     2.8920    -3.4470 H     1 <1>   0.0710 
 35 H        9.8630    -0.0440    -1.8420 H     1 <1>   0.0710 
 36 H       10.2970     1.4850    -2.5410 H     1 <1>   0.0710 
 37 H        9.4370     0.3060    -3.5120 H     1 <1>   0.0710 
 38 H       10.1250     6.5470     0.8260 H     1 <1>   0.0710 
 39 H       11.3360     5.6930    -0.0790 H     1 <1>   0.0710 
 40 H       11.2480     3.8180     1.5230 H     1 <1>   0.0710 
 41 H        9.3390     5.5710     3.1000 H     1 <1>   0.0710 
 42 H       10.0890     4.1140     3.7020 H     1 <1>   0.0710 
 43 H        8.9590     4.0220     2.3850 H     1 <1>   0.0710 
 44 H       11.7660     6.4970     2.8410 H     1 <1>   0.0710 
 45 H       12.9010     5.6140     1.8470 H     1 <1>   0.0710 
 46 H       12.3900     4.9570     3.3770 H     1 <1>   0.0710 
@<TRIPOS>BOND
  1   1   2  ar  
  2   2   3  ar  
  3   2   4  1   
  4   4   5  ar  
  5   4   6  ar  
  6   5   7  ar  
  7   5  26  1   
  8   6   8  ar  
  9   6  27  1   
 10   7   9  1   
 11   7  10  ar  
 12   8  10  ar  
 13   8  28  1   
 14   9  11  ar  
 15   9  29  1   
 16  10  12  1   
 17  11  12  ar  
 18  11  13  ar  
 19  12  14  1   
 20  13  15  1   
 21  13  16  1   
 22  14  30  1   
 23  14  31  1   
 24  14  32  1   
 25  15  17  1   
 26  15  33  1   
 27  15  34  1   
 28  16  35  1   
 29  16  36  1   
 30  16  37  1   
 31  17  18  2   
 32  17  19  1   
 33  18  20  1   
 34  19  21  2   
 35  20  21  1   
 36  21  22  1   
 37  22  23  1   
 38  22  38  1   
 39  22  39  1   
 40  23  24  1   
 41  23  25  1   
 42  23  40  1   
 43  24  41  1   
 44  24  42  1   
 45  24  43  1   
 46  25  44  1   
 47  25  45  1   
 48  25  46  1   
@<TRIPOS>SUBSTRUCTURE
  1 ****   9 GROUP 4 **** **** 0

# MOE 2024.06 (io_trps.svl 2023.06)
