@<TRIPOS>MOLECULE
NONAME
38 40 1 0 0 
SMALL
USER_CHARGES


@<TRIPOS>ATOM
  1 CL       0.5980    -0.8850     0.9880 Cl    1 <1>  -0.1770 
  2 C       -0.4620    -2.1770     0.4880 C.ar  1 <1>   0.1770 
  3 C        0.0620    -3.2690    -0.1760 C.ar  1 <1>  -0.1500 
  4 C       -1.8140    -2.0950     0.7590 C.ar  1 <1>  -0.1500 
  5 C       -0.7830    -4.2910    -0.5690 C.ar  1 <1>  -0.1500 
  6 C       -2.6490    -3.1220     0.3590 C.ar  1 <1>  -0.1500 
  7 C       -2.1570    -4.2450    -0.3120 C.ar  1 <1>   0.0530 
  8 C       -3.0200    -5.3240    -0.7330 C.2   1 <1>   0.0870 
  9 O       -2.6540    -6.1200    -1.7110 O.3   1 <1>  -0.0190 
 10 C       -4.2360    -5.7590    -0.3170 C.2   1 <1>  -0.2330 
 11 N       -3.5400    -7.0460    -1.9750 N.2   1 <1>  -0.4100 
 12 C       -4.5030    -6.8450    -1.1470 C.2   1 <1>   0.3720 
 13 C       -5.1000    -5.2910     0.7140 C.2   1 <1>   1.0330 
 14 N       -5.6580    -7.6330    -1.1220 N.pl3 1 <1>  -0.8210 
 15 O       -5.8350    -4.3070     0.5180 O.co2 1 <1>  -0.9000 
 16 O       -5.1410    -5.8610     1.8180 O.co2 1 <1>  -0.9000 
 17 C       -5.8180    -8.3700     0.1680 C.3   1 <1>   0.2090 
 18 C       -6.8750    -6.8600    -1.4940 C.3   1 <1>   0.1290 
 19 C       -6.2150    -9.8270    -0.0880 C.3   1 <1>   0.0000 
 20 C       -7.6780   -10.0620    -0.5530 C.3   1 <1>   0.0000 
 21 C       -6.5780   -10.6200     1.1950 C.3   1 <1>   0.0000 
 22 C       -7.6800   -11.3180     0.3560 C.3   1 <1>   0.0000 
 23 H        1.1170    -3.3150    -0.3780 H     1 <1>   0.1500 
 24 H       -2.2100    -1.2400     1.2770 H     1 <1>   0.1500 
 25 H       -0.3760    -5.1440    -1.0830 H     1 <1>   0.1500 
 26 H       -3.7020    -3.0460     0.5690 H     1 <1>   0.1500 
 27 H       -6.5520    -7.8830     0.7880 H     1 <1>   0.0800 
 28 H       -4.8860    -8.3580     0.7100 H     1 <1>   0.0800 
 29 H       -6.6350    -6.1530    -2.2700 H     1 <1>   0.0800 
 30 H       -7.2570    -6.3180    -0.6450 H     1 <1>   0.0800 
 31 H       -7.6320    -7.5280    -1.8610 H     1 <1>   0.0800 
 32 H       -5.4990   -10.3630    -0.6890 H     1 <1>   0.0000 
 33 H       -7.7720   -10.2820    -1.6010 H     1 <1>   0.0000 
 34 H       -8.3620    -9.3050    -0.2060 H     1 <1>   0.0000 
 35 H       -6.9870   -10.0020     1.9770 H     1 <1>   0.0000 
 36 H       -5.8020   -11.2840     1.5320 H     1 <1>   0.0000 
 37 H       -7.3210   -12.1980    -0.1510 H     1 <1>   0.0000 
 38 H       -8.6020   -11.4710     0.8870 H     1 <1>   0.0000 
@<TRIPOS>BOND
  1   1   2  1   
  2   2   3  ar  
  3   2   4  ar  
  4   3   5  ar  
  5   3  23  1   
  6   4   6  ar  
  7   4  24  1   
  8   5   7  ar  
  9   5  25  1   
 10   6   7  ar  
 11   6  26  1   
 12   7   8  1   
 13   8   9  1   
 14   8  10  2   
 15   9  11  1   
 16  10  12  1   
 17  10  13  1   
 18  11  12  2   
 19  12  14  1   
 20  13  15  ar  
 21  13  16  ar  
 22  14  17  1   
 23  14  18  1   
 24  17  19  1   
 25  17  27  1   
 26  17  28  1   
 27  18  29  1   
 28  18  30  1   
 29  18  31  1   
 30  19  20  1   
 31  19  21  1   
 32  19  32  1   
 33  20  22  1   
 34  20  33  1   
 35  20  34  1   
 36  21  22  1   
 37  21  35  1   
 38  21  36  1   
 39  22  37  1   
 40  22  38  1   
@<TRIPOS>SUBSTRUCTURE
  1 ****  10 GROUP 4 **** **** 0

# MOE 2024.06 (io_trps.svl 2023.06)
