@<TRIPOS>MOLECULE
NONAME
43 44 1 0 0 
SMALL
USER_CHARGES


@<TRIPOS>ATOM
  1 S        0.4310     0.7560    -0.7980 S.o2  1 <1>   1.3330 
  2 O        1.5440     0.4280    -1.6620 O.2   1 <1>  -0.6500 
  3 O       -0.8120     1.2120    -1.3790 O.2   1 <1>  -0.6500 
  4 N        0.0610    -0.6270     0.1200 N.am  1 <1>  -0.8490 
  5 C        0.9720     1.9440     0.4420 C.3   1 <1>  -0.0550 
  6 C        0.2280    -1.8640    -0.6500 C.3   1 <1>   0.1160 
  7 C       -1.2800    -0.5930     0.7140 C.3   1 <1>   0.1160 
  8 C        2.4270     1.8310     0.9480 C.3   1 <1>  -0.0800 
  9 C        3.4680     2.2170    -0.1050 C.3   1 <1>   0.2200 
 10 C        2.8920     0.4540     1.4330 C.3   1 <1>   0.1200 
 11 N        4.1350     3.4730     0.3010 N.am  1 <1>  -0.7300 
 12 C        4.4430     1.0410    -0.0890 C.3   1 <1>   0.1200 
 13 O        4.2480     0.4120     1.1370 O.3   1 <1>  -0.5600 
 14 C        3.6950     4.7210     0.0130 C.2   1 <1>   0.5690 
 15 O        2.6560     4.9050    -0.5750 O.2   1 <1>  -0.5700 
 16 C        4.5080     5.9160     0.4630 C.3   1 <1>   0.0440 
 17 C        5.9970     5.6860     0.2680 C.ar  1 <1>   0.1670 
 18 N        6.6160     4.9870     1.2100 N.ar  1 <1>  -0.6200 
 19 C        6.6280     6.2010    -0.8560 C.ar  1 <1>  -0.1500 
 20 C        7.9150     4.8010     1.0270 C.ar  1 <1>   0.1600 
 21 C        7.9790     5.9960    -1.0340 C.ar  1 <1>  -0.1500 
 22 C        8.6320     5.2750    -0.0580 C.ar  1 <1>  -0.1500 
 23 H        0.8570     2.9290     0.0300 H     1 <1>   0.0800 
 24 H        0.3120     1.8850     1.2840 H     1 <1>   0.0800 
 25 H       -0.0060    -2.7200    -0.0400 H     1 <1>   0.0800 
 26 H        1.2490    -1.9580    -0.9820 H     1 <1>   0.0800 
 27 H       -0.4170    -1.8560    -1.5140 H     1 <1>   0.0800 
 28 H       -1.4210    -1.4440     1.3590 H     1 <1>   0.0800 
 29 H       -2.0340    -0.6090    -0.0570 H     1 <1>   0.0800 
 30 H       -1.4070     0.3010     1.2990 H     1 <1>   0.0800 
 31 H        2.5210     2.4970     1.7880 H     1 <1>   0.0800 
 32 H        3.0490     2.3410    -1.0900 H     1 <1>   0.0800 
 33 H        2.4300    -0.3570     0.9030 H     1 <1>   0.0800 
 34 H        2.7590     0.3220     2.4930 H     1 <1>   0.0800 
 35 H        5.0170     3.3770     0.8220 H     1 <1>   0.3700 
 36 H        5.4710     1.3440    -0.1830 H     1 <1>   0.0800 
 37 H        4.1920     0.3360    -0.8640 H     1 <1>   0.0800 
 38 H        4.1920     6.7790    -0.0910 H     1 <1>   0.0800 
 39 H        4.3060     6.0980     1.5020 H     1 <1>   0.0800 
 40 H        6.0710     6.7560    -1.5890 H     1 <1>   0.1500 
 41 H        8.4360     4.2390     1.7830 H     1 <1>   0.1500 
 42 H        8.4990     6.3810    -1.8940 H     1 <1>   0.1500 
 43 H        9.6860     5.0800    -0.1340 H     1 <1>   0.1500 
@<TRIPOS>BOND
  1   1   2  2   
  2   1   3  2   
  3   1   4  am  
  4   1   5  1   
  5   4   6  1   
  6   4   7  1   
  7   5   8  1   
  8   5  23  1   
  9   5  24  1   
 10   6  25  1   
 11   6  26  1   
 12   6  27  1   
 13   7  28  1   
 14   7  29  1   
 15   7  30  1   
 16   8   9  1   
 17   8  10  1   
 18   8  31  1   
 19   9  11  1   
 20   9  12  1   
 21   9  32  1   
 22  10  13  1   
 23  10  33  1   
 24  10  34  1   
 25  11  14  am  
 26  11  35  1   
 27  12  13  1   
 28  12  36  1   
 29  12  37  1   
 30  14  15  2   
 31  14  16  1   
 32  16  17  1   
 33  16  38  1   
 34  16  39  1   
 35  17  18  ar  
 36  17  19  ar  
 37  18  20  ar  
 38  19  21  ar  
 39  19  40  1   
 40  20  22  ar  
 41  20  41  1   
 42  21  22  ar  
 43  21  42  1   
 44  22  43  1   
@<TRIPOS>SUBSTRUCTURE
  1 ****   9 GROUP 4 **** **** 0

# MOE 2024.06 (io_trps.svl 2023.06)
