@<TRIPOS>MOLECULE
NONAME
44 47 1 0 0 
SMALL
USER_CHARGES


@<TRIPOS>ATOM
  1 CL      -2.1370    -0.0890    -1.5970 Cl    1 <1>  -0.1770 
  2 C       -1.0930     1.2040    -1.0510 C.ar  1 <1>   0.1770 
  3 C       -1.5700     2.1730    -0.1780 C.ar  1 <1>  -0.1440 
  4 C        0.2090     1.2230    -1.5240 C.ar  1 <1>  -0.1500 
  5 C       -0.6760     3.1660     0.1960 C.ar  1 <1>   0.1900 
  6 C       -3.0060     2.1260     0.3490 C.3   1 <1>   0.0450 
  7 C        1.0760     2.2290    -1.1280 C.ar  1 <1>  -0.1500 
  8 F       -1.0630     4.1140     1.0080 F     1 <1>  -0.1900 
  9 C        0.6300     3.2110    -0.2600 C.ar  1 <1>  -0.1500 
 10 C       -3.2230     0.9860     1.3400 C.2   1 <1>   0.5690 
 11 O       -2.3280     0.7440     2.1160 O.2   1 <1>  -0.5700 
 12 N       -4.3860     0.2510     1.3460 N.am  1 <1>  -0.6600 
 13 C       -4.4580    -1.0550     2.0560 C.3   1 <1>   0.1400 
 14 C       -5.6300     0.5530     0.5880 C.3   1 <1>   0.1400 
 15 C       -4.6160    -2.1600     1.0100 C.3   1 <1>  -0.1600 
 16 C       -5.8080    -0.5130    -0.4940 C.3   1 <1>  -0.1600 
 17 C       -5.8360    -1.9260     0.1100 C.3   1 <1>   0.4610 
 18 O       -6.9660    -2.0370     0.9580 O.3   1 <1>  -0.5600 
 19 C       -5.8970    -2.9900    -0.9880 C.2   1 <1>  -0.1810 
 20 C       -8.2230    -2.3050     0.3800 C.3   1 <1>   0.1200 
 21 C       -6.9810    -3.7590    -1.1460 C.2   1 <1>  -0.1400 
 22 C       -4.8600    -3.2840    -1.9350 C.2   1 <1>  -0.1500 
 23 C       -8.2370    -3.6730    -0.3210 C.3   1 <1>   0.0200 
 24 S       -6.7850    -4.9060    -2.4540 S.3   1 <1>  -0.0800 
 25 C       -5.1760    -4.2800    -2.7860 C.2   1 <1>  -0.1100 
 26 H        0.5390     0.4520    -2.1970 H     1 <1>   0.1500 
 27 H       -3.6530     2.0170    -0.4980 H     1 <1>   0.0800 
 28 H       -3.2680     3.0440     0.8400 H     1 <1>   0.0800 
 29 H        2.0900     2.2470    -1.4920 H     1 <1>   0.1500 
 30 H        1.2830     4.0020     0.0640 H     1 <1>   0.1500 
 31 H       -5.3000    -1.0530     2.7280 H     1 <1>   0.0800 
 32 H       -3.5680    -1.2290     2.6360 H     1 <1>   0.0800 
 33 H       -5.6030     1.5350     0.1540 H     1 <1>   0.0800 
 34 H       -6.4670     0.5220     1.2670 H     1 <1>   0.0800 
 35 H       -4.7110    -3.1140     1.4950 H     1 <1>   0.0800 
 36 H       -3.7220    -2.1870     0.4140 H     1 <1>   0.0800 
 37 H       -4.9890    -0.4420    -1.1850 H     1 <1>   0.0800 
 38 H       -6.7060    -0.3310    -1.0520 H     1 <1>   0.0800 
 39 H       -8.4500    -1.5230    -0.3220 H     1 <1>   0.0800 
 40 H       -8.9570    -2.2840     1.1660 H     1 <1>   0.0800 
 41 H       -3.9310    -2.7390    -1.9360 H     1 <1>   0.1500 
 42 H       -9.1050    -3.7530    -0.9480 H     1 <1>   0.0800 
 43 H       -8.2550    -4.4650     0.4040 H     1 <1>   0.0800 
 44 H       -4.6290    -4.7310    -3.5940 H     1 <1>   0.1500 
@<TRIPOS>BOND
  1   1   2  1   
  2   2   3  ar  
  3   2   4  ar  
  4   3   5  ar  
  5   3   6  1   
  6   4   7  ar  
  7   4  26  1   
  8   5   8  1   
  9   5   9  ar  
 10   6  10  1   
 11   6  27  1   
 12   6  28  1   
 13   7   9  ar  
 14   7  29  1   
 15   9  30  1   
 16  10  11  2   
 17  10  12  am  
 18  12  13  1   
 19  12  14  1   
 20  13  15  1   
 21  13  31  1   
 22  13  32  1   
 23  14  16  1   
 24  14  33  1   
 25  14  34  1   
 26  15  17  1   
 27  15  35  1   
 28  15  36  1   
 29  16  17  1   
 30  16  37  1   
 31  16  38  1   
 32  17  18  1   
 33  17  19  1   
 34  18  20  1   
 35  19  21  2   
 36  19  22  1   
 37  20  23  1   
 38  20  39  1   
 39  20  40  1   
 40  21  23  1   
 41  21  24  1   
 42  22  25  2   
 43  22  41  1   
 44  23  42  1   
 45  23  43  1   
 46  24  25  1   
 47  25  44  1   
@<TRIPOS>SUBSTRUCTURE
  1 ****  12 GROUP 4 **** **** 0

# MOE 2024.06 (io_trps.svl 2023.06)
