@<TRIPOS>MOLECULE
NONAME
50 51 1 0 0 
SMALL
USER_CHARGES


@<TRIPOS>ATOM
  1 CL      -0.0510     0.3440    -1.2280 Cl    1 <1>  -0.1770 
  2 C        0.8570     1.6550    -0.5180 C.ar  1 <1>   0.1770 
  3 C        0.7160     2.9310    -1.0260 C.ar  1 <1>  -0.1500 
  4 C        1.7030     1.3920     0.5440 C.ar  1 <1>  -0.1500 
  5 C        1.4340     3.9730    -0.4640 C.ar  1 <1>   0.0830 
  6 C        2.4230     2.4320     1.1070 C.ar  1 <1>  -0.1500 
  7 O        1.2490     5.2020    -1.0060 O.3   1 <1>  -0.3630 
  8 C        2.2910     3.7180     0.6070 C.ar  1 <1>  -0.1500 
  9 C        1.8910     6.3410    -0.4730 C.3   1 <1>   0.1200 
 10 C        1.4840     7.5600    -1.3010 C.3   1 <1>   0.1400 
 11 N        1.8930     8.8280    -0.6190 N.am  1 <1>  -0.6600 
 12 C        3.2260     9.1690    -0.5610 C.2   1 <1>   0.5690 
 13 C        0.7650     9.6730    -0.1440 C.3   1 <1>   0.1400 
 14 O        4.0610     8.4800    -1.1000 O.2   1 <1>  -0.5700 
 15 C        3.7020    10.4300     0.1780 C.3   1 <1>  -0.0190 
 16 C        0.3260     9.2080     1.2420 C.3   1 <1>  -0.2400 
 17 C        3.8440    11.6190    -0.7910 C.3   1 <1>  -0.1600 
 18 C        5.0230    10.2150     0.9630 C.3   1 <1>  -0.1600 
 19 C        4.1370    12.9430    -0.0540 C.3   1 <1>   0.2000 
 20 C        5.7500    11.5260     1.3290 C.3   1 <1>  -0.1600 
 21 O        4.9910    13.7200    -0.8570 O.3   1 <1>  -0.5600 
 22 C        4.8000    12.7270     1.3320 C.3   1 <1>   0.2000 
 23 C        4.3740    14.3860    -1.9140 C.3   1 <1>   0.0400 
 24 O        5.5280    13.8500     1.6670 O.3   1 <1>  -0.6800 
 25 H        0.0540     3.1150    -1.8520 H     1 <1>   0.1500 
 26 H        1.7930     0.3890     0.9200 H     1 <1>   0.1500 
 27 H        3.0870     2.2410     1.9330 H     1 <1>   0.1500 
 28 H        2.8650     4.5040     1.0610 H     1 <1>   0.1500 
 29 H        1.5730     6.4560     0.5480 H     1 <1>   0.0800 
 30 H        2.9550     6.1920    -0.5270 H     1 <1>   0.0800 
 31 H        0.4180     7.5470    -1.4450 H     1 <1>   0.0800 
 32 H        1.9600     7.5060    -2.2660 H     1 <1>   0.0800 
 33 H        1.0540    10.7090    -0.1120 H     1 <1>   0.0800 
 34 H       -0.0600     9.5980    -0.8330 H     1 <1>   0.0800 
 35 H        2.9610    10.6860     0.9100 H     1 <1>   0.0800 
 36 H        1.1470     9.2560     1.9340 H     1 <1>   0.0800 
 37 H       -0.0470     8.2010     1.1990 H     1 <1>   0.0800 
 38 H       -0.4620     9.8430     1.6030 H     1 <1>   0.0800 
 39 H        2.9430    11.7270    -1.3680 H     1 <1>   0.0800 
 40 H        4.6510    11.3970    -1.4700 H     1 <1>   0.0800 
 41 H        4.8000     9.6640     1.8600 H     1 <1>   0.0800 
 42 H        5.7060     9.6150     0.3850 H     1 <1>   0.0800 
 43 H        3.2230    13.4900     0.1050 H     1 <1>   0.0800 
 44 H        6.5200    11.7070     0.5980 H     1 <1>   0.0800 
 45 H        6.2170    11.4250     2.2930 H     1 <1>   0.0800 
 46 H        4.0490    12.5850     2.0890 H     1 <1>   0.0800 
 47 H        5.1250    14.9540    -2.4340 H     1 <1>   0.0800 
 48 H        3.6230    15.0520    -1.5260 H     1 <1>   0.0800 
 49 H        3.9370    13.6690    -2.5870 H     1 <1>   0.0800 
 50 H        5.8710    14.2090     0.8170 H     1 <1>   0.4000 
@<TRIPOS>BOND
  1   1   2  1   
  2   2   3  ar  
  3   2   4  ar  
  4   3   5  ar  
  5   3  25  1   
  6   4   6  ar  
  7   4  26  1   
  8   5   7  1   
  9   5   8  ar  
 10   6   8  ar  
 11   6  27  1   
 12   7   9  1   
 13   8  28  1   
 14   9  10  1   
 15   9  29  1   
 16   9  30  1   
 17  10  11  1   
 18  10  31  1   
 19  10  32  1   
 20  11  12  am  
 21  11  13  1   
 22  12  14  2   
 23  12  15  1   
 24  13  16  1   
 25  13  33  1   
 26  13  34  1   
 27  15  17  1   
 28  15  18  1   
 29  15  35  1   
 30  16  36  1   
 31  16  37  1   
 32  16  38  1   
 33  17  19  1   
 34  17  39  1   
 35  17  40  1   
 36  18  20  1   
 37  18  41  1   
 38  18  42  1   
 39  19  21  1   
 40  19  22  1   
 41  19  43  1   
 42  20  22  1   
 43  20  44  1   
 44  20  45  1   
 45  21  23  1   
 46  22  24  1   
 47  22  46  1   
 48  23  47  1   
 49  23  48  1   
 50  23  49  1   
 51  24  50  1   
@<TRIPOS>SUBSTRUCTURE
  1 ****  11 GROUP 4 **** **** 0

# MOE 2024.06 (io_trps.svl 2023.06)
