@<TRIPOS>MOLECULE
NONAME
44 46 1 0 0 
SMALL
USER_CHARGES


@<TRIPOS>ATOM
  1 S        3.1970    -0.5810     2.1550 S.3   1 <1>  -0.0800 
  2 C        1.9460    -1.1720     1.0630 C.2   1 <1>   0.2930 
  3 C        2.9160     1.0410     1.6200 C.2   1 <1>  -0.1100 
  4 N        1.4040    -0.2050     0.3910 N.2   1 <1>  -0.5650 
  5 C        1.6880    -2.6100     1.0520 C.2   1 <1>   0.7150 
  6 C        1.9420     1.0310     0.6960 C.2   1 <1>   0.0460 
  7 O        2.2970    -3.3490     1.8110 O.2   1 <1>  -0.5700 
  8 N        0.7660    -3.2050     0.2070 N.am  1 <1>  -0.6600 
  9 C        1.3700     2.2380    -0.0460 C.3   1 <1>   0.1010 
 10 C       -0.0850    -2.5060    -0.7880 C.3   1 <1>   0.1400 
 11 C        0.4750    -4.6600     0.2110 C.3   1 <1>   0.1400 
 12 C        1.7700     2.1940    -1.5270 C.3   1 <1>  -0.2400 
 13 C        1.8110     3.5730     0.5710 C.3   1 <1>  -0.2400 
 14 C       -0.9160    -3.6060    -1.4500 C.3   1 <1>   0.2000 
 15 C       -0.8800    -4.7910    -0.4860 C.3   1 <1>  -0.0800 
 16 O       -2.2270    -3.2030    -1.6540 O.3   1 <1>  -0.6800 
 17 C       -1.0960    -6.1380    -1.1960 C.3   1 <1>  -0.0170 
 18 C       -1.0700    -7.2980    -0.2150 C.ar  1 <1>   0.1670 
 19 N        0.1240    -7.7810     0.0910 N.ar  1 <1>  -0.6200 
 20 C       -2.2600    -7.7830     0.3060 C.ar  1 <1>  -0.1500 
 21 C        0.1330    -8.7860     0.9530 C.ar  1 <1>   0.1600 
 22 C       -2.2360    -8.8310     1.2020 C.ar  1 <1>  -0.1500 
 23 C       -0.9980    -9.3390     1.5290 C.ar  1 <1>  -0.1500 
 24 H        3.5090     1.8240     2.0530 H     1 <1>   0.1500 
 25 H        0.2970     2.1810     0.0190 H     1 <1>   0.0800 
 26 H       -0.7150    -1.7950    -0.2820 H     1 <1>   0.0800 
 27 H        0.5290    -2.0030    -1.5150 H     1 <1>   0.0800 
 28 H        1.2440    -5.1740    -0.3420 H     1 <1>   0.0800 
 29 H        0.4420    -5.0520     1.2140 H     1 <1>   0.0800 
 30 H        2.8400     2.2260    -1.6260 H     1 <1>   0.0800 
 31 H        1.3440     3.0270    -2.0570 H     1 <1>   0.0800 
 32 H        1.4120     1.2850    -1.9770 H     1 <1>   0.0800 
 33 H        2.8770     3.6910     0.4980 H     1 <1>   0.0800 
 34 H        1.5250     3.6120     1.6070 H     1 <1>   0.0800 
 35 H        1.3390     4.3920     0.0590 H     1 <1>   0.0800 
 36 H       -0.4860    -3.8620    -2.4040 H     1 <1>   0.0800 
 37 H       -1.6360    -4.6620     0.2690 H     1 <1>   0.0800 
 38 H       -2.6360    -2.9420    -0.8060 H     1 <1>   0.4000 
 39 H       -0.3320    -6.2910    -1.9380 H     1 <1>   0.0800 
 40 H       -2.0430    -6.1220    -1.7050 H     1 <1>   0.0800 
 41 H       -3.1980    -7.3470     0.0160 H     1 <1>   0.1500 
 42 H        1.0960    -9.1910     1.2150 H     1 <1>   0.1500 
 43 H       -3.1400    -9.2320     1.6260 H     1 <1>   0.1500 
 44 H       -0.9060   -10.1550     2.2210 H     1 <1>   0.1500 
@<TRIPOS>BOND
  1   1   2  1   
  2   1   3  1   
  3   2   4  2   
  4   2   5  1   
  5   3   6  2   
  6   3  24  1   
  7   4   6  1   
  8   5   7  2   
  9   5   8  am  
 10   6   9  1   
 11   8  10  1   
 12   8  11  1   
 13   9  12  1   
 14   9  13  1   
 15   9  25  1   
 16  10  14  1   
 17  10  26  1   
 18  10  27  1   
 19  11  15  1   
 20  11  28  1   
 21  11  29  1   
 22  12  30  1   
 23  12  31  1   
 24  12  32  1   
 25  13  33  1   
 26  13  34  1   
 27  13  35  1   
 28  14  15  1   
 29  14  16  1   
 30  14  36  1   
 31  15  17  1   
 32  15  37  1   
 33  16  38  1   
 34  17  18  1   
 35  17  39  1   
 36  17  40  1   
 37  18  19  ar  
 38  18  20  ar  
 39  19  21  ar  
 40  20  22  ar  
 41  20  41  1   
 42  21  23  ar  
 43  21  42  1   
 44  22  23  ar  
 45  22  43  1   
 46  23  44  1   
@<TRIPOS>SUBSTRUCTURE
  1 ****   8 GROUP 4 **** **** 0

# MOE 2024.06 (io_trps.svl 2023.06)
