@<TRIPOS>MOLECULE
NONAME
51 53 1 0 0 
SMALL
USER_CHARGES


@<TRIPOS>ATOM
  1 N       -1.4340    -2.2060     0.0380 N.ar  1 <1>  -0.6200 
  2 C       -2.3290    -2.0360    -0.9300 C.ar  1 <1>   0.1660 
  3 C       -1.7040    -1.5890     1.1800 C.ar  1 <1>   0.1600 
  4 C       -3.5120    -1.3340    -0.7700 C.ar  1 <1>  -0.1500 
  5 C       -2.0100    -2.6380    -2.2970 C.3   1 <1>   0.2540 
  6 C       -2.8540    -0.8580     1.4370 C.ar  1 <1>  -0.1440 
  7 C       -3.7960    -0.7350     0.4370 C.ar  1 <1>  -0.1500 
  8 N       -3.0520    -3.5790    -2.8010 N.3   1 <1>  -0.8100 
  9 C       -3.0750    -0.1920     2.7870 C.3   1 <1>  -0.0170 
 10 C       -3.1760    -4.9280    -2.1860 C.3   1 <1>   0.1900 
 11 C       -3.0070    -3.6620    -4.2700 C.3   1 <1>   0.0300 
 12 C       -2.4950     1.2230     2.7860 C.3   1 <1>  -0.2400 
 13 C       -3.6870    -4.9000    -0.7430 C.3   1 <1>   0.3430 
 14 C       -1.8500    -5.6770    -2.0790 C.3   1 <1>  -0.1600 
 15 N       -2.4790    -4.9270     0.1340 N.4   1 <1>  -0.9590 
 16 C       -1.3330    -5.4380    -0.6620 C.3   1 <1>   0.3430 
 17 C       -2.6750    -5.6140     1.4370 C.3   1 <1>   0.4860 
 18 C       -3.9500    -5.1260     2.0990 C.ar  1 <1>  -0.1430 
 19 C       -3.9700    -3.9160     2.7770 C.ar  1 <1>  -0.1500 
 20 C       -5.1090    -5.8880     2.0330 C.ar  1 <1>  -0.1500 
 21 C       -5.1370    -3.4640     3.3660 C.ar  1 <1>  -0.1500 
 22 C       -6.2760    -5.4350     2.6230 C.ar  1 <1>  -0.1500 
 23 C       -6.2910    -4.2220     3.2870 C.ar  1 <1>  -0.1500 
 24 H       -0.9650    -1.6670     1.9600 H     1 <1>   0.1500 
 25 H       -4.2030    -1.2500    -1.5920 H     1 <1>   0.1500 
 26 H       -1.0460    -3.1120    -2.2770 H     1 <1>   0.0800 
 27 H       -1.9310    -1.8090    -2.9790 H     1 <1>   0.0800 
 28 H       -4.7080    -0.1810     0.5830 H     1 <1>   0.1500 
 29 H       -4.1290    -0.1460     3.0010 H     1 <1>   0.0800 
 30 H       -2.6090    -0.7710     3.5650 H     1 <1>   0.0800 
 31 H       -3.8780    -5.4970    -2.7730 H     1 <1>   0.0800 
 32 H       -3.0900    -2.6770    -4.6990 H     1 <1>   0.0800 
 33 H       -3.8310    -4.2500    -4.6370 H     1 <1>   0.0800 
 34 H       -2.0840    -4.1080    -4.6010 H     1 <1>   0.0800 
 35 H       -2.9680     1.8190     2.0250 H     1 <1>   0.0800 
 36 H       -1.4370     1.1960     2.5930 H     1 <1>   0.0800 
 37 H       -2.6590     1.6910     3.7410 H     1 <1>   0.0800 
 38 H       -4.2780    -5.7820    -0.5680 H     1 <1>   0.0800 
 39 H       -4.2930    -4.0270    -0.5610 H     1 <1>   0.0800 
 40 H       -2.0350    -6.7310    -2.1910 H     1 <1>   0.0800 
 41 H       -1.1340    -5.3870    -2.8250 H     1 <1>   0.0800 
 42 H       -2.2680    -3.9250     0.3240 H     1 <1>   0.4500 
 43 H       -0.5520    -4.6940    -0.6770 H     1 <1>   0.0800 
 44 H       -0.9400    -6.3510    -0.2450 H     1 <1>   0.0800 
 45 H       -2.7430    -6.6780     1.2820 H     1 <1>   0.0800 
 46 H       -1.8350    -5.4190     2.0840 H     1 <1>   0.0800 
 47 H       -3.0810    -3.3180     2.8550 H     1 <1>   0.1500 
 48 H       -5.1200    -6.8380     1.5260 H     1 <1>   0.1500 
 49 H       -5.1510    -2.5230     3.8890 H     1 <1>   0.1500 
 50 H       -7.1750    -6.0250     2.5700 H     1 <1>   0.1500 
 51 H       -7.1990    -3.8700     3.7460 H     1 <1>   0.1500 
@<TRIPOS>BOND
  1   1   2  ar  
  2   1   3  ar  
  3   2   4  ar  
  4   2   5  1   
  5   3   6  ar  
  6   3  24  1   
  7   4   7  ar  
  8   4  25  1   
  9   5   8  1   
 10   5  26  1   
 11   5  27  1   
 12   6   7  ar  
 13   6   9  1   
 14   7  28  1   
 15   8  10  1   
 16   8  11  1   
 17   9  12  1   
 18   9  29  1   
 19   9  30  1   
 20  10  13  1   
 21  10  14  1   
 22  10  31  1   
 23  11  32  1   
 24  11  33  1   
 25  11  34  1   
 26  12  35  1   
 27  12  36  1   
 28  12  37  1   
 29  13  15  1   
 30  13  38  1   
 31  13  39  1   
 32  14  16  1   
 33  14  40  1   
 34  14  41  1   
 35  15  16  1   
 36  15  17  1   
 37  15  42  1   
 38  16  43  1   
 39  16  44  1   
 40  17  18  1   
 41  17  45  1   
 42  17  46  1   
 43  18  19  ar  
 44  18  20  ar  
 45  19  21  ar  
 46  19  47  1   
 47  20  22  ar  
 48  20  48  1   
 49  21  23  ar  
 50  21  49  1   
 51  22  23  ar  
 52  22  50  1   
 53  23  51  1   
@<TRIPOS>SUBSTRUCTURE
  1 ****  15 GROUP 4 **** **** 0

# MOE 2024.06 (io_trps.svl 2023.06)
