@<TRIPOS>MOLECULE
NONAME
48 50 1 0 0 
SMALL
USER_CHARGES


@<TRIPOS>ATOM
  1 S       -0.1220     0.3910     0.2030 S.o2  1 <1>   1.3330 
  2 O       -0.3070    -0.2450     1.4880 O.2   1 <1>  -0.6500 
  3 O       -0.6280     1.7280    -0.0090 O.2   1 <1>  -0.6500 
  4 N       -0.7990    -0.6260    -0.9760 N.am  1 <1>  -0.8490 
  5 C        1.6160     0.3910    -0.2380 C.3   1 <1>  -0.0550 
  6 C       -0.7080    -2.0500    -0.6390 C.3   1 <1>   0.1160 
  7 C       -2.1890    -0.2750    -1.2820 C.3   1 <1>   0.1160 
  8 C        2.4860     1.2950     0.6610 C.3   1 <1>  -0.0800 
  9 C        3.8880     1.4390     0.0950 C.3   1 <1>   0.2200 
 10 C        2.7700     0.6450     2.0170 C.3   1 <1>   0.1200 
 11 N        4.5090     2.6680     0.6370 N.am  1 <1>  -0.7300 
 12 C        4.5930     0.2110     0.6660 C.3   1 <1>   0.1200 
 13 O        3.9250    -0.1220     1.8490 O.3   1 <1>  -0.5600 
 14 C        4.9310     3.7430    -0.0870 C.2   1 <1>   0.7150 
 15 O        4.7760     3.7150    -1.2940 O.2   1 <1>  -0.5700 
 16 C        5.5460     4.8690     0.5760 C.2   1 <1>  -0.0450 
 17 S        5.6480     4.8390     2.3430 S.3   1 <1>  -0.0800 
 18 C        6.0880     6.0370     0.1310 C.2   1 <1>  -0.1810 
 19 C        6.4210     6.4030     2.4020 C.2   1 <1>  -0.1100 
 20 C        6.5880     6.8960     1.1620 C.2   1 <1>  -0.1810 
 21 C        6.1420     6.4570    -1.3350 C.3   1 <1>   0.0210 
 22 C        7.2610     8.2230     0.8520 C.3   1 <1>   0.0210 
 23 C        7.1000     7.6290    -1.5870 C.3   1 <1>  -0.1600 
 24 C        6.8980     8.7360    -0.5450 C.3   1 <1>  -0.1600 
 25 H        1.9930    -0.6120    -0.2090 H     1 <1>   0.0800 
 26 H        1.6950     0.7410    -1.2500 H     1 <1>   0.0800 
 27 H       -1.0640    -2.6490    -1.4600 H     1 <1>   0.0800 
 28 H       -1.2980    -2.2690     0.2370 H     1 <1>   0.0800 
 29 H        0.3150    -2.3210    -0.4400 H     1 <1>   0.0800 
 30 H       -2.5810    -0.9280    -2.0420 H     1 <1>   0.0800 
 31 H       -2.2430     0.7370    -1.6490 H     1 <1>   0.0800 
 32 H       -2.7980    -0.3530    -0.3960 H     1 <1>   0.0800 
 33 H        2.0060     2.2530     0.7690 H     1 <1>   0.0800 
 34 H        3.9120     1.4490    -0.9820 H     1 <1>   0.0800 
 35 H        1.9780     0.0100     2.3740 H     1 <1>   0.0800 
 36 H        2.9840     1.3940     2.7590 H     1 <1>   0.0800 
 37 H        4.6760     2.6730     1.6450 H     1 <1>   0.3700 
 38 H        5.6320     0.3930     0.8770 H     1 <1>   0.0800 
 39 H        4.5000    -0.6250    -0.0040 H     1 <1>   0.0800 
 40 H        6.6810     6.7930     3.3690 H     1 <1>   0.1500 
 41 H        6.4360     5.6220    -1.9470 H     1 <1>   0.0800 
 42 H        5.1500     6.7480    -1.6340 H     1 <1>   0.0800 
 43 H        6.9890     8.9540     1.5930 H     1 <1>   0.0800 
 44 H        8.3260     8.0800     0.9040 H     1 <1>   0.0800 
 45 H        8.1150     7.2720    -1.5380 H     1 <1>   0.0800 
 46 H        6.9320     8.0190    -2.5760 H     1 <1>   0.0800 
 47 H        5.8690     9.0550    -0.5530 H     1 <1>   0.0800 
 48 H        7.5130     9.5850    -0.7870 H     1 <1>   0.0800 
@<TRIPOS>BOND
  1   1   2  2   
  2   1   3  2   
  3   1   4  am  
  4   1   5  1   
  5   4   6  1   
  6   4   7  1   
  7   5   8  1   
  8   5  25  1   
  9   5  26  1   
 10   6  27  1   
 11   6  28  1   
 12   6  29  1   
 13   7  30  1   
 14   7  31  1   
 15   7  32  1   
 16   8   9  1   
 17   8  10  1   
 18   8  33  1   
 19   9  11  1   
 20   9  12  1   
 21   9  34  1   
 22  10  13  1   
 23  10  35  1   
 24  10  36  1   
 25  11  14  am  
 26  11  37  1   
 27  12  13  1   
 28  12  38  1   
 29  12  39  1   
 30  14  15  2   
 31  14  16  1   
 32  16  17  1   
 33  16  18  2   
 34  17  19  1   
 35  18  20  1   
 36  18  21  1   
 37  19  20  2   
 38  19  40  1   
 39  20  22  1   
 40  21  23  1   
 41  21  41  1   
 42  21  42  1   
 43  22  24  1   
 44  22  43  1   
 45  22  44  1   
 46  23  24  1   
 47  23  45  1   
 48  23  46  1   
 49  24  47  1   
 50  24  48  1   
@<TRIPOS>SUBSTRUCTURE
  1 ****  11 GROUP 4 **** **** 0

# MOE 2024.06 (io_trps.svl 2023.06)
