@<TRIPOS>MOLECULE
NONAME
49 50 1 0 0 
SMALL
USER_CHARGES


@<TRIPOS>ATOM
  1 O       -0.6890     0.7900     0.6350 O.2   1 <1>  -0.5700 
  2 C       -0.5480     1.9610     0.3950 C.2   1 <1>   0.5690 
  3 N       -1.3930     2.8780     0.9160 N.am  1 <1>  -0.7300 
  4 C        0.5810     2.4270    -0.5310 C.3   1 <1>   0.1810 
  5 C       -1.2870     4.3340     0.6570 C.3   1 <1>   0.3640 
  6 O        0.8640     3.8040    -0.4010 O.3   1 <1>  -0.5600 
  7 C       -2.6740     4.8870     0.3480 C.ar  1 <1>  -0.1440 
  8 C       -0.2830     4.6420    -0.4800 C.3   1 <1>   0.2610 
  9 C       -3.0910     6.0610     0.9540 C.ar  1 <1>  -0.1500 
 10 C       -3.5320     4.2490    -0.5370 C.ar  1 <1>  -0.1500 
 11 C        0.0680     6.1370    -0.4680 C.2   1 <1>   0.5690 
 12 C       -4.3380     6.6020     0.6900 C.ar  1 <1>   0.0830 
 13 C       -4.7860     4.7710    -0.8020 C.ar  1 <1>  -0.1500 
 14 O       -0.4470     6.8140    -1.3290 O.2   1 <1>  -0.5700 
 15 N        0.8990     6.7110     0.4770 N.am  1 <1>  -0.6600 
 16 O       -4.6220     7.7650     1.3360 O.3   1 <1>  -0.3620 
 17 C       -5.2120     5.9470    -0.1900 C.ar  1 <1>   0.0830 
 18 C        1.1460     8.1800     0.4590 C.3   1 <1>   0.1400 
 19 C        1.7220     5.9530     1.4660 C.3   1 <1>   0.0600 
 20 C       -5.1900     8.8330     0.6100 C.3   1 <1>   0.0400 
 21 O       -6.4560     6.4640    -0.4110 O.3   1 <1>  -0.3630 
 22 C        2.4100     8.4910    -0.3460 C.3   1 <1>  -0.1600 
 23 C       -7.4150     5.7920    -1.1970 C.3   1 <1>   0.0400 
 24 C        2.6510     9.9980    -0.3990 C.3   1 <1>   0.1200 
 25 O        3.7980    10.2350    -1.1300 O.3   1 <1>  -0.6800 
 26 H       -2.1610     2.5630     1.5110 H     1 <1>   0.3700 
 27 H        0.3120     2.2310    -1.5530 H     1 <1>   0.0800 
 28 H        1.4800     1.8850    -0.2990 H     1 <1>   0.0800 
 29 H       -0.9340     4.7990     1.5600 H     1 <1>   0.0800 
 30 H       -0.7570     4.4370    -1.4230 H     1 <1>   0.0800 
 31 H       -2.4490     6.5870     1.6380 H     1 <1>   0.1500 
 32 H       -3.2310     3.3380    -1.0250 H     1 <1>   0.1500 
 33 H       -5.4150     4.2400    -1.4910 H     1 <1>   0.1500 
 34 H        0.3040     8.6850     0.0150 H     1 <1>   0.0800 
 35 H        1.2460     8.5420     1.4680 H     1 <1>   0.0800 
 36 H        1.8440     6.5300     2.3660 H     1 <1>   0.0800 
 37 H        2.6910     5.7510     1.0440 H     1 <1>   0.0800 
 38 H        1.2620     5.0190     1.7280 H     1 <1>   0.0800 
 39 H       -4.9510     9.7480     1.1190 H     1 <1>   0.0800 
 40 H       -6.2560     8.7040     0.5770 H     1 <1>   0.0800 
 41 H       -4.7770     8.8440    -0.3840 H     1 <1>   0.0800 
 42 H        2.2800     8.1220    -1.3490 H     1 <1>   0.0800 
 43 H        3.2530     8.0070     0.1100 H     1 <1>   0.0800 
 44 H       -8.3210     6.3700    -1.1840 H     1 <1>   0.0800 
 45 H       -7.5960     4.8200    -0.7710 H     1 <1>   0.0800 
 46 H       -7.0470     5.7120    -2.2040 H     1 <1>   0.0800 
 47 H        2.7870    10.4100     0.5870 H     1 <1>   0.0800 
 48 H        1.8360    10.5030    -0.8900 H     1 <1>   0.0800 
 49 H        4.5550     9.7440    -0.7560 H     1 <1>   0.4000 
@<TRIPOS>BOND
  1   1   2  2   
  2   2   3  am  
  3   2   4  1   
  4   3   5  1   
  5   3  26  1   
  6   4   6  1   
  7   4  27  1   
  8   4  28  1   
  9   5   7  1   
 10   5   8  1   
 11   5  29  1   
 12   6   8  1   
 13   7   9  ar  
 14   7  10  ar  
 15   8  11  1   
 16   8  30  1   
 17   9  12  ar  
 18   9  31  1   
 19  10  13  ar  
 20  10  32  1   
 21  11  14  2   
 22  11  15  am  
 23  12  16  1   
 24  12  17  ar  
 25  13  17  ar  
 26  13  33  1   
 27  15  18  1   
 28  15  19  1   
 29  16  20  1   
 30  17  21  1   
 31  18  22  1   
 32  18  34  1   
 33  18  35  1   
 34  19  36  1   
 35  19  37  1   
 36  19  38  1   
 37  20  39  1   
 38  20  40  1   
 39  20  41  1   
 40  21  23  1   
 41  22  24  1   
 42  22  42  1   
 43  22  43  1   
 44  23  44  1   
 45  23  45  1   
 46  23  46  1   
 47  24  25  1   
 48  24  47  1   
 49  24  48  1   
 50  25  49  1   
@<TRIPOS>SUBSTRUCTURE
  1 ****   7 GROUP 4 **** **** 0

# MOE 2024.06 (io_trps.svl 2023.06)
