@<TRIPOS>MOLECULE
NONAME
62 64 1 0 0 
SMALL
USER_CHARGES


@<TRIPOS>ATOM
  1 N        2.0930     0.1490    -0.8130 N.2   1 <1>  -0.7070 
  2 N        2.5980    -0.5750     0.2060 N.pl3 1 <1>   0.3140 
  3 C        0.8350    -0.1250    -0.8530 C.2   1 <1>   0.1080 
  4 C        1.6240    -1.3220     0.7860 C.2   1 <1>  -0.3320 
  5 C        4.0440    -0.4990     0.5860 C.3   1 <1>   0.1760 
  6 C        0.4770    -1.0550     0.1170 C.2   1 <1>  -0.1810 
  7 C       -0.0620     0.5460    -1.8730 C.3   1 <1>  -0.0590 
  8 C        1.8600    -2.2520     1.9690 C.3   1 <1>  -0.0600 
  9 C        4.4200     0.9280     1.0070 C.3   1 <1>  -0.2400 
 10 C        4.9340    -0.9790    -0.5690 C.3   1 <1>  -0.2400 
 11 C       -0.9040    -1.6260     0.3270 C.3   1 <1>   0.5240 
 12 N       -1.1630    -2.6020    -0.7730 N.4   1 <1>  -0.9590 
 13 C       -2.5670    -3.0710    -0.9280 C.3   1 <1>   0.4230 
 14 C       -0.2110    -3.7550    -0.6780 C.3   1 <1>   0.2630 
 15 C       -3.5460    -1.9550    -1.2900 C.3   1 <1>  -0.1600 
 16 C       -3.1690    -3.7060     0.3260 C.3   1 <1>  -0.1600 
 17 C       -4.9260    -2.5350    -0.9380 C.3   1 <1>  -0.0800 
 18 C       -4.6860    -3.6500     0.0840 C.3   1 <1>  -0.0800 
 19 C       -5.9120    -1.5610    -0.2730 C.3   1 <1>  -0.1600 
 20 C       -5.5460    -3.2920     1.3080 C.3   1 <1>  -0.1600 
 21 C       -6.6650    -2.3840     0.7810 C.3   1 <1>   0.4230 
 22 N       -7.7670    -3.1870     0.1580 N.4   1 <1>  -0.9590 
 23 C       -8.8190    -2.3280    -0.4790 C.3   1 <1>   0.2630 
 24 C       -8.4490    -4.0910     1.1430 C.3   1 <1>   0.2630 
 25 H        4.2050    -1.1490     1.4260 H     1 <1>   0.0800 
 26 H       -1.0950     0.4920    -1.5870 H     1 <1>   0.0800 
 27 H        0.0760     0.0860    -2.8340 H     1 <1>   0.0800 
 28 H        0.2150     1.5820    -1.9540 H     1 <1>   0.0800 
 29 H        0.9510    -2.7400     2.2700 H     1 <1>   0.0800 
 30 H        2.2310    -1.6900     2.8090 H     1 <1>   0.0800 
 31 H        2.5830    -3.0060     1.7130 H     1 <1>   0.0800 
 32 H        4.2900     1.6070     0.1820 H     1 <1>   0.0800 
 33 H        5.4470     0.9650     1.3220 H     1 <1>   0.0800 
 34 H        3.7990     1.2490     1.8240 H     1 <1>   0.0800 
 35 H        4.8110    -0.3390    -1.4250 H     1 <1>   0.0800 
 36 H        4.6770    -1.9860    -0.8440 H     1 <1>   0.0800 
 37 H        5.9680    -0.9590    -0.2740 H     1 <1>   0.0800 
 38 H       -1.6200    -0.8230     0.3080 H     1 <1>   0.0800 
 39 H       -0.9560    -2.1150     1.2850 H     1 <1>   0.0800 
 40 H       -0.9010    -2.0940    -1.6280 H     1 <1>   0.4500 
 41 H       -2.6060    -3.8030    -1.7200 H     1 <1>   0.0800 
 42 H       -0.3750    -4.3070     0.2330 H     1 <1>   0.0800 
 43 H        0.8080    -3.4000    -0.6840 H     1 <1>   0.0800 
 44 H       -0.3410    -4.4210    -1.5160 H     1 <1>   0.0800 
 45 H       -3.3600    -1.0730    -0.7050 H     1 <1>   0.0800 
 46 H       -3.4880    -1.7080    -2.3360 H     1 <1>   0.0800 
 47 H       -2.8390    -4.7230     0.4520 H     1 <1>   0.0800 
 48 H       -2.9160    -3.1380     1.2020 H     1 <1>   0.0800 
 49 H       -5.3740    -2.9640    -1.8210 H     1 <1>   0.0800 
 50 H       -5.0200    -4.5850    -0.3380 H     1 <1>   0.0800 
 51 H       -6.5410    -1.0640    -0.9880 H     1 <1>   0.0800 
 52 H       -5.3680    -0.7970     0.2540 H     1 <1>   0.0800 
 53 H       -4.9660    -2.7080     2.0010 H     1 <1>   0.0800 
 54 H       -5.8860    -4.1630     1.8370 H     1 <1>   0.0800 
 55 H       -7.0610    -1.7540     1.5630 H     1 <1>   0.0800 
 56 H       -7.3430    -3.7720    -0.5740 H     1 <1>   0.4500 
 57 H       -9.2380    -1.6470     0.2450 H     1 <1>   0.0800 
 58 H       -9.6150    -2.9410    -0.8710 H     1 <1>   0.0800 
 59 H       -8.4080    -1.7560    -1.2930 H     1 <1>   0.0800 
 60 H       -8.8440    -3.5190     1.9670 H     1 <1>   0.0800 
 61 H       -7.7630    -4.8260     1.5300 H     1 <1>   0.0800 
 62 H       -9.2630    -4.6140     0.6680 H     1 <1>   0.0800 
@<TRIPOS>BOND
  1   1   2  1   
  2   1   3  2   
  3   2   4  1   
  4   2   5  1   
  5   3   6  1   
  6   3   7  1   
  7   4   6  2   
  8   4   8  1   
  9   5   9  1   
 10   5  10  1   
 11   5  25  1   
 12   6  11  1   
 13   7  26  1   
 14   7  27  1   
 15   7  28  1   
 16   8  29  1   
 17   8  30  1   
 18   8  31  1   
 19   9  32  1   
 20   9  33  1   
 21   9  34  1   
 22  10  35  1   
 23  10  36  1   
 24  10  37  1   
 25  11  12  1   
 26  11  38  1   
 27  11  39  1   
 28  12  13  1   
 29  12  14  1   
 30  12  40  1   
 31  13  15  1   
 32  13  16  1   
 33  13  41  1   
 34  14  42  1   
 35  14  43  1   
 36  14  44  1   
 37  15  17  1   
 38  15  45  1   
 39  15  46  1   
 40  16  18  1   
 41  16  47  1   
 42  16  48  1   
 43  17  18  1   
 44  17  19  1   
 45  17  49  1   
 46  18  20  1   
 47  18  50  1   
 48  19  21  1   
 49  19  51  1   
 50  19  52  1   
 51  20  21  1   
 52  20  53  1   
 53  20  54  1   
 54  21  22  1   
 55  21  55  1   
 56  22  23  1   
 57  22  24  1   
 58  22  56  1   
 59  23  57  1   
 60  23  58  1   
 61  23  59  1   
 62  24  60  1   
 63  24  61  1   
 64  24  62  1   
@<TRIPOS>SUBSTRUCTURE
  1 ****  11 GROUP 4 **** **** 0

# MOE 2024.06 (io_trps.svl 2023.06)
