@<TRIPOS>MOLECULE
NONAME
46 47 1 0 0 
SMALL
USER_CHARGES


@<TRIPOS>ATOM
  1 CL      -1.5420    -2.1430     0.4060 Cl    1 <1>  -0.1770 
  2 C       -2.0420    -0.4700     0.4830 C.ar  1 <1>   0.1770 
  3 C       -3.0140     0.0020    -0.3870 C.ar  1 <1>  -0.1440 
  4 C       -1.4490     0.3470     1.4240 C.ar  1 <1>  -0.1500 
  5 C       -3.3890     1.3420    -0.3150 C.ar  1 <1>  -0.1440 
  6 C       -3.6330    -0.9590    -1.3860 C.3   1 <1>   0.4870 
  7 C       -1.8300     1.6740     1.4990 C.ar  1 <1>  -0.1500 
  8 C       -2.7920     2.1640     0.6320 C.ar  1 <1>  -0.1500 
  9 C       -4.4300     1.9450    -1.2510 C.3   1 <1>  -0.0970 
 10 N       -4.5450    -1.9010    -0.6930 N.4   1 <1>  -0.9590 
 11 C       -5.1210    -2.9360    -1.6060 C.3   1 <1>   0.3430 
 12 C       -5.5910    -1.2520     0.1540 C.3   1 <1>   0.3430 
 13 C       -5.7630    -4.0400    -0.7560 C.3   1 <1>   0.2000 
 14 C       -6.2990    -2.3130     0.9970 C.3   1 <1>  -0.1600 
 15 O       -4.7400    -4.5470     0.0440 O.3   1 <1>  -0.6800 
 16 C       -6.8910    -3.4710     0.1390 C.3   1 <1>  -0.1060 
 17 C       -7.3290    -4.6500     1.0260 C.2   1 <1>   0.9060 
 18 C       -8.0560    -2.9450    -0.7670 C.3   1 <1>  -0.1600 
 19 O       -8.3860    -5.2400     0.8030 O.co2 1 <1>  -0.9000 
 20 O       -6.5260    -5.0440     1.8830 O.co2 1 <1>  -0.9000 
 21 C       -9.2360    -2.2970    -0.0190 C.3   1 <1>  -0.1600 
 22 C      -10.3700    -1.9490    -0.9870 C.3   1 <1>  -0.2400 
 23 H       -0.6990    -0.0480     2.0870 H     1 <1>   0.1500 
 24 H       -2.8470    -1.5110    -1.8760 H     1 <1>   0.0800 
 25 H       -4.1760    -0.4100    -2.1360 H     1 <1>   0.0800 
 26 H       -1.3760     2.3260     2.2270 H     1 <1>   0.1500 
 27 H       -3.0680     3.2030     0.7030 H     1 <1>   0.1500 
 28 H       -4.5840     2.9870    -1.0310 H     1 <1>   0.0800 
 29 H       -5.3740     1.4430    -1.1460 H     1 <1>   0.0800 
 30 H       -4.0990     1.8720    -2.2720 H     1 <1>   0.0800 
 31 H       -3.9800    -2.4740    -0.0370 H     1 <1>   0.4500 
 32 H       -5.8520    -2.4990    -2.2630 H     1 <1>   0.0800 
 33 H       -4.3440    -3.3810    -2.2050 H     1 <1>   0.0800 
 34 H       -5.1380    -0.5270     0.8120 H     1 <1>   0.0800 
 35 H       -6.3090    -0.7460    -0.4700 H     1 <1>   0.0800 
 36 H       -6.1370    -4.8440    -1.3680 H     1 <1>   0.0800 
 37 H       -5.5860    -2.7050     1.7020 H     1 <1>   0.0800 
 38 H       -7.0670    -1.8560     1.5920 H     1 <1>   0.0800 
 39 H       -5.1840    -4.9610     0.8520 H     1 <1>   0.4000 
 40 H       -7.7010    -2.2290    -1.4840 H     1 <1>   0.0800 
 41 H       -8.4430    -3.7830    -1.3250 H     1 <1>   0.0800 
 42 H       -9.6140    -2.9790     0.7250 H     1 <1>   0.0800 
 43 H       -8.9270    -1.3970     0.4810 H     1 <1>   0.0800 
 44 H      -10.7320    -2.8410    -1.4690 H     1 <1>   0.0800 
 45 H      -10.0350    -1.2560    -1.7380 H     1 <1>   0.0800 
 46 H      -11.1870    -1.5030    -0.4470 H     1 <1>   0.0800 
@<TRIPOS>BOND
  1   1   2  1   
  2   2   3  ar  
  3   2   4  ar  
  4   3   5  ar  
  5   3   6  1   
  6   4   7  ar  
  7   4  23  1   
  8   5   8  ar  
  9   5   9  1   
 10   6  10  1   
 11   6  24  1   
 12   6  25  1   
 13   7   8  ar  
 14   7  26  1   
 15   8  27  1   
 16   9  28  1   
 17   9  29  1   
 18   9  30  1   
 19  10  11  1   
 20  10  12  1   
 21  10  31  1   
 22  11  13  1   
 23  11  32  1   
 24  11  33  1   
 25  12  14  1   
 26  12  34  1   
 27  12  35  1   
 28  13  15  1   
 29  13  16  1   
 30  13  36  1   
 31  14  16  1   
 32  14  37  1   
 33  14  38  1   
 34  15  39  1   
 35  16  17  1   
 36  16  18  1   
 37  17  19  ar  
 38  17  20  ar  
 39  18  21  1   
 40  18  40  1   
 41  18  41  1   
 42  21  22  1   
 43  21  42  1   
 44  21  43  1   
 45  22  44  1   
 46  22  45  1   
 47  22  46  1   
@<TRIPOS>SUBSTRUCTURE
  1 ****  12 GROUP 4 **** **** 0

# MOE 2024.06 (io_trps.svl 2023.06)
