@<TRIPOS>MOLECULE
NONAME
52 54 1 0 0 
SMALL
USER_CHARGES


@<TRIPOS>ATOM
  1 CL      -2.7290     2.0610    -1.2380 Cl    1 <1>  -0.1770 
  2 C       -1.3660     1.4090    -0.3600 C.ar  1 <1>   0.1770 
  3 C       -1.5090     0.9470     0.9430 C.ar  1 <1>  -0.1440 
  4 C       -0.1470     1.3720    -1.0200 C.ar  1 <1>  -0.1500 
  5 C       -0.3640     0.4440     1.5470 C.ar  1 <1>   0.1900 
  6 C       -2.8460     0.9620     1.6880 C.3   1 <1>   0.0440 
  7 C        0.9730     0.8610    -0.3860 C.ar  1 <1>  -0.1500 
  8 F       -0.4240     0.0010     2.7740 F     1 <1>  -0.1900 
  9 C        0.8640     0.3910     0.9120 C.ar  1 <1>  -0.1500 
 10 C       -3.5360    -0.3920     1.6050 C.2   1 <1>   0.5690 
 11 O       -3.5700    -1.0810     2.5970 O.2   1 <1>  -0.5700 
 12 N       -4.0970    -0.8090     0.4310 N.am  1 <1>  -0.6600 
 13 C       -4.0160    -2.2710     0.1010 C.3   1 <1>   0.3640 
 14 C       -5.2230    -0.0410    -0.1690 C.3   1 <1>   0.1400 
 15 C       -2.5300    -2.6410     0.0260 C.ar  1 <1>  -0.1430 
 16 C       -4.7150    -2.6860    -1.2320 C.3   1 <1>   0.2000 
 17 C       -5.5340    -0.5160    -1.5880 C.3   1 <1>   0.1200 
 18 C       -2.0050    -3.5920     0.8890 C.ar  1 <1>  -0.1500 
 19 C       -1.6870    -2.0280    -0.8930 C.ar  1 <1>  -0.1500 
 20 O       -5.8160    -1.8780    -1.5570 O.3   1 <1>  -0.5600 
 21 C       -5.2350    -4.1340    -1.2090 C.3   1 <1>   0.1200 
 22 C       -0.6660    -3.9380     0.8330 C.ar  1 <1>   0.0830 
 23 C       -0.3440    -2.3570    -0.9450 C.ar  1 <1>  -0.1500 
 24 O       -4.2410    -5.0410    -0.8530 O.3   1 <1>  -0.6800 
 25 O       -0.2350    -4.9140     1.6660 O.3   1 <1>  -0.3630 
 26 C        0.1830    -3.2960    -0.0760 C.ar  1 <1>   0.0830 
 27 C       -0.0360    -6.1730     1.0660 C.3   1 <1>   0.0400 
 28 O        1.5180    -3.5310    -0.1590 O.3   1 <1>  -0.3630 
 29 C        2.2690    -3.4370     1.0330 C.3   1 <1>   0.0400 
 30 H       -0.0790     1.7420    -2.0280 H     1 <1>   0.1500 
 31 H       -3.4930     1.7270     1.3100 H     1 <1>   0.0800 
 32 H       -2.6760     1.1900     2.7250 H     1 <1>   0.0800 
 33 H        1.9210     0.8270    -0.8960 H     1 <1>   0.1500 
 34 H        1.7150    -0.0140     1.4280 H     1 <1>   0.1500 
 35 H       -4.4760    -2.8190     0.9060 H     1 <1>   0.0800 
 36 H       -6.1000    -0.1740     0.4400 H     1 <1>   0.0800 
 37 H       -4.9920     1.0070    -0.1920 H     1 <1>   0.0800 
 38 H       -4.0200    -2.5940    -2.0460 H     1 <1>   0.0800 
 39 H       -4.7050    -0.3350    -2.2520 H     1 <1>   0.0800 
 40 H       -6.4030    -0.0090    -1.9680 H     1 <1>   0.0800 
 41 H       -2.6350    -4.0760     1.6140 H     1 <1>   0.1500 
 42 H       -2.0710    -1.2800    -1.5640 H     1 <1>   0.1500 
 43 H       -5.6010    -4.4080    -2.1830 H     1 <1>   0.0800 
 44 H       -6.0300    -4.2290    -0.4910 H     1 <1>   0.0800 
 45 H        0.3070    -1.8750    -1.6520 H     1 <1>   0.1500 
 46 H       -3.4390    -4.9270    -1.4020 H     1 <1>   0.4000 
 47 H        0.2930    -6.8590     1.8250 H     1 <1>   0.0800 
 48 H        0.7120    -6.0820     0.2990 H     1 <1>   0.0800 
 49 H       -0.9690    -6.5060     0.6450 H     1 <1>   0.0800 
 50 H        3.2960    -3.2620     0.7700 H     1 <1>   0.0800 
 51 H        2.1850    -4.3590     1.5770 H     1 <1>   0.0800 
 52 H        1.8930    -2.6190     1.6230 H     1 <1>   0.0800 
@<TRIPOS>BOND
  1   1   2  1   
  2   2   3  ar  
  3   2   4  ar  
  4   3   5  ar  
  5   3   6  1   
  6   4   7  ar  
  7   4  30  1   
  8   5   8  1   
  9   5   9  ar  
 10   6  10  1   
 11   6  31  1   
 12   6  32  1   
 13   7   9  ar  
 14   7  33  1   
 15   9  34  1   
 16  10  11  2   
 17  10  12  am  
 18  12  13  1   
 19  12  14  1   
 20  13  15  1   
 21  13  16  1   
 22  13  35  1   
 23  14  17  1   
 24  14  36  1   
 25  14  37  1   
 26  15  18  ar  
 27  15  19  ar  
 28  16  20  1   
 29  16  21  1   
 30  16  38  1   
 31  17  20  1   
 32  17  39  1   
 33  17  40  1   
 34  18  22  ar  
 35  18  41  1   
 36  19  23  ar  
 37  19  42  1   
 38  21  24  1   
 39  21  43  1   
 40  21  44  1   
 41  22  25  1   
 42  22  26  ar  
 43  23  26  ar  
 44  23  45  1   
 45  24  46  1   
 46  25  27  1   
 47  26  28  1   
 48  27  47  1   
 49  27  48  1   
 50  27  49  1   
 51  28  29  1   
 52  29  50  1   
 53  29  51  1   
 54  29  52  1   
@<TRIPOS>SUBSTRUCTURE
  1 ****  15 GROUP 4 **** **** 0

# MOE 2024.06 (io_trps.svl 2023.06)
