@<TRIPOS>MOLECULE
NONAME
44 46 1 0 0 
SMALL
USER_CHARGES


@<TRIPOS>ATOM
  1 S       -0.3370    -0.9060    -0.8210 S.o2  1 <1>   1.4470 
  2 O       -1.0080    -2.1280    -0.4370 O.2   1 <1>  -0.6500 
  3 O        0.0420    -0.7080    -2.2040 O.2   1 <1>  -0.6500 
  4 N       -1.3630     0.3810    -0.4060 N.am  1 <1>  -0.8490 
  5 C        1.0940    -0.6470     0.2660 C.ar  1 <1>  -0.0090 
  6 C       -2.7470     0.1320    -0.8570 C.3   1 <1>   0.1960 
  7 C       -0.8730     1.6630    -0.9280 C.3   1 <1>   0.1960 
  8 C        2.3890    -0.5990    -0.2400 C.ar  1 <1>  -0.1500 
  9 C        0.9260    -0.4890     1.6350 C.ar  1 <1>  -0.1500 
 10 C       -3.7270     1.2250    -0.3540 C.3   1 <1>   0.0000 
 11 C       -1.7440     2.8160    -0.4200 C.3   1 <1>  -0.1600 
 12 C        3.4960    -0.3960     0.5790 C.ar  1 <1>  -0.1440 
 13 C        2.0090    -0.2820     2.4690 C.ar  1 <1>  -0.1500 
 14 C       -3.9860     1.1330     1.1670 C.3   1 <1>   0.2000 
 15 C       -3.2190     2.6140    -0.7950 C.3   1 <1>  -0.1600 
 16 C       -5.1280     0.9510    -0.9190 C.3   1 <1>  -0.1600 
 17 C        3.2870    -0.2340     1.9450 C.ar  1 <1>  -0.1500 
 18 C        4.9070    -0.3450    -0.0310 C.3   1 <1>   1.1640 
 19 O       -2.8420     0.8150     1.8690 O.3   1 <1>  -0.6800 
 20 C       -5.0370     0.0400     1.3560 C.3   1 <1>  -0.1600 
 21 C       -5.7460    -0.1060     0.0030 C.3   1 <1>  -0.1600 
 22 F        5.1140    -1.3230    -0.9040 F     1 <1>  -0.3400 
 23 F        5.1220     0.7890    -0.6830 F     1 <1>  -0.3400 
 24 F        5.8750    -0.4450     0.8730 F     1 <1>  -0.3400 
 25 H       -2.7660     0.0920    -1.9340 H     1 <1>   0.0800 
 26 H       -3.0780    -0.8260    -0.4910 H     1 <1>   0.0800 
 27 H        0.1430     1.8250    -0.6050 H     1 <1>   0.0800 
 28 H       -0.8830     1.6510    -2.0060 H     1 <1>   0.0800 
 29 H        2.5290    -0.7250    -1.3030 H     1 <1>   0.1500 
 30 H       -0.0670    -0.5270     2.0550 H     1 <1>   0.1500 
 31 H       -1.6380     2.8950     0.6480 H     1 <1>   0.0800 
 32 H       -1.3910     3.7390    -0.8470 H     1 <1>   0.0800 
 33 H        1.8540    -0.1600     3.5280 H     1 <1>   0.1500 
 34 H       -4.3630     2.0680     1.5450 H     1 <1>   0.0800 
 35 H       -3.3160     2.6990    -1.8630 H     1 <1>   0.0800 
 36 H       -3.8160     3.3910    -0.3490 H     1 <1>   0.0800 
 37 H       -5.7230     1.8470    -0.8560 H     1 <1>   0.0800 
 38 H       -5.1090     0.6270    -1.9450 H     1 <1>   0.0800 
 39 H        4.1160    -0.0710     2.6140 H     1 <1>   0.1500 
 40 H       -2.1430     0.6190     1.1940 H     1 <1>   0.4000 
 41 H       -4.5740    -0.8940     1.6280 H     1 <1>   0.0800 
 42 H       -5.7320     0.3280     2.1250 H     1 <1>   0.0800 
 43 H       -5.5630    -1.0910    -0.3930 H     1 <1>   0.0800 
 44 H       -6.8090     0.0350     0.0970 H     1 <1>   0.0800 
@<TRIPOS>BOND
  1   1   2  2   
  2   1   3  2   
  3   1   4  am  
  4   1   5  1   
  5   4   6  1   
  6   4   7  1   
  7   5   8  ar  
  8   5   9  ar  
  9   6  10  1   
 10   6  25  1   
 11   6  26  1   
 12   7  11  1   
 13   7  27  1   
 14   7  28  1   
 15   8  12  ar  
 16   8  29  1   
 17   9  13  ar  
 18   9  30  1   
 19  10  14  1   
 20  10  15  1   
 21  10  16  1   
 22  11  15  1   
 23  11  31  1   
 24  11  32  1   
 25  12  17  ar  
 26  12  18  1   
 27  13  17  ar  
 28  13  33  1   
 29  14  19  1   
 30  14  20  1   
 31  14  34  1   
 32  15  35  1   
 33  15  36  1   
 34  16  21  1   
 35  16  37  1   
 36  16  38  1   
 37  17  39  1   
 38  18  22  1   
 39  18  23  1   
 40  18  24  1   
 41  19  40  1   
 42  20  21  1   
 43  20  41  1   
 44  20  42  1   
 45  21  43  1   
 46  21  44  1   
@<TRIPOS>SUBSTRUCTURE
  1 ****   4 GROUP 4 **** **** 0

# MOE 2024.06 (io_trps.svl 2023.06)
