@<TRIPOS>MOLECULE
NONAME
43 45 1 0 0 
SMALL
USER_CHARGES


@<TRIPOS>ATOM
  1 F        0.6100     0.3330    -0.1140 F     1 <1>  -0.3400 
  2 C       -0.3780     1.1110     0.3090 C.3   1 <1>   0.8800 
  3 F       -1.4890     0.5930    -0.1960 F     1 <1>  -0.3400 
  4 O       -0.2080     2.3950    -0.2430 O.3   1 <1>  -0.3630 
  5 C        0.6260     3.2900     0.3380 C.ar  1 <1>   0.0830 
  6 C        0.4250     4.6220     0.0230 C.ar  1 <1>  -0.1500 
  7 C        1.6500     2.9380     1.2140 C.ar  1 <1>  -0.1500 
  8 C        1.2200     5.6310     0.5610 C.ar  1 <1>   0.0860 
  9 C        2.4430     3.9250     1.7700 C.ar  1 <1>  -0.1500 
 10 C        1.0020     7.0170     0.2010 C.2   1 <1>   0.5440 
 11 C        2.2270     5.2530     1.4510 C.ar  1 <1>  -0.1500 
 12 O       -0.1280     7.4550     0.1030 O.2   1 <1>  -0.5700 
 13 N        2.0890     7.8210    -0.0520 N.am  1 <1>  -0.4940 
 14 C        2.1390     9.2190    -0.2860 C.2   1 <1>  -0.0880 
 15 N        3.2050     9.8970    -0.8000 N.pl3 1 <1>   0.3140 
 16 C        1.1840    10.1470    -0.0460 C.2   1 <1>  -0.1500 
 17 N        2.9460    11.2300    -0.8750 N.2   1 <1>  -0.7070 
 18 C        4.4870     9.2850    -1.2680 C.3   1 <1>   0.2710 
 19 C        1.7400    11.3600    -0.4260 C.2   1 <1>   0.1080 
 20 C        5.4170     9.0410    -0.0540 C.3   1 <1>  -0.1950 
 21 C        5.1270    10.1060    -2.4050 C.3   1 <1>  -0.2400 
 22 C        1.0490    12.7000    -0.3400 C.3   1 <1>  -0.0590 
 23 C        6.2460    10.1190     0.5710 C.3   1 <1>  -0.2000 
 24 C        6.9130     8.9710    -0.1350 C.3   1 <1>  -0.2000 
 25 H       -0.4270     1.1120     1.3830 H     1 <1>   0.0800 
 26 H       -0.3680     4.8860    -0.6550 H     1 <1>   0.1500 
 27 H        1.8530     1.9130     1.4690 H     1 <1>   0.1500 
 28 H        3.2310     3.6570     2.4540 H     1 <1>   0.1500 
 29 H        2.8450     6.0080     1.9060 H     1 <1>   0.1500 
 30 H        2.9790     7.3270    -0.0670 H     1 <1>   0.3700 
 31 H        0.1990     9.9940     0.3550 H     1 <1>   0.1500 
 32 H        4.2390     8.3280    -1.6860 H     1 <1>   0.0800 
 33 H        4.9600     8.3530     0.6360 H     1 <1>   0.1000 
 34 H        5.4340    11.0740    -2.0520 H     1 <1>   0.0800 
 35 H        4.4150    10.2420    -3.1990 H     1 <1>   0.0800 
 36 H        5.9810     9.5940    -2.8050 H     1 <1>   0.0800 
 37 H        0.0560    12.5850     0.0520 H     1 <1>   0.0800 
 38 H        0.9950    13.1370    -1.3190 H     1 <1>   0.0800 
 39 H        1.6110    13.3510     0.3030 H     1 <1>   0.0800 
 40 H        6.2910    10.1710     1.6460 H     1 <1>   0.1000 
 41 H        6.2640    11.0970     0.1200 H     1 <1>   0.1000 
 42 H        7.4360     9.1910    -1.0490 H     1 <1>   0.1000 
 43 H        7.4330     8.2410     0.4620 H     1 <1>   0.1000 
@<TRIPOS>BOND
  1   1   2  1   
  2   2   3  1   
  3   2   4  1   
  4   2  25  1   
  5   4   5  1   
  6   5   6  ar  
  7   5   7  ar  
  8   6   8  ar  
  9   6  26  1   
 10   7   9  ar  
 11   7  27  1   
 12   8  10  1   
 13   8  11  ar  
 14   9  11  ar  
 15   9  28  1   
 16  10  12  2   
 17  10  13  am  
 18  11  29  1   
 19  13  14  1   
 20  13  30  1   
 21  14  15  1   
 22  14  16  2   
 23  15  17  1   
 24  15  18  1   
 25  16  19  1   
 26  16  31  1   
 27  17  19  2   
 28  18  20  1   
 29  18  21  1   
 30  18  32  1   
 31  19  22  1   
 32  20  23  1   
 33  20  24  1   
 34  20  33  1   
 35  21  34  1   
 36  21  35  1   
 37  21  36  1   
 38  22  37  1   
 39  22  38  1   
 40  22  39  1   
 41  23  24  1   
 42  23  40  1   
 43  23  41  1   
 44  24  42  1   
 45  24  43  1   
@<TRIPOS>SUBSTRUCTURE
  1 ****  13 GROUP 4 **** **** 0

# MOE 2024.06 (io_trps.svl 2023.06)
