@<TRIPOS>MOLECULE
NONAME
47 48 1 0 0 
SMALL
USER_CHARGES


@<TRIPOS>ATOM
  1 S        1.0920     0.1700    -0.4520 S.o2  1 <1>   1.3330 
  2 O        2.4340     0.5470    -0.0670 O.2   1 <1>  -0.6500 
  3 O        0.7780    -0.0040    -1.8500 O.2   1 <1>  -0.6500 
  4 N        0.6060    -1.1970     0.4230 N.am  1 <1>  -0.8490 
  5 C        0.0310     1.4700     0.1750 C.3   1 <1>  -0.0550 
  6 C        1.7180    -2.1120     0.7010 C.3   1 <1>   0.1160 
  7 C       -0.4960    -1.9340    -0.2090 C.3   1 <1>   0.1160 
  8 C        0.2440     2.8050    -0.5730 C.3   1 <1>  -0.0800 
  9 C       -0.5830     3.9850    -0.0650 C.3   1 <1>   0.2000 
 10 C        1.6950     3.3120    -0.5300 C.3   1 <1>   0.3430 
 11 O       -0.5270     4.0260     1.3260 O.3   1 <1>  -0.6800 
 12 C        0.1900     5.1850    -0.6170 C.3   1 <1>   0.3430 
 13 N        1.6370     4.8050    -0.5280 N.4   1 <1>  -0.9590 
 14 C        2.2570     5.3520     0.7110 C.3   1 <1>   0.4860 
 15 C        2.2480     6.8670     0.6340 C.ar  1 <1>  -0.1440 
 16 C        3.0230     7.5460    -0.3020 C.ar  1 <1>   0.0820 
 17 C        1.4440     7.5900     1.5030 C.ar  1 <1>  -0.1500 
 18 O        3.8140     6.8520    -1.1520 O.3   1 <1>  -0.3620 
 19 C        2.9660     8.9300    -0.3850 C.ar  1 <1>  -0.1500 
 20 C        1.4010     8.9720     1.4280 C.ar  1 <1>  -0.1500 
 21 C        5.2130     6.8610    -0.9110 C.3   1 <1>   1.3000 
 22 C        2.1580     9.6410     0.4820 C.ar  1 <1>  -0.1500 
 23 F        5.7400     8.0640    -1.0880 F     1 <1>  -0.3400 
 24 F        5.8070     6.0230    -1.7450 F     1 <1>  -0.3400 
 25 F        5.4750     6.4530     0.3240 F     1 <1>  -0.3400 
 26 H       -0.9930     1.1670     0.0710 H     1 <1>   0.0800 
 27 H        0.2330     1.5950     1.2220 H     1 <1>   0.0800 
 28 H        1.3750    -2.9530     1.2790 H     1 <1>   0.0800 
 29 H        2.4820    -1.6060     1.2670 H     1 <1>   0.0800 
 30 H        2.1510    -2.4690    -0.2200 H     1 <1>   0.0800 
 31 H       -0.8190    -2.7380     0.4310 H     1 <1>   0.0800 
 32 H       -0.1800    -2.3450    -1.1550 H     1 <1>   0.0800 
 33 H       -1.3330    -1.2800    -0.3800 H     1 <1>   0.0800 
 34 H       -0.0040     2.6470    -1.6100 H     1 <1>   0.0800 
 35 H       -1.6130     3.9740    -0.3800 H     1 <1>   0.0800 
 36 H        2.2520     2.9430    -1.3770 H     1 <1>   0.0800 
 37 H        2.1730     2.9610     0.3710 H     1 <1>   0.0800 
 38 H       -1.2580     3.5090     1.7290 H     1 <1>   0.4000 
 39 H       -0.0380     6.0840    -0.0680 H     1 <1>   0.0800 
 40 H       -0.0770     5.3280    -1.6510 H     1 <1>   0.0800 
 41 H        2.1540     5.2100    -1.3210 H     1 <1>   0.4500 
 42 H        1.7040     5.0240     1.5770 H     1 <1>   0.0800 
 43 H        3.2730     5.0040     0.8030 H     1 <1>   0.0800 
 44 H        0.8420     7.0900     2.2450 H     1 <1>   0.1500 
 45 H        3.5460     9.4590    -1.1220 H     1 <1>   0.1500 
 46 H        0.7760     9.5310     2.1060 H     1 <1>   0.1500 
 47 H        2.1170    10.7160     0.4240 H     1 <1>   0.1500 
@<TRIPOS>BOND
  1   1   2  2   
  2   1   3  2   
  3   1   4  am  
  4   1   5  1   
  5   4   6  1   
  6   4   7  1   
  7   5   8  1   
  8   5  26  1   
  9   5  27  1   
 10   6  28  1   
 11   6  29  1   
 12   6  30  1   
 13   7  31  1   
 14   7  32  1   
 15   7  33  1   
 16   8   9  1   
 17   8  10  1   
 18   8  34  1   
 19   9  11  1   
 20   9  12  1   
 21   9  35  1   
 22  10  13  1   
 23  10  36  1   
 24  10  37  1   
 25  11  38  1   
 26  12  13  1   
 27  12  39  1   
 28  12  40  1   
 29  13  14  1   
 30  13  41  1   
 31  14  15  1   
 32  14  42  1   
 33  14  43  1   
 34  15  16  ar  
 35  15  17  ar  
 36  16  18  1   
 37  16  19  ar  
 38  17  20  ar  
 39  17  44  1   
 40  18  21  1   
 41  19  22  ar  
 42  19  45  1   
 43  20  22  ar  
 44  20  46  1   
 45  21  23  1   
 46  21  24  1   
 47  21  25  1   
 48  22  47  1   
@<TRIPOS>SUBSTRUCTURE
  1 ****  13 GROUP 4 **** **** 0

# MOE 2024.06 (io_trps.svl 2023.06)
