@<TRIPOS>MOLECULE
NONAME
54 56 1 0 0 
SMALL
USER_CHARGES


@<TRIPOS>ATOM
  1 O       -0.6040    -0.2940     0.8350 O.2   1 <1>  -0.5700 
  2 C       -1.5080     0.3040     0.2910 C.2   1 <1>   0.7150 
  3 N       -2.5090    -0.3860    -0.3500 N.am  1 <1>  -0.6600 
  4 C       -1.5510     1.7400     0.3190 C.2   1 <1>  -0.2370 
  5 C       -2.6110    -1.8720    -0.2340 C.3   1 <1>   0.3210 
  6 C       -3.6470     0.2900    -1.0390 C.3   1 <1>   0.1400 
  7 N       -1.1450     2.5270    -0.7350 N.pl3 1 <1>   0.0480 
  8 C       -2.0140     2.5580     1.3080 C.2   1 <1>  -0.1500 
  9 C       -3.7530    -2.2660     0.7000 C.2   1 <1>   0.0460 
 10 C       -4.6540     0.8510    -0.0160 C.3   1 <1>   0.3430 
 11 C       -1.4510     3.8320    -0.4410 C.ar  1 <1>  -0.1520 
 12 C       -0.3420     2.0740    -1.8910 C.3   1 <1>   0.0160 
 13 C       -1.9780     3.8810     0.8440 C.ar  1 <1>   0.0000 
 14 N       -5.0400    -2.2610     0.2830 N.2   1 <1>  -0.5650 
 15 C       -3.6690    -2.6700     1.9900 C.2   1 <1>  -0.3320 
 16 N       -5.5150     1.9430    -0.5850 N.4   1 <1>  -0.9590 
 17 C       -1.3210     5.0010    -1.1950 C.ar  1 <1>  -0.1500 
 18 C       -2.3700     5.1070     1.3940 C.ar  1 <1>  -0.1500 
 19 C       -5.6990    -2.6880     1.3110 C.2   1 <1>   0.0360 
 20 N       -4.9240    -2.9520     2.3830 N.pl3 1 <1>   0.0330 
 21 C       -2.4650    -2.8240     2.9060 C.3   1 <1>  -0.0600 
 22 C       -4.7480     3.2230    -0.7480 C.3   1 <1>   0.2630 
 23 C       -6.6960     2.1630     0.3030 C.3   1 <1>   0.2630 
 24 C       -1.7210     6.1980    -0.6490 C.ar  1 <1>  -0.1500 
 25 C       -2.2470     6.2570     0.6500 C.ar  1 <1>  -0.1430 
 26 C       -2.6570     7.6060     1.2140 C.3   1 <1>  -0.0970 
 27 H       -1.6910    -2.2880     0.1350 H     1 <1>   0.0800 
 28 H       -2.7870    -2.3000    -1.2050 H     1 <1>   0.0800 
 29 H       -4.1480    -0.4140    -1.6810 H     1 <1>   0.0800 
 30 H       -3.2560     1.0810    -1.6510 H     1 <1>   0.0800 
 31 H       -2.3630     2.2680     2.2840 H     1 <1>   0.1500 
 32 H       -4.1160     1.2320     0.8340 H     1 <1>   0.0800 
 33 H       -5.2780     0.0430     0.3250 H     1 <1>   0.0800 
 34 H        0.2440     1.2170    -1.6110 H     1 <1>   0.0800 
 35 H        0.3230     2.8610    -2.1950 H     1 <1>   0.0800 
 36 H       -0.9930     1.8160    -2.7050 H     1 <1>   0.0800 
 37 H       -5.8610     1.6320    -1.5050 H     1 <1>   0.4500 
 38 H       -0.9080     4.9640    -2.1880 H     1 <1>   0.1500 
 39 H       -2.7570     5.1260     2.3970 H     1 <1>   0.1500 
 40 H       -6.7660    -2.8340     1.3330 H     1 <1>   0.1500 
 41 H       -5.2260    -3.3100     3.2940 H     1 <1>   0.2700 
 42 H       -1.5670    -2.4840     2.4210 H     1 <1>   0.0800 
 43 H       -2.3340    -3.8560     3.1790 H     1 <1>   0.0800 
 44 H       -2.6010    -2.2420     3.8000 H     1 <1>   0.0800 
 45 H       -4.4110     3.5820     0.2100 H     1 <1>   0.0800 
 46 H       -5.3700     3.9810    -1.1970 H     1 <1>   0.0800 
 47 H       -3.8840     3.0740    -1.3750 H     1 <1>   0.0800 
 48 H       -6.3740     2.4820     1.2810 H     1 <1>   0.0800 
 49 H       -7.2600     1.2500     0.4070 H     1 <1>   0.0800 
 50 H       -7.3410     2.9200    -0.1130 H     1 <1>   0.0800 
 51 H       -1.6230     7.1070    -1.2160 H     1 <1>   0.1500 
 52 H       -3.0460     7.5050     2.2110 H     1 <1>   0.0800 
 53 H       -3.4130     8.0520     0.5930 H     1 <1>   0.0800 
 54 H       -1.8040     8.2610     1.2460 H     1 <1>   0.0800 
@<TRIPOS>BOND
  1   1   2  2   
  2   2   3  am  
  3   2   4  1   
  4   3   5  1   
  5   3   6  1   
  6   4   7  1   
  7   4   8  2   
  8   5   9  1   
  9   5  27  1   
 10   5  28  1   
 11   6  10  1   
 12   6  29  1   
 13   6  30  1   
 14   7  11  1   
 15   7  12  1   
 16   8  13  1   
 17   8  31  1   
 18   9  14  1   
 19   9  15  2   
 20  10  16  1   
 21  10  32  1   
 22  10  33  1   
 23  11  13  ar  
 24  11  17  ar  
 25  12  34  1   
 26  12  35  1   
 27  12  36  1   
 28  13  18  ar  
 29  14  19  2   
 30  15  20  1   
 31  15  21  1   
 32  16  22  1   
 33  16  23  1   
 34  16  37  1   
 35  17  24  ar  
 36  17  38  1   
 37  18  25  ar  
 38  18  39  1   
 39  19  20  1   
 40  19  40  1   
 41  20  41  1   
 42  21  42  1   
 43  21  43  1   
 44  21  44  1   
 45  22  45  1   
 46  22  46  1   
 47  22  47  1   
 48  23  48  1   
 49  23  49  1   
 50  23  50  1   
 51  24  25  ar  
 52  24  51  1   
 53  25  26  1   
 54  26  52  1   
 55  26  53  1   
 56  26  54  1   
@<TRIPOS>SUBSTRUCTURE
  1 ****   4 GROUP 4 **** **** 0

# MOE 2024.06 (io_trps.svl 2023.06)
