@<TRIPOS>MOLECULE
NONAME
57 61 1 0 0 
SMALL
USER_CHARGES


@<TRIPOS>ATOM
  1 O        2.1290     0.1940    -0.2390 O.3   1 <1>  -0.5600 
  2 C        3.4670     0.6200    -0.2310 C.3   1 <1>   0.1200 
  3 C        1.6780    -0.2910     0.9970 C.3   1 <1>   0.1200 
  4 C        4.4130    -0.5280     0.1890 C.3   1 <1>   0.3430 
  5 C        2.5410    -1.4810     1.4780 C.3   1 <1>   0.3430 
  6 N        3.6410    -1.7850     0.4990 N.4   1 <1>  -0.9590 
  7 C        4.5520    -2.8980     0.8880 C.3   1 <1>   0.3430 
  8 C        3.8930    -4.2870     0.8070 C.3   1 <1>  -0.0800 
  9 C        3.4230    -4.6260    -0.6170 C.3   1 <1>   0.2000 
 10 C        4.8700    -5.4710     1.0550 C.3   1 <1>  -0.0800 
 11 O        4.5850    -5.1480    -1.1360 O.3   1 <1>  -0.5600 
 12 C        2.5040    -5.8560    -0.6360 C.3   1 <1>  -0.1600 
 13 C        4.7970    -6.2110    -0.2740 C.3   1 <1>   0.2800 
 14 C        6.3810    -5.2130     1.2430 C.3   1 <1>   0.3430 
 15 C        3.5010    -7.0020    -0.4280 C.3   1 <1>  -0.1600 
 16 C        6.1700    -6.8550    -0.4790 C.3   1 <1>   0.3430 
 17 N        7.1320    -5.8690     0.1100 N.4   1 <1>  -0.9590 
 18 C        7.6130    -4.9490    -0.9840 C.3   1 <1>   0.5240 
 19 C        7.8060    -3.5180    -0.5120 C.2   1 <1>  -0.1810 
 20 C        7.1810    -2.4220    -1.1000 C.2   1 <1>   0.1080 
 21 C        8.5470    -2.9950     0.4950 C.2   1 <1>  -0.3320 
 22 N        7.4230    -1.3250    -0.4590 N.2   1 <1>  -0.7070 
 23 C        6.3160    -2.4390    -2.3460 C.3   1 <1>  -0.0590 
 24 N        8.3110    -1.6650     0.4950 N.pl3 1 <1>   0.3000 
 25 C        9.5120    -3.6480     1.4750 C.3   1 <1>  -0.0600 
 26 H        3.7120     0.9560    -1.2240 H     1 <1>   0.0800 
 27 H        3.5600     1.4580     0.4390 H     1 <1>   0.0800 
 28 H        1.7010     0.5130     1.7130 H     1 <1>   0.0800 
 29 H        0.6540    -0.6000     0.8740 H     1 <1>   0.0800 
 30 H        4.9860    -0.2180     1.0470 H     1 <1>   0.0800 
 31 H        5.1100    -0.7070    -0.6120 H     1 <1>   0.0800 
 32 H        1.9060    -2.3430     1.6040 H     1 <1>   0.0800 
 33 H        2.9590    -1.2410     2.4420 H     1 <1>   0.0800 
 34 H        3.1610    -1.9930    -0.3890 H     1 <1>   0.4500 
 35 H        5.3950    -2.8950     0.2260 H     1 <1>   0.0800 
 36 H        4.9190    -2.7250     1.8870 H     1 <1>   0.0800 
 37 H        3.0690    -4.3330     1.4980 H     1 <1>   0.0800 
 38 H        3.0630    -3.8030    -1.2120 H     1 <1>   0.0800 
 39 H        4.5220    -6.0960     1.8600 H     1 <1>   0.0800 
 40 H        1.7510    -5.8160     0.1330 H     1 <1>   0.0800 
 41 H        2.0200    -5.9420    -1.5940 H     1 <1>   0.0800 
 42 H        6.6890    -5.6640     2.1730 H     1 <1>   0.0800 
 43 H        6.5970    -4.1630     1.3110 H     1 <1>   0.0800 
 44 H        3.5430    -7.6340    -1.2990 H     1 <1>   0.0800 
 45 H        3.2740    -7.5990     0.4380 H     1 <1>   0.0800 
 46 H        6.3590    -7.0520    -1.5210 H     1 <1>   0.0800 
 47 H        6.2090    -7.7800     0.0730 H     1 <1>   0.0800 
 48 H        7.9620    -6.3500     0.4800 H     1 <1>   0.4500 
 49 H        8.5400    -5.3170    -1.3920 H     1 <1>   0.0800 
 50 H        6.8890    -4.9390    -1.7830 H     1 <1>   0.0800 
 51 H        6.7600    -3.0610    -3.1010 H     1 <1>   0.0800 
 52 H        6.2370    -1.4430    -2.7460 H     1 <1>   0.0800 
 53 H        5.3310    -2.8010    -2.1260 H     1 <1>   0.0800 
 54 H        8.7580    -0.9670     1.1080 H     1 <1>   0.2700 
 55 H        9.6120    -4.6990     1.2770 H     1 <1>   0.0800 
 56 H        9.1720    -3.5160     2.4870 H     1 <1>   0.0800 
 57 H       10.4860    -3.1990     1.3830 H     1 <1>   0.0800 
@<TRIPOS>BOND
  1   1   2  1   
  2   1   3  1   
  3   2   4  1   
  4   2  26  1   
  5   2  27  1   
  6   3   5  1   
  7   3  28  1   
  8   3  29  1   
  9   4   6  1   
 10   4  30  1   
 11   4  31  1   
 12   5   6  1   
 13   5  32  1   
 14   5  33  1   
 15   6   7  1   
 16   6  34  1   
 17   7   8  1   
 18   7  35  1   
 19   7  36  1   
 20   8   9  1   
 21   8  10  1   
 22   8  37  1   
 23   9  11  1   
 24   9  12  1   
 25   9  38  1   
 26  10  13  1   
 27  10  14  1   
 28  10  39  1   
 29  11  13  1   
 30  12  15  1   
 31  12  40  1   
 32  12  41  1   
 33  13  15  1   
 34  13  16  1   
 35  14  17  1   
 36  14  42  1   
 37  14  43  1   
 38  15  44  1   
 39  15  45  1   
 40  16  17  1   
 41  16  46  1   
 42  16  47  1   
 43  17  18  1   
 44  17  48  1   
 45  18  19  1   
 46  18  49  1   
 47  18  50  1   
 48  19  20  1   
 49  19  21  2   
 50  20  22  2   
 51  20  23  1   
 52  21  24  1   
 53  21  25  1   
 54  22  24  1   
 55  23  51  1   
 56  23  52  1   
 57  23  53  1   
 58  24  54  1   
 59  25  55  1   
 60  25  56  1   
 61  25  57  1   
@<TRIPOS>SUBSTRUCTURE
  1 ****   7 GROUP 4 **** **** 0

# MOE 2024.06 (io_trps.svl 2023.06)
