@<TRIPOS>MOLECULE
NONAME
43 45 1 0 0 
SMALL
USER_CHARGES


@<TRIPOS>ATOM
  1 O        1.3750     0.0930    -1.3390 O.3   1 <1>  -0.6800 
  2 C        1.6640     0.2750     0.0010 C.3   1 <1>   0.2800 
  3 C        3.2030     0.2110     0.2410 C.3   1 <1>  -0.0800 
  4 C        0.9630    -0.8690     0.7580 C.3   1 <1>  -0.1600 
  5 C        1.0520     1.6320     0.4140 C.3   1 <1>  -0.1600 
  6 C        3.7420    -1.1610     0.6740 C.3   1 <1>  -0.0800 
  7 C        4.0910     0.5940    -0.9460 C.3   1 <1>   0.2090 
  8 C        1.4720    -2.2730     0.3660 C.3   1 <1>  -0.1600 
  9 C        1.6070     2.8640    -0.3220 C.3   1 <1>  -0.2400 
 10 C        2.9660    -2.2990    -0.0080 C.3   1 <1>  -0.1600 
 11 C        5.2260    -1.1380     0.2900 C.3   1 <1>   0.2090 
 12 N        5.4120    -0.0250    -0.6750 N.pl3 1 <1>  -0.8380 
 13 C        6.4430     0.8500    -0.4130 C.ar  1 <1>   0.4100 
 14 N        6.3560     1.5890     0.6880 N.ar  1 <1>  -0.6200 
 15 C        7.5110     0.9220    -1.3000 C.ar  1 <1>  -0.1500 
 16 C        7.3640     2.4180     0.9020 C.ar  1 <1>   0.1600 
 17 C        8.5510     1.7890    -1.0620 C.ar  1 <1>  -0.1500 
 18 C        8.4720     2.5620     0.0800 C.ar  1 <1>  -0.1440 
 19 C        9.5850     3.5420     0.4080 C.3   1 <1>  -0.0970 
 20 H        0.4100     0.0880    -1.4610 H     1 <1>   0.4000 
 21 H        3.4460     0.8900     1.0380 H     1 <1>   0.0800 
 22 H        1.1460    -0.7270     1.8090 H     1 <1>   0.0800 
 23 H       -0.1020    -0.8180     0.6190 H     1 <1>   0.0800 
 24 H       -0.0130     1.5950     0.2650 H     1 <1>   0.0800 
 25 H        1.2120     1.7730     1.4690 H     1 <1>   0.0800 
 26 H        3.6580    -1.2770     1.7400 H     1 <1>   0.0800 
 27 H        4.1740     1.6620    -1.0480 H     1 <1>   0.0800 
 28 H        3.7180     0.1840    -1.8680 H     1 <1>   0.0800 
 29 H        1.2950    -2.9450     1.1890 H     1 <1>   0.0800 
 30 H        0.9070    -2.6370    -0.4750 H     1 <1>   0.0800 
 31 H        1.5250     2.7430    -1.3880 H     1 <1>   0.0800 
 32 H        2.6390     3.0270    -0.0690 H     1 <1>   0.0800 
 33 H        1.0530     3.7400    -0.0360 H     1 <1>   0.0800 
 34 H        3.0600    -2.1860    -1.0750 H     1 <1>   0.0800 
 35 H        3.3890    -3.2530     0.2560 H     1 <1>   0.0800 
 36 H        5.5290    -2.0660    -0.1610 H     1 <1>   0.0800 
 37 H        5.8280    -0.9660     1.1670 H     1 <1>   0.0800 
 38 H        7.4970     0.2880    -2.1650 H     1 <1>   0.1500 
 39 H        7.3010     3.0190     1.7920 H     1 <1>   0.1500 
 40 H        9.3860     1.8590    -1.7360 H     1 <1>   0.1500 
 41 H        9.6820     4.2630    -0.3830 H     1 <1>   0.0800 
 42 H       10.5160     3.0160     0.5150 H     1 <1>   0.0800 
 43 H        9.3790     4.0660     1.3250 H     1 <1>   0.0800 
@<TRIPOS>BOND
  1   1   2  1   
  2   1  20  1   
  3   2   3  1   
  4   2   4  1   
  5   2   5  1   
  6   3   6  1   
  7   3   7  1   
  8   3  21  1   
  9   4   8  1   
 10   4  22  1   
 11   4  23  1   
 12   5   9  1   
 13   5  24  1   
 14   5  25  1   
 15   6  10  1   
 16   6  11  1   
 17   6  26  1   
 18   7  12  1   
 19   7  27  1   
 20   7  28  1   
 21   8  10  1   
 22   8  29  1   
 23   8  30  1   
 24   9  31  1   
 25   9  32  1   
 26   9  33  1   
 27  10  34  1   
 28  10  35  1   
 29  11  12  1   
 30  11  36  1   
 31  11  37  1   
 32  12  13  1   
 33  13  14  ar  
 34  13  15  ar  
 35  14  16  ar  
 36  15  17  ar  
 37  15  38  1   
 38  16  18  ar  
 39  16  39  1   
 40  17  18  ar  
 41  17  40  1   
 42  18  19  1   
 43  19  41  1   
 44  19  42  1   
 45  19  43  1   
@<TRIPOS>SUBSTRUCTURE
  1 ****   7 GROUP 4 **** **** 0

# MOE 2024.06 (io_trps.svl 2023.06)
