@<TRIPOS>MOLECULE
NONAME
40 41 1 0 0 
SMALL
USER_CHARGES


@<TRIPOS>ATOM
  1 S        0.6500     0.8290     0.9750 S.3   1 <1>  -0.0800 
  2 C        1.7370     1.3550    -0.3030 C.2   1 <1>  -0.1400 
  3 C        0.7580    -0.8380     0.4430 C.2   1 <1>  -0.1100 
  4 C        2.1210     0.3060    -1.0540 C.2   1 <1>  -0.1500 
  5 C        2.0660     2.8340    -0.3760 C.3   1 <1>   0.0200 
  6 C        1.5650    -0.9430    -0.6290 C.2   1 <1>  -0.1500 
  7 C        2.7940     3.3320     0.8850 C.3   1 <1>   0.2890 
  8 N        3.0970     4.7800     0.7440 N.pl3 1 <1>  -0.8690 
  9 C        4.0480     2.5170     1.2190 C.3   1 <1>  -0.2400 
 10 C        4.1170     5.5250     0.3030 C.ar  1 <1>   0.7710 
 11 N        3.9190     6.8230     0.3150 N.ar  1 <1>  -0.6200 
 12 N        5.2560     4.9660    -0.1270 N.ar  1 <1>  -0.1790 
 13 C        4.9000     7.6040    -0.1010 C.ar  1 <1>   0.4100 
 14 C        6.2720     5.7250    -0.5980 C.ar  1 <1>   0.2110 
 15 N        4.6740     8.9400    -0.0230 N.pl3 1 <1>  -0.8380 
 16 C        6.1170     7.0730    -0.6050 C.ar  1 <1>  -0.1430 
 17 C        5.5570     9.8640     0.7420 C.3   1 <1>   0.1290 
 18 C        3.3440     9.5250    -0.3630 C.3   1 <1>   0.1290 
 19 C        7.2140     7.9700    -1.1770 C.3   1 <1>  -0.0970 
 20 H        0.1970    -1.5720     0.9940 H     1 <1>   0.1500 
 21 H        2.7770     0.3440    -1.9060 H     1 <1>   0.1500 
 22 H        1.1480     3.3810    -0.4960 H     1 <1>   0.0800 
 23 H        2.6770     3.0080    -1.2430 H     1 <1>   0.0800 
 24 H        1.7960    -1.8570    -1.1480 H     1 <1>   0.1500 
 25 H        2.1180     3.2290     1.7190 H     1 <1>   0.0800 
 26 H        2.3080     5.3660     1.0430 H     1 <1>   0.4000 
 27 H        4.6520     2.3290     0.3520 H     1 <1>   0.0800 
 28 H        3.7420     1.5550     1.5960 H     1 <1>   0.0800 
 29 H        4.6180     2.9930     1.9980 H     1 <1>   0.0800 
 30 H        5.2940     3.9550    -0.0680 H     1 <1>   0.4570 
 31 H        7.1650     5.2380    -0.9570 H     1 <1>   0.1500 
 32 H        6.3300     9.3130     1.2500 H     1 <1>   0.0800 
 33 H        4.9810    10.3930     1.4820 H     1 <1>   0.0800 
 34 H        6.0080    10.5770     0.0740 H     1 <1>   0.0800 
 35 H        2.7850     8.8480    -0.9850 H     1 <1>   0.0800 
 36 H        3.4750    10.4510    -0.8960 H     1 <1>   0.0800 
 37 H        2.7850     9.7100     0.5380 H     1 <1>   0.0800 
 38 H        6.7800     8.7240    -1.8120 H     1 <1>   0.0800 
 39 H        7.9150     7.4050    -1.7660 H     1 <1>   0.0800 
 40 H        7.7540     8.4560    -0.3860 H     1 <1>   0.0800 
@<TRIPOS>BOND
  1   1   2  1   
  2   1   3  1   
  3   2   4  2   
  4   2   5  1   
  5   3   6  2   
  6   3  20  1   
  7   4   6  1   
  8   4  21  1   
  9   5   7  1   
 10   5  22  1   
 11   5  23  1   
 12   6  24  1   
 13   7   8  1   
 14   7   9  1   
 15   7  25  1   
 16   8  10  1   
 17   8  26  1   
 18   9  27  1   
 19   9  28  1   
 20   9  29  1   
 21  10  11  ar  
 22  10  12  ar  
 23  11  13  ar  
 24  12  14  ar  
 25  12  30  1   
 26  13  15  1   
 27  13  16  ar  
 28  14  16  ar  
 29  14  31  1   
 30  15  17  1   
 31  15  18  1   
 32  16  19  1   
 33  17  32  1   
 34  17  33  1   
 35  17  34  1   
 36  18  35  1   
 37  18  36  1   
 38  18  37  1   
 39  19  38  1   
 40  19  39  1   
 41  19  40  1   
@<TRIPOS>SUBSTRUCTURE
  1 ****   8 GROUP 4 **** **** 0

# MOE 2024.06 (io_trps.svl 2023.06)
