@<TRIPOS>MOLECULE
NONAME
49 52 1 0 0 
SMALL
USER_CHARGES


@<TRIPOS>ATOM
  1 S       -0.8750     0.4240     0.8740 S.3   1 <1>  -0.0800 
  2 C       -0.1310     1.4230    -0.3760 C.2   1 <1>  -0.0130 
  3 C       -1.1640    -0.8980    -0.2390 C.2   1 <1>  -0.1400 
  4 C        0.3360     2.7500    -0.0470 C.ar  1 <1>   0.0530 
  5 C       -0.1300     0.7240    -1.5380 C.2   1 <1>  -0.1500 
  6 C       -0.7060    -0.5790    -1.4660 C.2   1 <1>  -0.1500 
  7 C       -1.8500    -2.1170     0.3340 C.3   1 <1>   0.5230 
  8 C        0.7020     3.1140     1.2490 C.ar  1 <1>  -0.1500 
  9 C        0.4410     3.7260    -1.0380 C.ar  1 <1>  -0.1500 
 10 N       -2.9670    -2.5010    -0.5750 N.4   1 <1>  -0.9590 
 11 C        1.1450     4.3910     1.5430 C.ar  1 <1>  -0.1500 
 12 C        0.8840     5.0040    -0.7520 C.ar  1 <1>  -0.1500 
 13 C       -4.2810    -1.9610    -0.1210 C.3   1 <1>   0.4230 
 14 C       -2.9900    -3.9850    -0.7700 C.3   1 <1>   0.2630 
 15 C        1.2370     5.3400     0.5410 C.ar  1 <1>  -0.1500 
 16 C       -5.4050    -2.3140    -1.0940 C.3   1 <1>  -0.1600 
 17 C       -4.3100    -0.4340    -0.0770 C.3   1 <1>  -0.1600 
 18 C       -6.4880    -1.2550    -0.8620 C.3   1 <1>  -0.0800 
 19 C       -5.7870    -0.0510    -0.2140 C.3   1 <1>  -0.0800 
 20 C       -7.5870    -1.6940     0.1170 C.3   1 <1>  -0.1600 
 21 C       -6.4920     0.1920     1.1280 C.3   1 <1>  -0.1600 
 22 C       -7.8560    -0.4600     0.9630 C.3   1 <1>   0.2000 
 23 O       -8.3690    -0.8200     2.1880 O.3   1 <1>  -0.6800 
 24 H        0.2730     1.0930    -2.4650 H     1 <1>   0.1500 
 25 H       -0.7340    -1.2000    -2.3450 H     1 <1>   0.1500 
 26 H       -2.2250    -1.9020     1.3210 H     1 <1>   0.0800 
 27 H       -1.1280    -2.9150     0.4090 H     1 <1>   0.0800 
 28 H        0.6490     2.3940     2.0440 H     1 <1>   0.1500 
 29 H        0.1670     3.4850    -2.0490 H     1 <1>   0.1500 
 30 H       -2.7560    -2.0440    -1.4710 H     1 <1>   0.4500 
 31 H        1.4210     4.6480     2.5510 H     1 <1>   0.1500 
 32 H        0.9540     5.7400    -1.5350 H     1 <1>   0.1500 
 33 H       -4.5330    -2.3440     0.8550 H     1 <1>   0.0800 
 34 H       -3.2280    -4.4820     0.1570 H     1 <1>   0.0800 
 35 H       -2.0300    -4.3340    -1.1130 H     1 <1>   0.0800 
 36 H       -3.7310    -4.2570    -1.5050 H     1 <1>   0.0800 
 37 H        1.5820     6.3340     0.7680 H     1 <1>   0.1500 
 38 H       -5.0560    -2.2190    -2.1080 H     1 <1>   0.0800 
 39 H       -5.7860    -3.3080    -0.9380 H     1 <1>   0.0800 
 40 H       -3.8830    -0.0410     0.8280 H     1 <1>   0.0800 
 41 H       -3.7810    -0.0300    -0.9230 H     1 <1>   0.0800 
 42 H       -6.9400    -0.9590    -1.7960 H     1 <1>   0.0800 
 43 H       -5.8980     0.8220    -0.8380 H     1 <1>   0.0800 
 44 H       -7.2400    -2.4960     0.7440 H     1 <1>   0.0800 
 45 H       -8.4770    -2.0040    -0.4040 H     1 <1>   0.0800 
 46 H       -6.5900     1.2430     1.3350 H     1 <1>   0.0800 
 47 H       -5.9570    -0.2840     1.9310 H     1 <1>   0.0800 
 48 H       -8.5490     0.2050     0.4730 H     1 <1>   0.0800 
 49 H       -7.7590    -1.4100     2.6640 H     1 <1>   0.4000 
@<TRIPOS>BOND
  1   1   2  1   
  2   1   3  1   
  3   2   4  1   
  4   2   5  2   
  5   3   6  2   
  6   3   7  1   
  7   4   8  ar  
  8   4   9  ar  
  9   5   6  1   
 10   5  24  1   
 11   6  25  1   
 12   7  10  1   
 13   7  26  1   
 14   7  27  1   
 15   8  11  ar  
 16   8  28  1   
 17   9  12  ar  
 18   9  29  1   
 19  10  13  1   
 20  10  14  1   
 21  10  30  1   
 22  11  15  ar  
 23  11  31  1   
 24  12  15  ar  
 25  12  32  1   
 26  13  16  1   
 27  13  17  1   
 28  13  33  1   
 29  14  34  1   
 30  14  35  1   
 31  14  36  1   
 32  15  37  1   
 33  16  18  1   
 34  16  38  1   
 35  16  39  1   
 36  17  19  1   
 37  17  40  1   
 38  17  41  1   
 39  18  19  1   
 40  18  20  1   
 41  18  42  1   
 42  19  21  1   
 43  19  43  1   
 44  20  22  1   
 45  20  44  1   
 46  20  45  1   
 47  21  22  1   
 48  21  46  1   
 49  21  47  1   
 50  22  23  1   
 51  22  48  1   
 52  23  49  1   
@<TRIPOS>SUBSTRUCTURE
  1 ****  17 GROUP 4 **** **** 0

# MOE 2024.06 (io_trps.svl 2023.06)
