@<TRIPOS>MOLECULE
NONAME
46 49 1 0 0 
SMALL
USER_CHARGES


@<TRIPOS>ATOM
  1 O        2.3720    -0.1810     1.7930 O.2   1 <1>  -0.5700 
  2 C        2.4350    -1.2910     1.2860 C.2   1 <1>   0.5650 
  3 N        3.2130    -1.5810     0.1320 N.pl3 1 <1>   0.5610 
  4 C        1.6920    -2.3700     1.8500 C.2   1 <1>  -0.1360 
  5 N        4.0060    -0.7710    -0.6430 N.2   1 <1>  -0.7070 
  6 C        3.2190    -2.8550    -0.3870 C.2   1 <1>  -0.0680 
  7 C        1.7090    -3.6290     1.3340 C.2   1 <1>  -0.0380 
  8 C        4.4650    -1.5320    -1.5830 C.2   1 <1>   0.1080 
  9 N        2.4800    -3.8900     0.2110 N.pl3 1 <1>  -0.5840 
 10 C        4.0120    -2.8430    -1.4810 C.2   1 <1>  -0.1500 
 11 C        0.8940    -4.7700     1.9390 C.3   1 <1>   0.4810 
 12 C        5.3910    -1.0090    -2.6570 C.3   1 <1>  -0.0590 
 13 N        0.1200    -5.3820     0.8350 N.4   1 <1>  -0.9590 
 14 C       -1.1010    -4.6520     0.3730 C.3   1 <1>   0.3430 
 15 C       -0.2590    -6.7990     0.9740 C.3   1 <1>   0.3430 
 16 C       -2.0190    -5.7420    -0.2160 C.3   1 <1>   0.2000 
 17 C       -1.1500    -7.0060    -0.2510 C.3   1 <1>  -0.0800 
 18 O       -3.0980    -5.9540     0.6320 O.3   1 <1>  -0.6800 
 19 C       -0.3520    -7.0660    -1.5860 C.3   1 <1>  -0.0170 
 20 C        1.0870    -7.5580    -1.4560 C.ar  1 <1>   0.1670 
 21 N        1.9890    -6.6740    -1.0310 N.ar  1 <1>  -0.6200 
 22 C        1.3910    -8.8790    -1.7820 C.ar  1 <1>   0.1600 
 23 C        3.2070    -7.2060    -0.9860 C.ar  1 <1>   0.1600 
 24 N        2.5990    -9.4030    -1.7050 N.ar  1 <1>  -0.6200 
 25 C        3.5000    -8.5250    -1.3090 C.ar  1 <1>   0.1600 
 26 H        1.1130    -2.1120     2.7180 H     1 <1>   0.1500 
 27 H        2.5690    -4.8300    -0.2200 H     1 <1>   0.4000 
 28 H        4.2580    -3.6480    -2.1490 H     1 <1>   0.1500 
 29 H        0.2390    -4.4100     2.7150 H     1 <1>   0.0800 
 30 H        1.5710    -5.4960     2.3610 H     1 <1>   0.0800 
 31 H        5.6620    -1.7920    -3.3400 H     1 <1>   0.0800 
 32 H        6.2810    -0.6140    -2.2020 H     1 <1>   0.0800 
 33 H        4.9020    -0.2210    -3.2000 H     1 <1>   0.0800 
 34 H        0.7790    -5.3830     0.0350 H     1 <1>   0.4500 
 35 H       -1.6000    -4.1550     1.1890 H     1 <1>   0.0800 
 36 H       -0.8340    -3.9290    -0.3820 H     1 <1>   0.0800 
 37 H        0.6020    -7.4500     0.9690 H     1 <1>   0.0800 
 38 H       -0.8220    -6.9510     1.8800 H     1 <1>   0.0800 
 39 H       -2.4160    -5.4620    -1.1780 H     1 <1>   0.0800 
 40 H       -1.7370    -7.9040    -0.1490 H     1 <1>   0.0800 
 41 H       -2.8680    -6.3880     1.4750 H     1 <1>   0.4000 
 42 H       -0.3070    -6.0930    -2.0460 H     1 <1>   0.0800 
 43 H       -0.8860    -7.6940    -2.2790 H     1 <1>   0.0800 
 44 H        0.6060    -9.5340    -2.1200 H     1 <1>   0.1500 
 45 H        4.0240    -6.5740    -0.6790 H     1 <1>   0.1500 
 46 H        4.5190    -8.8670    -1.2370 H     1 <1>   0.1500 
@<TRIPOS>BOND
  1   1   2  2   
  2   2   3  1   
  3   2   4  1   
  4   3   5  1   
  5   3   6  1   
  6   4   7  2   
  7   4  26  1   
  8   5   8  2   
  9   6   9  1   
 10   6  10  2   
 11   7   9  1   
 12   7  11  1   
 13   8  10  1   
 14   8  12  1   
 15   9  27  1   
 16  10  28  1   
 17  11  13  1   
 18  11  29  1   
 19  11  30  1   
 20  12  31  1   
 21  12  32  1   
 22  12  33  1   
 23  13  14  1   
 24  13  15  1   
 25  13  34  1   
 26  14  16  1   
 27  14  35  1   
 28  14  36  1   
 29  15  17  1   
 30  15  37  1   
 31  15  38  1   
 32  16  17  1   
 33  16  18  1   
 34  16  39  1   
 35  17  19  1   
 36  17  40  1   
 37  18  41  1   
 38  19  20  1   
 39  19  42  1   
 40  19  43  1   
 41  20  21  ar  
 42  20  22  ar  
 43  21  23  ar  
 44  22  24  ar  
 45  22  44  1   
 46  23  25  ar  
 47  23  45  1   
 48  24  25  ar  
 49  25  46  1   
@<TRIPOS>SUBSTRUCTURE
  1 ****   9 GROUP 4 **** **** 0

# MOE 2024.06 (io_trps.svl 2023.06)
