@<TRIPOS>MOLECULE
NONAME
45 47 1 0 0 
SMALL
USER_CHARGES


@<TRIPOS>ATOM
  1 F       -0.1120    -1.3190    -0.6720 F     1 <1>  -0.3400 
  2 C       -1.2560    -1.5150    -0.0350 C.3   1 <1>   1.3000 
  3 F       -1.0080    -2.2910     1.0140 F     1 <1>  -0.3400 
  4 F       -1.6850    -0.3380     0.4050 F     1 <1>  -0.3400 
  5 O       -2.1950    -2.1170    -0.9030 O.3   1 <1>  -0.3630 
  6 C       -3.4100    -2.4070    -0.3950 C.ar  1 <1>   0.0830 
  7 C       -3.6340    -3.6510     0.1740 C.ar  1 <1>  -0.1500 
  8 C       -4.4280    -1.4700    -0.4580 C.ar  1 <1>  -0.1500 
  9 C       -4.8830    -3.9600     0.6930 C.ar  1 <1>  -0.1440 
 10 C       -5.6700    -1.7730     0.0680 C.ar  1 <1>  -0.1500 
 11 C       -5.8960    -3.0120     0.6440 C.ar  1 <1>  -0.1500 
 12 C       -5.1460    -5.3200     1.3090 C.3   1 <1>   0.4870 
 13 N       -5.2290    -6.3370     0.2210 N.4   1 <1>  -0.9590 
 14 C       -6.4180    -6.0750    -0.6540 C.3   1 <1>   0.3430 
 15 C       -5.4150    -7.7040     0.8010 C.3   1 <1>   0.3430 
 16 C       -7.5320    -6.9710    -0.1080 C.3   1 <1>   0.2000 
 17 C       -6.7800    -8.2270     0.3230 C.3   1 <1>  -0.0800 
 18 O       -8.0620    -6.3710     1.0290 O.3   1 <1>  -0.6800 
 19 C       -6.6310    -9.2320    -0.8380 C.3   1 <1>  -0.0170 
 20 C       -5.7000   -10.3710    -0.4540 C.ar  1 <1>  -0.1430 
 21 C       -4.4730   -10.5490    -1.0620 C.ar  1 <1>  -0.1500 
 22 C       -6.0340   -11.2870     0.5250 C.ar  1 <1>  -0.1500 
 23 C       -3.6530   -11.5900    -0.6580 C.ar  1 <1>   0.1600 
 24 C       -5.1410   -12.2920     0.8550 C.ar  1 <1>   0.1600 
 25 N       -3.9550   -12.4560     0.2930 N.ar  1 <1>  -0.6200 
 26 H       -2.8250    -4.3590     0.2060 H     1 <1>   0.1500 
 27 H       -4.2500    -0.5090    -0.9100 H     1 <1>   0.1500 
 28 H       -6.4610    -1.0420     0.0290 H     1 <1>   0.1500 
 29 H       -6.8710    -3.2250     1.0520 H     1 <1>   0.1500 
 30 H       -6.0700    -5.2960     1.8660 H     1 <1>   0.0800 
 31 H       -4.3450    -5.5650     1.9870 H     1 <1>   0.0800 
 32 H       -4.3670    -6.2700    -0.3340 H     1 <1>   0.4500 
 33 H       -6.7150    -5.0400    -0.6550 H     1 <1>   0.0800 
 34 H       -6.1910    -6.3730    -1.6640 H     1 <1>   0.0800 
 35 H       -4.6200    -8.3660     0.4970 H     1 <1>   0.0800 
 36 H       -5.4180    -7.6500     1.8780 H     1 <1>   0.0800 
 37 H       -8.3240    -7.1410    -0.8190 H     1 <1>   0.0800 
 38 H       -7.2870    -8.7230     1.1320 H     1 <1>   0.0800 
 39 H       -8.9040    -6.7990     1.2970 H     1 <1>   0.4000 
 40 H       -6.2500    -8.7440    -1.7180 H     1 <1>   0.0800 
 41 H       -7.5950    -9.6410    -1.0890 H     1 <1>   0.0800 
 42 H       -4.1380    -9.8990    -1.8500 H     1 <1>   0.1500 
 43 H       -6.9780   -11.2380     1.0360 H     1 <1>   0.1500 
 44 H       -2.6990   -11.7200    -1.1420 H     1 <1>   0.1500 
 45 H       -5.4140   -12.9990     1.6210 H     1 <1>   0.1500 
@<TRIPOS>BOND
  1   1   2  1   
  2   2   3  1   
  3   2   4  1   
  4   2   5  1   
  5   5   6  1   
  6   6   7  ar  
  7   6   8  ar  
  8   7   9  ar  
  9   7  26  1   
 10   8  10  ar  
 11   8  27  1   
 12   9  11  ar  
 13   9  12  1   
 14  10  11  ar  
 15  10  28  1   
 16  11  29  1   
 17  12  13  1   
 18  12  30  1   
 19  12  31  1   
 20  13  14  1   
 21  13  15  1   
 22  13  32  1   
 23  14  16  1   
 24  14  33  1   
 25  14  34  1   
 26  15  17  1   
 27  15  35  1   
 28  15  36  1   
 29  16  17  1   
 30  16  18  1   
 31  16  37  1   
 32  17  19  1   
 33  17  38  1   
 34  18  39  1   
 35  19  20  1   
 36  19  40  1   
 37  19  41  1   
 38  20  21  ar  
 39  20  22  ar  
 40  21  23  ar  
 41  21  42  1   
 42  22  24  ar  
 43  22  43  1   
 44  23  25  ar  
 45  23  44  1   
 46  24  25  ar  
 47  24  45  1   
@<TRIPOS>SUBSTRUCTURE
  1 ****  13 GROUP 4 **** **** 0

# MOE 2024.06 (io_trps.svl 2023.06)
