@<TRIPOS>MOLECULE
NONAME
45 47 1 0 0 
SMALL
USER_CHARGES


@<TRIPOS>ATOM
  1 S       -0.3500     0.3090    -1.1650 S.3   1 <1>  -0.0800 
  2 C        0.0590    -1.3810    -0.9360 C.2   1 <1>   0.4620 
  3 C       -1.9550    -0.0330    -0.5790 C.2   1 <1>  -0.1100 
  4 N       -0.8950    -2.0970    -0.4780 N.2   1 <1>  -0.5650 
  5 N        1.3090    -1.8010    -1.2460 N.pl3 1 <1>  -0.8840 
  6 C       -2.0350    -1.3410    -0.2750 C.2   1 <1>   0.0460 
  7 C       -3.2410    -2.0920     0.2710 C.3   1 <1>   0.0210 
  8 C       -4.4890    -1.2060     0.4310 C.3   1 <1>  -0.0990 
  9 C       -5.7090    -1.9490     0.9560 C.2   1 <1>   0.5690 
 10 O       -5.5860    -3.1120     1.2600 O.2   1 <1>  -0.5700 
 11 N       -6.9130    -1.2980     1.0710 N.am  1 <1>  -0.6600 
 12 C       -7.1660     0.1300     0.7350 C.3   1 <1>   0.1400 
 13 C       -8.1360    -2.0090     1.5400 C.3   1 <1>   0.1400 
 14 C       -8.2030     0.1980    -0.3880 C.3   1 <1>  -0.1600 
 15 C       -9.2000    -1.9580     0.4410 C.3   1 <1>  -0.1600 
 16 C       -9.5010    -0.5210     0.0050 C.3   1 <1>   0.4180 
 17 O      -10.0620     0.1190     1.1260 O.3   1 <1>  -0.5600 
 18 C      -10.4930    -0.5340    -1.1550 C.2   1 <1>  -0.2880 
 19 C      -10.8230     1.2730     0.9010 C.3   1 <1>   0.1200 
 20 C      -11.6600     0.1130    -1.1510 C.2   1 <1>  -0.2760 
 21 C      -12.0580     0.9510     0.0500 C.3   1 <1>  -0.0220 
 22 C      -12.6710     0.0740    -2.2840 C.3   1 <1>  -0.1020 
 23 H       -2.6490     0.7830    -0.5300 H     1 <1>   0.1500 
 24 H        1.5530    -2.7810    -1.1040 H     1 <1>   0.4000 
 25 H        2.0300    -1.1720    -1.5960 H     1 <1>   0.4000 
 26 H       -2.9770    -2.5160     1.2240 H     1 <1>   0.0800 
 27 H       -3.4660    -2.9060    -0.3960 H     1 <1>   0.0800 
 28 H       -4.7370    -0.7900    -0.5280 H     1 <1>   0.0800 
 29 H       -4.2640    -0.4080     1.1130 H     1 <1>   0.0800 
 30 H       -6.2680     0.6330     0.4290 H     1 <1>   0.0800 
 31 H       -7.5450     0.6330     1.6100 H     1 <1>   0.0800 
 32 H       -8.5050    -1.5290     2.4310 H     1 <1>   0.0800 
 33 H       -7.9170    -3.0350     1.7830 H     1 <1>   0.0800 
 34 H       -7.7920    -0.2720    -1.2640 H     1 <1>   0.0800 
 35 H       -8.4080     1.2190    -0.6430 H     1 <1>   0.0800 
 36 H      -10.1070    -2.4180     0.7890 H     1 <1>   0.0800 
 37 H       -8.8490    -2.5260    -0.4000 H     1 <1>   0.0800 
 38 H      -10.1560    -1.1310    -1.9830 H     1 <1>   0.1500 
 39 H      -10.2060     2.0020     0.4080 H     1 <1>   0.0800 
 40 H      -11.1210     1.6620     1.8580 H     1 <1>   0.0800 
 41 H      -12.5030     1.8760    -0.2710 H     1 <1>   0.0800 
 42 H      -12.7800     0.4190     0.6430 H     1 <1>   0.0800 
 43 H      -13.6070    -0.3220    -1.9300 H     1 <1>   0.0800 
 44 H      -12.3160    -0.5530    -3.0830 H     1 <1>   0.0800 
 45 H      -12.8340     1.0630    -2.6720 H     1 <1>   0.0800 
@<TRIPOS>BOND
  1   1   2  1   
  2   1   3  1   
  3   2   4  2   
  4   2   5  1   
  5   3   6  2   
  6   3  23  1   
  7   4   6  1   
  8   5  24  1   
  9   5  25  1   
 10   6   7  1   
 11   7   8  1   
 12   7  26  1   
 13   7  27  1   
 14   8   9  1   
 15   8  28  1   
 16   8  29  1   
 17   9  10  2   
 18   9  11  am  
 19  11  12  1   
 20  11  13  1   
 21  12  14  1   
 22  12  30  1   
 23  12  31  1   
 24  13  15  1   
 25  13  32  1   
 26  13  33  1   
 27  14  16  1   
 28  14  34  1   
 29  14  35  1   
 30  15  16  1   
 31  15  36  1   
 32  15  37  1   
 33  16  17  1   
 34  16  18  1   
 35  17  19  1   
 36  18  20  2   
 37  18  38  1   
 38  19  21  1   
 39  19  39  1   
 40  19  40  1   
 41  20  21  1   
 42  20  22  1   
 43  21  41  1   
 44  21  42  1   
 45  22  43  1   
 46  22  44  1   
 47  22  45  1   
@<TRIPOS>SUBSTRUCTURE
  1 ****  11 GROUP 4 **** **** 0

# MOE 2024.06 (io_trps.svl 2023.06)
