@<TRIPOS>MOLECULE
NONAME
50 52 1 0 0 
SMALL
USER_CHARGES


@<TRIPOS>ATOM
  1 O       -1.0190    -0.1140    -0.1390 O.2   1 <1>  -0.5700 
  2 C       -1.7910     0.7870    -0.4180 C.2   1 <1>   0.5440 
  3 N       -3.0330     0.4280    -0.9000 N.am  1 <1>  -0.6600 
  4 C       -1.4320     2.1800    -0.2200 C.ar  1 <1>   0.0860 
  5 C       -3.2830    -0.9740    -1.3170 C.3   1 <1>   0.1400 
  6 C       -4.2600     1.1530    -0.4760 C.3   1 <1>   0.1400 
  7 C       -0.9410     2.6850     0.9960 C.ar  1 <1>  -0.1440 
  8 C       -1.5970     3.0760    -1.2790 C.ar  1 <1>  -0.1500 
  9 C       -3.8350    -1.7480    -0.1020 C.3   1 <1>   0.4230 
 10 C       -4.8510     0.4110     0.7320 C.3   1 <1>  -0.1600 
 11 C       -0.6400     4.0310     1.1250 C.ar  1 <1>  -0.1500 
 12 C       -0.7280     1.7740     2.1990 C.3   1 <1>  -0.0960 
 13 C       -1.3000     4.4180    -1.1480 C.ar  1 <1>  -0.1500 
 14 N       -3.9320    -3.2520    -0.3160 N.4   1 <1>  -0.9590 
 15 C       -5.1370    -1.0980     0.4620 C.3   1 <1>   0.0000 
 16 C       -0.8230     4.8940     0.0570 C.ar  1 <1>   0.0820 
 17 C       -4.8260    -3.9530     0.6610 C.3   1 <1>   0.3430 
 18 C       -4.2550    -3.6870    -1.7150 C.3   1 <1>   0.2630 
 19 C       -5.5090    -1.7850     1.8100 C.3   1 <1>  -0.1600 
 20 C       -6.2970    -1.2500    -0.5630 C.3   1 <1>   0.1200 
 21 O       -0.5380     6.1950     0.1790 O.3   1 <1>  -0.5330 
 22 C       -4.9000    -3.1900     1.9820 C.3   1 <1>  -0.1600 
 23 O       -7.4100    -0.5140    -0.1910 O.3   1 <1>  -0.6800 
 24 H       -3.9720    -0.9730    -2.1410 H     1 <1>   0.0800 
 25 H       -2.3600    -1.4200    -1.6490 H     1 <1>   0.0800 
 26 H       -4.0300     2.1680    -0.2000 H     1 <1>   0.0800 
 27 H       -4.9670     1.1860    -1.2890 H     1 <1>   0.0800 
 28 H       -1.9640     2.7090    -2.2220 H     1 <1>   0.1500 
 29 H       -3.0940    -1.6050     0.6680 H     1 <1>   0.0800 
 30 H       -4.1460     0.5100     1.5390 H     1 <1>   0.0800 
 31 H       -5.7450     0.9200     1.0460 H     1 <1>   0.0800 
 32 H       -0.2630     4.4140     2.0550 H     1 <1>   0.1500 
 33 H       -0.4940     2.3410     3.0820 H     1 <1>   0.0800 
 34 H        0.0880     1.1000     2.0040 H     1 <1>   0.0800 
 35 H       -1.6130     1.1970     2.3940 H     1 <1>   0.0800 
 36 H       -1.4330     5.0980    -1.9700 H     1 <1>   0.1500 
 37 H       -2.9770    -3.5890    -0.1170 H     1 <1>   0.4500 
 38 H       -5.8220    -4.0290     0.2550 H     1 <1>   0.0800 
 39 H       -4.4630    -4.9540     0.8370 H     1 <1>   0.0800 
 40 H       -5.2260    -3.3240    -2.0080 H     1 <1>   0.0800 
 41 H       -4.2580    -4.7630    -1.7800 H     1 <1>   0.0800 
 42 H       -3.5200    -3.3100    -2.4080 H     1 <1>   0.0800 
 43 H       -5.1770    -1.1890     2.6440 H     1 <1>   0.0800 
 44 H       -6.5790    -1.8550     1.9060 H     1 <1>   0.0800 
 45 H       -6.6080    -2.2740    -0.6590 H     1 <1>   0.0800 
 46 H       -6.0120    -0.8890    -1.5350 H     1 <1>   0.0800 
 47 H       -0.1850     6.4400     1.0530 H     1 <1>   0.4500 
 48 H       -5.4980    -3.7490     2.6820 H     1 <1>   0.0800 
 49 H       -3.9110    -3.1170     2.4030 H     1 <1>   0.0800 
 50 H       -7.7850    -0.8120     0.6610 H     1 <1>   0.4000 
@<TRIPOS>BOND
  1   1   2  2   
  2   2   3  am  
  3   2   4  1   
  4   3   5  1   
  5   3   6  1   
  6   4   7  ar  
  7   4   8  ar  
  8   5   9  1   
  9   5  24  1   
 10   5  25  1   
 11   6  10  1   
 12   6  26  1   
 13   6  27  1   
 14   7  11  ar  
 15   7  12  1   
 16   8  13  ar  
 17   8  28  1   
 18   9  14  1   
 19   9  15  1   
 20   9  29  1   
 21  10  15  1   
 22  10  30  1   
 23  10  31  1   
 24  11  16  ar  
 25  11  32  1   
 26  12  33  1   
 27  12  34  1   
 28  12  35  1   
 29  13  16  ar  
 30  13  36  1   
 31  14  17  1   
 32  14  18  1   
 33  14  37  1   
 34  15  19  1   
 35  15  20  1   
 36  16  21  1   
 37  17  22  1   
 38  17  38  1   
 39  17  39  1   
 40  18  40  1   
 41  18  41  1   
 42  18  42  1   
 43  19  22  1   
 44  19  43  1   
 45  19  44  1   
 46  20  23  1   
 47  20  45  1   
 48  20  46  1   
 49  21  47  1   
 50  22  48  1   
 51  22  49  1   
 52  23  50  1   
@<TRIPOS>SUBSTRUCTURE
  1 ****   3 GROUP 4 **** **** 0

# MOE 2024.06 (io_trps.svl 2023.06)
