@<TRIPOS>MOLECULE
NONAME
18 19 1 0 0 
SMALL
USER_CHARGES


@<TRIPOS>ATOM
  1 F       -0.0450    -0.1010     0.0610 F     1 <1>  -0.3400 
  2 C       -1.0380    -0.9880     0.0500 C.3   1 <1>   0.6800 
  3 F       -0.1380    -1.9660     0.0630 F     1 <1>  -0.3400 
  4 C       -2.1490    -2.0990     0.0380 C.3   1 <1>   0.0960 
  5 C       -2.0440     0.2330     0.0340 C.3   1 <1>   0.0200 
  6 N       -3.4640    -1.5240     0.0200 N.pl3 1 <1>   0.3140 
  7 C       -3.4630    -0.2270     0.0170 C.2   1 <1>  -0.3320 
  8 N       -4.6780    -2.0600     0.0050 N.2   1 <1>  -0.7070 
  9 C       -4.7480     0.1680     0.0000 C.2   1 <1>  -0.1500 
 10 C       -5.5090    -1.0170    -0.0080 C.2   1 <1>   0.0560 
 11 C       -6.9850    -0.9780    -0.0270 C.2   1 <1>   1.0330 
 12 O       -7.5750     0.1250    -0.0360 O.co2 1 <1>  -0.9000 
 13 O       -7.6960    -2.0050    -0.0340 O.co2 1 <1>  -0.9000 
 14 H       -2.0880    -2.7100     0.9190 H     1 <1>   0.0800 
 15 H       -2.0660    -2.7140    -0.8390 H     1 <1>   0.0800 
 16 H       -1.8930     0.8390    -0.8440 H     1 <1>   0.0800 
 17 H       -1.9160     0.8430     0.9140 H     1 <1>   0.0800 
 18 H       -5.1760     1.1560    -0.0080 H     1 <1>   0.1500 
@<TRIPOS>BOND
  1   1   2  1   
  2   2   3  1   
  3   2   4  1   
  4   2   5  1   
  5   4   6  1   
  6   4  14  1   
  7   4  15  1   
  8   5   7  1   
  9   5  16  1   
 10   5  17  1   
 11   6   7  1   
 12   6   8  1   
 13   7   9  2   
 14   8  10  2   
 15   9  10  1   
 16   9  18  1   
 17  10  11  1   
 18  11  12  ar  
 19  11  13  ar  
@<TRIPOS>SUBSTRUCTURE
  1 ****   6 GROUP 4 **** **** 0

# MOE 2024.06 (io_trps.svl 2023.06)
