@<TRIPOS>MOLECULE
NONAME
46 48 1 0 0 
SMALL
USER_CHARGES


@<TRIPOS>ATOM
  1 O       -0.4960     0.3790     0.2730 O.2   1 <1>  -0.5700 
  2 C       -0.2720     1.5680     0.3080 C.2   1 <1>   0.5690 
  3 N       -1.3270     2.4160     0.4270 N.am  1 <1>  -0.7300 
  4 C        1.1710     2.1530     0.2620 C.3   1 <1>   0.2510 
  5 C       -1.2080     3.8940     0.3440 C.3   1 <1>   0.1400 
  6 N        1.1780     3.5710    -0.2800 N.3   1 <1>  -0.8100 
  7 C        2.1700     1.2230    -0.4620 C.3   1 <1>  -0.2660 
  8 C        0.2440     4.3590     0.5540 C.3   1 <1>   0.1100 
  9 C        2.5350     4.1460    -0.2760 C.3   1 <1>   0.2900 
 10 C        3.5720     1.3750     0.0680 C.2   1 <1>   0.9060 
 11 C        2.6170     5.5660    -0.8130 C.2   1 <1>  -0.3320 
 12 O        4.5050     1.4530    -0.7360 O.co2 1 <1>  -0.9000 
 13 O        3.7490     1.4980     1.2830 O.co2 1 <1>  -0.9000 
 14 N        3.7150     6.3340    -0.6450 N.pl3 1 <1>   0.0480 
 15 C        1.7490     6.2940    -1.5510 C.2   1 <1>   0.0770 
 16 C        3.4170     7.4910    -1.2850 C.2   1 <1>   0.0360 
 17 C        4.9880     5.9350     0.0240 C.3   1 <1>   0.1760 
 18 N        2.2450     7.5140    -1.8320 N.2   1 <1>  -0.5650 
 19 C        5.7200     7.1400     0.6420 C.3   1 <1>  -0.1600 
 20 C        5.8960     5.1870    -0.9650 C.3   1 <1>  -0.1600 
 21 C        7.0190     6.6950     1.3290 C.3   1 <1>  -0.1600 
 22 C        7.2050     4.7530    -0.2920 C.3   1 <1>  -0.1600 
 23 C        7.9310     5.9440     0.3490 C.3   1 <1>  -0.1600 
 24 H       -2.2560     1.9970     0.3950 H     1 <1>   0.3700 
 25 H        1.4710     2.1940     1.2940 H     1 <1>   0.0800 
 26 H       -1.8400     4.3480     1.0850 H     1 <1>   0.0800 
 27 H       -1.5380     4.2150    -0.6290 H     1 <1>   0.0800 
 28 H        2.1500     1.3980    -1.5200 H     1 <1>   0.0800 
 29 H        1.9130     0.1970    -0.2890 H     1 <1>   0.0800 
 30 H        0.5100     4.2580     1.5930 H     1 <1>   0.0800 
 31 H        0.2970     5.4040     0.3140 H     1 <1>   0.0800 
 32 H        3.1650     3.5680    -0.9260 H     1 <1>   0.0800 
 33 H        2.9350     4.0920     0.7230 H     1 <1>   0.0800 
 34 H        0.7810     5.9840    -1.9050 H     1 <1>   0.1500 
 35 H        4.1100     8.3110    -1.3330 H     1 <1>   0.1500 
 36 H        4.7430     5.2590     0.8240 H     1 <1>   0.0800 
 37 H        5.0800     7.6170     1.3650 H     1 <1>   0.0800 
 38 H        5.9670     7.8520    -0.1250 H     1 <1>   0.0800 
 39 H        6.1180     5.8210    -1.8060 H     1 <1>   0.0800 
 40 H        5.3900     4.3070    -1.3270 H     1 <1>   0.0800 
 41 H        6.7830     6.0490     2.1580 H     1 <1>   0.0800 
 42 H        7.5370     7.5550     1.7170 H     1 <1>   0.0800 
 43 H        7.8440     4.2820    -1.0190 H     1 <1>   0.0800 
 44 H        6.9800     4.0160     0.4640 H     1 <1>   0.0800 
 45 H        8.8050     5.5910     0.8680 H     1 <1>   0.0800 
 46 H        8.2570     6.6180    -0.4250 H     1 <1>   0.0800 
@<TRIPOS>BOND
  1   1   2  2   
  2   2   3  am  
  3   2   4  1   
  4   3   5  1   
  5   3  24  1   
  6   4   6  1   
  7   4   7  1   
  8   4  25  1   
  9   5   8  1   
 10   5  26  1   
 11   5  27  1   
 12   6   8  1   
 13   6   9  1   
 14   7  10  1   
 15   7  28  1   
 16   7  29  1   
 17   8  30  1   
 18   8  31  1   
 19   9  11  1   
 20   9  32  1   
 21   9  33  1   
 22  10  12  ar  
 23  10  13  ar  
 24  11  14  1   
 25  11  15  2   
 26  14  16  1   
 27  14  17  1   
 28  15  18  1   
 29  15  34  1   
 30  16  18  2   
 31  16  35  1   
 32  17  19  1   
 33  17  20  1   
 34  17  36  1   
 35  19  21  1   
 36  19  37  1   
 37  19  38  1   
 38  20  22  1   
 39  20  39  1   
 40  20  40  1   
 41  21  23  1   
 42  21  41  1   
 43  21  42  1   
 44  22  23  1   
 45  22  43  1   
 46  22  44  1   
 47  23  45  1   
 48  23  46  1   
@<TRIPOS>SUBSTRUCTURE
  1 ****   9 GROUP 4 **** **** 0

# MOE 2024.06 (io_trps.svl 2023.06)
