@<TRIPOS>MOLECULE
NONAME
51 54 1 0 0 
SMALL
USER_CHARGES


@<TRIPOS>ATOM
  1 O       -3.8230     1.8240    -1.5790 O.2   1 <1>  -0.5700 
  2 C       -3.0370     1.5000    -0.7260 C.2   1 <1>   0.5690 
  3 N       -2.6500     0.2130    -0.5610 N.am  1 <1>  -0.7300 
  4 C       -2.4670     2.5540     0.2010 C.3   1 <1>  -0.0990 
  5 C       -3.0650    -0.9160    -1.4240 C.3   1 <1>   0.2200 
  6 C       -0.9550     2.7530    -0.0060 C.3   1 <1>  -0.1600 
  7 C       -4.0300    -1.8410    -0.6960 C.3   1 <1>  -0.0800 
  8 C       -1.8760    -1.8450    -1.6160 C.3   1 <1>   0.1200 
  9 C       -0.3930     3.8470     0.9110 C.3   1 <1>   0.0210 
 10 C       -3.0980    -2.7870     0.0720 C.3   1 <1>   0.1200 
 11 C       -5.0910    -1.1490     0.1840 C.3   1 <1>  -0.0170 
 12 O       -1.8100    -2.5840    -0.4350 O.3   1 <1>  -0.5600 
 13 C        1.1080     4.0150     0.7490 C.2   1 <1>  -0.1810 
 14 C       -6.0810    -2.1640     0.7450 C.ar  1 <1>  -0.1440 
 15 C        1.9040     4.8770     1.4990 C.2   1 <1>   0.1390 
 16 C        1.9710     3.4140    -0.0990 C.2   1 <1>  -0.3020 
 17 C       -7.1330    -2.7050    -0.0310 C.ar  1 <1>   0.0000 
 18 C       -5.9680    -2.5890     2.0370 C.ar  1 <1>  -0.1500 
 19 N        3.1540     4.8220     1.1560 N.2   1 <1>  -0.7070 
 20 N        3.1940     3.9140     0.1650 N.pl3 1 <1>   0.3000 
 21 C       -7.9760    -3.6650     0.5820 C.ar  1 <1>   0.3100 
 22 C       -7.4000    -2.3510    -1.3750 C.ar  1 <1>  -0.1500 
 23 C       -6.8620    -3.5370     2.5480 C.ar  1 <1>   0.1600 
 24 N       -7.8270    -4.0680     1.8680 N.ar  1 <1>  -0.6200 
 25 C       -9.0190    -4.2300    -0.1690 C.ar  1 <1>  -0.1500 
 26 C       -8.4270    -2.9200    -2.0770 C.ar  1 <1>  -0.1500 
 27 C       -9.2470    -3.8740    -1.4700 C.ar  1 <1>  -0.1500 
 28 H       -1.9860    -0.0500     0.1710 H     1 <1>   0.3700 
 29 H       -2.9800     3.4810     0.0160 H     1 <1>   0.0800 
 30 H       -2.6670     2.2620     1.2160 H     1 <1>   0.0800 
 31 H       -3.4600    -0.5560    -2.3600 H     1 <1>   0.0800 
 32 H       -0.4390     1.8300     0.1930 H     1 <1>   0.0800 
 33 H       -0.7730     3.0240    -1.0320 H     1 <1>   0.0800 
 34 H       -4.5360    -2.4320    -1.4390 H     1 <1>   0.0800 
 35 H       -0.9520    -1.3180    -1.7700 H     1 <1>   0.0800 
 36 H       -2.0510    -2.5310    -2.4270 H     1 <1>   0.0800 
 37 H       -0.6010     3.6000     1.9370 H     1 <1>   0.0800 
 38 H       -0.8720     4.7850     0.6890 H     1 <1>   0.0800 
 39 H       -3.3720    -3.8180    -0.0730 H     1 <1>   0.0800 
 40 H       -3.0730    -2.5620     1.1240 H     1 <1>   0.0800 
 41 H       -5.6130    -0.4010    -0.3860 H     1 <1>   0.0800 
 42 H       -4.6100    -0.6370     0.9980 H     1 <1>   0.0800 
 43 H        1.5360     5.5220     2.2800 H     1 <1>   0.1500 
 44 H        1.7950     2.6750    -0.8590 H     1 <1>   0.1500 
 45 H       -5.1990    -2.2180     2.6880 H     1 <1>   0.1500 
 46 H        4.0690     3.6610    -0.3090 H     1 <1>   0.2700 
 47 H       -6.7870    -1.6160    -1.8600 H     1 <1>   0.1500 
 48 H       -6.7370    -3.8450     3.5730 H     1 <1>   0.1500 
 49 H       -9.6390    -4.9590     0.3200 H     1 <1>   0.1500 
 50 H       -8.6180    -2.6410    -3.0990 H     1 <1>   0.1500 
 51 H      -10.0510    -4.3150    -2.0330 H     1 <1>   0.1500 
@<TRIPOS>BOND
  1   1   2  2   
  2   2   3  am  
  3   2   4  1   
  4   3   5  1   
  5   3  28  1   
  6   4   6  1   
  7   4  29  1   
  8   4  30  1   
  9   5   7  1   
 10   5   8  1   
 11   5  31  1   
 12   6   9  1   
 13   6  32  1   
 14   6  33  1   
 15   7  10  1   
 16   7  11  1   
 17   7  34  1   
 18   8  12  1   
 19   8  35  1   
 20   8  36  1   
 21   9  13  1   
 22   9  37  1   
 23   9  38  1   
 24  10  12  1   
 25  10  39  1   
 26  10  40  1   
 27  11  14  1   
 28  11  41  1   
 29  11  42  1   
 30  13  15  1   
 31  13  16  2   
 32  14  17  ar  
 33  14  18  ar  
 34  15  19  2   
 35  15  43  1   
 36  16  20  1   
 37  16  44  1   
 38  17  21  ar  
 39  17  22  ar  
 40  18  23  ar  
 41  18  45  1   
 42  19  20  1   
 43  20  46  1   
 44  21  24  ar  
 45  21  25  ar  
 46  22  26  ar  
 47  22  47  1   
 48  23  24  ar  
 49  23  48  1   
 50  25  27  ar  
 51  25  49  1   
 52  26  27  ar  
 53  26  50  1   
 54  27  51  1   
@<TRIPOS>SUBSTRUCTURE
  1 ****   3 GROUP 4 **** **** 0

# MOE 2024.06 (io_trps.svl 2023.06)
