@<TRIPOS>MOLECULE
NONAME
49 52 1 0 0 
SMALL
USER_CHARGES


@<TRIPOS>ATOM
  1 O       -2.2350     0.3250     1.2090 O.2   1 <1>  -0.5700 
  2 C       -1.9670     1.0580     0.2640 C.2   1 <1>   0.5650 
  3 N       -1.3250     2.3110     0.4600 N.pl3 1 <1>   0.5610 
  4 C       -2.3020     0.7090    -1.0820 C.2   1 <1>   0.0290 
  5 N       -0.9220     2.9240     1.6230 N.2   1 <1>  -0.7070 
  6 C       -1.0450     3.1350    -0.6030 C.2   1 <1>  -0.0680 
  7 C       -2.9510    -0.5400    -1.3100 C.2   1 <1>   0.6160 
  8 C       -1.9880     1.5510    -2.1200 C.2   1 <1>  -0.0500 
  9 C       -0.4130     4.0570     1.2600 C.2   1 <1>   0.1080 
 10 N       -1.3740     2.7490    -1.9100 N.pl3 1 <1>  -0.5840 
 11 C       -0.4590     4.2500    -0.1150 C.2   1 <1>  -0.1500 
 12 O       -2.2790    -1.4930    -1.6640 O.2   1 <1>  -0.5700 
 13 N       -4.3200    -0.6880    -1.2030 N.am  1 <1>  -0.6600 
 14 C        0.1580     5.0380     2.2590 C.3   1 <1>  -0.0590 
 15 C       -4.9820    -2.0170    -1.4110 C.3   1 <1>   0.1400 
 16 C       -5.2630     0.4190    -0.8670 C.3   1 <1>   0.1400 
 17 C       -5.3660    -2.6840    -0.0810 C.3   1 <1>   0.1400 
 18 C       -5.4810     0.5760     0.6460 C.3   1 <1>  -0.1600 
 19 N       -6.2190    -1.7950     0.7660 N.am  1 <1>  -0.6600 
 20 C       -5.4570    -0.7230     1.4620 C.3   1 <1>   0.1400 
 21 C       -7.5880    -1.9340     0.9190 C.2   1 <1>   0.7150 
 22 O       -8.1330    -1.2840     1.7960 O.2   1 <1>  -0.5700 
 23 C       -8.3940    -2.8090     0.0830 C.2   1 <1>   0.0550 
 24 O       -8.0960    -3.0020    -1.2020 O.3   1 <1>  -0.2800 
 25 C       -9.5230    -3.5260     0.3660 C.2   1 <1>  -0.1810 
 26 C       -8.9860    -3.8070    -1.7340 C.2   1 <1>  -0.0100 
 27 C       -9.9010    -4.1700    -0.8130 C.2   1 <1>  -0.1500 
 28 C      -10.2850    -3.6490     1.6740 C.3   1 <1>  -0.0590 
 29 H       -2.2210     1.2750    -3.1380 H     1 <1>   0.1500 
 30 H       -1.1210     3.3750    -2.6900 H     1 <1>   0.4000 
 31 H       -0.1010     5.1100    -0.6500 H     1 <1>   0.1500 
 32 H       -0.6040     5.3190     2.9620 H     1 <1>   0.0800 
 33 H        0.5210     5.9180     1.7610 H     1 <1>   0.0800 
 34 H        0.9690     4.5750     2.7920 H     1 <1>   0.0800 
 35 H       -4.3270    -2.6790    -1.9500 H     1 <1>   0.0800 
 36 H       -5.8640    -1.8890    -2.0130 H     1 <1>   0.0800 
 37 H       -6.2140     0.2100    -1.3280 H     1 <1>   0.0800 
 38 H       -4.9100     1.3470    -1.2820 H     1 <1>   0.0800 
 39 H       -4.4660    -2.9320     0.4540 H     1 <1>   0.0800 
 40 H       -5.8750    -3.6100    -0.2790 H     1 <1>   0.0800 
 41 H       -6.4310     1.0560     0.8020 H     1 <1>   0.0800 
 42 H       -4.7390     1.2400     1.0490 H     1 <1>   0.0800 
 43 H       -5.8730    -0.5460     2.4390 H     1 <1>   0.0800 
 44 H       -4.4370    -1.0390     1.6010 H     1 <1>   0.0800 
 45 H       -8.9000    -4.0720    -2.7730 H     1 <1>   0.1500 
 46 H      -10.7540    -4.8150    -0.9330 H     1 <1>   0.1500 
 47 H       -9.7470    -3.1810     2.4780 H     1 <1>   0.0800 
 48 H      -10.4290    -4.6860     1.9190 H     1 <1>   0.0800 
 49 H      -11.2450    -3.1750     1.5820 H     1 <1>   0.0800 
@<TRIPOS>BOND
  1   1   2  2   
  2   2   3  1   
  3   2   4  1   
  4   3   5  1   
  5   3   6  1   
  6   4   7  1   
  7   4   8  2   
  8   5   9  2   
  9   6  10  1   
 10   6  11  2   
 11   7  12  2   
 12   7  13  am  
 13   8  10  1   
 14   8  29  1   
 15   9  11  1   
 16   9  14  1   
 17  10  30  1   
 18  11  31  1   
 19  13  15  1   
 20  13  16  1   
 21  14  32  1   
 22  14  33  1   
 23  14  34  1   
 24  15  17  1   
 25  15  35  1   
 26  15  36  1   
 27  16  18  1   
 28  16  37  1   
 29  16  38  1   
 30  17  19  1   
 31  17  39  1   
 32  17  40  1   
 33  18  20  1   
 34  18  41  1   
 35  18  42  1   
 36  19  20  1   
 37  19  21  am  
 38  20  43  1   
 39  20  44  1   
 40  21  22  2   
 41  21  23  1   
 42  23  24  1   
 43  23  25  2   
 44  24  26  1   
 45  25  27  1   
 46  25  28  1   
 47  26  27  2   
 48  26  45  1   
 49  27  46  1   
 50  28  47  1   
 51  28  48  1   
 52  28  49  1   
@<TRIPOS>SUBSTRUCTURE
  1 ****  16 GROUP 4 **** **** 0

# MOE 2024.06 (io_trps.svl 2023.06)
