@<TRIPOS>MOLECULE
NONAME
56 58 1 0 0 
SMALL
USER_CHARGES


@<TRIPOS>ATOM
  1 O       -1.2810     0.2510    -0.7200 O.2   1 <1>  -0.5700 
  2 C       -2.3370     0.7280    -0.3740 C.2   1 <1>   0.5690 
  3 N       -3.5060     0.0210    -0.5260 N.am  1 <1>  -0.6600 
  4 C       -2.3230     2.1440     0.2270 C.3   1 <1>  -0.0190 
  5 C       -4.8850     0.5610    -0.3490 C.3   1 <1>   0.2840 
  6 C       -3.4600    -1.4010    -0.9840 C.3   1 <1>   0.1400 
  7 C       -2.4680     3.2170    -0.8700 C.3   1 <1>  -0.1600 
  8 C       -1.0680     2.4310     1.0930 C.3   1 <1>  -0.1600 
  9 C       -5.5890    -0.1400     0.8040 C.ar  1 <1>  -0.1440 
 10 C       -3.0620    -2.3310     0.1660 C.3   1 <1>  -0.0160 
 11 C       -2.6540     4.6330    -0.2810 C.3   1 <1>   0.2000 
 12 C       -0.8160     3.9330     1.3470 C.3   1 <1>  -0.1600 
 13 C       -6.6540    -0.9940     0.5560 C.ar  1 <1>  -0.1500 
 14 C       -5.1700     0.0580     2.1120 C.ar  1 <1>  -0.1500 
 15 C       -3.2830    -3.7780    -0.2380 C.ar  1 <1>  -0.1440 
 16 O       -2.0040     5.5510    -1.1240 O.3   1 <1>  -0.5600 
 17 C       -2.0840     4.7690     1.1550 C.3   1 <1>   0.2000 
 18 C       -7.2920    -1.6400     1.6000 C.ar  1 <1>  -0.1500 
 19 C       -5.8080    -0.5870     3.1570 C.ar  1 <1>  -0.1500 
 20 C       -2.3110    -4.4650    -0.9470 C.ar  1 <1>  -0.1500 
 21 C       -4.4670    -4.4190     0.0940 C.ar  1 <1>  -0.1500 
 22 C       -2.7010     5.8970    -2.2800 C.3   1 <1>   0.0400 
 23 O       -1.7670     6.0900     1.3940 O.3   1 <1>  -0.6800 
 24 C       -6.8690    -1.4370     2.9020 C.ar  1 <1>  -0.1500 
 25 C       -2.5190    -5.7820    -1.3210 C.ar  1 <1>  -0.1500 
 26 C       -4.6760    -5.7360    -0.2790 C.ar  1 <1>  -0.1500 
 27 C       -3.7020    -6.4180    -0.9870 C.ar  1 <1>  -0.1500 
 28 H       -3.1610     2.2260     0.8900 H     1 <1>   0.0800 
 29 H       -4.8770     1.6190    -0.1710 H     1 <1>   0.0800 
 30 H       -5.4350     0.4030    -1.2600 H     1 <1>   0.0800 
 31 H       -4.4230    -1.6960    -1.3620 H     1 <1>   0.0800 
 32 H       -2.7490    -1.5020    -1.7860 H     1 <1>   0.0800 
 33 H       -3.3060     2.9840    -1.5010 H     1 <1>   0.0800 
 34 H       -1.5770     3.1920    -1.4750 H     1 <1>   0.0800 
 35 H       -1.1780     1.9190     2.0330 H     1 <1>   0.0800 
 36 H       -0.1880     2.0310     0.6180 H     1 <1>   0.0800 
 37 H       -2.0270    -2.1750     0.4130 H     1 <1>   0.0800 
 38 H       -3.6520    -2.1140     1.0370 H     1 <1>   0.0800 
 39 H       -3.7000     4.8840    -0.2400 H     1 <1>   0.0800 
 40 H       -0.0740     4.2790     0.6480 H     1 <1>   0.0800 
 41 H       -0.4320     4.0720     2.3420 H     1 <1>   0.0800 
 42 H       -6.9930    -1.1650    -0.4510 H     1 <1>   0.1500 
 43 H       -4.3410     0.7090     2.3240 H     1 <1>   0.1500 
 44 H       -2.8200     4.4730     1.8810 H     1 <1>   0.0800 
 45 H       -8.1180    -2.3010     1.4020 H     1 <1>   0.1500 
 46 H       -5.4760    -0.4310     4.1690 H     1 <1>   0.1500 
 47 H       -1.3880    -3.9770    -1.2100 H     1 <1>   0.1500 
 48 H       -5.2280    -3.8950     0.6460 H     1 <1>   0.1500 
 49 H       -2.1100     6.6120    -2.8250 H     1 <1>   0.0800 
 50 H       -3.6440     6.3410    -2.0090 H     1 <1>   0.0800 
 51 H       -2.8520     5.0210    -2.8870 H     1 <1>   0.0800 
 52 H       -1.4680     6.4550     0.5300 H     1 <1>   0.4000 
 53 H       -7.3650    -1.9390     3.7140 H     1 <1>   0.1500 
 54 H       -1.7600    -6.3100    -1.8710 H     1 <1>   0.1500 
 55 H       -5.5960    -6.2290    -0.0170 H     1 <1>   0.1500 
 56 H       -3.8640    -7.4410    -1.2770 H     1 <1>   0.1500 
@<TRIPOS>BOND
  1   1   2  2   
  2   2   3  am  
  3   2   4  1   
  4   3   5  1   
  5   3   6  1   
  6   4   7  1   
  7   4   8  1   
  8   4  28  1   
  9   5   9  1   
 10   5  29  1   
 11   5  30  1   
 12   6  10  1   
 13   6  31  1   
 14   6  32  1   
 15   7  11  1   
 16   7  33  1   
 17   7  34  1   
 18   8  12  1   
 19   8  35  1   
 20   8  36  1   
 21   9  13  ar  
 22   9  14  ar  
 23  10  15  1   
 24  10  37  1   
 25  10  38  1   
 26  11  16  1   
 27  11  17  1   
 28  11  39  1   
 29  12  17  1   
 30  12  40  1   
 31  12  41  1   
 32  13  18  ar  
 33  13  42  1   
 34  14  19  ar  
 35  14  43  1   
 36  15  20  ar  
 37  15  21  ar  
 38  16  22  1   
 39  17  23  1   
 40  17  44  1   
 41  18  24  ar  
 42  18  45  1   
 43  19  24  ar  
 44  19  46  1   
 45  20  25  ar  
 46  20  47  1   
 47  21  26  ar  
 48  21  48  1   
 49  22  49  1   
 50  22  50  1   
 51  22  51  1   
 52  23  52  1   
 53  24  53  1   
 54  25  27  ar  
 55  25  54  1   
 56  26  27  ar  
 57  26  55  1   
 58  27  56  1   
@<TRIPOS>SUBSTRUCTURE
  1 ****   3 GROUP 4 **** **** 0

# MOE 2024.06 (io_trps.svl 2023.06)
