@<TRIPOS>MOLECULE
NONAME
62 66 1 0 0 
SMALL
USER_CHARGES


@<TRIPOS>ATOM
  1 O       -0.1820     0.3140     2.0470 O.2   1 <1>  -0.5700 
  2 C       -1.0240     0.7450     1.2990 C.2   1 <1>   0.5690 
  3 N       -2.1890     0.0810     1.0760 N.am  1 <1>  -0.7300 
  4 C       -0.7150     2.0510     0.5660 C.3   1 <1>   0.0610 
  5 C       -2.5790    -1.1810     1.7390 C.3   1 <1>   0.1400 
  6 C        0.0590     3.0240     1.4970 C.3   1 <1>   0.4230 
  7 C       -1.9560     2.9270     0.2120 C.3   1 <1>  -0.1600 
  8 C        0.1040     1.6480    -0.6930 C.3   1 <1>  -0.0170 
  9 C       -4.0020    -1.0310     2.2640 C.3   1 <1>  -0.2400 
 10 N       -0.2130     4.3160     0.8340 N.4   1 <1>  -0.9590 
 11 C       -0.6710     3.2350     2.8440 C.3   1 <1>  -0.1600 
 12 C       -1.6760     4.2560     0.9280 C.3   1 <1>   0.4230 
 13 C        0.8080     2.7840    -1.4250 C.ar  1 <1>  -0.1440 
 14 C        0.4450     5.5350     1.3870 C.3   1 <1>   0.4860 
 15 C       -1.9020     4.0550     2.4320 C.3   1 <1>  -0.1600 
 16 C        0.1790     3.4730    -2.4520 C.ar  1 <1>  -0.1500 
 17 C        2.1060     3.1280    -1.0750 C.ar  1 <1>  -0.1500 
 18 C       -0.1600     6.7490     0.7100 C.ar  1 <1>  -0.1440 
 19 C        0.8320     4.5020    -3.1060 C.ar  1 <1>  -0.1500 
 20 C        2.7600     4.1560    -1.7300 C.ar  1 <1>  -0.1500 
 21 C       -1.1220     7.5120     1.3690 C.ar  1 <1>  -0.1500 
 22 C        0.2250     7.0940    -0.5780 C.ar  1 <1>  -0.1500 
 23 C        2.1230     4.8440    -2.7470 C.ar  1 <1>  -0.1500 
 24 C       -1.7280     8.6040     0.7600 C.ar  1 <1>   0.0820 
 25 C       -0.3820     8.1800    -1.1740 C.ar  1 <1>   0.0820 
 26 O       -2.6650     9.2570     1.4980 O.3   1 <1>  -0.3630 
 27 C       -1.3340     8.9250    -0.5400 C.ar  1 <1>   0.0820 
 28 O       -0.1540     8.6500    -2.4040 O.3   1 <1>  -0.3620 
 29 C       -3.2930    10.4210     1.0090 C.3   1 <1>   0.0400 
 30 O       -1.7450     9.9070    -1.3630 O.3   1 <1>  -0.3620 
 31 C       -1.0000     9.7830    -2.5720 C.3   1 <1>   0.4000 
 32 H       -2.8540     0.4030     0.3710 H     1 <1>   0.3700 
 33 H       -2.5270    -1.9910     1.0310 H     1 <1>   0.0800 
 34 H       -1.9080    -1.3980     2.5550 H     1 <1>   0.0800 
 35 H        1.1040     2.7800     1.5960 H     1 <1>   0.0800 
 36 H       -2.8870     2.5140     0.5550 H     1 <1>   0.0800 
 37 H       -2.0460     3.0980    -0.8430 H     1 <1>   0.0800 
 38 H        0.8570     0.9330    -0.4030 H     1 <1>   0.0800 
 39 H       -0.5410     1.1320    -1.3840 H     1 <1>   0.0800 
 40 H       -4.6880    -0.8480     1.4570 H     1 <1>   0.0800 
 41 H       -4.0550    -0.2270     2.9760 H     1 <1>   0.0800 
 42 H       -4.2980    -1.9390     2.7590 H     1 <1>   0.0800 
 43 H        0.0630     4.2440    -0.1600 H     1 <1>   0.4500 
 44 H       -0.9450     2.3220     3.3410 H     1 <1>   0.0800 
 45 H       -0.0450     3.7880     3.5220 H     1 <1>   0.0800 
 46 H       -2.1910     5.1060     0.5040 H     1 <1>   0.0800 
 47 H        0.2890     5.6040     2.4500 H     1 <1>   0.0800 
 48 H        1.5050     5.5010     1.1960 H     1 <1>   0.0800 
 49 H       -1.9340     4.9980     2.9470 H     1 <1>   0.0800 
 50 H       -2.8230     3.5320     2.6310 H     1 <1>   0.0800 
 51 H       -0.8150     3.2090    -2.7690 H     1 <1>   0.1500 
 52 H        2.6280     2.5900    -0.3010 H     1 <1>   0.1500 
 53 H        0.3410     5.0350    -3.9040 H     1 <1>   0.1500 
 54 H        3.7710     4.4150    -1.4620 H     1 <1>   0.1500 
 55 H       -1.4240     7.2770     2.3740 H     1 <1>   0.1500 
 56 H        0.9730     6.5480    -1.1200 H     1 <1>   0.1500 
 57 H        2.6330     5.6390    -3.2660 H     1 <1>   0.1500 
 58 H       -3.9620    10.7860     1.7670 H     1 <1>   0.0800 
 59 H       -3.8450    10.1740     0.1200 H     1 <1>   0.0800 
 60 H       -2.5410    11.1610     0.7970 H     1 <1>   0.0800 
 61 H       -1.6710     9.6160    -3.3960 H     1 <1>   0.0800 
 62 H       -0.4000    10.6640    -2.7190 H     1 <1>   0.0800 
@<TRIPOS>BOND
  1   1   2  2   
  2   2   3  am  
  3   2   4  1   
  4   3   5  1   
  5   3  32  1   
  6   4   6  1   
  7   4   7  1   
  8   4   8  1   
  9   5   9  1   
 10   5  33  1   
 11   5  34  1   
 12   6  10  1   
 13   6  11  1   
 14   6  35  1   
 15   7  12  1   
 16   7  36  1   
 17   7  37  1   
 18   8  13  1   
 19   8  38  1   
 20   8  39  1   
 21   9  40  1   
 22   9  41  1   
 23   9  42  1   
 24  10  12  1   
 25  10  14  1   
 26  10  43  1   
 27  11  15  1   
 28  11  44  1   
 29  11  45  1   
 30  12  15  1   
 31  12  46  1   
 32  13  16  ar  
 33  13  17  ar  
 34  14  18  1   
 35  14  47  1   
 36  14  48  1   
 37  15  49  1   
 38  15  50  1   
 39  16  19  ar  
 40  16  51  1   
 41  17  20  ar  
 42  17  52  1   
 43  18  21  ar  
 44  18  22  ar  
 45  19  23  ar  
 46  19  53  1   
 47  20  23  ar  
 48  20  54  1   
 49  21  24  ar  
 50  21  55  1   
 51  22  25  ar  
 52  22  56  1   
 53  23  57  1   
 54  24  26  1   
 55  24  27  ar  
 56  25  27  ar  
 57  25  28  1   
 58  26  29  1   
 59  27  30  1   
 60  28  31  1   
 61  29  58  1   
 62  29  59  1   
 63  29  60  1   
 64  30  31  1   
 65  31  61  1   
 66  31  62  1   
@<TRIPOS>SUBSTRUCTURE
  1 ****  10 GROUP 4 **** **** 0

# MOE 2024.06 (io_trps.svl 2023.06)
