@<TRIPOS>MOLECULE
NONAME
45 46 1 0 0 
SMALL
USER_CHARGES


@<TRIPOS>ATOM
  1 F        0.9660     0.3400    -0.7280 F     1 <1>  -0.3400 
  2 C        1.5410    -0.3650     0.2400 C.3   1 <1>   1.0200 
  3 F        2.8330    -0.0720     0.1980 F     1 <1>  -0.3400 
  4 F        1.0770     0.1220     1.3840 F     1 <1>  -0.3400 
  5 C        1.2910    -1.8950     0.0880 C.3   1 <1>   0.1100 
  6 N       -0.0900    -2.4490     0.3440 N.3   1 <1>  -0.8100 
  7 C       -0.0840    -3.9260     0.3530 C.3   1 <1>   0.1100 
  8 C       -1.1190    -1.9150    -0.5750 C.3   1 <1>   0.1100 
  9 C       -1.4750    -4.4950     0.7030 C.3   1 <1>   0.3430 
 10 C       -2.5200    -2.4680    -0.2390 C.3   1 <1>   0.3430 
 11 N       -2.5450    -3.9730    -0.2220 N.4   1 <1>  -0.9590 
 12 C       -3.9020    -4.4720     0.1380 C.3   1 <1>   0.3430 
 13 C       -4.0200    -5.9620    -0.1700 C.3   1 <1>  -0.1600 
 14 C       -5.4380    -6.4650     0.1020 C.3   1 <1>   0.1200 
 15 O       -5.4550    -7.8370    -0.1990 O.3   1 <1>  -0.3630 
 16 C       -6.5800    -8.5780    -0.0510 C.ar  1 <1>   0.0820 
 17 C       -6.4970    -9.9230    -0.3720 C.ar  1 <1>  -0.1500 
 18 C       -7.7950    -8.0670     0.3980 C.ar  1 <1>  -0.1500 
 19 C       -7.6020   -10.7440    -0.2470 C.ar  1 <1>  -0.1500 
 20 C       -8.8930    -8.8980     0.5190 C.ar  1 <1>  -0.1500 
 21 C       -8.8310   -10.2570     0.2020 C.ar  1 <1>  -0.1790 
 22 C       -9.9960   -11.1250     0.3330 C.2   1 <1>   0.9790 
 23 O      -11.0840   -10.6710     0.7350 O.co2 1 <1>  -0.9000 
 24 O       -9.9260   -12.3340     0.0460 O.co2 1 <1>  -0.9000 
 25 H        1.9680    -2.3680     0.7770 H     1 <1>   0.0800 
 26 H        1.6050    -2.1720    -0.9030 H     1 <1>   0.0800 
 27 H        0.6210    -4.2720     1.0910 H     1 <1>   0.0800 
 28 H        0.2300    -4.3010    -0.6060 H     1 <1>   0.0800 
 29 H       -0.8670    -2.1510    -1.5950 H     1 <1>   0.0800 
 30 H       -1.1640    -0.8430    -0.4840 H     1 <1>   0.0800 
 31 H       -1.7070    -4.2200     1.7180 H     1 <1>   0.0800 
 32 H       -1.4350    -5.5710     0.6510 H     1 <1>   0.0800 
 33 H       -3.2270    -2.0960    -0.9620 H     1 <1>   0.0800 
 34 H       -2.8050    -2.0900     0.7290 H     1 <1>   0.0800 
 35 H       -2.3200    -4.2950    -1.1710 H     1 <1>   0.4500 
 36 H       -4.6440    -3.9390    -0.4350 H     1 <1>   0.0800 
 37 H       -4.0940    -4.2950     1.1850 H     1 <1>   0.0800 
 38 H       -3.3460    -6.5280     0.4470 H     1 <1>   0.0800 
 39 H       -3.7940    -6.1380    -1.2070 H     1 <1>   0.0800 
 40 H       -6.1590    -5.9760    -0.5310 H     1 <1>   0.0800 
 41 H       -5.7050    -6.3470     1.1390 H     1 <1>   0.0800 
 42 H       -5.5660   -10.3280    -0.7200 H     1 <1>   0.1500 
 43 H       -7.9130    -7.0350     0.6590 H     1 <1>   0.1500 
 44 H       -7.5290   -11.7900    -0.4980 H     1 <1>   0.1500 
 45 H       -9.8340    -8.5020     0.8670 H     1 <1>   0.1500 
@<TRIPOS>BOND
  1   1   2  1   
  2   2   3  1   
  3   2   4  1   
  4   2   5  1   
  5   5   6  1   
  6   5  25  1   
  7   5  26  1   
  8   6   7  1   
  9   6   8  1   
 10   7   9  1   
 11   7  27  1   
 12   7  28  1   
 13   8  10  1   
 14   8  29  1   
 15   8  30  1   
 16   9  11  1   
 17   9  31  1   
 18   9  32  1   
 19  10  11  1   
 20  10  33  1   
 21  10  34  1   
 22  11  12  1   
 23  11  35  1   
 24  12  13  1   
 25  12  36  1   
 26  12  37  1   
 27  13  14  1   
 28  13  38  1   
 29  13  39  1   
 30  14  15  1   
 31  14  40  1   
 32  14  41  1   
 33  15  16  1   
 34  16  17  ar  
 35  16  18  ar  
 36  17  19  ar  
 37  17  42  1   
 38  18  20  ar  
 39  18  43  1   
 40  19  21  ar  
 41  19  44  1   
 42  20  21  ar  
 43  20  45  1   
 44  21  22  1   
 45  22  23  ar  
 46  22  24  ar  
@<TRIPOS>SUBSTRUCTURE
  1 ****  13 GROUP 4 **** **** 0

# MOE 2024.06 (io_trps.svl 2023.06)
