@<TRIPOS>MOLECULE
NONAME
54 57 1 0 0 
SMALL
USER_CHARGES


@<TRIPOS>ATOM
  1 S       -0.4950     0.1530     1.3340 S.o2  1 <1>   1.5760 
  2 O       -1.7840     0.4470     1.9210 O.2   1 <1>  -0.6500 
  3 O        0.6940     0.1250     2.1580 O.2   1 <1>  -0.6500 
  4 N       -0.6120    -1.2960     0.4760 N.am  1 <1>  -0.8490 
  5 N       -0.2120     1.2290     0.0650 N.am  1 <1>  -0.8490 
  6 C       -1.8330    -1.3110    -0.3530 C.3   1 <1>   0.1960 
  7 C       -0.5720    -2.4480     1.3760 C.3   1 <1>   0.1960 
  8 C        1.1170     1.0290    -0.5200 C.3   1 <1>   0.1960 
  9 C       -0.3870     2.6120     0.5100 C.3   1 <1>   0.1960 
 10 C       -1.9570    -2.5210    -1.3000 C.3   1 <1>   0.2090 
 11 C       -0.0380    -3.6680     0.6240 C.3   1 <1>  -0.1600 
 12 C        1.2920     1.9230    -1.7520 C.3   1 <1>  -0.1600 
 13 C       -0.2630     3.5710    -0.6780 C.3   1 <1>  -0.1600 
 14 N       -2.2510    -3.8120    -0.5980 N.pl3 1 <1>  -0.8380 
 15 C       -1.1160    -4.5600     0.0050 C.3   1 <1>   0.2090 
 16 C        1.0790     3.4000    -1.4020 C.3   1 <1>  -0.1600 
 17 C       -3.5510    -4.1560    -0.2890 C.ar  1 <1>   0.4100 
 18 N       -4.2920    -3.2210     0.2290 N.ar  1 <1>  -0.6200 
 19 C       -4.0500    -5.4690    -0.4980 C.ar  1 <1>   0.0000 
 20 C       -5.5090    -3.5710     0.6470 C.ar  1 <1>   0.4760 
 21 C       -5.3330    -5.7180     0.0020 C.ar  1 <1>   0.3100 
 22 C       -3.3840    -6.5120    -1.1740 C.ar  1 <1>  -0.1500 
 23 N       -6.0560    -4.7410     0.5840 N.ar  1 <1>  -0.6200 
 24 C       -6.3080    -2.4530     1.2700 C.3   1 <1>  -0.0970 
 25 C       -5.8830    -7.0010    -0.1220 C.ar  1 <1>  -0.1500 
 26 C       -3.9430    -7.7580    -1.2940 C.ar  1 <1>  -0.1500 
 27 C       -5.2050    -8.0110    -0.7540 C.ar  1 <1>  -0.1500 
 28 H       -1.8360    -0.4310    -0.9720 H     1 <1>   0.0800 
 29 H       -2.7060    -1.2540     0.2740 H     1 <1>   0.0800 
 30 H       -1.5430    -2.6390     1.8060 H     1 <1>   0.0800 
 31 H        0.1110    -2.2480     2.1850 H     1 <1>   0.0800 
 32 H        1.2340     0.0000    -0.8140 H     1 <1>   0.0800 
 33 H        1.8800     1.2580     0.2080 H     1 <1>   0.0800 
 34 H        0.3500     2.8510     1.2600 H     1 <1>   0.0800 
 35 H       -1.3640     2.7300     0.9500 H     1 <1>   0.0800 
 36 H       -1.0590    -2.6150    -1.8840 H     1 <1>   0.0800 
 37 H       -2.7660    -2.3240    -1.9810 H     1 <1>   0.0800 
 38 H        0.5150    -4.2750     1.3170 H     1 <1>   0.0800 
 39 H        0.6580    -3.3530    -0.1330 H     1 <1>   0.0800 
 40 H        0.5820     1.6190    -2.5020 H     1 <1>   0.0800 
 41 H        2.2790     1.7840    -2.1560 H     1 <1>   0.0800 
 42 H       -0.3610     4.5840    -0.3300 H     1 <1>   0.0800 
 43 H       -1.0710     3.3780    -1.3610 H     1 <1>   0.0800 
 44 H       -1.5070    -5.2070     0.7730 H     1 <1>   0.0800 
 45 H       -0.6630    -5.1810    -0.7480 H     1 <1>   0.0800 
 46 H        1.0950     3.9980    -2.2960 H     1 <1>   0.0800 
 47 H        1.8760     3.7330    -0.7590 H     1 <1>   0.0800 
 48 H       -2.4230    -6.3150    -1.6110 H     1 <1>   0.1500 
 49 H       -5.7640    -2.0450     2.1010 H     1 <1>   0.0800 
 50 H       -7.2590    -2.8150     1.6160 H     1 <1>   0.0800 
 51 H       -6.4700    -1.6810     0.5410 H     1 <1>   0.0800 
 52 H       -6.8610    -7.1660     0.2920 H     1 <1>   0.1500 
 53 H       -3.4220    -8.5490    -1.8060 H     1 <1>   0.1500 
 54 H       -5.6360    -8.9930    -0.8470 H     1 <1>   0.1500 
@<TRIPOS>BOND
  1   1   2  2   
  2   1   3  2   
  3   1   4  am  
  4   1   5  am  
  5   4   6  1   
  6   4   7  1   
  7   5   8  1   
  8   5   9  1   
  9   6  10  1   
 10   6  28  1   
 11   6  29  1   
 12   7  11  1   
 13   7  30  1   
 14   7  31  1   
 15   8  12  1   
 16   8  32  1   
 17   8  33  1   
 18   9  13  1   
 19   9  34  1   
 20   9  35  1   
 21  10  14  1   
 22  10  36  1   
 23  10  37  1   
 24  11  15  1   
 25  11  38  1   
 26  11  39  1   
 27  12  16  1   
 28  12  40  1   
 29  12  41  1   
 30  13  16  1   
 31  13  42  1   
 32  13  43  1   
 33  14  15  1   
 34  14  17  1   
 35  15  44  1   
 36  15  45  1   
 37  16  46  1   
 38  16  47  1   
 39  17  18  ar  
 40  17  19  ar  
 41  18  20  ar  
 42  19  21  ar  
 43  19  22  ar  
 44  20  23  ar  
 45  20  24  1   
 46  21  23  ar  
 47  21  25  ar  
 48  22  26  ar  
 49  22  48  1   
 50  24  49  1   
 51  24  50  1   
 52  24  51  1   
 53  25  27  ar  
 54  25  52  1   
 55  26  27  ar  
 56  26  53  1   
 57  27  54  1   
@<TRIPOS>SUBSTRUCTURE
  1 ****   6 GROUP 4 **** **** 0

# MOE 2024.06 (io_trps.svl 2023.06)
