@<TRIPOS>MOLECULE
NONAME
37 38 1 0 0 
SMALL
USER_CHARGES


@<TRIPOS>ATOM
  1 F       -1.4810    -0.6500    -1.1030 F     1 <1>  -0.1900 
  2 C       -2.2030     0.3150    -0.5980 C.ar  1 <1>   0.1900 
  3 C       -3.1450     0.0140     0.3700 C.ar  1 <1>  -0.1440 
  4 C       -2.0010     1.5980    -1.0620 C.ar  1 <1>  -0.1500 
  5 C       -3.9060     1.0560     0.8850 C.ar  1 <1>  -0.1500 
  6 C       -3.3220    -1.4160     0.8540 C.3   1 <1>   0.4870 
  7 C       -2.7690     2.6230    -0.5390 C.ar  1 <1>  -0.1500 
  8 C       -3.7310     2.3670     0.4370 C.ar  1 <1>  -0.1440 
  9 N       -3.8150    -2.2650    -0.2600 N.4   1 <1>  -0.9590 
 10 C       -4.5760     3.5180     1.0190 C.3   1 <1>   1.1630 
 11 C       -3.7440    -3.7160     0.1360 C.3   1 <1>   0.3430 
 12 C       -5.1710    -1.8140    -0.7320 C.3   1 <1>   0.3430 
 13 F       -5.7870     3.1130     1.3840 F     1 <1>  -0.3400 
 14 F       -4.0160     4.0450     2.0980 F     1 <1>  -0.3400 
 15 F       -4.7590     4.5130     0.1610 F     1 <1>  -0.3400 
 16 C       -5.0910    -4.1910     0.6400 C.3   1 <1>  -0.1860 
 17 C       -5.8900    -2.9510    -1.4460 C.3   1 <1>  -0.1600 
 18 C       -4.9710    -5.6080     1.1000 C.2   1 <1>   0.9060 
 19 C       -6.1410    -4.1040    -0.4680 C.3   1 <1>   0.2000 
 20 O       -3.8580    -6.1360     1.0720 O.co2 1 <1>  -0.9000 
 21 O       -5.9980    -6.1720     1.4760 O.co2 1 <1>  -0.9000 
 22 O       -7.3420    -3.8840     0.1600 O.3   1 <1>  -0.6800 
 23 H       -1.2560     1.7920    -1.8160 H     1 <1>   0.1500 
 24 H       -4.6430     0.8510     1.6470 H     1 <1>   0.1500 
 25 H       -4.0200    -1.4480     1.6750 H     1 <1>   0.0800 
 26 H       -2.3730    -1.7890     1.2030 H     1 <1>   0.0800 
 27 H       -2.6090     3.6280    -0.8980 H     1 <1>   0.1500 
 28 H       -3.1460    -2.1350    -1.0310 H     1 <1>   0.4500 
 29 H       -3.4730    -4.3200    -0.7150 H     1 <1>   0.0800 
 30 H       -2.9950    -3.8770     0.8950 H     1 <1>   0.0800 
 31 H       -5.7730    -1.5220     0.1140 H     1 <1>   0.0800 
 32 H       -5.0720    -0.9640    -1.3880 H     1 <1>   0.0800 
 33 H       -5.3690    -3.6060     1.4950 H     1 <1>   0.0800 
 34 H       -5.2830    -3.2940    -2.2640 H     1 <1>   0.0800 
 35 H       -6.8240    -2.6090    -1.8560 H     1 <1>   0.0800 
 36 H       -6.2210    -5.0350    -1.0080 H     1 <1>   0.0800 
 37 H       -7.4860    -4.6550     0.7670 H     1 <1>   0.4000 
@<TRIPOS>BOND
  1   1   2  1   
  2   2   3  ar  
  3   2   4  ar  
  4   3   5  ar  
  5   3   6  1   
  6   4   7  ar  
  7   4  23  1   
  8   5   8  ar  
  9   5  24  1   
 10   6   9  1   
 11   6  25  1   
 12   6  26  1   
 13   7   8  ar  
 14   7  27  1   
 15   8  10  1   
 16   9  11  1   
 17   9  12  1   
 18   9  28  1   
 19  10  13  1   
 20  10  14  1   
 21  10  15  1   
 22  11  16  1   
 23  11  29  1   
 24  11  30  1   
 25  12  17  1   
 26  12  31  1   
 27  12  32  1   
 28  16  18  1   
 29  16  19  1   
 30  16  33  1   
 31  17  19  1   
 32  17  34  1   
 33  17  35  1   
 34  18  20  ar  
 35  18  21  ar  
 36  19  22  1   
 37  19  36  1   
 38  22  37  1   
@<TRIPOS>SUBSTRUCTURE
  1 ****   6 GROUP 4 **** **** 0

# MOE 2024.06 (io_trps.svl 2023.06)
