@<TRIPOS>MOLECULE
NONAME
43 45 1 0 0 
SMALL
USER_CHARGES


@<TRIPOS>ATOM
  1 O        0.6610    -0.1240     1.9250 O.2   1 <1>  -0.5700 
  2 C        1.1460    -0.6500     0.9430 C.2   1 <1>   0.6160 
  3 N        1.7330     0.1050    -0.0360 N.am  1 <1>  -0.4930 
  4 C        1.1430    -2.0840     0.8290 C.2   1 <1>   0.0290 
  5 C        1.8430     1.5130    -0.1570 C.2   1 <1>   0.0630 
  6 C        0.7610    -2.8050    -0.2780 C.2   1 <1>  -0.1690 
  7 C        1.5930    -2.7960     1.9860 C.2   1 <1>   0.3760 
  8 C        0.8950     2.5120     0.0880 C.2   1 <1>   0.1080 
  9 C        2.9380     2.1760    -0.5890 C.2   1 <1>  -0.3320 
 10 N        0.8910    -4.1820    -0.2170 N.pl3 1 <1>   0.6010 
 11 C        0.1790    -2.2240    -1.5690 C.3   1 <1>  -0.1020 
 12 N        1.7130    -4.0790     2.0570 N.2   1 <1>  -0.5760 
 13 N        1.3560     3.6960    -0.1680 N.2   1 <1>  -0.7070 
 14 C       -0.5240     2.3140     0.5740 C.3   1 <1>  -0.0590 
 15 N        2.6200     3.4970    -0.5780 N.pl3 1 <1>   0.3140 
 16 C        4.2960     1.6300    -1.0110 C.3   1 <1>  -0.0600 
 17 N        0.6330    -5.1010    -1.1770 N.2   1 <1>  -0.7070 
 18 C        1.3630    -4.7820     0.9280 C.2   1 <1>  -0.0260 
 19 C        3.4820     4.6390    -0.9460 C.3   1 <1>   0.0960 
 20 C        0.9320    -6.2430    -0.6260 C.2   1 <1>   0.1390 
 21 C        1.3890    -6.1130     0.6740 C.2   1 <1>  -0.1500 
 22 C        4.2770     5.1400     0.2690 C.3   1 <1>  -0.1600 
 23 C        5.1880     6.3150    -0.1040 C.3   1 <1>  -0.2400 
 24 H        2.2450    -0.4070    -0.7500 H     1 <1>   0.3700 
 25 H        1.8550    -2.2120     2.8530 H     1 <1>   0.0600 
 26 H       -0.7260    -2.7480    -1.8270 H     1 <1>   0.0800 
 27 H        0.8770    -2.3490    -2.3780 H     1 <1>   0.0800 
 28 H       -0.0690    -1.1830    -1.4770 H     1 <1>   0.0800 
 29 H       -0.9240     1.3920     0.1970 H     1 <1>   0.0800 
 30 H       -1.1410     3.1260     0.2380 H     1 <1>   0.0800 
 31 H       -0.5320     2.2910     1.6480 H     1 <1>   0.0800 
 32 H        4.3310     0.5630    -0.8940 H     1 <1>   0.0800 
 33 H        5.0720     2.0590    -0.4020 H     1 <1>   0.0800 
 34 H        4.4880     1.8680    -2.0420 H     1 <1>   0.0800 
 35 H        2.8500     5.4250    -1.3180 H     1 <1>   0.0800 
 36 H        4.1460     4.3350    -1.7320 H     1 <1>   0.0800 
 37 H        0.8310    -7.1850    -1.1410 H     1 <1>   0.1500 
 38 H        1.6980    -6.8990     1.3390 H     1 <1>   0.1500 
 39 H        4.8750     4.3390     0.6660 H     1 <1>   0.0800 
 40 H        3.5850     5.4570     1.0320 H     1 <1>   0.0800 
 41 H        5.9010     6.0190    -0.8540 H     1 <1>   0.0800 
 42 H        5.7270     6.6510     0.7650 H     1 <1>   0.0800 
 43 H        4.6060     7.1380    -0.4820 H     1 <1>   0.0800 
@<TRIPOS>BOND
  1   1   2  2   
  2   2   3  am  
  3   2   4  1   
  4   3   5  1   
  5   3  24  1   
  6   4   6  2   
  7   4   7  1   
  8   5   8  1   
  9   5   9  2   
 10   6  10  1   
 11   6  11  1   
 12   7  12  2   
 13   7  25  1   
 14   8  13  2   
 15   8  14  1   
 16   9  15  1   
 17   9  16  1   
 18  10  17  1   
 19  10  18  1   
 20  11  26  1   
 21  11  27  1   
 22  11  28  1   
 23  12  18  1   
 24  13  15  1   
 25  14  29  1   
 26  14  30  1   
 27  14  31  1   
 28  15  19  1   
 29  16  32  1   
 30  16  33  1   
 31  16  34  1   
 32  17  20  2   
 33  18  21  2   
 34  19  22  1   
 35  19  35  1   
 36  19  36  1   
 37  20  21  1   
 38  20  37  1   
 39  21  38  1   
 40  22  23  1   
 41  22  39  1   
 42  22  40  1   
 43  23  41  1   
 44  23  42  1   
 45  23  43  1   
@<TRIPOS>SUBSTRUCTURE
  1 ****   3 GROUP 4 **** **** 0

# MOE 2024.06 (io_trps.svl 2023.06)
