@<TRIPOS>MOLECULE
NONAME
34 36 1 0 0 
SMALL
USER_CHARGES


@<TRIPOS>ATOM
  1 F        0.4070     0.3100     0.5000 F     1 <1>  -0.3400 
  2 C        0.9340    -0.2320    -0.5890 C.3   1 <1>   1.1640 
  3 F        2.1420     0.3040    -0.7240 F     1 <1>  -0.3400 
  4 F        0.2170     0.2140    -1.6130 F     1 <1>  -0.3400 
  5 C        0.9650    -1.7670    -0.5120 C.ar  1 <1>  -0.1440 
  6 C       -0.1580    -2.5120    -0.8550 C.ar  1 <1>  -0.1500 
  7 C        2.1040    -2.4470    -0.0910 C.ar  1 <1>  -0.1500 
  8 C       -0.1400    -3.8920    -0.7750 C.ar  1 <1>  -0.1500 
  9 C        2.1130    -3.8280    -0.0120 C.ar  1 <1>  -0.1500 
 10 C        0.9900    -4.5810    -0.3410 C.ar  1 <1>   0.0860 
 11 C        1.0000    -6.0270    -0.2340 C.2   1 <1>   0.5440 
 12 O        1.8110    -6.6650    -0.8800 O.2   1 <1>  -0.5700 
 13 N        0.1230    -6.6880     0.5860 N.am  1 <1>  -0.6600 
 14 C       -0.8380    -6.0530     1.5340 C.3   1 <1>   0.2350 
 15 C       -0.3110    -8.0920     0.3430 C.3   1 <1>   0.2350 
 16 C       -2.1450    -6.7870     1.3140 C.3   1 <1>  -0.2420 
 17 C       -1.8100    -8.0820     0.6110 C.3   1 <1>  -0.2420 
 18 C       -3.1430    -6.4020     2.4090 C.2   1 <1>   0.9470 
 19 C       -2.6890    -7.0640    -0.0680 C.3   1 <1>  -0.2000 
 20 C       -2.3350    -9.5010     0.8310 C.2   1 <1>   0.9470 
 21 O       -4.2420    -5.9270     2.0930 O.co2 1 <1>  -0.9000 
 22 O       -2.7590    -6.3920     3.5870 O.co2 1 <1>  -0.9000 
 23 O       -3.2040    -9.9540     0.0720 O.co2 1 <1>  -0.9000 
 24 O       -1.7750   -10.2260     1.6650 O.co2 1 <1>  -0.9000 
 25 H       -1.0610    -2.0230    -1.1840 H     1 <1>   0.1500 
 26 H        2.9960    -1.9060     0.1820 H     1 <1>   0.1500 
 27 H       -1.0180    -4.4560    -1.0420 H     1 <1>   0.1500 
 28 H        2.9990    -4.3470     0.3120 H     1 <1>   0.1500 
 29 H       -0.4960    -6.2200     2.5410 H     1 <1>   0.0800 
 30 H       -0.9630    -5.0000     1.3750 H     1 <1>   0.0800 
 31 H       -0.1020    -8.4030    -0.6660 H     1 <1>   0.0800 
 32 H        0.1890    -8.7470     1.0360 H     1 <1>   0.0800 
 33 H       -2.3120    -6.5270    -0.9170 H     1 <1>   0.1000 
 34 H       -3.7370    -7.2960    -0.1600 H     1 <1>   0.1000 
@<TRIPOS>BOND
  1   1   2  1   
  2   2   3  1   
  3   2   4  1   
  4   2   5  1   
  5   5   6  ar  
  6   5   7  ar  
  7   6   8  ar  
  8   6  25  1   
  9   7   9  ar  
 10   7  26  1   
 11   8  10  ar  
 12   8  27  1   
 13   9  10  ar  
 14   9  28  1   
 15  10  11  1   
 16  11  12  2   
 17  11  13  am  
 18  13  14  1   
 19  13  15  1   
 20  14  16  1   
 21  14  29  1   
 22  14  30  1   
 23  15  17  1   
 24  15  31  1   
 25  15  32  1   
 26  16  17  1   
 27  16  18  1   
 28  16  19  1   
 29  17  19  1   
 30  17  20  1   
 31  18  21  ar  
 32  18  22  ar  
 33  19  33  1   
 34  19  34  1   
 35  20  23  ar  
 36  20  24  ar  
@<TRIPOS>SUBSTRUCTURE
  1 ****  14 GROUP 4 **** **** 0

# MOE 2024.06 (io_trps.svl 2023.06)
