@<TRIPOS>MOLECULE
NONAME
44 46 1 0 0 
SMALL
USER_CHARGES


@<TRIPOS>ATOM
  1 CL      -2.9950    -1.1060    -2.1910 Cl    1 <1>  -0.1770 
  2 C       -2.8860     0.2350    -1.0760 C.ar  1 <1>   0.1770 
  3 C       -3.1180     0.0260     0.2840 C.ar  1 <1>   0.0860 
  4 C       -2.5800     1.4840    -1.5940 C.ar  1 <1>  -0.1500 
  5 C       -3.4320    -1.2850     0.7970 C.2   1 <1>   0.5440 
  6 C       -3.0410     1.1310     1.1310 C.ar  1 <1>  -0.1500 
  7 C       -2.5040     2.5740    -0.7430 C.ar  1 <1>  -0.1500 
  8 O       -2.5310    -2.0710     1.0180 O.2   1 <1>  -0.5700 
  9 N       -4.7310    -1.6770     1.0320 N.am  1 <1>  -0.6600 
 10 C       -2.7390     2.3710     0.6050 C.ar  1 <1>   0.1900 
 11 C       -5.0420    -3.0500     1.5250 C.3   1 <1>   0.1400 
 12 C       -5.9220    -0.9830     0.4620 C.3   1 <1>   0.1400 
 13 F       -2.6730     3.3950     1.4120 F     1 <1>  -0.1900 
 14 C       -5.4970    -3.8910     0.3130 C.3   1 <1>   0.4230 
 15 C       -6.4780    -1.8190    -0.7050 C.3   1 <1>  -0.1600 
 16 N       -5.6970    -5.3540     0.5830 N.4   1 <1>  -0.9590 
 17 C       -6.7870    -3.2910    -0.2980 C.3   1 <1>  -0.1060 
 18 C       -6.0310    -6.1520    -0.6340 C.3   1 <1>   0.3430 
 19 C       -4.6600    -6.0010     1.4290 C.3   1 <1>   0.2630 
 20 C       -7.8860    -3.3500     0.7800 C.2   1 <1>   0.9060 
 21 C       -7.2430    -4.0990    -1.5480 C.3   1 <1>  -0.1600 
 22 C       -6.3100    -5.2780    -1.8660 C.3   1 <1>  -0.1600 
 23 O       -7.9730    -4.3760     1.4730 O.co2 1 <1>  -0.9000 
 24 O       -8.6360    -2.3910     0.9510 O.co2 1 <1>  -0.9000 
 25 H       -2.4050     1.5980    -2.6490 H     1 <1>   0.1500 
 26 H       -3.2140     1.0170     2.1860 H     1 <1>   0.1500 
 27 H       -2.2680     3.5580    -1.1100 H     1 <1>   0.1500 
 28 H       -4.1670    -3.4780     1.9770 H     1 <1>   0.0800 
 29 H       -5.8140    -2.9950     2.2740 H     1 <1>   0.0800 
 30 H       -6.6700    -0.8730     1.2310 H     1 <1>   0.0800 
 31 H       -5.6710     0.0040     0.1140 H     1 <1>   0.0800 
 32 H       -4.7120    -3.8010    -0.4180 H     1 <1>   0.0800 
 33 H       -7.3800    -1.3490    -1.0590 H     1 <1>   0.0800 
 34 H       -5.7670    -1.7990    -1.5120 H     1 <1>   0.0800 
 35 H       -6.6000    -5.3130     1.1310 H     1 <1>   0.4500 
 36 H       -5.2220    -6.8260    -0.8640 H     1 <1>   0.0800 
 37 H       -6.9070    -6.7440    -0.4230 H     1 <1>   0.0800 
 38 H       -3.6990    -5.9520     0.9430 H     1 <1>   0.0800 
 39 H       -4.9150    -7.0330     1.6030 H     1 <1>   0.0800 
 40 H       -4.5940    -5.5030     2.3830 H     1 <1>   0.0800 
 41 H       -8.2350    -4.4860    -1.3740 H     1 <1>   0.0800 
 42 H       -7.3150    -3.4600    -2.4120 H     1 <1>   0.0800 
 43 H       -5.3770    -4.9080    -2.2550 H     1 <1>   0.0800 
 44 H       -6.7520    -5.8870    -2.6340 H     1 <1>   0.0800 
@<TRIPOS>BOND
  1   1   2  1   
  2   2   3  ar  
  3   2   4  ar  
  4   3   5  1   
  5   3   6  ar  
  6   4   7  ar  
  7   4  25  1   
  8   5   8  2   
  9   5   9  am  
 10   6  10  ar  
 11   6  26  1   
 12   7  10  ar  
 13   7  27  1   
 14   9  11  1   
 15   9  12  1   
 16  10  13  1   
 17  11  14  1   
 18  11  28  1   
 19  11  29  1   
 20  12  15  1   
 21  12  30  1   
 22  12  31  1   
 23  14  16  1   
 24  14  17  1   
 25  14  32  1   
 26  15  17  1   
 27  15  33  1   
 28  15  34  1   
 29  16  18  1   
 30  16  19  1   
 31  16  35  1   
 32  17  20  1   
 33  17  21  1   
 34  18  22  1   
 35  18  36  1   
 36  18  37  1   
 37  19  38  1   
 38  19  39  1   
 39  19  40  1   
 40  20  23  ar  
 41  20  24  ar  
 42  21  22  1   
 43  21  41  1   
 44  21  42  1   
 45  22  43  1   
 46  22  44  1   
@<TRIPOS>SUBSTRUCTURE
  1 ****   9 GROUP 4 **** **** 0

# MOE 2024.06 (io_trps.svl 2023.06)
