@<TRIPOS>MOLECULE
NONAME
48 51 1 0 0 
SMALL
USER_CHARGES


@<TRIPOS>ATOM
  1 S        0.4380     0.0950     0.1850 S.3   1 <1>  -0.0800 
  2 C        1.7110     1.3040     0.2160 C.2   1 <1>  -0.1400 
  3 C        1.5830    -1.2030     0.4590 C.2   1 <1>  -0.1400 
  4 C        2.9060     0.7090     0.4240 C.2   1 <1>  -0.1500 
  5 C        1.2160     2.7270     0.0080 C.3   1 <1>   0.5230 
  6 C        2.8310    -0.7130     0.5610 C.2   1 <1>  -0.1500 
  7 C        1.0330    -2.6110     0.5370 C.3   1 <1>  -0.0600 
  8 N        2.3210     3.7220    -0.0370 N.4   1 <1>  -0.9590 
  9 C        2.9960     3.8410     1.3020 C.3   1 <1>   0.3430 
 10 C        3.2340     3.5050    -1.2120 C.3   1 <1>   0.3430 
 11 C        3.8480     5.1270     1.4140 C.3   1 <1>   0.2200 
 12 C        4.3530     4.5530    -1.4170 C.3   1 <1>  -0.0800 
 13 N        3.4500     6.1310     0.3610 N.am  1 <1>  -0.6600 
 14 C        5.3450     4.7780     1.3880 C.3   1 <1>   0.1200 
 15 C        5.7020     4.0930    -0.8410 C.3   1 <1>   0.1200 
 16 C        4.0170     6.0010    -1.0130 C.3   1 <1>   0.1400 
 17 C        2.3520     6.9360     0.5820 C.2   1 <1>   0.7160 
 18 O        5.5870     3.7310     0.4940 O.3   1 <1>  -0.5600 
 19 O        1.4370     6.4190     1.2010 O.2   1 <1>  -0.5700 
 20 C        2.2160     8.2930     0.0590 C.2   1 <1>   0.1410 
 21 N        3.2290     8.8830    -0.7130 N.2   1 <1>  -0.5650 
 22 C        1.1360     9.0810     0.2620 C.2   1 <1>  -0.1100 
 23 C        2.9220    10.0680    -1.0790 C.2   1 <1>   0.4620 
 24 S        1.3550    10.6120    -0.5240 S.3   1 <1>  -0.0800 
 25 N        3.6750    10.9040    -1.8290 N.pl3 1 <1>  -0.8840 
 26 H        3.8680     1.1860     0.4930 H     1 <1>   0.1500 
 27 H        0.5370     2.9780     0.8070 H     1 <1>   0.0800 
 28 H        0.6610     2.7660    -0.9150 H     1 <1>   0.0800 
 29 H        3.7170    -1.3010     0.7310 H     1 <1>   0.1500 
 30 H        1.8290    -3.3130     0.7070 H     1 <1>   0.0800 
 31 H        0.5380    -2.8640    -0.3840 H     1 <1>   0.0800 
 32 H        0.3270    -2.6860     1.3440 H     1 <1>   0.0800 
 33 H        1.8920     4.6530    -0.1520 H     1 <1>   0.4500 
 34 H        2.2430     3.8820     2.0720 H     1 <1>   0.0800 
 35 H        3.6110     2.9790     1.4990 H     1 <1>   0.0800 
 36 H        3.6930     2.5330    -1.1370 H     1 <1>   0.0800 
 37 H        2.6290     3.4960    -2.1040 H     1 <1>   0.0800 
 38 H        3.6550     5.5690     2.3770 H     1 <1>   0.0800 
 39 H        4.5240     4.5890    -2.4780 H     1 <1>   0.0800 
 40 H        5.6400     4.4210     2.3600 H     1 <1>   0.0800 
 41 H        5.9550     5.6320     1.1450 H     1 <1>   0.0800 
 42 H        6.4570     4.8570    -0.9330 H     1 <1>   0.0800 
 43 H        6.0470     3.2210    -1.3700 H     1 <1>   0.0800 
 44 H        3.3070     6.3960    -1.7220 H     1 <1>   0.0800 
 45 H        4.9010     6.6150    -1.0820 H     1 <1>   0.0800 
 46 H        0.2210     8.9160     0.8030 H     1 <1>   0.1500 
 47 H        3.3960    11.8710    -1.9960 H     1 <1>   0.4000 
 48 H        4.6340    10.6520    -2.0690 H     1 <1>   0.4000 
@<TRIPOS>BOND
  1   1   2  1   
  2   1   3  1   
  3   2   4  2   
  4   2   5  1   
  5   3   6  2   
  6   3   7  1   
  7   4   6  1   
  8   4  26  1   
  9   5   8  1   
 10   5  27  1   
 11   5  28  1   
 12   6  29  1   
 13   7  30  1   
 14   7  31  1   
 15   7  32  1   
 16   8   9  1   
 17   8  10  1   
 18   8  33  1   
 19   9  11  1   
 20   9  34  1   
 21   9  35  1   
 22  10  12  1   
 23  10  36  1   
 24  10  37  1   
 25  11  13  1   
 26  11  14  1   
 27  11  38  1   
 28  12  15  1   
 29  12  16  1   
 30  12  39  1   
 31  13  16  1   
 32  13  17  am  
 33  14  18  1   
 34  14  40  1   
 35  14  41  1   
 36  15  18  1   
 37  15  42  1   
 38  15  43  1   
 39  16  44  1   
 40  16  45  1   
 41  17  19  2   
 42  17  20  1   
 43  20  21  1   
 44  20  22  2   
 45  21  23  2   
 46  22  24  1   
 47  22  46  1   
 48  23  24  1   
 49  23  25  1   
 50  25  47  1   
 51  25  48  1   
@<TRIPOS>SUBSTRUCTURE
  1 ****   8 GROUP 4 **** **** 0

# MOE 2024.06 (io_trps.svl 2023.06)
