@<TRIPOS>MOLECULE
NONAME
55 58 1 0 0 
SMALL
USER_CHARGES


@<TRIPOS>ATOM
  1 O       -0.1140    -2.2350     0.4850 O.2   1 <1>  -0.5700 
  2 C       -0.7950    -3.2240     0.5480 C.2   1 <1>   0.4230 
  3 C       -2.0800    -3.3730     1.1540 C.ar  1 <1>   0.0860 
  4 C       -0.3710    -4.5470    -0.0550 C.3   1 <1>  -0.0990 
  5 C       -2.5470    -4.6630     1.0040 C.ar  1 <1>  -0.1440 
  6 C       -2.8540    -2.4370     1.8300 C.ar  1 <1>  -0.1500 
  7 C       -1.5300    -5.5160     0.2590 C.3   1 <1>  -0.0160 
  8 C       -3.7830    -5.0660     1.5020 C.ar  1 <1>   0.0860 
  9 C       -4.0810    -2.8120     2.3480 C.ar  1 <1>  -0.1500 
 10 C       -4.2700    -6.4170     1.3140 C.2   1 <1>   0.5440 
 11 C       -4.5360    -4.1120     2.1870 C.ar  1 <1>  -0.1500 
 12 O       -4.3380    -7.1670     2.2670 O.2   1 <1>  -0.5700 
 13 N       -4.6380    -6.8660     0.0690 N.am  1 <1>  -0.6600 
 14 C       -4.6520    -8.3310    -0.2570 C.3   1 <1>   0.3640 
 15 C       -5.1140    -5.9370    -0.9980 C.3   1 <1>   0.1400 
 16 C       -3.2200    -8.7700    -0.6120 C.ar  1 <1>  -0.1430 
 17 C       -5.7180    -8.6680    -1.3390 C.3   1 <1>   0.2000 
 18 C       -5.0450    -6.5800    -2.3880 C.3   1 <1>   0.1200 
 19 C       -2.3140    -8.9360     0.4280 C.ar  1 <1>  -0.1500 
 20 C       -2.7800    -9.0010    -1.9090 C.ar  1 <1>  -0.1500 
 21 O       -5.7420    -7.7970    -2.4560 O.3   1 <1>  -0.5600 
 22 C       -7.1360    -8.6870    -0.7500 C.3   1 <1>   0.1200 
 23 C       -0.9840    -9.2830     0.2020 C.ar  1 <1>   0.0830 
 24 C       -1.4670    -9.3600    -2.1520 C.ar  1 <1>  -0.1500 
 25 O       -7.2970    -9.7830     0.0910 O.3   1 <1>  -0.6800 
 26 O       -0.0920    -9.3800     1.2320 O.3   1 <1>  -0.3630 
 27 C       -0.5610    -9.5060    -1.1170 C.ar  1 <1>   0.0830 
 28 C       -0.4730    -9.1810     2.5770 C.3   1 <1>   0.0400 
 29 O        0.6990    -9.8600    -1.4950 O.3   1 <1>  -0.3630 
 30 C        1.4740   -10.7260    -0.6950 C.3   1 <1>   0.0400 
 31 H       -0.2320    -4.4370    -1.1150 H     1 <1>   0.0800 
 32 H        0.5460    -4.8790     0.3980 H     1 <1>   0.0800 
 33 H       -2.4850    -1.4310     1.9440 H     1 <1>   0.1500 
 34 H       -1.1880    -6.3220     0.8850 H     1 <1>   0.0800 
 35 H       -1.9490    -5.9210    -0.6460 H     1 <1>   0.0800 
 36 H       -4.6830    -2.0930     2.8790 H     1 <1>   0.1500 
 37 H       -5.4880    -4.4020     2.5990 H     1 <1>   0.1500 
 38 H       -4.9280    -8.8750     0.6310 H     1 <1>   0.0800 
 39 H       -6.1320    -5.6560    -0.7920 H     1 <1>   0.0800 
 40 H       -4.5180    -5.0420    -1.0030 H     1 <1>   0.0800 
 41 H       -5.5170    -9.6500    -1.7280 H     1 <1>   0.0800 
 42 H       -4.0190    -6.7530    -2.6590 H     1 <1>   0.0800 
 43 H       -5.4750    -5.9210    -3.1210 H     1 <1>   0.0800 
 44 H       -2.6680    -8.7790     1.4280 H     1 <1>   0.1500 
 45 H       -3.4420    -8.9100    -2.7510 H     1 <1>   0.1500 
 46 H       -7.8700    -8.7600    -1.5340 H     1 <1>   0.0800 
 47 H       -7.3140    -7.7990    -0.1690 H     1 <1>   0.0800 
 48 H       -1.1330    -9.5330    -3.1600 H     1 <1>   0.1500 
 49 H       -7.3800   -10.6110    -0.4220 H     1 <1>   0.4000 
 50 H        0.3960    -9.3150     3.1950 H     1 <1>   0.0800 
 51 H       -1.2220    -9.9070     2.8400 H     1 <1>   0.0800 
 52 H       -0.8510    -8.1800     2.6920 H     1 <1>   0.0800 
 53 H        2.2250   -11.1760    -1.3190 H     1 <1>   0.0800 
 54 H        0.8360   -11.4860    -0.2780 H     1 <1>   0.0800 
 55 H        1.9430   -10.1530     0.0830 H     1 <1>   0.0800 
@<TRIPOS>BOND
  1   1   2  2   
  2   2   3  1   
  3   2   4  1   
  4   3   5  ar  
  5   3   6  ar  
  6   4   7  1   
  7   4  31  1   
  8   4  32  1   
  9   5   7  1   
 10   5   8  ar  
 11   6   9  ar  
 12   6  33  1   
 13   7  34  1   
 14   7  35  1   
 15   8  10  1   
 16   8  11  ar  
 17   9  11  ar  
 18   9  36  1   
 19  10  12  2   
 20  10  13  am  
 21  11  37  1   
 22  13  14  1   
 23  13  15  1   
 24  14  16  1   
 25  14  17  1   
 26  14  38  1   
 27  15  18  1   
 28  15  39  1   
 29  15  40  1   
 30  16  19  ar  
 31  16  20  ar  
 32  17  21  1   
 33  17  22  1   
 34  17  41  1   
 35  18  21  1   
 36  18  42  1   
 37  18  43  1   
 38  19  23  ar  
 39  19  44  1   
 40  20  24  ar  
 41  20  45  1   
 42  22  25  1   
 43  22  46  1   
 44  22  47  1   
 45  23  26  1   
 46  23  27  ar  
 47  24  27  ar  
 48  24  48  1   
 49  25  49  1   
 50  26  28  1   
 51  27  29  1   
 52  28  50  1   
 53  28  51  1   
 54  28  52  1   
 55  29  30  1   
 56  30  53  1   
 57  30  54  1   
 58  30  55  1   
@<TRIPOS>SUBSTRUCTURE
  1 ****  13 GROUP 4 **** **** 0

# MOE 2024.06 (io_trps.svl 2023.06)
