@<TRIPOS>MOLECULE
NONAME
55 57 1 0 0 
SMALL
USER_CHARGES


@<TRIPOS>ATOM
  1 O        0.4400     1.5170    -1.1810 O.co2 1 <1>  -0.9000 
  2 C        0.6510     0.8150    -0.1870 C.2   1 <1>   0.9060 
  3 O       -0.1520     0.6280     0.7300 O.co2 1 <1>  -0.9000 
  4 C        2.0620     0.2370    -0.0580 C.3   1 <1>  -0.1060 
  5 C        3.5130    -0.3590    -0.0050 C.3   1 <1>   0.4230 
  6 C        2.5240     1.6300     0.6000 C.3   1 <1>  -0.1600 
  7 C        1.5370    -1.1590    -0.6410 C.3   1 <1>  -0.1600 
  8 N        3.6350    -1.0050     1.3450 N.4   1 <1>  -0.9590 
  9 C        4.6590     0.5080    -0.6530 C.3   1 <1>   0.3430 
 10 C        3.2720     2.5090    -0.3770 C.3   1 <1>   0.3430 
 11 C        1.5750    -2.1970     0.5140 C.3   1 <1>  -0.1600 
 12 C        2.9300    -2.3290     1.2410 C.3   1 <1>   0.3430 
 13 C        5.0030    -1.1610     1.9240 C.3   1 <1>   0.2630 
 14 N        4.6580     1.9870    -0.3960 N.4   1 <1>  -0.9590 
 15 C        5.4790     2.7520    -1.3730 C.3   1 <1>   0.4860 
 16 C        5.8980     4.0330    -0.6860 C.ar  1 <1>  -0.1430 
 17 C        7.0370     4.0930     0.1100 C.ar  1 <1>  -0.1430 
 18 C        5.1160     5.1670    -0.8500 C.ar  1 <1>  -0.1500 
 19 C        7.3520     5.2840     0.7430 C.ar  1 <1>  -0.1500 
 20 C        7.9660     2.9010     0.3020 C.3   1 <1>  -0.0970 
 21 C        5.4350     6.3550    -0.2150 C.ar  1 <1>  -0.1430 
 22 C        6.5630     6.4120     0.5930 C.ar  1 <1>  -0.1430 
 23 C        4.5440     7.5720    -0.4210 C.3   1 <1>  -0.0970 
 24 C        6.9600     7.6940     1.3140 C.3   1 <1>  -0.0970 
 25 H        3.6000    -1.1990    -0.6690 H     1 <1>   0.0800 
 26 H        3.1140     1.4960     1.4900 H     1 <1>   0.0800 
 27 H        1.7380     2.2710     0.9860 H     1 <1>   0.0800 
 28 H        0.5140    -1.1910    -1.0030 H     1 <1>   0.0800 
 29 H        2.0660    -1.5030    -1.5170 H     1 <1>   0.0800 
 30 H        3.0410    -0.4400     1.9770 H     1 <1>   0.4500 
 31 H        4.5420     0.3810    -1.7170 H     1 <1>   0.0800 
 32 H        5.6160     0.0890    -0.3950 H     1 <1>   0.0800 
 33 H        3.2610     3.5330    -0.0350 H     1 <1>   0.0800 
 34 H        2.8030     2.4590    -1.3490 H     1 <1>   0.0800 
 35 H        1.2750    -3.1630     0.1450 H     1 <1>   0.0800 
 36 H        0.8350    -1.9070     1.2430 H     1 <1>   0.0800 
 37 H        3.5480    -3.0140     0.6830 H     1 <1>   0.0800 
 38 H        2.7730    -2.7500     2.2210 H     1 <1>   0.0800 
 39 H        5.6170    -1.7730     1.2830 H     1 <1>   0.0800 
 40 H        4.9420    -1.6350     2.8910 H     1 <1>   0.0800 
 41 H        5.4720    -0.1990     2.0490 H     1 <1>   0.0800 
 42 H        5.0630     2.2190     0.5220 H     1 <1>   0.4500 
 43 H        6.3580     2.1950    -1.6510 H     1 <1>   0.0800 
 44 H        4.9120     2.9680    -2.2640 H     1 <1>   0.0800 
 45 H        4.2430     5.1370    -1.4800 H     1 <1>   0.1500 
 46 H        8.2310     5.3430     1.3620 H     1 <1>   0.1500 
 47 H        8.8150     3.1740     0.9060 H     1 <1>   0.0800 
 48 H        8.3420     2.5650    -0.6480 H     1 <1>   0.0800 
 49 H        7.4570     2.0950     0.7940 H     1 <1>   0.0800 
 50 H        3.7250     7.3510    -1.0810 H     1 <1>   0.0800 
 51 H        5.1130     8.3770    -0.8500 H     1 <1>   0.0800 
 52 H        4.1370     7.8960     0.5210 H     1 <1>   0.0800 
 53 H        7.8480     7.5490     1.9020 H     1 <1>   0.0800 
 54 H        6.1700     8.0100     1.9700 H     1 <1>   0.0800 
 55 H        7.1550     8.4730     0.5990 H     1 <1>   0.0800 
@<TRIPOS>BOND
  1   1   2  ar  
  2   2   3  ar  
  3   2   4  1   
  4   4   5  1   
  5   4   6  1   
  6   4   7  1   
  7   5   8  1   
  8   5   9  1   
  9   5  25  1   
 10   6  10  1   
 11   6  26  1   
 12   6  27  1   
 13   7  11  1   
 14   7  28  1   
 15   7  29  1   
 16   8  12  1   
 17   8  13  1   
 18   8  30  1   
 19   9  14  1   
 20   9  31  1   
 21   9  32  1   
 22  10  14  1   
 23  10  33  1   
 24  10  34  1   
 25  11  12  1   
 26  11  35  1   
 27  11  36  1   
 28  12  37  1   
 29  12  38  1   
 30  13  39  1   
 31  13  40  1   
 32  13  41  1   
 33  14  15  1   
 34  14  42  1   
 35  15  16  1   
 36  15  43  1   
 37  15  44  1   
 38  16  17  ar  
 39  16  18  ar  
 40  17  19  ar  
 41  17  20  1   
 42  18  21  ar  
 43  18  45  1   
 44  19  22  ar  
 45  19  46  1   
 46  20  47  1   
 47  20  48  1   
 48  20  49  1   
 49  21  22  ar  
 50  21  23  1   
 51  22  24  1   
 52  23  50  1   
 53  23  51  1   
 54  23  52  1   
 55  24  53  1   
 56  24  54  1   
 57  24  55  1   
@<TRIPOS>SUBSTRUCTURE
  1 ****  14 GROUP 4 **** **** 0

# MOE 2024.06 (io_trps.svl 2023.06)
