@<TRIPOS>MOLECULE
NONAME
56 59 1 0 0 
SMALL
USER_CHARGES


@<TRIPOS>ATOM
  1 O       -2.3160     1.2380     1.0910 O.co2 1 <1>  -0.9000 
  2 C       -1.7130     1.7410     0.1290 C.2   1 <1>   0.9060 
  3 O       -1.9430     1.3540    -1.0230 O.co2 1 <1>  -0.9000 
  4 C       -0.6840     2.8580     0.3900 C.3   1 <1>  -0.1060 
  5 C       -1.2370     3.9160     1.3880 C.3   1 <1>   0.2000 
  6 C       -0.3720     3.5680    -0.9610 C.3   1 <1>   0.1400 
  7 C        0.6010     2.2500     1.0130 C.3   1 <1>  -0.0650 
  8 O       -1.9110     3.3470     2.4480 O.3   1 <1>  -0.6800 
  9 C       -2.1560     4.9190     0.6970 C.3   1 <1>  -0.1600 
 10 N       -0.1380     5.0420    -0.7920 N.am  1 <1>  -0.6600 
 11 C        1.2810     1.1530     0.1770 C.3   1 <1>  -0.1950 
 12 C       -1.3340     5.7800    -0.2720 C.3   1 <1>   0.1400 
 13 C        1.0630     5.6210    -1.1120 C.2   1 <1>   0.5690 
 14 C        2.6700     0.7130     0.5160 C.3   1 <1>  -0.2000 
 15 C        2.4070     1.4610    -0.7590 C.3   1 <1>  -0.2000 
 16 O        2.0130     4.9760    -1.4890 O.2   1 <1>  -0.5700 
 17 C        1.2250     7.1290    -1.0030 C.3   1 <1>  -0.0990 
 18 C        2.5380     7.6480    -1.6130 C.3   1 <1>   0.0200 
 19 C        2.6190     9.1590    -1.5280 C.2   1 <1>   0.2980 
 20 O        1.8050     9.8720    -2.2600 O.3   1 <1>  -0.0190 
 21 N        3.4130     9.8190    -0.7940 N.2   1 <1>  -0.5650 
 22 N        2.1060    11.0970    -1.9640 N.2   1 <1>  -0.4100 
 23 C        3.0600    11.0730    -1.1000 C.2   1 <1>   0.4620 
 24 C        3.6960    12.2380    -0.5060 C.ar  1 <1>   0.0540 
 25 C        4.7340    12.1170     0.4200 C.ar  1 <1>  -0.1500 
 26 C        3.2910    13.5320    -0.8400 C.ar  1 <1>  -0.1500 
 27 C        5.3430    13.2230     0.9880 C.ar  1 <1>  -0.1430 
 28 C        3.8890    14.6440    -0.2780 C.ar  1 <1>  -0.1500 
 29 C        4.9140    14.4910     0.6360 C.ar  1 <1>  -0.1500 
 30 C        6.4680    13.0560     1.9930 C.3   1 <1>  -0.0970 
 31 H       -0.4160     4.4640     1.8190 H     1 <1>   0.0800 
 32 H       -1.2110     3.4720    -1.6280 H     1 <1>   0.0800 
 33 H        0.4570     3.0980    -1.4570 H     1 <1>   0.0800 
 34 H        1.3110     3.0360     1.2030 H     1 <1>   0.0800 
 35 H        0.3380     1.8150     1.9630 H     1 <1>   0.0800 
 36 H       -2.2380     2.4470     2.1240 H     1 <1>   0.4000 
 37 H       -2.9210     4.3910     0.1550 H     1 <1>   0.0800 
 38 H       -2.6310     5.5520     1.4240 H     1 <1>   0.0800 
 39 H        0.5950     0.3730    -0.1150 H     1 <1>   0.1000 
 40 H       -1.0120     6.6610     0.2550 H     1 <1>   0.0800 
 41 H       -1.9530     6.0850    -1.0990 H     1 <1>   0.0800 
 42 H        3.1960     1.2160     1.3080 H     1 <1>   0.1000 
 43 H        2.8980    -0.3370     0.4670 H     1 <1>   0.1000 
 44 H        2.4340     0.9380    -1.6980 H     1 <1>   0.1000 
 45 H        2.7480     2.4780    -0.8440 H     1 <1>   0.1000 
 46 H        0.3990     7.5970    -1.5060 H     1 <1>   0.0800 
 47 H        1.1940     7.4000     0.0360 H     1 <1>   0.0800 
 48 H        2.6060     7.3520    -2.6450 H     1 <1>   0.0800 
 49 H        3.3740     7.2210    -1.0880 H     1 <1>   0.0800 
 50 H        5.0690    11.1330     0.6980 H     1 <1>   0.1500 
 51 H        2.4940    13.6690    -1.5500 H     1 <1>   0.1500 
 52 H        3.5570    15.6310    -0.5520 H     1 <1>   0.1500 
 53 H        5.3760    15.3600     1.0710 H     1 <1>   0.1500 
 54 H        7.2490    13.7700     1.7980 H     1 <1>   0.0800 
 55 H        6.8890    12.0690     1.9350 H     1 <1>   0.0800 
 56 H        6.0930    13.2140     2.9890 H     1 <1>   0.0800 
@<TRIPOS>BOND
  1   1   2  ar  
  2   2   3  ar  
  3   2   4  1   
  4   4   5  1   
  5   4   6  1   
  6   4   7  1   
  7   5   8  1   
  8   5   9  1   
  9   5  31  1   
 10   6  10  1   
 11   6  32  1   
 12   6  33  1   
 13   7  11  1   
 14   7  34  1   
 15   7  35  1   
 16   8  36  1   
 17   9  12  1   
 18   9  37  1   
 19   9  38  1   
 20  10  12  1   
 21  10  13  am  
 22  11  14  1   
 23  11  15  1   
 24  11  39  1   
 25  12  40  1   
 26  12  41  1   
 27  13  16  2   
 28  13  17  1   
 29  14  15  1   
 30  14  42  1   
 31  14  43  1   
 32  15  44  1   
 33  15  45  1   
 34  17  18  1   
 35  17  46  1   
 36  17  47  1   
 37  18  19  1   
 38  18  48  1   
 39  18  49  1   
 40  19  20  1   
 41  19  21  2   
 42  20  22  1   
 43  21  23  1   
 44  22  23  2   
 45  23  24  1   
 46  24  25  ar  
 47  24  26  ar  
 48  25  27  ar  
 49  25  50  1   
 50  26  28  ar  
 51  26  51  1   
 52  27  29  ar  
 53  27  30  1   
 54  28  29  ar  
 55  28  52  1   
 56  29  53  1   
 57  30  54  1   
 58  30  55  1   
 59  30  56  1   
@<TRIPOS>SUBSTRUCTURE
  1 ****  17 GROUP 4 **** **** 0

# MOE 2024.06 (io_trps.svl 2023.06)
