@<TRIPOS>MOLECULE
NONAME
43 44 1 0 0 
SMALL
USER_CHARGES


@<TRIPOS>ATOM
  1 O       -0.1270    -0.3530     1.2050 O.2   1 <1>  -0.5700 
  2 C        0.7850    -0.5170     0.4310 C.2   1 <1>   0.5690 
  3 N        1.7420     0.4260     0.1840 N.am  1 <1>  -0.4940 
  4 C        0.8910    -1.8610    -0.2940 C.3   1 <1>   0.2010 
  5 C        2.0780     1.6350     0.8220 C.2   1 <1>  -0.0880 
  6 N        1.9810    -1.9350    -1.3250 N.am  1 <1>  -0.7300 
  7 N        1.2490     2.5800     1.3360 N.pl3 1 <1>   0.3140 
  8 C        3.3530     2.0780     1.0050 C.2   1 <1>  -0.0540 
  9 C        3.2810    -2.2650    -1.1530 C.2   1 <1>   0.5690 
 10 N        1.9460     3.6290     1.8250 N.2   1 <1>  -0.7070 
 11 C       -0.2180     2.5990     1.3510 C.3   1 <1>   0.0160 
 12 C        4.5830     1.3870     0.6810 C.ar  1 <1>   0.0540 
 13 C        3.1860     3.3250     1.6190 C.2   1 <1>   0.1080 
 14 O        4.0050    -2.3520    -2.1090 O.2   1 <1>  -0.5700 
 15 C        3.8410    -2.5160     0.2260 C.3   1 <1>  -0.1790 
 16 C        4.8640     0.8870    -0.6000 C.ar  1 <1>   0.0820 
 17 C        5.5240     1.1760     1.6850 C.ar  1 <1>  -0.1500 
 18 C        4.3050     4.2640     2.0130 C.3   1 <1>  -0.0590 
 19 O        3.9460     1.0930    -1.5840 O.3   1 <1>  -0.3620 
 20 C        6.0460     0.1920    -0.8370 C.ar  1 <1>  -0.1500 
 21 C        6.7030     0.4960     1.4430 C.ar  1 <1>  -0.1500 
 22 C        4.2810     0.9450    -2.9470 C.3   1 <1>   0.0400 
 23 C        6.9640     0.0010     0.1800 C.ar  1 <1>  -0.1500 
 24 H        2.4440     0.1420    -0.5130 H     1 <1>   0.3700 
 25 H       -0.0530    -2.0620    -0.7690 H     1 <1>   0.0800 
 26 H        1.0480    -2.6240     0.4470 H     1 <1>   0.0800 
 27 H        1.6960    -1.7790    -2.2960 H     1 <1>   0.3700 
 28 H       -0.5890     2.1700     0.4400 H     1 <1>   0.0800 
 29 H       -0.5570     3.6140     1.4380 H     1 <1>   0.0800 
 30 H       -0.5650     2.0290     2.1910 H     1 <1>   0.0800 
 31 H        3.6600    -1.6690     0.8610 H     1 <1>   0.0800 
 32 H        4.9030    -2.6690     0.1590 H     1 <1>   0.0800 
 33 H        3.3910    -3.3920     0.6500 H     1 <1>   0.0800 
 34 H        5.3200     1.5450     2.6750 H     1 <1>   0.1500 
 35 H        5.1490     4.1340     1.3610 H     1 <1>   0.0800 
 36 H        4.6000     4.0680     3.0260 H     1 <1>   0.0800 
 37 H        3.9640     5.2800     1.9390 H     1 <1>   0.0800 
 38 H        6.2670    -0.2180    -1.8050 H     1 <1>   0.1500 
 39 H        7.4140     0.3480     2.2380 H     1 <1>   0.1500 
 40 H        3.4500     1.2900    -3.5350 H     1 <1>   0.0800 
 41 H        4.4680    -0.0920    -3.1570 H     1 <1>   0.0800 
 42 H        5.1510     1.5420    -3.1590 H     1 <1>   0.0800 
 43 H        7.8780    -0.5350    -0.0120 H     1 <1>   0.1500 
@<TRIPOS>BOND
  1   1   2  2   
  2   2   3  am  
  3   2   4  1   
  4   3   5  1   
  5   3  24  1   
  6   4   6  1   
  7   4  25  1   
  8   4  26  1   
  9   5   7  1   
 10   5   8  2   
 11   6   9  am  
 12   6  27  1   
 13   7  10  1   
 14   7  11  1   
 15   8  12  1   
 16   8  13  1   
 17   9  14  2   
 18   9  15  1   
 19  10  13  2   
 20  11  28  1   
 21  11  29  1   
 22  11  30  1   
 23  12  16  ar  
 24  12  17  ar  
 25  13  18  1   
 26  15  31  1   
 27  15  32  1   
 28  15  33  1   
 29  16  19  1   
 30  16  20  ar  
 31  17  21  ar  
 32  17  34  1   
 33  18  35  1   
 34  18  36  1   
 35  18  37  1   
 36  19  22  1   
 37  20  23  ar  
 38  20  38  1   
 39  21  23  ar  
 40  21  39  1   
 41  22  40  1   
 42  22  41  1   
 43  22  42  1   
 44  23  43  1   
@<TRIPOS>SUBSTRUCTURE
  1 ****   3 GROUP 4 **** **** 0

# MOE 2024.06 (io_trps.svl 2023.06)
