@<TRIPOS>MOLECULE
NONAME
31 31 1 0 0 
SMALL
USER_CHARGES


@<TRIPOS>ATOM
  1 O       -0.4600    -0.0780    -0.7340 O.2   1 <1>  -0.5700 
  2 C       -1.3190    -0.7210    -0.1660 C.2   1 <1>   0.6340 
  3 O       -2.2740    -0.0620     0.5000 O.3   1 <1>  -0.4300 
  4 C       -1.3280    -2.1730    -0.1490 C.ar  1 <1>   0.0860 
  5 C       -2.3060     1.3510     0.5550 C.3   1 <1>   0.0400 
  6 C       -2.4870    -2.9680    -0.1960 C.ar  1 <1>  -0.1440 
  7 C       -0.1000    -2.8390    -0.0870 C.ar  1 <1>  -0.1500 
  8 C       -2.3900    -4.3490    -0.1560 C.ar  1 <1>  -0.1500 
  9 C       -3.8810    -2.3590    -0.3070 C.3   1 <1>  -0.0960 
 10 C       -0.0070    -4.2160    -0.0520 C.ar  1 <1>  -0.1500 
 11 C       -1.1630    -4.9860    -0.0820 C.ar  1 <1>   0.0830 
 12 O       -1.1740    -6.3370    -0.0470 O.3   1 <1>  -0.3620 
 13 C        0.0090    -7.0900     0.0200 C.3   1 <1>   0.1200 
 14 C       -0.4050    -8.5630     0.0390 C.3   1 <1>   0.3430 
 15 N        0.7730    -9.4790     0.1100 N.4   1 <1>  -0.8530 
 16 H       -3.1560     1.6500     1.1400 H     1 <1>   0.0800 
 17 H       -2.3900     1.7350    -0.4470 H     1 <1>   0.0800 
 18 H       -1.3970     1.7020     1.0120 H     1 <1>   0.0800 
 19 H        0.8020    -2.2500    -0.0660 H     1 <1>   0.1500 
 20 H       -3.2780    -4.9550    -0.1850 H     1 <1>   0.1500 
 21 H       -3.8980    -1.5940    -1.0630 H     1 <1>   0.0800 
 22 H       -4.1690    -1.9250     0.6350 H     1 <1>   0.0800 
 23 H       -4.6110    -3.1020    -0.5730 H     1 <1>   0.0800 
 24 H        0.9690    -4.6600    -0.0020 H     1 <1>   0.1500 
 25 H        0.5250    -6.8160     0.9240 H     1 <1>   0.0800 
 26 H        0.5990    -6.8590    -0.8500 H     1 <1>   0.0800 
 27 H       -0.9720    -8.7720    -0.8550 H     1 <1>   0.0800 
 28 H       -1.0440    -8.7300     0.8910 H     1 <1>   0.0800 
 29 H        1.3910    -9.3600    -0.7020 H     1 <1>   0.4500 
 30 H        0.4630   -10.4590     0.1190 H     1 <1>   0.4500 
 31 H        1.3210    -9.3210     0.9640 H     1 <1>   0.4500 
@<TRIPOS>BOND
  1   1   2  2   
  2   2   3  1   
  3   2   4  1   
  4   3   5  1   
  5   4   6  ar  
  6   4   7  ar  
  7   5  16  1   
  8   5  17  1   
  9   5  18  1   
 10   6   8  ar  
 11   6   9  1   
 12   7  10  ar  
 13   7  19  1   
 14   8  11  ar  
 15   8  20  1   
 16   9  21  1   
 17   9  22  1   
 18   9  23  1   
 19  10  11  ar  
 20  10  24  1   
 21  11  12  1   
 22  12  13  1   
 23  13  14  1   
 24  13  25  1   
 25  13  26  1   
 26  14  15  1   
 27  14  27  1   
 28  14  28  1   
 29  15  29  1   
 30  15  30  1   
 31  15  31  1   
@<TRIPOS>SUBSTRUCTURE
  1 ****  11 GROUP 4 **** **** 0

# MOE 2024.06 (io_trps.svl 2023.06)
