@<TRIPOS>MOLECULE
NONAME
44 45 1 0 0 
SMALL
USER_CHARGES


@<TRIPOS>ATOM
  1 S        0.9090     0.1490     0.9060 S.o2  1 <1>   1.5010 
  2 O        0.6970     1.1900     1.8910 O.2   1 <1>  -0.6500 
  3 O        2.0370    -0.7410     1.0680 O.2   1 <1>  -0.6500 
  4 N       -0.5040    -0.7900     0.8690 N.am  1 <1>  -0.8490 
  5 C        0.9850     0.8960    -0.7330 C.2   1 <1>  -0.0630 
  6 C       -0.4530    -1.8520    -0.1510 C.3   1 <1>   0.1960 
  7 C       -1.7380    -0.0080     0.7870 C.3   1 <1>   0.1960 
  8 C        1.3830     0.4030    -1.9210 C.2   1 <1>  -0.0400 
  9 C        0.5850     2.1730    -1.0840 C.2   1 <1>   0.1080 
 10 C       -1.6030    -2.8620    -0.0180 C.3   1 <1>  -0.1060 
 11 C       -2.9660    -0.9120     0.9250 C.3   1 <1>  -0.1600 
 12 O        1.2300     1.2750    -2.8930 O.3   1 <1>  -0.0190 
 13 C        1.9540    -0.9550    -2.2980 C.3   1 <1>  -0.0600 
 14 N        0.7360     2.3580    -2.3410 N.2   1 <1>  -0.4100 
 15 C        0.0460     3.2550    -0.1670 C.3   1 <1>  -0.0590 
 16 C       -1.5770    -3.7700    -1.2480 C.2   1 <1>   0.9060 
 17 C       -2.9080    -2.0460    -0.0970 C.3   1 <1>   0.2000 
 18 C       -1.4820    -3.6890     1.3020 C.3   1 <1>  -0.1600 
 19 O       -0.6250    -3.7060    -2.0390 O.co2 1 <1>  -0.9000 
 20 O       -2.5450    -4.5170    -1.4520 O.co2 1 <1>  -0.9000 
 21 O       -4.0000    -2.8670     0.0890 O.3   1 <1>  -0.6800 
 22 C       -0.2030    -4.5380     1.4130 C.3   1 <1>  -0.1600 
 23 C       -0.2260    -5.3980     2.6790 C.3   1 <1>  -0.2400 
 24 H       -0.5110    -1.4030    -1.1290 H     1 <1>   0.0800 
 25 H        0.4830    -2.3790    -0.0940 H     1 <1>   0.0800 
 26 H       -1.7580     0.7220     1.5780 H     1 <1>   0.0800 
 27 H       -1.7800     0.5090    -0.1580 H     1 <1>   0.0800 
 28 H       -3.8540    -0.3310     0.7610 H     1 <1>   0.0800 
 29 H       -3.0020    -1.3090     1.9230 H     1 <1>   0.0800 
 30 H        2.1850    -1.5410    -1.4280 H     1 <1>   0.0800 
 31 H        2.8570    -0.8250    -2.8650 H     1 <1>   0.0800 
 32 H        1.2450    -1.5000    -2.8980 H     1 <1>   0.0800 
 33 H       -0.8260     2.9060     0.3540 H     1 <1>   0.0800 
 34 H       -0.2200     4.1250    -0.7400 H     1 <1>   0.0800 
 35 H        0.7970     3.5340     0.5500 H     1 <1>   0.0800 
 36 H       -2.9990    -1.6320    -1.0890 H     1 <1>   0.0800 
 37 H       -1.5250    -3.0300     2.1500 H     1 <1>   0.0800 
 38 H       -2.3270    -4.3530     1.3660 H     1 <1>   0.0800 
 39 H       -3.8110    -3.6830    -0.4570 H     1 <1>   0.4000 
 40 H       -0.1150    -5.1810     0.5530 H     1 <1>   0.0800 
 41 H        0.6640    -3.9010     1.4460 H     1 <1>   0.0800 
 42 H       -1.0680    -6.0670     2.6580 H     1 <1>   0.0800 
 43 H       -0.2960    -4.7750     3.5530 H     1 <1>   0.0800 
 44 H        0.6750    -5.9810     2.7420 H     1 <1>   0.0800 
@<TRIPOS>BOND
  1   1   2  2   
  2   1   3  2   
  3   1   4  am  
  4   1   5  1   
  5   4   6  1   
  6   4   7  1   
  7   5   8  2   
  8   5   9  1   
  9   6  10  1   
 10   6  24  1   
 11   6  25  1   
 12   7  11  1   
 13   7  26  1   
 14   7  27  1   
 15   8  12  1   
 16   8  13  1   
 17   9  14  2   
 18   9  15  1   
 19  10  16  1   
 20  10  17  1   
 21  10  18  1   
 22  11  17  1   
 23  11  28  1   
 24  11  29  1   
 25  12  14  1   
 26  13  30  1   
 27  13  31  1   
 28  13  32  1   
 29  15  33  1   
 30  15  34  1   
 31  15  35  1   
 32  16  19  ar  
 33  16  20  ar  
 34  17  21  1   
 35  17  36  1   
 36  18  22  1   
 37  18  37  1   
 38  18  38  1   
 39  21  39  1   
 40  22  23  1   
 41  22  40  1   
 42  22  41  1   
 43  23  42  1   
 44  23  43  1   
 45  23  44  1   
@<TRIPOS>SUBSTRUCTURE
  1 ****   6 GROUP 4 **** **** 0

# MOE 2024.06 (io_trps.svl 2023.06)
