@<TRIPOS>MOLECULE
NONAME
49 51 1 0 0 
SMALL
USER_CHARGES


@<TRIPOS>ATOM
  1 O        3.1010    -1.2600     2.1280 O.2   1 <1>  -0.5700 
  2 C        2.8590    -1.1870     0.9380 C.2   1 <1>   0.5440 
  3 N        3.0510     0.0260     0.3050 N.am  1 <1>  -0.6600 
  4 C        2.4110    -2.3580     0.2100 C.ar  1 <1>   0.0860 
  5 C        3.4680     1.2200     1.1330 C.3   1 <1>   0.2200 
  6 C        3.1910     0.0770    -1.1900 C.3   1 <1>   0.1400 
  7 C        1.0760    -2.5520    -0.1660 C.ar  1 <1>  -0.1440 
  8 C        3.3520    -3.3160    -0.1630 C.ar  1 <1>  -0.1500 
  9 C        2.8880     2.5480     0.6220 C.3   1 <1>   0.1200 
 10 C        5.0070     1.2710     1.2790 C.3   1 <1>   0.3430 
 11 C        4.1370     1.1690    -1.7290 C.3   1 <1>  -0.0800 
 12 C        0.7180    -3.6660    -0.9240 C.ar  1 <1>   0.0820 
 13 C        0.0070    -1.5390     0.2520 C.3   1 <1>  -0.0970 
 14 C        2.9970    -4.4250    -0.9020 C.ar  1 <1>  -0.1500 
 15 O        3.6920     3.1120    -0.3690 O.3   1 <1>  -0.5600 
 16 N        5.6850     0.5320     0.1730 N.4   1 <1>  -0.9590 
 17 C        3.5350     2.5770    -1.6390 C.3   1 <1>   0.1200 
 18 C        5.5820     1.1150    -1.1930 C.3   1 <1>   0.3430 
 19 O       -0.5850    -3.7920    -1.2930 O.3   1 <1>  -0.3630 
 20 C        1.6830    -4.6010    -1.2860 C.ar  1 <1>  -0.1500 
 21 C        7.0690    -0.0060     0.4600 C.3   1 <1>   0.2370 
 22 C       -1.0590    -4.9220    -1.9920 C.3   1 <1>   0.0400 
 23 C        7.3360    -1.2850    -0.3440 C.2   1 <1>   0.9060 
 24 O        8.4910    -1.6600    -0.5310 O.co2 1 <1>  -0.9000 
 25 O        6.3390    -1.8510    -0.8230 O.co2 1 <1>  -0.9000 
 26 H        3.0590     1.1010     2.1210 H     1 <1>   0.0800 
 27 H        3.5660    -0.8720    -1.5390 H     1 <1>   0.0800 
 28 H        2.2120     0.2070    -1.6200 H     1 <1>   0.0800 
 29 H        4.3840    -3.1830     0.1230 H     1 <1>   0.1500 
 30 H        2.8700     3.2540     1.4340 H     1 <1>   0.0800 
 31 H        1.8810     2.4270     0.2620 H     1 <1>   0.0800 
 32 H        5.2610     0.8040     2.2150 H     1 <1>   0.0800 
 33 H        5.3420     2.2940     1.3110 H     1 <1>   0.0800 
 34 H        4.2170     0.9770    -2.7840 H     1 <1>   0.0800 
 35 H        0.2640    -1.0560     1.1780 H     1 <1>   0.0800 
 36 H       -0.9420    -2.0210     0.4020 H     1 <1>   0.0800 
 37 H       -0.1050    -0.7930    -0.5120 H     1 <1>   0.0800 
 38 H        3.7500    -5.1430    -1.1790 H     1 <1>   0.1500 
 39 H        5.1510    -0.3590     0.0750 H     1 <1>   0.4500 
 40 H        2.4900     2.5830    -1.9010 H     1 <1>   0.0800 
 41 H        4.0530     3.2350    -2.3170 H     1 <1>   0.0800 
 42 H        6.0140     2.1020    -1.2050 H     1 <1>   0.0800 
 43 H        6.1550     0.4940    -1.8630 H     1 <1>   0.0800 
 44 H        1.4370    -5.4700    -1.8670 H     1 <1>   0.1500 
 45 H        7.8230     0.7190     0.2120 H     1 <1>   0.0800 
 46 H        7.1590    -0.2630     1.4990 H     1 <1>   0.0800 
 47 H       -2.1180    -4.8060    -2.1340 H     1 <1>   0.0800 
 48 H       -0.8630    -5.8020    -1.4050 H     1 <1>   0.0800 
 49 H       -0.5650    -4.9750    -2.9460 H     1 <1>   0.0800 
@<TRIPOS>BOND
  1   1   2  2   
  2   2   3  am  
  3   2   4  1   
  4   3   5  1   
  5   3   6  1   
  6   4   7  ar  
  7   4   8  ar  
  8   5   9  1   
  9   5  10  1   
 10   5  26  1   
 11   6  11  1   
 12   6  27  1   
 13   6  28  1   
 14   7  12  ar  
 15   7  13  1   
 16   8  14  ar  
 17   8  29  1   
 18   9  15  1   
 19   9  30  1   
 20   9  31  1   
 21  10  16  1   
 22  10  32  1   
 23  10  33  1   
 24  11  17  1   
 25  11  18  1   
 26  11  34  1   
 27  12  19  1   
 28  12  20  ar  
 29  13  35  1   
 30  13  36  1   
 31  13  37  1   
 32  14  20  ar  
 33  14  38  1   
 34  15  17  1   
 35  16  18  1   
 36  16  21  1   
 37  16  39  1   
 38  17  40  1   
 39  17  41  1   
 40  18  42  1   
 41  18  43  1   
 42  19  22  1   
 43  20  44  1   
 44  21  23  1   
 45  21  45  1   
 46  21  46  1   
 47  22  47  1   
 48  22  48  1   
 49  22  49  1   
 50  23  24  ar  
 51  23  25  ar  
@<TRIPOS>SUBSTRUCTURE
  1 ****   3 GROUP 4 **** **** 0

# MOE 2024.06 (io_trps.svl 2023.06)
