@<TRIPOS>MOLECULE
NONAME
52 54 1 0 0 
SMALL
USER_CHARGES


@<TRIPOS>ATOM
  1 O       -0.2770     0.0980     0.0450 O.2   1 <1>  -0.5700 
  2 C       -1.2320     0.7820     0.3810 C.2   1 <1>   0.6300 
  3 N       -2.4630     0.1400     0.4640 N.am  1 <1>  -0.6600 
  4 C       -1.0500     2.2170     0.6670 C.2   1 <1>   0.6550 
  5 C       -2.6090    -1.3490     0.3560 C.3   1 <1>   0.1400 
  6 C       -3.7740     0.8400     0.6440 C.3   1 <1>   0.1400 
  7 O       -1.6150     2.7280     1.6230 O.2   1 <1>  -0.5700 
  8 C       -0.2330     3.0440    -0.1950 C.2   1 <1>  -0.2370 
  9 C       -3.7100    -1.7320    -0.6470 C.3   1 <1>   0.3440 
 10 C       -4.8200     0.3410    -0.3830 C.3   1 <1>   0.2000 
 11 N        0.1190     4.3560     0.0500 N.pl3 1 <1>   0.0480 
 12 C        0.3290     2.6990    -1.4020 C.2   1 <1>  -0.1500 
 13 O       -4.9000    -1.0600    -0.3310 O.3   1 <1>  -0.5600 
 14 C       -3.9560    -3.2380    -0.6270 C.ar  1 <1>  -0.1430 
 15 C       -6.2470     0.9430    -0.2030 C.3   1 <1>   0.0000 
 16 C        0.8690     4.7930    -0.9880 C.2   1 <1>  -0.3020 
 17 C       -0.2110     5.1890     1.2250 C.3   1 <1>   0.0160 
 18 C        1.0180     3.7970    -1.8980 C.2   1 <1>  -0.1500 
 19 C       -4.8400    -3.8130     0.2750 C.ar  1 <1>  -0.1500 
 20 C       -3.2740    -4.0570    -1.5160 C.ar  1 <1>  -0.1500 
 21 C       -6.8780     0.5490     1.1460 C.3   1 <1>  -0.2400 
 22 C       -7.1640     0.4330    -1.3300 C.3   1 <1>  -0.2400 
 23 C       -6.2110     2.4800    -0.2930 C.3   1 <1>  -0.2400 
 24 C       -5.0390    -5.1830     0.2900 C.ar  1 <1>  -0.1500 
 25 C       -3.4720    -5.4270    -1.5030 C.ar  1 <1>  -0.1500 
 26 C       -4.3540    -5.9910    -0.5990 C.ar  1 <1>  -0.1500 
 27 H       -1.6860    -1.8080     0.0490 H     1 <1>   0.0800 
 28 H       -2.8640    -1.7480     1.3220 H     1 <1>   0.0800 
 29 H       -4.1280     0.6580     1.6430 H     1 <1>   0.0800 
 30 H       -3.6520     1.8990     0.5230 H     1 <1>   0.0800 
 31 H       -3.4160    -1.4350    -1.6380 H     1 <1>   0.0800 
 32 H       -4.4750     0.6060    -1.3680 H     1 <1>   0.0800 
 33 H        0.2700     1.7470    -1.9050 H     1 <1>   0.1500 
 34 H        1.2700     5.7910    -1.0360 H     1 <1>   0.1500 
 35 H        0.2780     6.1430     1.1440 H     1 <1>   0.0800 
 36 H        0.1210     4.6920     2.1180 H     1 <1>   0.0800 
 37 H       -1.2750     5.3350     1.2700 H     1 <1>   0.0800 
 38 H        1.5610     3.8300    -2.8280 H     1 <1>   0.1500 
 39 H       -5.3810    -3.1920     0.9690 H     1 <1>   0.1500 
 40 H       -2.5830    -3.6340    -2.2250 H     1 <1>   0.1500 
 41 H       -7.8850     0.9230     1.2140 H     1 <1>   0.0800 
 42 H       -6.3200     0.9490     1.9720 H     1 <1>   0.0800 
 43 H       -6.9130    -0.5220     1.2460 H     1 <1>   0.0800 
 44 H       -8.1490     0.8580    -1.2470 H     1 <1>   0.0800 
 45 H       -7.2600    -0.6380    -1.2840 H     1 <1>   0.0800 
 46 H       -6.7620     0.6920    -2.2930 H     1 <1>   0.0800 
 47 H       -7.2100     2.8800    -0.2700 H     1 <1>   0.0800 
 48 H       -5.7460     2.7950    -1.2110 H     1 <1>   0.0800 
 49 H       -5.6710     2.9080     0.5310 H     1 <1>   0.0800 
 50 H       -5.7290    -5.6180     0.9920 H     1 <1>   0.1500 
 51 H       -2.9400    -6.0550    -2.1960 H     1 <1>   0.1500 
 52 H       -4.5090    -7.0560    -0.5890 H     1 <1>   0.1500 
@<TRIPOS>BOND
  1   1   2  2   
  2   2   3  am  
  3   2   4  1   
  4   3   5  1   
  5   3   6  1   
  6   4   7  2   
  7   4   8  1   
  8   5   9  1   
  9   5  27  1   
 10   5  28  1   
 11   6  10  1   
 12   6  29  1   
 13   6  30  1   
 14   8  11  1   
 15   8  12  2   
 16   9  13  1   
 17   9  14  1   
 18   9  31  1   
 19  10  13  1   
 20  10  15  1   
 21  10  32  1   
 22  11  16  1   
 23  11  17  1   
 24  12  18  1   
 25  12  33  1   
 26  14  19  ar  
 27  14  20  ar  
 28  15  21  1   
 29  15  22  1   
 30  15  23  1   
 31  16  18  2   
 32  16  34  1   
 33  17  35  1   
 34  17  36  1   
 35  17  37  1   
 36  18  38  1   
 37  19  24  ar  
 38  19  39  1   
 39  20  25  ar  
 40  20  40  1   
 41  21  41  1   
 42  21  42  1   
 43  21  43  1   
 44  22  44  1   
 45  22  45  1   
 46  22  46  1   
 47  23  47  1   
 48  23  48  1   
 49  23  49  1   
 50  24  26  ar  
 51  24  50  1   
 52  25  26  ar  
 53  25  51  1   
 54  26  52  1   
@<TRIPOS>SUBSTRUCTURE
  1 ****   3 GROUP 4 **** **** 0

# MOE 2024.06 (io_trps.svl 2023.06)
