@<TRIPOS>MOLECULE
NONAME
53 56 1 0 0 
SMALL
USER_CHARGES


@<TRIPOS>ATOM
  1 O       -0.5050     0.0010    -1.9410 O.2   1 <1>  -0.5700 
  2 C       -1.4870     0.7000    -1.7810 C.2   1 <1>   0.5440 
  3 N       -2.7360     0.1180    -1.7570 N.am  1 <1>  -0.6600 
  4 C       -1.3230     2.1280    -1.6040 C.ar  1 <1>   0.0860 
  5 C       -3.9770     0.8230    -1.3110 C.3   1 <1>   0.1400 
  6 C       -2.9340    -1.3540    -1.9220 C.3   1 <1>   0.1400 
  7 C       -0.7950     2.6450    -0.4260 C.ar  1 <1>  -0.1500 
  8 C       -1.7090     3.0280    -2.5960 C.ar  1 <1>  -0.1500 
  9 C       -4.5450     0.1650    -0.0390 C.3   1 <1>   0.1900 
 10 C       -3.5460    -1.9670    -0.6510 C.3   1 <1>   0.1100 
 11 C       -0.6700     4.0080    -0.2250 C.ar  1 <1>   0.0820 
 12 C       -1.5840     4.3930    -2.4120 C.ar  1 <1>  -0.1500 
 13 N       -4.8010    -1.2800    -0.2630 N.3   1 <1>  -0.8100 
 14 C       -5.8350     0.8810     0.4080 C.3   1 <1>   0.1200 
 15 O       -0.1580     4.4020     0.9660 O.3   1 <1>  -0.3630 
 16 C       -1.0680     4.8880    -1.2280 C.ar  1 <1>  -0.1500 
 17 C       -5.4030    -1.8770     0.9530 C.3   1 <1>   0.3330 
 18 O       -6.3530     0.2830     1.5620 O.3   1 <1>  -0.5600 
 19 C        0.0420     5.7640     1.2660 C.3   1 <1>   0.1200 
 20 C       -5.7970    -3.3340     0.7140 C.ar  1 <1>  -0.1430 
 21 C       -6.6480    -1.0780     1.3940 C.3   1 <1>   0.1200 
 22 C        0.6380     5.8540     2.6680 C.3   1 <1>  -0.2400 
 23 C       -6.5030    -3.7040    -0.4230 C.ar  1 <1>  -0.1500 
 24 C       -5.4560    -4.3090     1.6410 C.ar  1 <1>  -0.1500 
 25 C       -6.8630    -5.0240    -0.6300 C.ar  1 <1>  -0.1500 
 26 C       -5.8150    -5.6300     1.4360 C.ar  1 <1>  -0.1500 
 27 C       -6.5190    -5.9880     0.3010 C.ar  1 <1>  -0.1500 
 28 H       -3.7800     1.8600    -1.1100 H     1 <1>   0.0800 
 29 H       -4.7110     0.7700    -2.0960 H     1 <1>   0.0800 
 30 H       -3.5960    -1.5300    -2.7510 H     1 <1>   0.0800 
 31 H       -2.0010    -1.8440    -2.1380 H     1 <1>   0.0800 
 32 H       -0.4770     1.9700     0.3490 H     1 <1>   0.1500 
 33 H       -2.1080     2.6430    -3.5190 H     1 <1>   0.1500 
 34 H       -3.8170     0.2830     0.7460 H     1 <1>   0.0800 
 35 H       -2.8270    -1.9040     0.1480 H     1 <1>   0.0800 
 36 H       -3.7420    -3.0080    -0.8400 H     1 <1>   0.0800 
 37 H       -1.8870     5.0710    -3.1920 H     1 <1>   0.1500 
 38 H       -6.5810     0.8380    -0.3660 H     1 <1>   0.0800 
 39 H       -5.6310     1.9110     0.6400 H     1 <1>   0.0800 
 40 H       -0.9820     5.9510    -1.1060 H     1 <1>   0.1500 
 41 H       -4.6850    -1.8370     1.7540 H     1 <1>   0.0800 
 42 H        0.7190     6.1780     0.5380 H     1 <1>   0.0800 
 43 H       -0.9090     6.2660     1.2240 H     1 <1>   0.0800 
 44 H       -7.0110    -1.4550     2.3330 H     1 <1>   0.0800 
 45 H       -7.4300    -1.1720     0.6620 H     1 <1>   0.0800 
 46 H        1.5800     5.3360     2.7030 H     1 <1>   0.0800 
 47 H       -0.0370     5.4200     3.3840 H     1 <1>   0.0800 
 48 H        0.8020     6.8830     2.9290 H     1 <1>   0.0800 
 49 H       -6.7670    -2.9580    -1.1520 H     1 <1>   0.1500 
 50 H       -4.9090    -4.0450     2.5300 H     1 <1>   0.1500 
 51 H       -7.4090    -5.3000    -1.5150 H     1 <1>   0.1500 
 52 H       -5.5470    -6.3790     2.1600 H     1 <1>   0.1500 
 53 H       -6.7990    -7.0150     0.1410 H     1 <1>   0.1500 
@<TRIPOS>BOND
  1   1   2  2   
  2   2   3  am  
  3   2   4  1   
  4   3   5  1   
  5   3   6  1   
  6   4   7  ar  
  7   4   8  ar  
  8   5   9  1   
  9   5  28  1   
 10   5  29  1   
 11   6  10  1   
 12   6  30  1   
 13   6  31  1   
 14   7  11  ar  
 15   7  32  1   
 16   8  12  ar  
 17   8  33  1   
 18   9  13  1   
 19   9  14  1   
 20   9  34  1   
 21  10  13  1   
 22  10  35  1   
 23  10  36  1   
 24  11  15  1   
 25  11  16  ar  
 26  12  16  ar  
 27  12  37  1   
 28  13  17  1   
 29  14  18  1   
 30  14  38  1   
 31  14  39  1   
 32  15  19  1   
 33  16  40  1   
 34  17  20  1   
 35  17  21  1   
 36  17  41  1   
 37  18  21  1   
 38  19  22  1   
 39  19  42  1   
 40  19  43  1   
 41  20  23  ar  
 42  20  24  ar  
 43  21  44  1   
 44  21  45  1   
 45  22  46  1   
 46  22  47  1   
 47  22  48  1   
 48  23  25  ar  
 49  23  49  1   
 50  24  26  ar  
 51  24  50  1   
 52  25  27  ar  
 53  25  51  1   
 54  26  27  ar  
 55  26  52  1   
 56  27  53  1   
@<TRIPOS>SUBSTRUCTURE
  1 ****   9 GROUP 4 **** **** 0

# MOE 2024.06 (io_trps.svl 2023.06)
