@<TRIPOS>MOLECULE
NONAME
58 61 1 0 0 
SMALL
USER_CHARGES


@<TRIPOS>ATOM
  1 O       -1.1890    -0.2810    -0.1600 O.3   1 <1>  -0.3630 
  2 C       -0.8680     1.0010    -0.4680 C.ar  1 <1>   0.0830 
  3 C       -2.3260    -0.9040    -0.7050 C.3   1 <1>   0.1200 
  4 C        0.2850     1.5090     0.1050 C.ar  1 <1>  -0.1500 
  5 C       -1.6270     1.8090    -1.3110 C.ar  1 <1>  -0.1500 
  6 C       -2.3630    -2.3360    -0.1640 C.3   1 <1>   0.3430 
  7 C        0.6940     2.8060    -0.1520 C.ar  1 <1>   0.0820 
  8 C       -1.2230     3.1080    -1.5710 C.ar  1 <1>  -0.1500 
  9 N       -3.4480    -3.1680    -0.7870 N.4   1 <1>  -0.9590 
 10 O        1.8370     3.2170     0.4520 O.3   1 <1>  -0.3630 
 11 C       -0.0680     3.6090    -0.9970 C.ar  1 <1>  -0.1500 
 12 C       -4.8130    -2.7260    -0.3370 C.3   1 <1>   0.3430 
 13 C       -3.2960    -4.5920    -0.3410 C.3   1 <1>   0.3430 
 14 C        2.3430     4.5180     0.2600 C.3   1 <1>   0.1200 
 15 C       -5.2250    -3.6890     0.7800 C.3   1 <1>   0.2000 
 16 C       -4.6210    -5.0080     0.3060 C.3   1 <1>  -0.0800 
 17 C        3.6260     4.6490     1.0740 C.3   1 <1>  -0.2400 
 18 O       -4.6030    -3.2780     1.9550 O.3   1 <1>  -0.6800 
 19 C       -4.4520    -6.1140     1.3700 C.3   1 <1>  -0.0170 
 20 C       -3.6430    -7.2740     0.7990 C.ar  1 <1>  -0.1430 
 21 C       -4.1770    -8.1830    -0.1460 C.ar  1 <1>   0.0000 
 22 C       -2.3440    -7.4500     1.1800 C.ar  1 <1>  -0.1500 
 23 C       -3.3040    -9.1640    -0.6790 C.ar  1 <1>   0.3100 
 24 C       -5.5200    -8.1840    -0.5900 C.ar  1 <1>  -0.1500 
 25 C       -1.5740    -8.4710     0.6110 C.ar  1 <1>   0.1600 
 26 N       -2.0100    -9.2870    -0.2930 N.ar  1 <1>  -0.6200 
 27 C       -3.7900   -10.0530    -1.6490 C.ar  1 <1>  -0.1500 
 28 C       -5.9640    -9.0690    -1.5350 C.ar  1 <1>  -0.1500 
 29 C       -5.0890   -10.0130    -2.0770 C.ar  1 <1>  -0.1500 
 30 H       -3.1910    -0.3460    -0.3930 H     1 <1>   0.0800 
 31 H       -2.2240    -0.8990    -1.7750 H     1 <1>   0.0800 
 32 H        0.8760     0.8940     0.7570 H     1 <1>   0.1500 
 33 H       -2.5280     1.4570    -1.7740 H     1 <1>   0.1500 
 34 H       -2.5030    -2.3030     0.9050 H     1 <1>   0.0800 
 35 H       -1.4070    -2.7920    -0.3660 H     1 <1>   0.0800 
 36 H       -1.8090     3.7330    -2.2230 H     1 <1>   0.1500 
 37 H       -3.3720    -3.1210    -1.8120 H     1 <1>   0.4500 
 38 H        0.2200     4.6190    -1.2170 H     1 <1>   0.1500 
 39 H       -4.8230    -1.7080     0.0140 H     1 <1>   0.0800 
 40 H       -5.5080    -2.8250    -1.1540 H     1 <1>   0.0800 
 41 H       -3.0540    -5.2440    -1.1660 H     1 <1>   0.0800 
 42 H       -2.5120    -4.6620     0.3950 H     1 <1>   0.0800 
 43 H        2.5410     4.6550    -0.7890 H     1 <1>   0.0800 
 44 H        1.6040     5.2240     0.5980 H     1 <1>   0.0800 
 45 H       -6.2910    -3.7190     0.9340 H     1 <1>   0.0800 
 46 H       -5.2430    -5.3900    -0.4830 H     1 <1>   0.0800 
 47 H        4.3500     3.9280     0.7390 H     1 <1>   0.0800 
 48 H        3.4190     4.4930     2.1170 H     1 <1>   0.0800 
 49 H        4.0380     5.6340     0.9480 H     1 <1>   0.0800 
 50 H       -5.0270    -3.6810     2.7440 H     1 <1>   0.4000 
 51 H       -5.4110    -6.4630     1.7100 H     1 <1>   0.0800 
 52 H       -3.9350    -5.7270     2.2310 H     1 <1>   0.0800 
 53 H       -1.8730    -6.8210     1.9140 H     1 <1>   0.1500 
 54 H       -6.2190    -7.4840    -0.1760 H     1 <1>   0.1500 
 55 H       -0.5540    -8.5800     0.9400 H     1 <1>   0.1500 
 56 H       -3.1020   -10.7780    -2.0450 H     1 <1>   0.1500 
 57 H       -6.9880    -9.0600    -1.8680 H     1 <1>   0.1500 
 58 H       -5.4480   -10.7030    -2.8210 H     1 <1>   0.1500 
@<TRIPOS>BOND
  1   1   2  1   
  2   1   3  1   
  3   2   4  ar  
  4   2   5  ar  
  5   3   6  1   
  6   3  30  1   
  7   3  31  1   
  8   4   7  ar  
  9   4  32  1   
 10   5   8  ar  
 11   5  33  1   
 12   6   9  1   
 13   6  34  1   
 14   6  35  1   
 15   7  10  1   
 16   7  11  ar  
 17   8  11  ar  
 18   8  36  1   
 19   9  12  1   
 20   9  13  1   
 21   9  37  1   
 22  10  14  1   
 23  11  38  1   
 24  12  15  1   
 25  12  39  1   
 26  12  40  1   
 27  13  16  1   
 28  13  41  1   
 29  13  42  1   
 30  14  17  1   
 31  14  43  1   
 32  14  44  1   
 33  15  16  1   
 34  15  18  1   
 35  15  45  1   
 36  16  19  1   
 37  16  46  1   
 38  17  47  1   
 39  17  48  1   
 40  17  49  1   
 41  18  50  1   
 42  19  20  1   
 43  19  51  1   
 44  19  52  1   
 45  20  21  ar  
 46  20  22  ar  
 47  21  23  ar  
 48  21  24  ar  
 49  22  25  ar  
 50  22  53  1   
 51  23  26  ar  
 52  23  27  ar  
 53  24  28  ar  
 54  24  54  1   
 55  25  26  ar  
 56  25  55  1   
 57  27  29  ar  
 58  27  56  1   
 59  28  29  ar  
 60  28  57  1   
 61  29  58  1   
@<TRIPOS>SUBSTRUCTURE
  1 ****   6 GROUP 4 **** **** 0

# MOE 2024.06 (io_trps.svl 2023.06)
