@<TRIPOS>MOLECULE
NONAME
50 52 1 0 0 
SMALL
USER_CHARGES


@<TRIPOS>ATOM
  1 S        0.7710    -1.8690    -0.9670 S.3   1 <1>  -0.0800 
  2 C       -0.0320    -2.0790     0.5730 C.2   1 <1>   0.1980 
  3 C       -0.2210    -3.1320    -1.6330 C.2   1 <1>  -0.1100 
  4 N       -0.9330    -2.9790     0.5770 N.2   1 <1>  -0.5650 
  5 C        0.4170    -1.1910     1.7120 C.3   1 <1>  -0.0600 
  6 C       -1.0410    -3.5870    -0.6730 C.2   1 <1>   0.0460 
  7 C       -2.0860    -4.6840    -0.8100 C.3   1 <1>   0.5240 
  8 N       -3.3130    -4.2190    -0.1110 N.4   1 <1>  -0.9590 
  9 C       -4.1360    -5.3840     0.3650 C.3   1 <1>   0.3430 
 10 C       -4.0250    -3.1710    -0.9070 C.3   1 <1>   0.3430 
 11 C       -5.4480    -4.9850     1.0610 C.3   1 <1>   0.1400 
 12 C       -4.8670    -2.2770     0.0090 C.3   1 <1>  -0.1600 
 13 N       -6.3750    -4.2650     0.1330 N.am  1 <1>  -0.6600 
 14 C       -6.3020    -2.7800     0.2230 C.3   1 <1>   0.1400 
 15 C       -7.2660    -4.8640    -0.7310 C.2   1 <1>   0.5690 
 16 O       -8.1330    -4.2310    -1.2770 O.2   1 <1>  -0.5700 
 17 C       -7.1650    -6.3280    -1.1070 C.3   1 <1>  -0.0990 
 18 C       -7.7150    -7.2590    -0.0100 C.3   1 <1>   0.1760 
 19 N       -6.7610    -8.3930     0.2140 N.pl3 1 <1>   0.3140 
 20 C       -9.1440    -7.7260    -0.3390 C.3   1 <1>  -0.2400 
 21 N       -5.4700    -8.1680     0.5730 N.2   1 <1>  -0.7070 
 22 C       -7.0010    -9.7180     0.1110 C.2   1 <1>  -0.3020 
 23 C       -4.9460    -9.3520     0.6940 C.2   1 <1>   0.1390 
 24 C       -5.8550   -10.3620     0.4150 C.2   1 <1>  -0.1500 
 25 H       -0.0700    -3.3860    -2.6680 H     1 <1>   0.1500 
 26 H        1.4610    -1.3530     1.9090 H     1 <1>   0.0800 
 27 H       -0.1440    -1.4180     2.5990 H     1 <1>   0.0800 
 28 H        0.2640    -0.1590     1.4540 H     1 <1>   0.0800 
 29 H       -1.7090    -5.5720    -0.3310 H     1 <1>   0.0800 
 30 H       -2.2860    -4.9020    -1.8460 H     1 <1>   0.0800 
 31 H       -2.9080    -3.7280     0.7060 H     1 <1>   0.4500 
 32 H       -3.5550    -5.9700     1.0590 H     1 <1>   0.0800 
 33 H       -4.3730    -6.0270    -0.4650 H     1 <1>   0.0800 
 34 H       -4.6460    -3.6200    -1.6650 H     1 <1>   0.0800 
 35 H       -3.2940    -2.5460    -1.3970 H     1 <1>   0.0800 
 36 H       -5.2260    -4.3650     1.9120 H     1 <1>   0.0800 
 37 H       -5.9260    -5.8610     1.4510 H     1 <1>   0.0800 
 38 H       -4.9390    -1.3040    -0.4420 H     1 <1>   0.0800 
 39 H       -4.3750    -2.1370     0.9550 H     1 <1>   0.0800 
 40 H       -6.9350    -2.3370    -0.5280 H     1 <1>   0.0800 
 41 H       -6.6720    -2.4570     1.1820 H     1 <1>   0.0800 
 42 H       -6.1430    -6.5480    -1.3400 H     1 <1>   0.0800 
 43 H       -7.7170    -6.4790    -2.0170 H     1 <1>   0.0800 
 44 H       -7.7670    -6.7200     0.9170 H     1 <1>   0.0800 
 45 H       -9.1640    -8.2960    -1.2520 H     1 <1>   0.0800 
 46 H       -9.7860    -6.8710    -0.4630 H     1 <1>   0.0800 
 47 H       -9.5380    -8.3230     0.4640 H     1 <1>   0.0800 
 48 H       -7.9520   -10.1370    -0.1640 H     1 <1>   0.1500 
 49 H       -3.9230    -9.5310     0.9800 H     1 <1>   0.1500 
 50 H       -5.6610   -11.4200     0.4430 H     1 <1>   0.1500 
@<TRIPOS>BOND
  1   1   2  1   
  2   1   3  1   
  3   2   4  2   
  4   2   5  1   
  5   3   6  2   
  6   3  25  1   
  7   4   6  1   
  8   5  26  1   
  9   5  27  1   
 10   5  28  1   
 11   6   7  1   
 12   7   8  1   
 13   7  29  1   
 14   7  30  1   
 15   8   9  1   
 16   8  10  1   
 17   8  31  1   
 18   9  11  1   
 19   9  32  1   
 20   9  33  1   
 21  10  12  1   
 22  10  34  1   
 23  10  35  1   
 24  11  13  1   
 25  11  36  1   
 26  11  37  1   
 27  12  14  1   
 28  12  38  1   
 29  12  39  1   
 30  13  14  1   
 31  13  15  am  
 32  14  40  1   
 33  14  41  1   
 34  15  16  2   
 35  15  17  1   
 36  17  18  1   
 37  17  42  1   
 38  17  43  1   
 39  18  19  1   
 40  18  20  1   
 41  18  44  1   
 42  19  21  1   
 43  19  22  1   
 44  20  45  1   
 45  20  46  1   
 46  20  47  1   
 47  21  23  2   
 48  22  24  2   
 49  22  48  1   
 50  23  24  1   
 51  23  49  1   
 52  24  50  1   
@<TRIPOS>SUBSTRUCTURE
  1 ****   9 GROUP 4 **** **** 0

# MOE 2024.06 (io_trps.svl 2023.06)
