@<TRIPOS>MOLECULE
NONAME
46 47 1 0 0 
SMALL
USER_CHARGES


@<TRIPOS>ATOM
  1 O       -2.3110     1.2400    -2.1710 O.2   1 <1>  -0.5700 
  2 C       -2.9940     1.3720    -1.1840 C.2   1 <1>   0.5690 
  3 N       -3.9420     0.4630    -0.8580 N.am  1 <1>  -0.7300 
  4 C       -2.8040     2.5760    -0.2610 C.3   1 <1>  -0.0190 
  5 C       -4.1650    -0.8030    -1.5700 C.3   1 <1>   0.2840 
  6 C       -1.9990     3.7230    -0.9090 C.3   1 <1>  -0.1600 
  7 C       -2.1570     2.1480     1.0790 C.3   1 <1>  -0.1600 
  8 C       -4.7620    -1.7820    -0.5780 C.ar  1 <1>  -0.1440 
  9 C       -1.9500     4.9820    -0.0170 C.3   1 <1>   0.2000 
 10 C       -1.5030     3.3080     1.8560 C.3   1 <1>  -0.1600 
 11 C       -3.9390    -2.4560     0.3100 C.ar  1 <1>  -0.1500 
 12 C       -6.1300    -2.0000    -0.5390 C.ar  1 <1>  -0.1500 
 13 O       -0.7100     5.6190    -0.2080 O.3   1 <1>  -0.5600 
 14 C       -2.1260     4.6570     1.4900 C.3   1 <1>   0.2000 
 15 C       -4.4730    -3.3420     1.2310 C.ar  1 <1>  -0.1440 
 16 C       -6.6750    -2.8830     0.3780 C.ar  1 <1>  -0.1440 
 17 C       -0.5930     6.3510    -1.3890 C.3   1 <1>   0.0400 
 18 O       -1.5060     5.6340     2.2410 O.3   1 <1>  -0.6800 
 19 C       -5.8410    -3.5520     1.2580 C.ar  1 <1>  -0.1500 
 20 C       -3.5670    -4.0820     2.1990 C.3   1 <1>  -0.0970 
 21 C       -8.1740    -3.1230     0.4160 C.3   1 <1>  -0.0970 
 22 H       -4.4700     0.5400     0.0120 H     1 <1>   0.3700 
 23 H       -3.7870     2.9590    -0.0520 H     1 <1>   0.0800 
 24 H       -4.8370    -0.6390    -2.3950 H     1 <1>   0.0800 
 25 H       -3.2330    -1.1800    -1.9570 H     1 <1>   0.0800 
 26 H       -2.4390     3.9760    -1.8570 H     1 <1>   0.0800 
 27 H       -0.9970     3.3700    -1.0880 H     1 <1>   0.0800 
 28 H       -2.9110     1.6880     1.6940 H     1 <1>   0.0800 
 29 H       -1.4020     1.4030     0.8900 H     1 <1>   0.0800 
 30 H       -2.7340     5.6650    -0.2980 H     1 <1>   0.0800 
 31 H       -0.4540     3.3420     1.6110 H     1 <1>   0.0800 
 32 H       -1.5970     3.1350     2.9140 H     1 <1>   0.0800 
 33 H       -2.8760    -2.2870     0.2830 H     1 <1>   0.1500 
 34 H       -6.7760    -1.4800    -1.2250 H     1 <1>   0.1500 
 35 H       -3.1700     4.6510     1.7530 H     1 <1>   0.0800 
 36 H        0.3810     6.8070    -1.4030 H     1 <1>   0.0800 
 37 H       -1.3500     7.1160    -1.4110 H     1 <1>   0.0800 
 38 H       -0.6930     5.6930    -2.2340 H     1 <1>   0.0800 
 39 H       -0.7480     5.9460     1.6960 H     1 <1>   0.4000 
 40 H       -6.2600    -4.2430     1.9680 H     1 <1>   0.1500 
 41 H       -4.0700    -4.2390     3.1360 H     1 <1>   0.0800 
 42 H       -2.6710    -3.5170     2.3850 H     1 <1>   0.0800 
 43 H       -3.2970    -5.0360     1.7850 H     1 <1>   0.0800 
 44 H       -8.4950    -3.3220     1.4230 H     1 <1>   0.0800 
 45 H       -8.4210    -3.9680    -0.2010 H     1 <1>   0.0800 
 46 H       -8.7040    -2.2610     0.0550 H     1 <1>   0.0800 
@<TRIPOS>BOND
  1   1   2  2   
  2   2   3  am  
  3   2   4  1   
  4   3   5  1   
  5   3  22  1   
  6   4   6  1   
  7   4   7  1   
  8   4  23  1   
  9   5   8  1   
 10   5  24  1   
 11   5  25  1   
 12   6   9  1   
 13   6  26  1   
 14   6  27  1   
 15   7  10  1   
 16   7  28  1   
 17   7  29  1   
 18   8  11  ar  
 19   8  12  ar  
 20   9  13  1   
 21   9  14  1   
 22   9  30  1   
 23  10  14  1   
 24  10  31  1   
 25  10  32  1   
 26  11  15  ar  
 27  11  33  1   
 28  12  16  ar  
 29  12  34  1   
 30  13  17  1   
 31  14  18  1   
 32  14  35  1   
 33  15  19  ar  
 34  15  20  1   
 35  16  19  ar  
 36  16  21  1   
 37  17  36  1   
 38  17  37  1   
 39  17  38  1   
 40  18  39  1   
 41  19  40  1   
 42  20  41  1   
 43  20  42  1   
 44  20  43  1   
 45  21  44  1   
 46  21  45  1   
 47  21  46  1   
@<TRIPOS>SUBSTRUCTURE
  1 ****   3 GROUP 4 **** **** 0

# MOE 2024.06 (io_trps.svl 2023.06)
