@<TRIPOS>MOLECULE
NONAME
32 33 1 0 0 
SMALL
USER_CHARGES


@<TRIPOS>ATOM
  1 O       -0.1510     0.1290    -0.3240 O.2   1 <1>  -0.5700 
  2 C       -1.2530     0.6150    -0.2520 C.2   1 <1>   0.5690 
  3 N       -2.4250    -0.0290     0.0280 N.am  1 <1>  -0.4770 
  4 C       -1.4790     2.0860    -0.4760 C.3   1 <1>  -0.0990 
  5 C       -2.6170    -1.3860     0.3590 C.ar  1 <1>   0.1170 
  6 C       -3.5600     0.9150     0.0150 C.3   1 <1>   0.1400 
  7 C       -2.9180     2.3070     0.0030 C.3   1 <1>  -0.1600 
  8 C       -3.7560    -2.0700    -0.0580 C.ar  1 <1>  -0.1500 
  9 C       -1.6820    -2.0770     1.1220 C.ar  1 <1>  -0.1500 
 10 C       -3.9730    -3.3980     0.2760 C.ar  1 <1>  -0.1440 
 11 C       -1.8820    -3.4010     1.4620 C.ar  1 <1>  -0.1500 
 12 C       -3.0240    -4.0590     1.0430 C.ar  1 <1>  -0.1500 
 13 C       -5.2370    -4.1090    -0.2030 C.3   1 <1>   0.0630 
 14 C       -6.0860    -4.5750     0.9840 C.3   1 <1>  -0.2400 
 15 C       -4.8870    -5.2870    -1.1170 C.3   1 <1>  -0.2400 
 16 H       -1.3800     2.2950    -1.5260 H     1 <1>   0.0800 
 17 H       -0.7720     2.6710     0.0840 H     1 <1>   0.0800 
 18 H       -4.1800     0.7740     0.8840 H     1 <1>   0.0800 
 19 H       -4.1380     0.7600    -0.8790 H     1 <1>   0.0800 
 20 H       -3.4590     2.9900    -0.6290 H     1 <1>   0.0800 
 21 H       -2.9100     2.6940     1.0070 H     1 <1>   0.0800 
 22 H       -4.4800    -1.5560    -0.6600 H     1 <1>   0.1500 
 23 H       -0.7910    -1.5740     1.4510 H     1 <1>   0.1500 
 24 H       -1.1470    -3.9190     2.0530 H     1 <1>   0.1500 
 25 H       -3.1660    -5.0890     1.3160 H     1 <1>   0.1500 
 26 H       -5.8290    -3.4160    -0.7760 H     1 <1>   0.0800 
 27 H       -5.5620    -5.3120     1.5650 H     1 <1>   0.0800 
 28 H       -7.0090    -5.0040     0.6370 H     1 <1>   0.0800 
 29 H       -6.3150    -3.7380     1.6200 H     1 <1>   0.0800 
 30 H       -4.3360    -6.0390    -0.5810 H     1 <1>   0.0800 
 31 H       -4.2850    -4.9430    -1.9400 H     1 <1>   0.0800 
 32 H       -5.7830    -5.7320    -1.5120 H     1 <1>   0.0800 
@<TRIPOS>BOND
  1   1   2  2   
  2   2   3  am  
  3   2   4  1   
  4   3   5  1   
  5   3   6  1   
  6   4   7  1   
  7   4  16  1   
  8   4  17  1   
  9   5   8  ar  
 10   5   9  ar  
 11   6   7  1   
 12   6  18  1   
 13   6  19  1   
 14   7  20  1   
 15   7  21  1   
 16   8  10  ar  
 17   8  22  1   
 18   9  11  ar  
 19   9  23  1   
 20  10  12  ar  
 21  10  13  1   
 22  11  12  ar  
 23  11  24  1   
 24  12  25  1   
 25  13  14  1   
 26  13  15  1   
 27  13  26  1   
 28  14  27  1   
 29  14  28  1   
 30  14  29  1   
 31  15  30  1   
 32  15  31  1   
 33  15  32  1   
@<TRIPOS>SUBSTRUCTURE
  1 ****   5 GROUP 4 **** **** 0

# MOE 2024.06 (io_trps.svl 2023.06)
