@<TRIPOS>MOLECULE
NONAME
55 57 1 0 0 
SMALL
USER_CHARGES


@<TRIPOS>ATOM
  1 O       -2.3240    -0.0570     2.9700 O.2   1 <1>  -0.5700 
  2 C       -2.8290    -0.0280     1.8750 C.2   1 <1>   0.5690 
  3 N       -2.7780     1.0020     1.0050 N.am  1 <1>  -0.6600 
  4 C       -3.6150    -1.1720     1.3040 C.3   1 <1>  -0.0990 
  5 C       -3.4720     0.7230    -0.2610 C.3   1 <1>   0.1400 
  6 C       -2.1370     2.3180     1.2640 C.3   1 <1>   0.1400 
  7 C       -3.8190    -0.7730    -0.1730 C.3   1 <1>  -0.0800 
  8 C       -0.6160     2.1910     1.1950 C.3   1 <1>   0.1200 
  9 C       -5.2250    -1.0720    -0.7020 C.3   1 <1>   0.1400 
 10 O       -0.0620     3.4690     1.2420 O.3   1 <1>  -0.5600 
 11 N       -5.4910    -2.5240    -0.6170 N.am  1 <1>  -0.7300 
 12 C        1.3280     3.4760     1.2830 C.3   1 <1>   0.0400 
 13 C       -5.4950    -3.3730    -1.6750 C.2   1 <1>   0.5690 
 14 O       -5.3000    -3.0010    -2.8050 O.2   1 <1>  -0.5700 
 15 C       -5.7630    -4.8350    -1.4170 C.3   1 <1>  -0.0990 
 16 C       -7.2670    -5.1200    -1.4510 C.3   1 <1>   0.0200 
 17 C       -7.5310    -6.5500    -1.0320 C.2   1 <1>   0.0070 
 18 N       -7.6630    -6.9150     0.1930 N.2   1 <1>  -0.5650 
 19 N       -7.6370    -7.5680    -1.9230 N.pl3 1 <1>   0.0330 
 20 C       -7.8750    -8.2650     0.1310 C.ar  1 <1>   0.2270 
 21 C       -7.8580    -8.6840    -1.1860 C.ar  1 <1>  -0.1520 
 22 C       -8.0870    -9.1890     1.1630 C.ar  1 <1>  -0.1440 
 23 C       -8.0450   -10.0220    -1.5250 C.ar  1 <1>  -0.1500 
 24 C       -8.2640   -10.5240     0.8350 C.ar  1 <1>  -0.1440 
 25 C       -8.1060    -8.6760     2.5990 C.3   1 <1>  -0.0970 
 26 C       -8.2460   -10.9280    -0.5090 C.ar  1 <1>  -0.1500 
 27 C       -8.4790   -11.5940     1.8960 C.3   1 <1>  -0.0970 
 28 H       -4.5450    -1.2420     1.8360 H     1 <1>   0.0800 
 29 H       -3.0660    -2.0910     1.3960 H     1 <1>   0.0800 
 30 H       -2.8280     0.9270    -1.1010 H     1 <1>   0.0800 
 31 H       -4.3570     1.3340    -0.3210 H     1 <1>   0.0800 
 32 H       -2.4180     2.6590     2.2450 H     1 <1>   0.0800 
 33 H       -2.4740     3.0320     0.5340 H     1 <1>   0.0800 
 34 H       -3.1060    -1.3030    -0.7820 H     1 <1>   0.0800 
 35 H       -0.3190     1.7260     0.2720 H     1 <1>   0.0800 
 36 H       -0.2570     1.6210     2.0360 H     1 <1>   0.0800 
 37 H       -5.3030    -0.7490    -1.7270 H     1 <1>   0.0800 
 38 H       -5.9650    -0.5410    -0.1260 H     1 <1>   0.0800 
 39 H       -5.6520    -2.8980     0.3210 H     1 <1>   0.3700 
 40 H        1.6570     4.5000     1.3090 H     1 <1>   0.0800 
 41 H        1.7120     2.9920     0.4020 H     1 <1>   0.0800 
 42 H        1.6590     2.9660     2.1710 H     1 <1>   0.0800 
 43 H       -5.3640    -5.1080    -0.4580 H     1 <1>   0.0800 
 44 H       -5.2620    -5.4210    -2.1650 H     1 <1>   0.0800 
 45 H       -7.6600    -4.9350    -2.4350 H     1 <1>   0.0800 
 46 H       -7.7730    -4.4650    -0.7620 H     1 <1>   0.0800 
 47 H       -7.5640    -7.5160    -2.9410 H     1 <1>   0.2700 
 48 H       -8.0320   -10.3320    -2.5540 H     1 <1>   0.1500 
 49 H       -8.4850    -7.6700     2.6290 H     1 <1>   0.0800 
 50 H       -7.1070    -8.6760     2.9950 H     1 <1>   0.0800 
 51 H       -8.7350    -9.2790     3.2260 H     1 <1>   0.0800 
 52 H       -8.3910   -11.9660    -0.7500 H     1 <1>   0.1500 
 53 H       -7.7650   -11.4790     2.6920 H     1 <1>   0.0800 
 54 H       -8.3590   -12.5790     1.4830 H     1 <1>   0.0800 
 55 H       -9.4720   -11.5110     2.3000 H     1 <1>   0.0800 
@<TRIPOS>BOND
  1   1   2  2   
  2   2   3  am  
  3   2   4  1   
  4   3   5  1   
  5   3   6  1   
  6   4   7  1   
  7   4  28  1   
  8   4  29  1   
  9   5   7  1   
 10   5  30  1   
 11   5  31  1   
 12   6   8  1   
 13   6  32  1   
 14   6  33  1   
 15   7   9  1   
 16   7  34  1   
 17   8  10  1   
 18   8  35  1   
 19   8  36  1   
 20   9  11  1   
 21   9  37  1   
 22   9  38  1   
 23  10  12  1   
 24  11  13  am  
 25  11  39  1   
 26  12  40  1   
 27  12  41  1   
 28  12  42  1   
 29  13  14  2   
 30  13  15  1   
 31  15  16  1   
 32  15  43  1   
 33  15  44  1   
 34  16  17  1   
 35  16  45  1   
 36  16  46  1   
 37  17  18  2   
 38  17  19  1   
 39  18  20  1   
 40  19  21  1   
 41  19  47  1   
 42  20  21  ar  
 43  20  22  ar  
 44  21  23  ar  
 45  22  24  ar  
 46  22  25  1   
 47  23  26  ar  
 48  23  48  1   
 49  24  26  ar  
 50  24  27  1   
 51  25  49  1   
 52  25  50  1   
 53  25  51  1   
 54  26  52  1   
 55  27  53  1   
 56  27  54  1   
 57  27  55  1   
@<TRIPOS>SUBSTRUCTURE
  1 ****  11 GROUP 4 **** **** 0

# MOE 2024.06 (io_trps.svl 2023.06)
