@<TRIPOS>MOLECULE
NONAME
49 50 1 0 0 
SMALL
USER_CHARGES


@<TRIPOS>ATOM
  1 O        0.1110     0.0380     1.3390 O.2   1 <1>  -0.5700 
  2 C        1.1400    -0.3830     0.8710 C.2   1 <1>   0.5690 
  3 N        2.1050     0.4040     0.3050 N.am  1 <1>  -0.4940 
  4 C        1.3690    -1.8780     0.9120 C.3   1 <1>  -0.0990 
  5 C        2.1410     1.8160     0.1700 C.2   1 <1>  -0.0880 
  6 C        0.2730    -2.5940     0.1190 C.3   1 <1>   0.1100 
  7 N        3.1250     2.5180    -0.4560 N.pl3 1 <1>   0.3140 
  8 C        1.2570     2.7380     0.6170 C.2   1 <1>  -0.1500 
  9 N        0.5160    -4.0490     0.0680 N.3   1 <1>  -0.8100 
 10 N        2.8920     3.8480    -0.4180 N.2   1 <1>  -0.7070 
 11 C        4.3160     1.9760    -1.1410 C.3   1 <1>   0.0960 
 12 C        1.7740     3.9660     0.2240 C.2   1 <1>   0.1080 
 13 C        0.1890    -4.7110     1.3610 C.3   1 <1>   0.1100 
 14 C       -0.2780    -4.6650    -1.0250 C.3   1 <1>   0.1100 
 15 C        5.3980     1.5660    -0.1310 C.3   1 <1>  -0.1600 
 16 C        1.1360     5.3070     0.4980 C.3   1 <1>  -0.0590 
 17 C        0.3100    -6.2550     1.2980 C.3   1 <1>   0.3430 
 18 C       -0.0570    -6.1950    -1.1360 C.3   1 <1>   0.3430 
 19 C        6.6090     0.9420    -0.8340 C.3   1 <1>  -0.2400 
 20 N        0.8290    -6.7020    -0.0360 N.4   1 <1>  -0.9590 
 21 C        1.0900    -8.1680    -0.1140 C.3   1 <1>   0.2630 
 22 H        2.9220    -0.0920    -0.0450 H     1 <1>   0.3700 
 23 H        1.3450    -2.1790     1.9420 H     1 <1>   0.0800 
 24 H        2.3300    -2.1180     0.4980 H     1 <1>   0.0800 
 25 H        0.2740    -2.1960    -0.8830 H     1 <1>   0.0800 
 26 H       -0.6940    -2.3870     0.5520 H     1 <1>   0.0800 
 27 H        0.3440     2.5760     1.1610 H     1 <1>   0.1500 
 28 H        4.6970     2.7370    -1.7980 H     1 <1>   0.0800 
 29 H        4.0120     1.1360    -1.7370 H     1 <1>   0.0800 
 30 H       -0.8120    -4.4540     1.6640 H     1 <1>   0.0800 
 31 H        0.8550    -4.3540     2.1270 H     1 <1>   0.0800 
 32 H       -0.0080    -4.2110    -1.9640 H     1 <1>   0.0800 
 33 H       -1.3260    -4.4730    -0.8660 H     1 <1>   0.0800 
 34 H        4.9970     0.8600     0.5740 H     1 <1>   0.0800 
 35 H        5.7160     2.4410     0.4120 H     1 <1>   0.0800 
 36 H        0.2160     5.1810     1.0370 H     1 <1>   0.0800 
 37 H        0.9360     5.8040    -0.4320 H     1 <1>   0.0800 
 38 H        1.8080     5.9100     1.0800 H     1 <1>   0.0800 
 39 H       -0.6570    -6.6920     1.4800 H     1 <1>   0.0800 
 40 H        0.9720    -6.5860     2.0810 H     1 <1>   0.0800 
 41 H        0.3890    -6.4120    -2.0920 H     1 <1>   0.0800 
 42 H       -1.0130    -6.6910    -1.1010 H     1 <1>   0.0800 
 43 H        6.3230     0.0550    -1.3720 H     1 <1>   0.0800 
 44 H        7.3570     0.6750    -0.1080 H     1 <1>   0.0800 
 45 H        7.0440     1.6420    -1.5270 H     1 <1>   0.0800 
 46 H        1.7030    -6.1640    -0.1550 H     1 <1>   0.4500 
 47 H        0.1720    -8.7190     0.0120 H     1 <1>   0.0800 
 48 H        1.7800    -8.4650     0.6590 H     1 <1>   0.0800 
 49 H        1.5180    -8.4210    -1.0700 H     1 <1>   0.0800 
@<TRIPOS>BOND
  1   1   2  2   
  2   2   3  am  
  3   2   4  1   
  4   3   5  1   
  5   3  22  1   
  6   4   6  1   
  7   4  23  1   
  8   4  24  1   
  9   5   7  1   
 10   5   8  2   
 11   6   9  1   
 12   6  25  1   
 13   6  26  1   
 14   7  10  1   
 15   7  11  1   
 16   8  12  1   
 17   8  27  1   
 18   9  13  1   
 19   9  14  1   
 20  10  12  2   
 21  11  15  1   
 22  11  28  1   
 23  11  29  1   
 24  12  16  1   
 25  13  17  1   
 26  13  30  1   
 27  13  31  1   
 28  14  18  1   
 29  14  32  1   
 30  14  33  1   
 31  15  19  1   
 32  15  34  1   
 33  15  35  1   
 34  16  36  1   
 35  16  37  1   
 36  16  38  1   
 37  17  20  1   
 38  17  39  1   
 39  17  40  1   
 40  18  20  1   
 41  18  41  1   
 42  18  42  1   
 43  19  43  1   
 44  19  44  1   
 45  19  45  1   
 46  20  21  1   
 47  20  46  1   
 48  21  47  1   
 49  21  48  1   
 50  21  49  1   
@<TRIPOS>SUBSTRUCTURE
  1 ****   2 GROUP 4 **** **** 0

# MOE 2024.06 (io_trps.svl 2023.06)
