@<TRIPOS>MOLECULE
NONAME
48 50 1 0 0 
SMALL
USER_CHARGES


@<TRIPOS>ATOM
  1 O       -0.1070    -1.0600    -0.4610 O.3   1 <1>  -0.6800 
  2 C        1.0240    -1.6380    -0.9900 C.3   1 <1>   0.2000 
  3 C        1.4630    -2.8100    -0.1210 C.3   1 <1>  -0.1600 
  4 C        2.1760    -0.6430    -0.9310 C.3   1 <1>  -0.1600 
  5 C        2.9860    -2.8830    -0.3080 C.3   1 <1>  -0.0800 
  6 C        3.4370    -1.5110    -0.8170 C.3   1 <1>  -0.0800 
  7 C        3.7910    -3.1350     0.9760 C.3   1 <1>  -0.1600 
  8 C        4.4840    -1.0060     0.1880 C.3   1 <1>  -0.1600 
  9 C        5.0470    -2.2580     0.8630 C.3   1 <1>   0.4230 
 10 N        6.1400    -2.8150    -0.0130 N.4   1 <1>  -0.9590 
 11 C        7.5060    -2.4800     0.5000 C.3   1 <1>   0.3430 
 12 C        6.0840    -4.2960    -0.2500 C.3   1 <1>   0.2630 
 13 C        7.8060    -0.9830     0.4210 C.3   1 <1>  -0.1600 
 14 C        9.2600    -0.6830     0.8110 C.3   1 <1>   0.0960 
 15 N        9.4900     0.7740     0.7660 N.pl3 1 <1>   0.0480 
 16 C        9.9800     1.5350    -0.2430 C.2   1 <1>   0.0060 
 17 C        9.1930     1.6490     1.7440 C.2   1 <1>  -0.3020 
 18 N       10.0050     2.7980     0.0280 N.2   1 <1>  -0.5650 
 19 C       10.4590     0.9840    -1.5710 C.3   1 <1>  -0.0600 
 20 C        9.5150     2.8740     1.2770 C.2   1 <1>   0.0770 
 21 H       -0.8580    -1.6830    -0.4950 H     1 <1>   0.4000 
 22 H        0.8300    -1.9470    -2.0050 H     1 <1>   0.0800 
 23 H        1.2160    -2.5990     0.9060 H     1 <1>   0.0800 
 24 H        0.9860    -3.7240    -0.4250 H     1 <1>   0.0800 
 25 H        2.1980    -0.0240    -1.8100 H     1 <1>   0.0800 
 26 H        2.0580    -0.0210    -0.0610 H     1 <1>   0.0800 
 27 H        3.2180    -3.6240    -1.0540 H     1 <1>   0.0800 
 28 H        3.8780    -1.6300    -1.7930 H     1 <1>   0.0800 
 29 H        3.9710    -4.1750     1.1720 H     1 <1>   0.0800 
 30 H        3.2330    -2.7590     1.8170 H     1 <1>   0.0800 
 31 H        3.9990    -0.4200     0.9500 H     1 <1>   0.0800 
 32 H        5.2200    -0.3830    -0.2840 H     1 <1>   0.0800 
 33 H        5.4340    -2.0330     1.8440 H     1 <1>   0.0800 
 34 H        6.0150    -2.3580    -0.9260 H     1 <1>   0.4500 
 35 H        7.6040    -2.8160     1.5200 H     1 <1>   0.0800 
 36 H        8.2410    -3.0040    -0.0910 H     1 <1>   0.0800 
 37 H        6.1660    -4.8280     0.6840 H     1 <1>   0.0800 
 38 H        6.8910    -4.6040    -0.8950 H     1 <1>   0.0800 
 39 H        5.1540    -4.5670    -0.7210 H     1 <1>   0.0800 
 40 H        7.1630    -0.4460     1.0960 H     1 <1>   0.0800 
 41 H        7.6440    -0.6340    -0.5840 H     1 <1>   0.0800 
 42 H        9.9470    -1.1640     0.1380 H     1 <1>   0.0800 
 43 H        9.4650    -1.0240     1.8110 H     1 <1>   0.0800 
 44 H        8.7840     1.3730     2.6970 H     1 <1>   0.1500 
 45 H       10.7900     1.7930    -2.1990 H     1 <1>   0.0800 
 46 H        9.6620     0.4690    -2.0730 H     1 <1>   0.0800 
 47 H       11.2860     0.3150    -1.4180 H     1 <1>   0.0800 
 48 H        9.4190     3.8220     1.7800 H     1 <1>   0.1500 
@<TRIPOS>BOND
  1   1   2  1   
  2   1  21  1   
  3   2   3  1   
  4   2   4  1   
  5   2  22  1   
  6   3   5  1   
  7   3  23  1   
  8   3  24  1   
  9   4   6  1   
 10   4  25  1   
 11   4  26  1   
 12   5   6  1   
 13   5   7  1   
 14   5  27  1   
 15   6   8  1   
 16   6  28  1   
 17   7   9  1   
 18   7  29  1   
 19   7  30  1   
 20   8   9  1   
 21   8  31  1   
 22   8  32  1   
 23   9  10  1   
 24   9  33  1   
 25  10  11  1   
 26  10  12  1   
 27  10  34  1   
 28  11  13  1   
 29  11  35  1   
 30  11  36  1   
 31  12  37  1   
 32  12  38  1   
 33  12  39  1   
 34  13  14  1   
 35  13  40  1   
 36  13  41  1   
 37  14  15  1   
 38  14  42  1   
 39  14  43  1   
 40  15  16  1   
 41  15  17  1   
 42  16  18  2   
 43  16  19  1   
 44  17  20  2   
 45  17  44  1   
 46  18  20  1   
 47  19  45  1   
 48  19  46  1   
 49  19  47  1   
 50  20  48  1   
@<TRIPOS>SUBSTRUCTURE
  1 ****   8 GROUP 4 **** **** 0

# MOE 2024.06 (io_trps.svl 2023.06)
