@<TRIPOS>MOLECULE
NONAME
47 49 1 0 0 
SMALL
USER_CHARGES


@<TRIPOS>ATOM
  1 CL      -3.9360    -0.2130    -2.8450 Cl    1 <1>  -0.1770 
  2 C       -3.5070     1.0570    -1.7190 C.ar  1 <1>   0.1770 
  3 C       -3.6860     0.8720    -0.3520 C.ar  1 <1>   0.0830 
  4 C       -3.0030     2.2410    -2.2250 C.ar  1 <1>  -0.1500 
  5 O       -4.1880    -0.3120     0.0830 O.3   1 <1>  -0.3630 
  6 C       -3.3420     1.9070     0.5140 C.ar  1 <1>  -0.1500 
  7 C       -2.6690     3.2650    -1.3550 C.ar  1 <1>  -0.1500 
  8 C       -4.9190    -0.3790     1.2980 C.3   1 <1>   0.1810 
  9 C       -2.8390     3.0960     0.0100 C.ar  1 <1>  -0.1500 
 10 C       -5.6260    -1.7230     1.4660 C.2   1 <1>   0.5690 
 11 O       -5.3460    -2.3670     2.4530 O.2   1 <1>  -0.5700 
 12 N       -6.5780    -2.1610     0.5770 N.am  1 <1>  -0.6600 
 13 C       -7.2540    -3.4870     0.7500 C.3   1 <1>   0.1400 
 14 C       -7.0490    -1.4080    -0.6210 C.3   1 <1>   0.1400 
 15 C       -8.6780    -3.3440     1.3120 C.3   1 <1>   0.1400 
 16 C       -8.1800    -0.4330    -0.2640 C.3   1 <1>  -0.1600 
 17 N       -9.5140    -2.3860     0.5220 N.am  1 <1>  -0.6600 
 18 C       -9.1930    -0.9540     0.7650 C.3   1 <1>   0.1400 
 19 C      -10.4670    -2.7690    -0.4100 C.2   1 <1>   0.7160 
 20 O      -11.1840    -1.8920    -0.8700 O.2   1 <1>  -0.5700 
 21 C      -10.6470    -4.1520    -0.8570 C.2   1 <1>   0.1410 
 22 N       -9.6120    -5.0290    -1.0640 N.2   1 <1>  -0.5650 
 23 C      -11.8170    -4.7970    -1.1650 C.2   1 <1>  -0.3320 
 24 C      -10.1660    -6.1160    -1.4780 C.2   1 <1>   0.0360 
 25 N      -11.5060    -6.0370    -1.5610 N.pl3 1 <1>   0.0330 
 26 C      -13.2550    -4.3000    -1.1150 C.3   1 <1>  -0.0600 
 27 H       -2.8760     2.3560    -3.2870 H     1 <1>   0.1500 
 28 H       -3.4490     1.8020     1.5770 H     1 <1>   0.1500 
 29 H       -2.2750     4.1910    -1.7390 H     1 <1>   0.1500 
 30 H       -5.6460     0.4100     1.3050 H     1 <1>   0.0800 
 31 H       -4.2290    -0.2450     2.1100 H     1 <1>   0.0800 
 32 H       -2.5730     3.8940     0.6830 H     1 <1>   0.1500 
 33 H       -6.6800    -4.1080     1.4140 H     1 <1>   0.0800 
 34 H       -7.2940    -3.9950    -0.1980 H     1 <1>   0.0800 
 35 H       -7.4170    -2.1110    -1.3500 H     1 <1>   0.0800 
 36 H       -6.2370    -0.8790    -1.0860 H     1 <1>   0.0800 
 37 H       -8.6120    -3.0020     2.3300 H     1 <1>   0.0800 
 38 H       -9.1460    -4.3110     1.3400 H     1 <1>   0.0800 
 39 H       -8.7080    -0.1880    -1.1680 H     1 <1>   0.0800 
 40 H       -7.7570     0.4830     0.1030 H     1 <1>   0.0800 
 41 H      -10.0920    -0.3620     0.7230 H     1 <1>   0.0800 
 42 H       -8.7830    -0.8480     1.7550 H     1 <1>   0.0800 
 43 H       -9.6290    -7.0110    -1.7390 H     1 <1>   0.1500 
 44 H      -12.1460    -6.7750    -1.8700 H     1 <1>   0.2700 
 45 H      -13.3070    -3.3170    -0.6810 H     1 <1>   0.0800 
 46 H      -13.8580    -4.9610    -0.5190 H     1 <1>   0.0800 
 47 H      -13.6640    -4.2510    -2.1080 H     1 <1>   0.0800 
@<TRIPOS>BOND
  1   1   2  1   
  2   2   3  ar  
  3   2   4  ar  
  4   3   5  1   
  5   3   6  ar  
  6   4   7  ar  
  7   4  27  1   
  8   5   8  1   
  9   6   9  ar  
 10   6  28  1   
 11   7   9  ar  
 12   7  29  1   
 13   8  10  1   
 14   8  30  1   
 15   8  31  1   
 16   9  32  1   
 17  10  11  2   
 18  10  12  am  
 19  12  13  1   
 20  12  14  1   
 21  13  15  1   
 22  13  33  1   
 23  13  34  1   
 24  14  16  1   
 25  14  35  1   
 26  14  36  1   
 27  15  17  1   
 28  15  37  1   
 29  15  38  1   
 30  16  18  1   
 31  16  39  1   
 32  16  40  1   
 33  17  18  1   
 34  17  19  am  
 35  18  41  1   
 36  18  42  1   
 37  19  20  2   
 38  19  21  1   
 39  21  22  1   
 40  21  23  2   
 41  22  24  2   
 42  23  25  1   
 43  23  26  1   
 44  24  25  1   
 45  24  43  1   
 46  25  44  1   
 47  26  45  1   
 48  26  46  1   
 49  26  47  1   
@<TRIPOS>SUBSTRUCTURE
  1 ****  14 GROUP 4 **** **** 0

# MOE 2024.06 (io_trps.svl 2023.06)
