@<TRIPOS>MOLECULE
NONAME
42 44 1 0 0 
SMALL
USER_CHARGES


@<TRIPOS>ATOM
  1 F       -3.3110    -0.9350     1.3610 F     1 <1>  -0.1900 
  2 C       -3.1070     0.0720     0.5510 C.ar  1 <1>   0.1900 
  3 C       -3.1700    -0.1380    -0.8290 C.ar  1 <1>   0.0860 
  4 C       -2.8470     1.3090     1.1270 C.ar  1 <1>  -0.1440 
  5 C       -3.4310    -1.4290    -1.4400 C.2   1 <1>   0.5440 
  6 C       -2.9660     0.9880    -1.6300 C.ar  1 <1>  -0.1500 
  7 C       -2.6440     2.3940     0.2910 C.ar  1 <1>  -0.1500 
  8 C       -2.7850     1.4850     2.6390 C.3   1 <1>  -0.0960 
  9 O       -3.9890    -1.4990    -2.5180 O.2   1 <1>  -0.5700 
 10 N       -3.0590    -2.5970    -0.8410 N.am  1 <1>  -0.7300 
 11 C       -2.7060     2.2310    -1.0830 C.ar  1 <1>  -0.1500 
 12 C       -3.3330    -3.9600    -1.3520 C.3   1 <1>   0.2200 
 13 C       -4.4980    -4.6000    -0.6100 C.3   1 <1>  -0.0800 
 14 C       -2.1960    -4.8810    -0.9340 C.3   1 <1>   0.1200 
 15 C       -3.8330    -5.1650     0.6490 C.3   1 <1>   0.1200 
 16 C       -5.7050    -3.6840    -0.3300 C.3   1 <1>  -0.0170 
 17 O       -2.4580    -5.2120     0.3970 O.3   1 <1>  -0.5600 
 18 C       -6.8250    -4.4540     0.3520 C.ar  1 <1>  -0.1430 
 19 C       -7.0240    -4.4030     1.7170 C.ar  1 <1>  -0.1500 
 20 C       -7.7020    -5.2450    -0.3620 C.ar  1 <1>  -0.1500 
 21 C       -8.0560    -5.1290     2.2860 C.ar  1 <1>   0.1600 
 22 C       -8.7020    -5.9320     0.3050 C.ar  1 <1>   0.1600 
 23 N       -8.8990    -5.8950     1.6130 N.ar  1 <1>  -0.6200 
 24 H       -3.0140     0.8800    -2.7010 H     1 <1>   0.1500 
 25 H       -2.4390     3.3690     0.6990 H     1 <1>   0.1500 
 26 H       -2.5860     2.5080     2.9020 H     1 <1>   0.0800 
 27 H       -2.0030     0.8700     3.0480 H     1 <1>   0.0800 
 28 H       -3.7210     1.1950     3.0810 H     1 <1>   0.0800 
 29 H       -2.6650    -2.5780     0.1040 H     1 <1>   0.3700 
 30 H       -2.5520     3.0790    -1.7290 H     1 <1>   0.1500 
 31 H       -3.4760    -3.9450    -2.4200 H     1 <1>   0.0800 
 32 H       -4.8400    -5.4350    -1.1950 H     1 <1>   0.0800 
 33 H       -1.2300    -4.4120    -1.0100 H     1 <1>   0.0800 
 34 H       -2.2100    -5.7900    -1.5090 H     1 <1>   0.0800 
 35 H       -4.1840    -6.1580     0.8760 H     1 <1>   0.0800 
 36 H       -3.9830    -4.5230     1.5000 H     1 <1>   0.0800 
 37 H       -6.0650    -3.2750    -1.2580 H     1 <1>   0.0800 
 38 H       -5.4150    -2.8570     0.2940 H     1 <1>   0.0800 
 39 H       -6.3870    -3.8050     2.3430 H     1 <1>   0.1500 
 40 H       -7.6160    -5.3330    -1.4300 H     1 <1>   0.1500 
 41 H       -8.1960    -5.0770     3.3520 H     1 <1>   0.1500 
 42 H       -9.3770    -6.5450    -0.2690 H     1 <1>   0.1500 
@<TRIPOS>BOND
  1   1   2  1   
  2   2   3  ar  
  3   2   4  ar  
  4   3   5  1   
  5   3   6  ar  
  6   4   7  ar  
  7   4   8  1   
  8   5   9  2   
  9   5  10  am  
 10   6  11  ar  
 11   6  24  1   
 12   7  11  ar  
 13   7  25  1   
 14   8  26  1   
 15   8  27  1   
 16   8  28  1   
 17  10  12  1   
 18  10  29  1   
 19  11  30  1   
 20  12  13  1   
 21  12  14  1   
 22  12  31  1   
 23  13  15  1   
 24  13  16  1   
 25  13  32  1   
 26  14  17  1   
 27  14  33  1   
 28  14  34  1   
 29  15  17  1   
 30  15  35  1   
 31  15  36  1   
 32  16  18  1   
 33  16  37  1   
 34  16  38  1   
 35  18  19  ar  
 36  18  20  ar  
 37  19  21  ar  
 38  19  39  1   
 39  20  22  ar  
 40  20  40  1   
 41  21  23  ar  
 42  21  41  1   
 43  22  23  ar  
 44  22  42  1   
@<TRIPOS>SUBSTRUCTURE
  1 ****  10 GROUP 4 **** **** 0

# MOE 2024.06 (io_trps.svl 2023.06)
