@<TRIPOS>MOLECULE
NONAME
55 59 1 0 0 
SMALL
USER_CHARGES


@<TRIPOS>ATOM
  1 N        1.0650     0.9050     1.3330 N.ar  1 <1>  -0.6200 
  2 C        0.3630     2.0220     1.4750 C.ar  1 <1>   0.7200 
  3 C        1.8320     0.8990     0.2720 C.ar  1 <1>   0.1660 
  4 N        0.3410     3.0890     0.6890 N.ar  1 <1>  -0.6200 
  5 N       -0.4410     2.0730     2.5370 N.pl3 1 <1>  -0.9000 
  6 C        1.9090     1.9350    -0.6100 C.ar  1 <1>  -0.1430 
  7 C        2.7470    -0.2380    -0.1140 C.3   1 <1>   0.1430 
  8 C        1.1280     3.0380    -0.3620 C.ar  1 <1>   0.1600 
  9 C        2.8830     1.6490    -1.7260 C.3   1 <1>  -0.0170 
 10 C        3.5610    -0.6460     1.1240 C.3   1 <1>   0.3430 
 11 C        1.9240    -1.4380    -0.6330 C.3   1 <1>  -0.1600 
 12 C        3.6300     0.3960    -1.2240 C.3   1 <1>  -0.1600 
 13 N        4.4080    -1.8550     0.8450 N.4   1 <1>  -0.9590 
 14 C        2.7820    -2.7080    -0.7930 C.3   1 <1>  -0.1600 
 15 C        3.5810    -3.0330     0.4720 C.3   1 <1>   0.3430 
 16 C        5.3460    -2.1260     1.9620 C.3   1 <1>   0.4860 
 17 C        6.3530    -1.0000     1.9610 C.ar  1 <1>  -0.1430 
 18 C        7.2090    -0.8620     0.8600 C.ar  1 <1>   0.0000 
 19 C        6.4270    -0.0890     2.9920 C.ar  1 <1>  -0.1500 
 20 C        8.0920     0.2120     0.8030 C.ar  1 <1>  -0.1520 
 21 C        7.4140    -1.6040    -0.3250 C.2   1 <1>  -0.1500 
 22 C        7.3330     0.9750     2.9370 C.ar  1 <1>  -0.1500 
 23 N        8.7930     0.1420    -0.3790 N.pl3 1 <1>   0.0480 
 24 C        8.1600     1.1340     1.8510 C.ar  1 <1>  -0.1500 
 25 C        8.3640    -0.9690    -1.0480 C.2   1 <1>  -0.3020 
 26 C        9.8540     1.0670    -0.8320 C.3   1 <1>   0.0960 
 27 C       11.2060     0.6670    -0.2330 C.3   1 <1>  -0.2400 
 28 H       -1.1460     2.8050     2.5010 H     1 <1>   0.4000 
 29 H       -0.7370     1.1810     2.9200 H     1 <1>   0.4000 
 30 H        1.1480     3.8850    -1.0280 H     1 <1>   0.1500 
 31 H        3.5550     2.4740    -1.8900 H     1 <1>   0.0800 
 32 H        2.3410     1.4350    -2.6310 H     1 <1>   0.0800 
 33 H        2.8780    -0.8570     1.9310 H     1 <1>   0.0800 
 34 H        4.1790     0.1860     1.4220 H     1 <1>   0.0800 
 35 H        1.4530    -1.1860    -1.5680 H     1 <1>   0.0800 
 36 H        1.1350    -1.6440     0.0720 H     1 <1>   0.0800 
 37 H        3.8350    -0.2790    -2.0360 H     1 <1>   0.0800 
 38 H        4.5680     0.7170    -0.8040 H     1 <1>   0.0800 
 39 H        5.0130    -1.6060     0.0500 H     1 <1>   0.4500 
 40 H        3.4580    -2.5990    -1.6230 H     1 <1>   0.0800 
 41 H        2.1370    -3.5400    -1.0200 H     1 <1>   0.0800 
 42 H        2.9030    -3.2730     1.2760 H     1 <1>   0.0800 
 43 H        4.2120    -3.8890     0.2900 H     1 <1>   0.0800 
 44 H        5.8590    -3.0600     1.8070 H     1 <1>   0.0800 
 45 H        4.8190    -2.1640     2.9020 H     1 <1>   0.0800 
 46 H        5.7920    -0.1680     3.8590 H     1 <1>   0.1500 
 47 H        6.9160    -2.5190    -0.5910 H     1 <1>   0.1500 
 48 H        7.3770     1.6740     3.7560 H     1 <1>   0.1500 
 49 H        8.8570     1.9530     1.8050 H     1 <1>   0.1500 
 50 H        8.7790    -1.2470    -2.0020 H     1 <1>   0.1500 
 51 H        9.5950     2.0660    -0.5310 H     1 <1>   0.0800 
 52 H        9.9040     1.0370    -1.9050 H     1 <1>   0.0800 
 53 H       11.1660     0.7040     0.8410 H     1 <1>   0.0800 
 54 H       11.9680     1.3460    -0.5700 H     1 <1>   0.0800 
 55 H       11.4720    -0.3280    -0.5440 H     1 <1>   0.0800 
@<TRIPOS>BOND
  1   1   2  ar  
  2   1   3  ar  
  3   2   4  ar  
  4   2   5  1   
  5   3   6  ar  
  6   3   7  1   
  7   4   8  ar  
  8   5  28  1   
  9   5  29  1   
 10   6   8  ar  
 11   6   9  1   
 12   7  10  1   
 13   7  11  1   
 14   7  12  1   
 15   8  30  1   
 16   9  12  1   
 17   9  31  1   
 18   9  32  1   
 19  10  13  1   
 20  10  33  1   
 21  10  34  1   
 22  11  14  1   
 23  11  35  1   
 24  11  36  1   
 25  12  37  1   
 26  12  38  1   
 27  13  15  1   
 28  13  16  1   
 29  13  39  1   
 30  14  15  1   
 31  14  40  1   
 32  14  41  1   
 33  15  42  1   
 34  15  43  1   
 35  16  17  1   
 36  16  44  1   
 37  16  45  1   
 38  17  18  ar  
 39  17  19  ar  
 40  18  20  ar  
 41  18  21  1   
 42  19  22  ar  
 43  19  46  1   
 44  20  23  1   
 45  20  24  ar  
 46  21  25  2   
 47  21  47  1   
 48  22  24  ar  
 49  22  48  1   
 50  23  25  1   
 51  23  26  1   
 52  24  49  1   
 53  25  50  1   
 54  26  27  1   
 55  26  51  1   
 56  26  52  1   
 57  27  53  1   
 58  27  54  1   
 59  27  55  1   
@<TRIPOS>SUBSTRUCTURE
  1 ****  10 GROUP 4 **** **** 0

# MOE 2024.06 (io_trps.svl 2023.06)
