@<TRIPOS>MOLECULE
NONAME
64 67 1 0 0 
SMALL
USER_CHARGES


@<TRIPOS>ATOM
  1 O       -0.5230    -3.7920    -3.8220 O.2   1 <1>  -0.5700 
  2 C       -0.5040    -3.8700    -2.6020 C.2   1 <1>   0.8660 
  3 N        0.5590    -4.4780    -1.9960 N.2   1 <1>  -0.6610 
  4 C       -1.5540    -3.3440    -1.8200 C.2   1 <1>  -0.2370 
  5 C        0.5870    -4.5660    -0.6980 C.2   1 <1>   0.4140 
  6 N       -2.7050    -2.7000    -2.1300 N.pl3 1 <1>   0.3140 
  7 C       -1.5230    -3.4350    -0.4790 C.2   1 <1>   0.0830 
  8 N       -0.4250    -4.0640     0.0780 N.pl3 1 <1>  -0.5330 
  9 C        1.7040    -5.2210    -0.0390 C.ar  1 <1>   0.0860 
 10 N       -3.4030    -2.3760    -1.0240 N.2   1 <1>  -0.7070 
 11 C       -3.1890    -2.3670    -3.4770 C.3   1 <1>   0.0160 
 12 C       -2.6880    -2.8220    -0.0330 C.2   1 <1>   0.1080 
 13 C        2.1850    -4.8410     1.2230 C.ar  1 <1>   0.0830 
 14 C        2.3520    -6.2880    -0.6620 C.ar  1 <1>  -0.1500 
 15 C       -3.1010    -2.6810     1.4190 C.3   1 <1>   0.0210 
 16 O        1.6450    -3.8210     1.9080 O.3   1 <1>  -0.3630 
 17 C        3.2370    -5.5200     1.8140 C.ar  1 <1>  -0.1500 
 18 C        3.4210    -6.9860    -0.1010 C.ar  1 <1>   0.0860 
 19 C       -3.6760    -3.9970     1.9570 C.3   1 <1>  -0.1600 
 20 C        2.1070    -2.5230     1.6090 C.3   1 <1>   0.1200 
 21 C        3.8490    -6.5720     1.1660 C.ar  1 <1>  -0.1500 
 22 C        4.0290    -8.0810    -0.8260 C.2   1 <1>   0.4230 
 23 C       -4.0800    -3.8790     3.4300 C.3   1 <1>  -0.2400 
 24 C        1.1870    -1.5210     2.3000 C.3   1 <1>  -0.2400 
 25 O        3.6220    -8.4830    -1.8900 O.2   1 <1>  -0.5700 
 26 C        5.2610    -8.7970    -0.2570 C.3   1 <1>   0.4040 
 27 N        5.5550   -10.0950    -0.9670 N.4   1 <1>  -0.9590 
 28 C        4.5700   -11.1590    -0.6080 C.3   1 <1>   0.3430 
 29 C        6.9690   -10.5380    -0.8140 C.3   1 <1>   0.3430 
 30 C        4.7950   -12.3860    -1.4930 C.3   1 <1>  -0.1600 
 31 C        7.2260   -11.7560    -1.7030 C.3   1 <1>  -0.1600 
 32 C        6.2400   -12.8950    -1.4100 C.3   1 <1>  -0.1600 
 33 H       -0.3020    -4.0780     1.0970 H     1 <1>   0.4000 
 34 H       -2.4760    -1.7250    -3.9600 H     1 <1>   0.0800 
 35 H       -4.1360    -1.8660    -3.4000 H     1 <1>   0.0800 
 36 H       -3.3020    -3.2720    -4.0450 H     1 <1>   0.0800 
 37 H        2.0000    -6.5870    -1.6370 H     1 <1>   0.1500 
 38 H       -3.8410    -1.9030     1.4940 H     1 <1>   0.0800 
 39 H       -2.2470    -2.3860     2.0010 H     1 <1>   0.0800 
 40 H        3.5700    -5.2090     2.7910 H     1 <1>   0.1500 
 41 H       -2.9460    -4.7810     1.8480 H     1 <1>   0.0800 
 42 H       -4.5380    -4.2660     1.3690 H     1 <1>   0.0800 
 43 H        2.0870    -2.3810     0.5410 H     1 <1>   0.0800 
 44 H        3.1180    -2.4320     1.9680 H     1 <1>   0.0800 
 45 H        4.6630    -7.0580     1.6730 H     1 <1>   0.1500 
 46 H       -3.2280    -3.6300     4.0380 H     1 <1>   0.0800 
 47 H       -4.4850    -4.8140     3.7760 H     1 <1>   0.0800 
 48 H       -4.8300    -3.1170     3.5540 H     1 <1>   0.0800 
 49 H        0.1880    -1.6050     1.9150 H     1 <1>   0.0800 
 50 H        1.5380    -0.5220     2.1150 H     1 <1>   0.0800 
 51 H        1.1830    -1.6900     3.3620 H     1 <1>   0.0800 
 52 H        5.1160    -8.9850     0.7920 H     1 <1>   0.0800 
 53 H        6.1020    -8.1340    -0.3690 H     1 <1>   0.0800 
 54 H        5.3770    -9.8970    -1.9670 H     1 <1>   0.4500 
 55 H        3.5640   -10.7970    -0.7550 H     1 <1>   0.0800 
 56 H        4.6880   -11.4360     0.4270 H     1 <1>   0.0800 
 57 H        7.1620   -10.7990     0.2140 H     1 <1>   0.0800 
 58 H        7.6410    -9.7430    -1.0970 H     1 <1>   0.0800 
 59 H        4.5500   -12.1380    -2.5110 H     1 <1>   0.0800 
 60 H        4.1230   -13.1690    -1.1850 H     1 <1>   0.0800 
 61 H        8.2310   -12.1050    -1.5400 H     1 <1>   0.0800 
 62 H        7.1520   -11.4650    -2.7370 H     1 <1>   0.0800 
 63 H        6.3870   -13.6960    -2.1160 H     1 <1>   0.0800 
 64 H        6.4280   -13.2890    -0.4250 H     1 <1>   0.0800 
@<TRIPOS>BOND
  1   1   2  2   
  2   2   3  1   
  3   2   4  1   
  4   3   5  2   
  5   4   6  1   
  6   4   7  2   
  7   5   8  1   
  8   5   9  1   
  9   6  10  1   
 10   6  11  1   
 11   7   8  1   
 12   7  12  1   
 13   8  33  1   
 14   9  13  ar  
 15   9  14  ar  
 16  10  12  2   
 17  11  34  1   
 18  11  35  1   
 19  11  36  1   
 20  12  15  1   
 21  13  16  1   
 22  13  17  ar  
 23  14  18  ar  
 24  14  37  1   
 25  15  19  1   
 26  15  38  1   
 27  15  39  1   
 28  16  20  1   
 29  17  21  ar  
 30  17  40  1   
 31  18  21  ar  
 32  18  22  1   
 33  19  23  1   
 34  19  41  1   
 35  19  42  1   
 36  20  24  1   
 37  20  43  1   
 38  20  44  1   
 39  21  45  1   
 40  22  25  2   
 41  22  26  1   
 42  23  46  1   
 43  23  47  1   
 44  23  48  1   
 45  24  49  1   
 46  24  50  1   
 47  24  51  1   
 48  26  27  1   
 49  26  52  1   
 50  26  53  1   
 51  27  28  1   
 52  27  29  1   
 53  27  54  1   
 54  28  30  1   
 55  28  55  1   
 56  28  56  1   
 57  29  31  1   
 58  29  57  1   
 59  29  58  1   
 60  30  32  1   
 61  30  59  1   
 62  30  60  1   
 63  31  32  1   
 64  31  61  1   
 65  31  62  1   
 66  32  63  1   
 67  32  64  1   
@<TRIPOS>SUBSTRUCTURE
  1 ****   9 GROUP 4 **** **** 0

# MOE 2024.06 (io_trps.svl 2023.06)
