@<TRIPOS>MOLECULE
NONAME
63 66 1 0 0 
SMALL
USER_CHARGES


@<TRIPOS>ATOM
  1 O       -1.0370     0.6160     3.4200 O.2   1 <1>  -0.5700 
  2 C       -1.6880     1.4510     2.8350 C.2   1 <1>   0.5690 
  3 N       -2.9220     1.1470     2.2970 N.am  1 <1>  -0.6600 
  4 C       -1.0800     2.8470     2.7370 C.3   1 <1>   0.0820 
  5 C       -3.7460     2.1170     1.5080 C.3   1 <1>   0.2200 
  6 C       -3.4260    -0.2560     2.4340 C.3   1 <1>   0.0600 
  7 C       -0.6710     3.2320     1.3190 C.2   1 <1>  -0.1810 
  8 C       -5.0830     2.4470     2.1680 C.3   1 <1>  -0.1600 
  9 C       -4.1090     1.6200     0.1090 C.3   1 <1>  -0.1600 
 10 C       -0.3600     4.5380     0.8610 C.ar  1 <1>   0.0000 
 11 C       -0.5470     2.4180     0.2540 C.2   1 <1>  -0.0100 
 12 C       -5.9580     2.9690     1.0190 C.3   1 <1>  -0.0800 
 13 C       -5.3350     2.4550    -0.2840 C.3   1 <1>  -0.0800 
 14 C       -0.2680     5.8200     1.4160 C.ar  1 <1>  -0.1440 
 15 C       -0.0930     4.3740    -0.4910 C.ar  1 <1>   0.1400 
 16 O       -0.2100     3.0890    -0.8360 O.3   1 <1>  -0.2800 
 17 C       -7.4090     2.4650     1.0140 C.3   1 <1>  -0.1600 
 18 C       -6.4490     1.6850    -1.0090 C.3   1 <1>  -0.1600 
 19 C        0.0730     6.8740     0.5910 C.ar  1 <1>  -0.1500 
 20 C       -0.5240     6.0700     2.8930 C.3   1 <1>  -0.0970 
 21 C        0.2480     5.4340    -1.3300 C.ar  1 <1>  -0.1440 
 22 C       -7.7630     2.2520    -0.4620 C.3   1 <1>   0.4230 
 23 C        0.3330     6.6980    -0.7720 C.ar  1 <1>  -0.1440 
 24 C        0.5190     5.1720    -2.8070 C.3   1 <1>  -0.0970 
 25 N       -8.1000     3.5540    -1.1250 N.4   1 <1>  -0.9590 
 26 C        0.7090     7.9160    -1.6030 C.3   1 <1>  -0.0970 
 27 C       -9.3050     4.2150    -0.5270 C.3   1 <1>   0.2630 
 28 C       -8.3240     3.4110    -2.6010 C.3   1 <1>   0.2630 
 29 H       -1.8000     3.5450     3.1150 H     1 <1>   0.0800 
 30 H       -0.2140     2.8930     3.3700 H     1 <1>   0.0800 
 31 H       -3.2210     3.0460     1.3820 H     1 <1>   0.0800 
 32 H       -4.4900    -0.3100     2.3000 H     1 <1>   0.0800 
 33 H       -3.1890    -0.6380     3.4130 H     1 <1>   0.0800 
 34 H       -2.9470    -0.8800     1.7000 H     1 <1>   0.0800 
 35 H       -5.5150     1.5670     2.6060 H     1 <1>   0.0800 
 36 H       -4.9580     3.1920     2.9350 H     1 <1>   0.0800 
 37 H       -3.2950     1.7750    -0.5780 H     1 <1>   0.0800 
 38 H       -4.3570     0.5760     0.1290 H     1 <1>   0.0800 
 39 H       -0.6830     1.3530     0.1710 H     1 <1>   0.1500 
 40 H       -5.9370     4.0460     1.0130 H     1 <1>   0.0800 
 41 H       -5.0170     3.3000    -0.8750 H     1 <1>   0.0800 
 42 H       -8.0710     3.1180     1.5510 H     1 <1>   0.0800 
 43 H       -7.4550     1.5020     1.4920 H     1 <1>   0.0800 
 44 H       -6.4110     0.6470    -0.7250 H     1 <1>   0.0800 
 45 H       -6.3450     1.7240    -2.0760 H     1 <1>   0.0800 
 46 H        0.1450     7.8650     1.0040 H     1 <1>   0.1500 
 47 H       -0.2780     7.0820     3.1590 H     1 <1>   0.0800 
 48 H        0.0830     5.4130     3.4890 H     1 <1>   0.0800 
 49 H       -1.5610     5.9040     3.1200 H     1 <1>   0.0800 
 50 H       -8.5750     1.5500    -0.5760 H     1 <1>   0.0800 
 51 H        0.0390     5.9150    -3.4170 H     1 <1>   0.0800 
 52 H        0.1430     4.2090    -3.1030 H     1 <1>   0.0800 
 53 H        1.5780     5.1940    -2.9910 H     1 <1>   0.0800 
 54 H       -7.2840     4.1660    -0.9780 H     1 <1>   0.4500 
 55 H        0.9270     8.7610    -0.9760 H     1 <1>   0.0800 
 56 H       -0.1040     8.1780    -2.2560 H     1 <1>   0.0800 
 57 H        1.5810     7.7090    -2.1960 H     1 <1>   0.0800 
 58 H      -10.1580     3.5580    -0.5820 H     1 <1>   0.0800 
 59 H       -9.5360     5.1230    -1.0610 H     1 <1>   0.0800 
 60 H       -9.1300     4.4700     0.5040 H     1 <1>   0.0800 
 61 H       -9.1100     2.7000    -2.7930 H     1 <1>   0.0800 
 62 H       -7.4260     3.0770    -3.0940 H     1 <1>   0.0800 
 63 H       -8.6050     4.3600    -3.0280 H     1 <1>   0.0800 
@<TRIPOS>BOND
  1   1   2  2   
  2   2   3  am  
  3   2   4  1   
  4   3   5  1   
  5   3   6  1   
  6   4   7  1   
  7   4  29  1   
  8   4  30  1   
  9   5   8  1   
 10   5   9  1   
 11   5  31  1   
 12   6  32  1   
 13   6  33  1   
 14   6  34  1   
 15   7  10  1   
 16   7  11  2   
 17   8  12  1   
 18   8  35  1   
 19   8  36  1   
 20   9  13  1   
 21   9  37  1   
 22   9  38  1   
 23  10  14  ar  
 24  10  15  ar  
 25  11  16  1   
 26  11  39  1   
 27  12  13  1   
 28  12  17  1   
 29  12  40  1   
 30  13  18  1   
 31  13  41  1   
 32  14  19  ar  
 33  14  20  1   
 34  15  16  1   
 35  15  21  ar  
 36  17  22  1   
 37  17  42  1   
 38  17  43  1   
 39  18  22  1   
 40  18  44  1   
 41  18  45  1   
 42  19  23  ar  
 43  19  46  1   
 44  20  47  1   
 45  20  48  1   
 46  20  49  1   
 47  21  23  ar  
 48  21  24  1   
 49  22  25  1   
 50  22  50  1   
 51  23  26  1   
 52  24  51  1   
 53  24  52  1   
 54  24  53  1   
 55  25  27  1   
 56  25  28  1   
 57  25  54  1   
 58  26  55  1   
 59  26  56  1   
 60  26  57  1   
 61  27  58  1   
 62  27  59  1   
 63  27  60  1   
 64  28  61  1   
 65  28  62  1   
 66  28  63  1   
@<TRIPOS>SUBSTRUCTURE
  1 ****   5 GROUP 4 **** **** 0

# MOE 2024.06 (io_trps.svl 2023.06)
