@<TRIPOS>MOLECULE
NONAME
46 49 1 0 0 
SMALL
USER_CHARGES


@<TRIPOS>ATOM
  1 S        1.3140    -1.2660     2.3100 S.3   1 <1>  -0.0800 
  2 C        1.5310    -1.3550     0.5560 C.2   1 <1>  -0.0450 
  3 C        1.8020     0.4090     2.3620 C.2   1 <1>  -0.1100 
  4 C        1.9500    -0.1390     0.1080 C.2   1 <1>  -0.1810 
  5 C        1.2340    -2.6060    -0.1020 C.2   1 <1>   0.7150 
  6 C        2.1100     0.8510     1.1300 C.2   1 <1>  -0.1810 
  7 C        2.2000     0.1970    -1.3580 C.3   1 <1>   0.0210 
  8 O        1.2720    -2.7190    -1.3130 O.2   1 <1>  -0.5700 
  9 N        0.8850    -3.7020     0.6290 N.am  1 <1>  -0.7300 
 10 C        2.6060     2.2550     0.8230 C.3   1 <1>   0.0210 
 11 C        2.9890     1.5000    -1.5460 C.3   1 <1>  -0.1600 
 12 C        0.5230    -5.0270     0.0810 C.3   1 <1>   0.2200 
 13 C        2.4260     2.6150    -0.6550 C.3   1 <1>  -0.1600 
 14 C       -0.9890    -5.1650     0.0710 C.3   1 <1>  -0.0800 
 15 C        0.9340    -6.1230     1.0610 C.3   1 <1>   0.1200 
 16 C       -1.2740    -5.6170     1.5060 C.3   1 <1>   0.1200 
 17 C       -1.4560    -6.1980    -0.9710 C.3   1 <1>  -0.0170 
 18 O       -0.1240    -6.2670     1.9640 O.3   1 <1>  -0.5600 
 19 C       -2.9720    -6.3140    -0.9990 C.ar  1 <1>  -0.1430 
 20 C       -3.7620    -5.3400    -1.5760 C.ar  1 <1>  -0.1500 
 21 C       -3.6370    -7.3930    -0.4520 C.ar  1 <1>  -0.1500 
 22 C       -5.1390    -5.4860    -1.5740 C.ar  1 <1>   0.1600 
 23 C       -5.0200    -7.4420    -0.5030 C.ar  1 <1>   0.1600 
 24 N       -5.7880    -6.5130    -1.0500 N.ar  1 <1>  -0.6200 
 25 H        1.8160     0.8930     3.3220 H     1 <1>   0.1500 
 26 H        2.7290    -0.6090    -1.8360 H     1 <1>   0.0800 
 27 H        1.2460     0.2940    -1.8450 H     1 <1>   0.0800 
 28 H        0.8050    -3.6060     1.6430 H     1 <1>   0.3700 
 29 H        2.0900     2.9690     1.4400 H     1 <1>   0.0800 
 30 H        3.6530     2.3020     1.0680 H     1 <1>   0.0800 
 31 H        4.0210     1.3280    -1.2950 H     1 <1>   0.0800 
 32 H        2.9430     1.7970    -2.5800 H     1 <1>   0.0800 
 33 H        0.9690    -5.1650    -0.8900 H     1 <1>   0.0800 
 34 H        1.3790     2.7500    -0.8660 H     1 <1>   0.0800 
 35 H        2.9320     3.5410    -0.8630 H     1 <1>   0.0800 
 36 H       -1.4650    -4.2230    -0.1390 H     1 <1>   0.0800 
 37 H        1.8360    -5.8830     1.5960 H     1 <1>   0.0800 
 38 H        1.0540    -7.0620     0.5510 H     1 <1>   0.0800 
 39 H       -2.1120    -6.2860     1.5840 H     1 <1>   0.0800 
 40 H       -1.4380    -4.7660     2.1440 H     1 <1>   0.0800 
 41 H       -1.0240    -7.1620    -0.7620 H     1 <1>   0.0800 
 42 H       -1.1170    -5.8960    -1.9480 H     1 <1>   0.0800 
 43 H       -3.3200    -4.4700    -2.0270 H     1 <1>   0.1500 
 44 H       -3.0940    -8.1950     0.0140 H     1 <1>   0.1500 
 45 H       -5.7400    -4.7160    -2.0290 H     1 <1>   0.1500 
 46 H       -5.5210    -8.2910    -0.0710 H     1 <1>   0.1500 
@<TRIPOS>BOND
  1   1   2  1   
  2   1   3  1   
  3   2   4  2   
  4   2   5  1   
  5   3   6  2   
  6   3  25  1   
  7   4   6  1   
  8   4   7  1   
  9   5   8  2   
 10   5   9  am  
 11   6  10  1   
 12   7  11  1   
 13   7  26  1   
 14   7  27  1   
 15   9  12  1   
 16   9  28  1   
 17  10  13  1   
 18  10  29  1   
 19  10  30  1   
 20  11  13  1   
 21  11  31  1   
 22  11  32  1   
 23  12  14  1   
 24  12  15  1   
 25  12  33  1   
 26  13  34  1   
 27  13  35  1   
 28  14  16  1   
 29  14  17  1   
 30  14  36  1   
 31  15  18  1   
 32  15  37  1   
 33  15  38  1   
 34  16  18  1   
 35  16  39  1   
 36  16  40  1   
 37  17  19  1   
 38  17  41  1   
 39  17  42  1   
 40  19  20  ar  
 41  19  21  ar  
 42  20  22  ar  
 43  20  43  1   
 44  21  23  ar  
 45  21  44  1   
 46  22  24  ar  
 47  22  45  1   
 48  23  24  ar  
 49  23  46  1   
@<TRIPOS>SUBSTRUCTURE
  1 ****   9 GROUP 4 **** **** 0

# MOE 2024.06 (io_trps.svl 2023.06)
