@<TRIPOS>MOLECULE
NONAME
54 57 1 0 0 
SMALL
USER_CHARGES


@<TRIPOS>ATOM
  1 O       -0.0220     0.9030     1.2750 O.2   1 <1>  -0.5700 
  2 C       -0.0090     2.1100     1.0790 C.2   1 <1>   0.7160 
  3 N       -1.2300     2.7690     1.0980 N.am  1 <1>  -0.6600 
  4 C        1.2780     2.7640     0.8330 C.2   1 <1>   0.2030 
  5 C       -1.4690     4.1090     0.4940 C.3   1 <1>   0.1400 
  6 C       -2.4270     2.1900     1.7720 C.3   1 <1>   0.1400 
  7 N        1.5900     4.0430     0.9860 N.2   1 <1>  -0.7070 
  8 C        2.4080     2.0590     0.4060 C.2   1 <1>  -0.1500 
  9 C       -2.6270     4.0210    -0.5040 C.3   1 <1>  -0.1600 
 10 C       -3.5830     2.0880     0.7760 C.3   1 <1>  -0.1600 
 11 N        2.8860     4.1320     0.6610 N.pl3 1 <1>   0.3000 
 12 C        3.4240     2.9480     0.2960 C.2   1 <1>  -0.2050 
 13 C       -3.8960     3.4420     0.1350 C.3   1 <1>   0.4180 
 14 C        4.7990     2.7610    -0.0960 C.ar  1 <1>   0.0530 
 15 O       -4.3230     4.2830     1.1800 O.3   1 <1>  -0.5600 
 16 C       -5.0050     3.2760    -0.9010 C.2   1 <1>  -0.2880 
 17 C        5.4850     1.6060     0.2650 C.ar  1 <1>  -0.1500 
 18 C        5.4860     3.7170    -0.8400 C.ar  1 <1>  -0.1500 
 19 C       -5.0580     5.4220     0.8300 C.3   1 <1>   0.1200 
 20 C       -6.1440     3.9730    -0.8980 C.2   1 <1>  -0.2760 
 21 C        6.8060     1.4140    -0.0950 C.ar  1 <1>  -0.1500 
 22 C        6.8080     3.5300    -1.2010 C.ar  1 <1>  -0.1500 
 23 C       -6.3840     5.0270     0.1670 C.3   1 <1>  -0.0220 
 24 C       -7.2700     3.7880    -1.9000 C.3   1 <1>  -0.1020 
 25 C        7.4790     2.3760    -0.8310 C.ar  1 <1>  -0.1430 
 26 C        8.9310     2.1660    -1.2280 C.3   1 <1>  -0.0170 
 27 C        9.8680     2.7260    -0.1550 C.3   1 <1>  -0.2400 
 28 H       -0.5990     4.4610    -0.0290 H     1 <1>   0.0800 
 29 H       -1.7030     4.8120     1.2760 H     1 <1>   0.0800 
 30 H       -2.7090     2.8300     2.5920 H     1 <1>   0.0800 
 31 H       -2.2090     1.2160     2.1750 H     1 <1>   0.0800 
 32 H        2.4310     1.0010     0.2110 H     1 <1>   0.1500 
 33 H       -2.3250     3.3870    -1.3170 H     1 <1>   0.0800 
 34 H       -2.8290     4.9900    -0.9190 H     1 <1>   0.0800 
 35 H       -4.4620     1.7210     1.2730 H     1 <1>   0.0800 
 36 H       -3.3170     1.3770     0.0150 H     1 <1>   0.0800 
 37 H        3.4100     5.0140     0.7110 H     1 <1>   0.2700 
 38 H       -4.7760     2.5280    -1.6370 H     1 <1>   0.1500 
 39 H        4.9770     0.8520     0.8380 H     1 <1>   0.1500 
 40 H        4.9840     4.6150    -1.1500 H     1 <1>   0.1500 
 41 H       -4.4660     6.0230     0.1630 H     1 <1>   0.0800 
 42 H       -5.2420     5.9830     1.7290 H     1 <1>   0.0800 
 43 H        7.3110     0.5120     0.2020 H     1 <1>   0.1500 
 44 H        7.3160     4.2850    -1.7740 H     1 <1>   0.1500 
 45 H       -6.8220     5.9060    -0.2700 H     1 <1>   0.0800 
 46 H       -7.0620     4.6470     0.9100 H     1 <1>   0.0800 
 47 H       -8.1750     3.5090    -1.3910 H     1 <1>   0.0800 
 48 H       -7.0230     3.0140    -2.6050 H     1 <1>   0.0800 
 49 H       -7.4410     4.7010    -2.4410 H     1 <1>   0.0800 
 50 H        9.1250     2.6540    -2.1670 H     1 <1>   0.0800 
 51 H        9.1230     1.1160    -1.3610 H     1 <1>   0.0800 
 52 H        9.6970     3.7800    -0.0270 H     1 <1>   0.0800 
 53 H       10.8930     2.5730    -0.4420 H     1 <1>   0.0800 
 54 H        9.6930     2.2330     0.7840 H     1 <1>   0.0800 
@<TRIPOS>BOND
  1   1   2  2   
  2   2   3  am  
  3   2   4  1   
  4   3   5  1   
  5   3   6  1   
  6   4   7  2   
  7   4   8  1   
  8   5   9  1   
  9   5  28  1   
 10   5  29  1   
 11   6  10  1   
 12   6  30  1   
 13   6  31  1   
 14   7  11  1   
 15   8  12  2   
 16   8  32  1   
 17   9  13  1   
 18   9  33  1   
 19   9  34  1   
 20  10  13  1   
 21  10  35  1   
 22  10  36  1   
 23  11  12  1   
 24  11  37  1   
 25  12  14  1   
 26  13  15  1   
 27  13  16  1   
 28  14  17  ar  
 29  14  18  ar  
 30  15  19  1   
 31  16  20  2   
 32  16  38  1   
 33  17  21  ar  
 34  17  39  1   
 35  18  22  ar  
 36  18  40  1   
 37  19  23  1   
 38  19  41  1   
 39  19  42  1   
 40  20  23  1   
 41  20  24  1   
 42  21  25  ar  
 43  21  43  1   
 44  22  25  ar  
 45  22  44  1   
 46  23  45  1   
 47  23  46  1   
 48  24  47  1   
 49  24  48  1   
 50  24  49  1   
 51  25  26  1   
 52  26  27  1   
 53  26  50  1   
 54  26  51  1   
 55  27  52  1   
 56  27  53  1   
 57  27  54  1   
@<TRIPOS>SUBSTRUCTURE
  1 ****   4 GROUP 4 **** **** 0

# MOE 2024.06 (io_trps.svl 2023.06)
