@<TRIPOS>MOLECULE
NONAME
44 47 1 0 0 
SMALL
USER_CHARGES


@<TRIPOS>ATOM
  1 S       -0.1590     1.4810     2.5140 S.3   1 <1>  -0.0800 
  2 C       -1.0120     1.3950     0.9790 C.2   1 <1>  -0.1400 
  3 C       -1.2390     0.2830     3.2170 C.2   1 <1>  -0.1100 
  4 C       -2.0330     0.5310     1.0530 C.2   1 <1>  -0.1810 
  5 C       -0.6150     2.2260    -0.2390 C.3   1 <1>   0.4600 
  6 C       -2.1640    -0.1150     2.3230 C.2   1 <1>  -0.1500 
  7 C       -2.9240     0.3250    -0.1510 C.3   1 <1>   0.0210 
  8 O       -1.3940     1.8020    -1.3390 O.3   1 <1>  -0.5600 
  9 C       -0.8940     3.7250    -0.0180 C.3   1 <1>  -0.1600 
 10 C        0.8400     1.9470    -0.6350 C.3   1 <1>  -0.1600 
 11 C       -2.7550     1.5210    -1.1090 C.3   1 <1>   0.1200 
 12 C        0.3770     4.5190     0.2840 C.3   1 <1>   0.1400 
 13 C        1.3760     3.0500    -1.5460 C.3   1 <1>   0.1400 
 14 N        1.3650     4.3660    -0.8310 N.am  1 <1>  -0.6600 
 15 C        2.2630     5.3700    -1.1910 C.2   1 <1>   0.6300 
 16 O        3.0290     5.1310    -2.1140 O.2   1 <1>  -0.5700 
 17 C        2.3430     6.6670    -0.5020 C.2   1 <1>   0.6550 
 18 O        1.3690     7.4030    -0.4460 O.2   1 <1>  -0.5700 
 19 C        3.5770     7.0610     0.1410 C.2   1 <1>  -0.2370 
 20 N        3.8020     8.2570     0.7890 N.pl3 1 <1>   0.0480 
 21 C        4.7370     6.3290     0.2340 C.2   1 <1>  -0.1500 
 22 C        5.0670     8.2450     1.2700 C.2   1 <1>  -0.3020 
 23 C        2.8770     9.3980     0.9510 C.3   1 <1>   0.0160 
 24 C        5.6700     7.0720     0.9450 C.2   1 <1>  -0.1500 
 25 H       -1.0630    -0.0020     4.2390 H     1 <1>   0.1500 
 26 H       -2.9390    -0.8400     2.5030 H     1 <1>   0.1500 
 27 H       -3.9520     0.2570     0.1550 H     1 <1>   0.0800 
 28 H       -2.6550    -0.5870    -0.6530 H     1 <1>   0.0800 
 29 H       -1.5860     3.8490     0.7950 H     1 <1>   0.0800 
 30 H       -1.3420     4.1480    -0.8990 H     1 <1>   0.0800 
 31 H        0.9000     0.9930    -1.1270 H     1 <1>   0.0800 
 32 H        1.4680     1.8990     0.2340 H     1 <1>   0.0800 
 33 H       -3.2180     2.4010    -0.6970 H     1 <1>   0.0800 
 34 H       -3.2100     1.3040    -2.0590 H     1 <1>   0.0800 
 35 H        0.8200     4.1630     1.1990 H     1 <1>   0.0800 
 36 H        0.1080     5.5510     0.4210 H     1 <1>   0.0800 
 37 H        0.7650     3.1230    -2.4310 H     1 <1>   0.0800 
 38 H        2.3790     2.8020    -1.8500 H     1 <1>   0.0800 
 39 H        4.9240     5.3460    -0.1680 H     1 <1>   0.1500 
 40 H        5.4880     9.0680     1.8190 H     1 <1>   0.1500 
 41 H        2.0160     9.0800     1.5100 H     1 <1>   0.0800 
 42 H        2.5680     9.7440    -0.0180 H     1 <1>   0.0800 
 43 H        3.3700    10.1950     1.4760 H     1 <1>   0.0800 
 44 H        6.6740     6.7610     1.1790 H     1 <1>   0.1500 
@<TRIPOS>BOND
  1   1   2  1   
  2   1   3  1   
  3   2   4  2   
  4   2   5  1   
  5   3   6  2   
  6   3  25  1   
  7   4   6  1   
  8   4   7  1   
  9   5   8  1   
 10   5   9  1   
 11   5  10  1   
 12   6  26  1   
 13   7  11  1   
 14   7  27  1   
 15   7  28  1   
 16   8  11  1   
 17   9  12  1   
 18   9  29  1   
 19   9  30  1   
 20  10  13  1   
 21  10  31  1   
 22  10  32  1   
 23  11  33  1   
 24  11  34  1   
 25  12  14  1   
 26  12  35  1   
 27  12  36  1   
 28  13  14  1   
 29  13  37  1   
 30  13  38  1   
 31  14  15  am  
 32  15  16  2   
 33  15  17  1   
 34  17  18  2   
 35  17  19  1   
 36  19  20  1   
 37  19  21  2   
 38  20  22  1   
 39  20  23  1   
 40  21  24  1   
 41  21  39  1   
 42  22  24  2   
 43  22  40  1   
 44  23  41  1   
 45  23  42  1   
 46  23  43  1   
 47  24  44  1   
@<TRIPOS>SUBSTRUCTURE
  1 ****  12 GROUP 4 **** **** 0

# MOE 2024.06 (io_trps.svl 2023.06)
