@<TRIPOS>MOLECULE
NONAME
61 63 1 0 0 
SMALL
USER_CHARGES


@<TRIPOS>ATOM
  1 O        0.7610    -1.1310    -1.2400 O.2   1 <1>  -0.5700 
  2 C        1.3620    -1.9790    -0.6340 C.2   1 <1>   0.5690 
  3 N        2.6300    -1.7540    -0.2260 N.am  1 <1>  -0.7300 
  4 C        0.6690    -3.2910    -0.3050 C.3   1 <1>  -0.0990 
  5 C        3.5570    -2.7160     0.4070 C.3   1 <1>   0.3000 
  6 C        1.6210    -4.4010     0.1730 C.3   1 <1>  -0.1600 
  7 C        4.3800    -1.9700     1.4900 C.3   1 <1>   0.1400 
  8 C        4.4690    -3.2720    -0.7230 C.3   1 <1>   0.1400 
  9 C        2.7070    -3.8130     1.0900 C.3   1 <1>  -0.1600 
 10 N        5.5440    -1.2040     0.9430 N.am  1 <1>  -0.6600 
 11 N        5.7450    -3.8900    -0.2340 N.am  1 <1>  -0.6600 
 12 C        5.4190     0.0090     0.3220 C.2   1 <1>   0.7800 
 13 C        6.8410    -1.9460     0.9440 C.3   1 <1>   0.1400 
 14 C        5.8570    -5.2240     0.0430 C.2   1 <1>   0.7800 
 15 C        6.9250    -2.9710    -0.1980 C.3   1 <1>   0.1400 
 16 O        6.3400     0.5160    -0.2840 O.2   1 <1>  -0.5700 
 17 O        4.2190     0.5920     0.3760 O.3   1 <1>  -0.4300 
 18 O        6.8780    -5.7300     0.4640 O.2   1 <1>  -0.5700 
 19 O        4.7760    -5.9720    -0.1400 O.3   1 <1>  -0.4300 
 20 C        3.8150     1.7920    -0.2460 C.3   1 <1>   0.2800 
 21 C        4.7580    -7.3350     0.2030 C.3   1 <1>   0.2630 
 22 C        3.8820     1.6360    -1.7690 C.3   1 <1>  -0.2400 
 23 C        2.3590     1.9930     0.1760 C.3   1 <1>  -0.2400 
 24 C        4.6540     2.9700     0.2630 C.3   1 <1>  -0.2400 
 25 C        3.3050    -7.7800     0.1990 C.ar  1 <1>  -0.1440 
 26 C        2.6260    -7.9740     1.3930 C.ar  1 <1>  -0.1500 
 27 C        2.6410    -7.9790    -1.0010 C.ar  1 <1>  -0.1500 
 28 C        1.2980    -8.3650     1.3850 C.ar  1 <1>  -0.1500 
 29 C        1.3140    -8.3710    -1.0100 C.ar  1 <1>  -0.1500 
 30 C        0.6410    -8.5640     0.1830 C.ar  1 <1>  -0.1500 
 31 H        3.0110    -0.8130    -0.3770 H     1 <1>   0.3700 
 32 H        0.1250    -3.6260    -1.1690 H     1 <1>   0.0800 
 33 H       -0.0460    -3.0840     0.4700 H     1 <1>   0.0800 
 34 H        2.0720    -4.8810    -0.6760 H     1 <1>   0.0800 
 35 H        1.0630    -5.1550     0.7020 H     1 <1>   0.0800 
 36 H        4.7560    -2.6940     2.1910 H     1 <1>   0.0800 
 37 H        3.7340    -1.3070     2.0390 H     1 <1>   0.0800 
 38 H        4.7260    -2.4590    -1.3800 H     1 <1>   0.0800 
 39 H        3.9290    -3.9840    -1.3180 H     1 <1>   0.0800 
 40 H        2.2280    -3.3940     1.9570 H     1 <1>   0.0800 
 41 H        3.3440    -4.6030     1.4430 H     1 <1>   0.0800 
 42 H        6.9670    -2.4530     1.8850 H     1 <1>   0.0800 
 43 H        7.6570    -1.2500     0.8470 H     1 <1>   0.0800 
 44 H        6.9950    -2.4450    -1.1340 H     1 <1>   0.0800 
 45 H        7.8320    -3.5400    -0.0860 H     1 <1>   0.0800 
 46 H        5.1950    -7.4560     1.1800 H     1 <1>   0.0800 
 47 H        5.3380    -7.8780    -0.5230 H     1 <1>   0.0800 
 48 H        3.3100     0.7820    -2.0860 H     1 <1>   0.0800 
 49 H        4.8970     1.5290    -2.1050 H     1 <1>   0.0800 
 50 H        3.4730     2.5090    -2.2440 H     1 <1>   0.0800 
 51 H        1.7500     1.1750    -0.1630 H     1 <1>   0.0800 
 52 H        1.9680     2.8990    -0.2510 H     1 <1>   0.0800 
 53 H        2.2860     2.0640     1.2460 H     1 <1>   0.0800 
 54 H        5.6680     2.9070    -0.0860 H     1 <1>   0.0800 
 55 H        4.6490     2.9960     1.3380 H     1 <1>   0.0800 
 56 H        4.2450     3.8950    -0.1020 H     1 <1>   0.0800 
 57 H        3.1250    -7.8200     2.3330 H     1 <1>   0.1500 
 58 H        3.1560    -7.8260    -1.9340 H     1 <1>   0.1500 
 59 H        0.7760    -8.5160     2.3140 H     1 <1>   0.1500 
 60 H        0.8040    -8.5250    -1.9460 H     1 <1>   0.1500 
 61 H       -0.3910    -8.8700     0.1770 H     1 <1>   0.1500 
@<TRIPOS>BOND
  1   1   2  2   
  2   2   3  am  
  3   2   4  1   
  4   3   5  1   
  5   3  31  1   
  6   4   6  1   
  7   4  32  1   
  8   4  33  1   
  9   5   7  1   
 10   5   8  1   
 11   5   9  1   
 12   6   9  1   
 13   6  34  1   
 14   6  35  1   
 15   7  10  1   
 16   7  36  1   
 17   7  37  1   
 18   8  11  1   
 19   8  38  1   
 20   8  39  1   
 21   9  40  1   
 22   9  41  1   
 23  10  12  am  
 24  10  13  1   
 25  11  14  am  
 26  11  15  1   
 27  12  16  2   
 28  12  17  1   
 29  13  15  1   
 30  13  42  1   
 31  13  43  1   
 32  14  18  2   
 33  14  19  1   
 34  15  44  1   
 35  15  45  1   
 36  17  20  1   
 37  19  21  1   
 38  20  22  1   
 39  20  23  1   
 40  20  24  1   
 41  21  25  1   
 42  21  46  1   
 43  21  47  1   
 44  22  48  1   
 45  22  49  1   
 46  22  50  1   
 47  23  51  1   
 48  23  52  1   
 49  23  53  1   
 50  24  54  1   
 51  24  55  1   
 52  24  56  1   
 53  25  26  ar  
 54  25  27  ar  
 55  26  28  ar  
 56  26  57  1   
 57  27  29  ar  
 58  27  58  1   
 59  28  30  ar  
 60  28  59  1   
 61  29  30  ar  
 62  29  60  1   
 63  30  61  1   
@<TRIPOS>SUBSTRUCTURE
  1 ****   5 GROUP 4 **** **** 0

# MOE 2024.06 (io_trps.svl 2023.06)
