@<TRIPOS>MOLECULE
NONAME
56 58 1 0 0 
SMALL
USER_CHARGES


@<TRIPOS>ATOM
  1 O       -0.2070     1.3070    -2.6160 O.2   1 <1>  -0.5700 
  2 C       -0.1280     2.4530    -2.2540 C.2   1 <1>   0.5690 
  3 N       -0.7170     2.8540    -1.1060 N.am  1 <1>  -0.7300 
  4 C        0.6180     3.4810    -3.1110 C.3   1 <1>   0.1810 
  5 C       -0.6940     4.2530    -0.6160 C.3   1 <1>   0.3640 
  6 O        0.9460     4.6540    -2.3980 O.3   1 <1>  -0.5600 
  7 C       -2.0970     4.6470    -0.1680 C.ar  1 <1>  -0.1440 
  8 C       -0.1410     5.2270    -1.6850 C.3   1 <1>   0.2610 
  9 C       -3.2100     4.3690    -0.9510 C.ar  1 <1>  -0.1500 
 10 C       -2.2720     5.3030     1.0430 C.ar  1 <1>  -0.1500 
 11 C        0.2160     6.5770    -1.0440 C.2   1 <1>   0.5690 
 12 C       -4.4750     4.7380    -0.5290 C.ar  1 <1>  -0.1500 
 13 C       -3.5370     5.6730     1.4650 C.ar  1 <1>  -0.1500 
 14 O       -0.4950     7.5050    -1.3550 O.2   1 <1>  -0.5700 
 15 N        1.2430     6.7500    -0.1360 N.am  1 <1>  -0.6600 
 16 C       -4.6400     5.3900     0.6790 C.ar  1 <1>  -0.1500 
 17 C        2.2800     5.7200     0.1960 C.3   1 <1>   0.3210 
 18 C        1.4160     8.0650     0.5510 C.3   1 <1>   0.1400 
 19 C        3.6930     6.2580     0.0320 C.2   1 <1>  -0.1810 
 20 C        0.8010     7.9970     1.9470 C.3   1 <1>  -0.2400 
 21 C        4.2980     6.6040    -1.1730 C.2   1 <1>   0.1080 
 22 C        4.6340     6.5100     0.9730 C.2   1 <1>  -0.3320 
 23 N        5.5090     7.0290    -1.0080 N.2   1 <1>  -0.7070 
 24 C        3.6650     6.5140    -2.5430 C.3   1 <1>  -0.0590 
 25 N        5.7230     6.9780     0.3160 N.pl3 1 <1>   0.3140 
 26 C        4.5670     6.3390     2.4840 C.3   1 <1>  -0.0600 
 27 C        7.0200     7.3990     0.8860 C.3   1 <1>   0.0960 
 28 C        7.0030     8.8830     1.2720 C.3   1 <1>  -0.2400 
 29 H       -1.2570     2.1770    -0.5640 H     1 <1>   0.3700 
 30 H        0.0100     3.7540    -3.9540 H     1 <1>   0.0800 
 31 H        1.5340     3.0480    -3.4710 H     1 <1>   0.0800 
 32 H       -0.0480     4.2820     0.2420 H     1 <1>   0.0800 
 33 H       -0.9180     5.4170    -2.4040 H     1 <1>   0.0800 
 34 H       -3.1030     3.8630    -1.8950 H     1 <1>   0.1500 
 35 H       -1.4270     5.5360     1.6670 H     1 <1>   0.1500 
 36 H       -5.3330     4.5190    -1.1420 H     1 <1>   0.1500 
 37 H       -3.6650     6.1830     2.4040 H     1 <1>   0.1500 
 38 H       -5.6230     5.6790     1.0070 H     1 <1>   0.1500 
 39 H        2.1350     5.4040     1.2120 H     1 <1>   0.0800 
 40 H        2.1850     4.8500    -0.4220 H     1 <1>   0.0800 
 41 H        2.4570     8.3300     0.6170 H     1 <1>   0.0800 
 42 H        0.9330     8.8460    -0.0110 H     1 <1>   0.0800 
 43 H        1.2890     7.2490     2.5430 H     1 <1>   0.0800 
 44 H       -0.2490     7.7810     1.8740 H     1 <1>   0.0800 
 45 H        0.9170     8.9480     2.4330 H     1 <1>   0.0800 
 46 H        2.7380     7.0550    -2.5560 H     1 <1>   0.0800 
 47 H        3.4850     5.4860    -2.7930 H     1 <1>   0.0800 
 48 H        4.3240     6.9400    -3.2770 H     1 <1>   0.0800 
 49 H        3.6030     5.9800     2.7900 H     1 <1>   0.0800 
 50 H        4.7460     7.2810     2.9710 H     1 <1>   0.0800 
 51 H        5.3100     5.6310     2.8080 H     1 <1>   0.0800 
 52 H        7.2380     6.7890     1.7430 H     1 <1>   0.0800 
 53 H        7.7790     7.2250     0.1440 H     1 <1>   0.0800 
 54 H        6.2520     9.0710     2.0180 H     1 <1>   0.0800 
 55 H        6.7960     9.4830     0.4020 H     1 <1>   0.0800 
 56 H        7.9610     9.1700     1.6650 H     1 <1>   0.0800 
@<TRIPOS>BOND
  1   1   2  2   
  2   2   3  am  
  3   2   4  1   
  4   3   5  1   
  5   3  29  1   
  6   4   6  1   
  7   4  30  1   
  8   4  31  1   
  9   5   7  1   
 10   5   8  1   
 11   5  32  1   
 12   6   8  1   
 13   7   9  ar  
 14   7  10  ar  
 15   8  11  1   
 16   8  33  1   
 17   9  12  ar  
 18   9  34  1   
 19  10  13  ar  
 20  10  35  1   
 21  11  14  2   
 22  11  15  am  
 23  12  16  ar  
 24  12  36  1   
 25  13  16  ar  
 26  13  37  1   
 27  15  17  1   
 28  15  18  1   
 29  16  38  1   
 30  17  19  1   
 31  17  39  1   
 32  17  40  1   
 33  18  20  1   
 34  18  41  1   
 35  18  42  1   
 36  19  21  1   
 37  19  22  2   
 38  20  43  1   
 39  20  44  1   
 40  20  45  1   
 41  21  23  2   
 42  21  24  1   
 43  22  25  1   
 44  22  26  1   
 45  23  25  1   
 46  24  46  1   
 47  24  47  1   
 48  24  48  1   
 49  25  27  1   
 50  26  49  1   
 51  26  50  1   
 52  26  51  1   
 53  27  28  1   
 54  27  52  1   
 55  27  53  1   
 56  28  54  1   
 57  28  55  1   
 58  28  56  1   
@<TRIPOS>SUBSTRUCTURE
  1 ****  15 GROUP 4 **** **** 0

# MOE 2024.06 (io_trps.svl 2023.06)
