@<TRIPOS>MOLECULE
NONAME
64 67 1 0 0 
SMALL
USER_CHARGES


@<TRIPOS>ATOM
  1 O        0.4250     1.8000     2.3910 O.3   1 <1>  -0.5160 
  2 C        0.8780     2.1430     1.1000 C.3   1 <1>   0.2580 
  3 C       -0.5270     0.8650     1.8830 C.3   1 <1>   0.2580 
  4 C        2.1810     1.4020     0.7810 C.3   1 <1>  -0.1600 
  5 C        1.0180     3.6600     0.9990 C.3   1 <1>  -0.1600 
  6 C       -0.4160     1.5510     0.5170 C.3   1 <1>   0.0000 
  7 C        2.7200     1.8450    -0.5750 C.3   1 <1>   0.3430 
  8 C        1.5770     4.0470    -0.3640 C.3   1 <1>   0.3430 
  9 N        2.8680     3.3290    -0.6030 N.4   1 <1>  -0.9590 
 10 C        3.5230     3.7870    -1.8600 C.3   1 <1>   0.4860 
 11 C        3.8720     5.2540    -1.7100 C.ar  1 <1>  -0.1430 
 12 C        3.1250     6.2200    -2.3700 C.ar  1 <1>  -0.1500 
 13 C        4.9330     5.6450    -0.9040 C.ar  1 <1>  -0.1500 
 14 C        3.4250     7.5590    -2.2080 C.ar  1 <1>  -0.1500 
 15 C        5.2330     6.9860    -0.7430 C.ar  1 <1>  -0.1500 
 16 C        4.4740     7.9530    -1.3940 C.ar  1 <1>   0.0820 
 17 O        4.6930     9.2850    -1.2870 O.3   1 <1>  -0.3620 
 18 C        5.7790     9.7980    -0.5470 C.3   1 <1>   0.1200 
 19 C        5.7250    11.3250    -0.6250 C.3   1 <1>   0.1100 
 20 N        6.8350    11.9490     0.1290 N.3   1 <1>  -0.8100 
 21 C        6.5010    13.3440     0.4830 C.3   1 <1>   0.1100 
 22 C        8.1180    11.8790    -0.6050 C.3   1 <1>   0.1100 
 23 C        7.6290    14.0090     1.2970 C.3   1 <1>   0.3430 
 24 C        9.2640    12.5300     0.1970 C.3   1 <1>   0.3430 
 25 N        8.9500    13.9510     0.5740 N.4   1 <1>  -0.9590 
 26 C       10.0570    14.5440     1.3660 C.3   1 <1>   0.3430 
 27 C        9.8990    16.0600     1.4170 C.3   1 <1>  -0.2400 
 28 H       -1.4730     0.9880     2.3780 H     1 <1>   0.0000 
 29 H       -0.1190    -0.1300     1.9220 H     1 <1>   0.0000 
 30 H        2.0180     0.3390     0.7670 H     1 <1>   0.0800 
 31 H        2.9110     1.6170     1.5410 H     1 <1>   0.0800 
 32 H        1.6820     4.0130     1.7680 H     1 <1>   0.0800 
 33 H        0.0630     4.1330     1.1440 H     1 <1>   0.0800 
 34 H       -0.2710     0.8710    -0.3050 H     1 <1>   0.0000 
 35 H       -1.1960     2.2710     0.3440 H     1 <1>   0.0000 
 36 H        2.0390     1.5320    -1.3510 H     1 <1>   0.0800 
 37 H        3.6740     1.3730    -0.7510 H     1 <1>   0.0800 
 38 H        1.7340     5.1150    -0.3900 H     1 <1>   0.0800 
 39 H        0.8650     3.7900    -1.1330 H     1 <1>   0.0800 
 40 H        3.4980     3.6080     0.1610 H     1 <1>   0.4500 
 41 H        2.8630     3.6470    -2.7010 H     1 <1>   0.0800 
 42 H        4.4260     3.2250    -2.0360 H     1 <1>   0.0800 
 43 H        2.3060     5.9490    -3.0140 H     1 <1>   0.1500 
 44 H        5.5400     4.9160    -0.3930 H     1 <1>   0.1500 
 45 H        2.8480     8.3140    -2.7140 H     1 <1>   0.1500 
 46 H        6.0570     7.2590    -0.1100 H     1 <1>   0.1500 
 47 H        6.6840     9.4170    -0.9820 H     1 <1>   0.0800 
 48 H        5.6770     9.4770     0.4740 H     1 <1>   0.0800 
 49 H        4.7850    11.6340    -0.1990 H     1 <1>   0.0800 
 50 H        5.7510    11.6400    -1.6550 H     1 <1>   0.0800 
 51 H        5.6030    13.3500     1.0780 H     1 <1>   0.0800 
 52 H        6.3100    13.9160    -0.4080 H     1 <1>   0.0800 
 53 H        8.0240    12.3650    -1.5610 H     1 <1>   0.0800 
 54 H        8.3740    10.8490    -0.7840 H     1 <1>   0.0800 
 55 H        7.7110    13.4990     2.2430 H     1 <1>   0.0800 
 56 H        7.3610    15.0340     1.4940 H     1 <1>   0.0800 
 57 H       10.1670    12.4970    -0.3900 H     1 <1>   0.0800 
 58 H        9.4260    11.9460     1.0880 H     1 <1>   0.0800 
 59 H        8.8500    14.4870    -0.2970 H     1 <1>   0.4500 
 60 H       11.0020    14.3090     0.9000 H     1 <1>   0.0800 
 61 H       10.0630    14.1360     2.3640 H     1 <1>   0.0800 
 62 H        9.8730    16.4770     0.4260 H     1 <1>   0.0800 
 63 H       10.7450    16.4820     1.9310 H     1 <1>   0.0800 
 64 H        9.0160    16.3470     1.9570 H     1 <1>   0.0800 
@<TRIPOS>BOND
  1   1   2  1   
  2   1   3  1   
  3   2   4  1   
  4   2   5  1   
  5   2   6  1   
  6   3   6  1   
  7   3  28  1   
  8   3  29  1   
  9   4   7  1   
 10   4  30  1   
 11   4  31  1   
 12   5   8  1   
 13   5  32  1   
 14   5  33  1   
 15   6  34  1   
 16   6  35  1   
 17   7   9  1   
 18   7  36  1   
 19   7  37  1   
 20   8   9  1   
 21   8  38  1   
 22   8  39  1   
 23   9  10  1   
 24   9  40  1   
 25  10  11  1   
 26  10  41  1   
 27  10  42  1   
 28  11  12  ar  
 29  11  13  ar  
 30  12  14  ar  
 31  12  43  1   
 32  13  15  ar  
 33  13  44  1   
 34  14  16  ar  
 35  14  45  1   
 36  15  16  ar  
 37  15  46  1   
 38  16  17  1   
 39  17  18  1   
 40  18  19  1   
 41  18  47  1   
 42  18  48  1   
 43  19  20  1   
 44  19  49  1   
 45  19  50  1   
 46  20  21  1   
 47  20  22  1   
 48  21  23  1   
 49  21  51  1   
 50  21  52  1   
 51  22  24  1   
 52  22  53  1   
 53  22  54  1   
 54  23  25  1   
 55  23  55  1   
 56  23  56  1   
 57  24  25  1   
 58  24  57  1   
 59  24  58  1   
 60  25  26  1   
 61  25  59  1   
 62  26  27  1   
 63  26  60  1   
 64  26  61  1   
 65  27  62  1   
 66  27  63  1   
 67  27  64  1   
@<TRIPOS>SUBSTRUCTURE
  1 ****  15 GROUP 4 **** **** 0

# MOE 2024.06 (io_trps.svl 2023.06)
