@<TRIPOS>MOLECULE
NONAME
48 50 1 0 0 
SMALL
USER_CHARGES


@<TRIPOS>ATOM
  1 O       -0.8710     0.4620     1.5300 O.2   1 <1>  -0.5700 
  2 C       -1.6990     1.0510     0.8620 C.2   1 <1>   0.5440 
  3 N       -2.7450     0.3310     0.3260 N.am  1 <1>  -0.6600 
  4 C       -1.5460     2.4630     0.6390 C.ar  1 <1>   0.0860 
  5 C       -3.4960     0.7180    -0.9010 C.3   1 <1>   0.1400 
  6 C       -2.9060    -1.1290     0.5740 C.3   1 <1>   0.1400 
  7 C       -2.5910     3.3630     0.7450 C.ar  1 <1>   0.1600 
  8 C       -0.3250     3.0220     0.3100 C.ar  1 <1>   0.1600 
  9 C       -4.4330    -0.4580    -1.1720 C.3   1 <1>   0.2000 
 10 C       -3.6570    -1.6700    -0.6480 C.3   1 <1>  -0.0800 
 11 N       -2.4640     4.6470     0.5140 N.ar  1 <1>  -0.6200 
 12 N       -0.1590     4.3010     0.0740 N.ar  1 <1>  -0.6200 
 13 O       -5.5800    -0.2780    -0.4130 O.3   1 <1>  -0.6800 
 14 C       -4.5160    -2.9150    -0.3560 C.3   1 <1>   0.0200 
 15 C       -1.2470     5.0580     0.1850 C.ar  1 <1>   0.7200 
 16 C       -3.6920    -4.1330     0.0280 C.2   1 <1>  -0.0400 
 17 N       -1.1480     6.3800    -0.0480 N.pl3 1 <1>  -0.8690 
 18 O       -4.3170    -5.2080     0.4310 O.3   1 <1>  -0.0190 
 19 C       -2.3750    -4.3960     0.0530 C.2   1 <1>  -0.1500 
 20 C        0.0630     7.1550    -0.3140 C.3   1 <1>   0.2890 
 21 N       -3.4930    -6.1710     0.7260 N.2   1 <1>  -0.4100 
 22 C       -2.3150    -5.7100     0.5090 C.2   1 <1>   0.1080 
 23 C        0.3490     8.0140     0.9110 C.3   1 <1>  -0.2400 
 24 C       -0.1920     8.0130    -1.5470 C.3   1 <1>  -0.2400 
 25 C       -1.0410    -6.4960     0.7230 C.3   1 <1>  -0.0590 
 26 H       -4.0480     1.6320    -0.7760 H     1 <1>   0.0800 
 27 H       -2.8020     0.8260    -1.7180 H     1 <1>   0.0800 
 28 H       -1.9500    -1.6110     0.6920 H     1 <1>   0.0800 
 29 H       -3.4810    -1.2690     1.4730 H     1 <1>   0.0800 
 30 H       -3.5620     3.0010     1.0330 H     1 <1>   0.1500 
 31 H        0.5360     2.3790     0.2420 H     1 <1>   0.1500 
 32 H       -4.7180    -0.5440    -2.2070 H     1 <1>   0.0800 
 33 H       -2.9250    -1.9290    -1.3930 H     1 <1>   0.0800 
 34 H       -5.3270    -0.0830     0.5120 H     1 <1>   0.4000 
 35 H       -5.0970    -3.1600    -1.2270 H     1 <1>   0.0800 
 36 H       -5.2050    -2.7090     0.4440 H     1 <1>   0.0800 
 37 H       -2.0030     6.9060     0.1070 H     1 <1>   0.4000 
 38 H       -1.5340    -3.7810    -0.2060 H     1 <1>   0.1500 
 39 H        0.8990     6.4990    -0.5000 H     1 <1>   0.0800 
 40 H       -0.4720     8.6780     1.1120 H     1 <1>   0.0800 
 41 H        1.2360     8.5990     0.7490 H     1 <1>   0.0800 
 42 H        0.5130     7.3810     1.7650 H     1 <1>   0.0800 
 43 H       -1.0200     8.6790    -1.3830 H     1 <1>   0.0800 
 44 H       -0.4030     7.3810    -2.3900 H     1 <1>   0.0800 
 45 H        0.6820     8.5970    -1.7720 H     1 <1>   0.0800 
 46 H       -0.4790    -6.5390    -0.1920 H     1 <1>   0.0800 
 47 H       -1.2760    -7.4980     1.0340 H     1 <1>   0.0800 
 48 H       -0.4460    -6.0260     1.4840 H     1 <1>   0.0800 
@<TRIPOS>BOND
  1   1   2  2   
  2   2   3  am  
  3   2   4  1   
  4   3   5  1   
  5   3   6  1   
  6   4   7  ar  
  7   4   8  ar  
  8   5   9  1   
  9   5  26  1   
 10   5  27  1   
 11   6  10  1   
 12   6  28  1   
 13   6  29  1   
 14   7  11  ar  
 15   7  30  1   
 16   8  12  ar  
 17   8  31  1   
 18   9  10  1   
 19   9  13  1   
 20   9  32  1   
 21  10  14  1   
 22  10  33  1   
 23  11  15  ar  
 24  12  15  ar  
 25  13  34  1   
 26  14  16  1   
 27  14  35  1   
 28  14  36  1   
 29  15  17  1   
 30  16  18  1   
 31  16  19  2   
 32  17  20  1   
 33  17  37  1   
 34  18  21  1   
 35  19  22  1   
 36  19  38  1   
 37  20  23  1   
 38  20  24  1   
 39  20  39  1   
 40  21  22  2   
 41  22  25  1   
 42  23  40  1   
 43  23  41  1   
 44  23  42  1   
 45  24  43  1   
 46  24  44  1   
 47  24  45  1   
 48  25  46  1   
 49  25  47  1   
 50  25  48  1   
@<TRIPOS>SUBSTRUCTURE
  1 ****   3 GROUP 4 **** **** 0

# MOE 2024.06 (io_trps.svl 2023.06)
