@<TRIPOS>MOLECULE
NONAME
63 66 1 0 0 
SMALL
USER_CHARGES


@<TRIPOS>ATOM
  1 O       -3.4820     1.6650    -2.5200 O.2   1 <1>  -0.5700 
  2 C       -3.5060     2.0330    -1.3700 C.2   1 <1>   0.5690 
  3 N       -2.6600     2.9890    -0.9210 N.am  1 <1>  -0.7300 
  4 C       -4.4950     1.4080    -0.3890 C.3   1 <1>  -0.0190 
  5 C       -1.6460     3.6450    -1.7570 C.3   1 <1>   0.2840 
  6 C       -4.0040     0.0210     0.0690 C.3   1 <1>  -0.1600 
  7 C       -5.9120     1.3120    -0.9910 C.3   1 <1>  -0.1600 
  8 C       -0.8150     4.5400    -0.8570 C.ar  1 <1>  -0.1440 
  9 C       -5.0120    -0.6710     0.9910 C.3   1 <1>   0.2090 
 10 C       -6.8770     0.6080    -0.0370 C.3   1 <1>   0.2090 
 11 C       -1.2280     5.8370    -0.5890 C.ar  1 <1>  -0.1500 
 12 C        0.3580     4.0690    -0.2860 C.ar  1 <1>  -0.1500 
 13 N       -6.3280    -0.7360     0.2940 N.pl3 1 <1>  -0.8380 
 14 C       -0.4760     6.6510     0.2390 C.ar  1 <1>  -0.1500 
 15 C        1.1130     4.8820     0.5420 C.ar  1 <1>  -0.1500 
 16 C       -6.9150    -1.9140    -0.0380 C.ar  1 <1>   0.4100 
 17 C        0.6970     6.1830     0.8090 C.ar  1 <1>   0.0820 
 18 N       -6.7050    -2.9490     0.7530 N.ar  1 <1>  -0.6200 
 19 C       -7.7100    -2.0300    -1.1940 C.ar  1 <1>  -0.1500 
 20 O        1.3740     7.0450     1.6080 O.3   1 <1>  -0.3620 
 21 C       -7.2750    -4.1060     0.4540 C.ar  1 <1>   0.7710 
 22 C       -8.2900    -3.2180    -1.4850 C.ar  1 <1>   0.2180 
 23 C        2.5910     6.6780     2.2190 C.3   1 <1>   0.0400 
 24 N       -8.0580    -4.2430    -0.6320 N.ar  1 <1>  -0.1790 
 25 N       -7.0720    -5.1800     1.2650 N.pl3 1 <1>  -0.8380 
 26 C       -9.1680    -3.4520    -2.7020 C.3   1 <1>  -0.0970 
 27 C       -6.3660    -5.0480     2.5950 C.3   1 <1>   0.2090 
 28 C       -7.4510    -6.6140     1.0060 C.3   1 <1>   0.2090 
 29 C       -5.2310    -6.0770     2.7300 C.3   1 <1>   0.1200 
 30 C       -6.2510    -7.5550     1.2240 C.3   1 <1>   0.1200 
 31 O       -5.7100    -7.3700     2.4970 O.3   1 <1>  -0.5600 
 32 H       -2.6590     3.2970     0.0520 H     1 <1>   0.3700 
 33 H       -4.5510     2.0440     0.4760 H     1 <1>   0.0800 
 34 H       -2.1300     4.2240    -2.5250 H     1 <1>   0.0800 
 35 H       -1.0290     2.8990    -2.2290 H     1 <1>   0.0800 
 36 H       -3.0640     0.1210     0.5820 H     1 <1>   0.0800 
 37 H       -3.8400    -0.6040    -0.7910 H     1 <1>   0.0800 
 38 H       -5.8790     0.7640    -1.9170 H     1 <1>   0.0800 
 39 H       -6.2790     2.2990    -1.2080 H     1 <1>   0.0800 
 40 H       -5.1210    -0.1190     1.9090 H     1 <1>   0.0800 
 41 H       -4.6510    -1.6550     1.2330 H     1 <1>   0.0800 
 42 H       -7.8550     0.5310    -0.4790 H     1 <1>   0.0800 
 43 H       -6.9750     1.1800     0.8700 H     1 <1>   0.0800 
 44 H       -2.1370     6.2170    -1.0230 H     1 <1>   0.1500 
 45 H        0.6880     3.0630    -0.4850 H     1 <1>   0.1500 
 46 H       -0.7920     7.6560     0.4480 H     1 <1>   0.1500 
 47 H        2.0170     4.4890     0.9670 H     1 <1>   0.1500 
 48 H       -7.8290    -1.1750    -1.8310 H     1 <1>   0.1500 
 49 H        2.9430     7.5170     2.7920 H     1 <1>   0.0800 
 50 H        3.3060     6.4330     1.4530 H     1 <1>   0.0800 
 51 H        2.4160     5.8390     2.8690 H     1 <1>   0.0800 
 52 H       -8.4780    -5.1520    -0.7590 H     1 <1>   0.4570 
 53 H       -9.2490    -2.5500    -3.2840 H     1 <1>   0.0800 
 54 H      -10.1580    -3.7470    -2.4020 H     1 <1>   0.0800 
 55 H       -8.7460    -4.2180    -3.3290 H     1 <1>   0.0800 
 56 H       -7.0750    -5.2120     3.3880 H     1 <1>   0.0800 
 57 H       -5.9520    -4.0650     2.7390 H     1 <1>   0.0800 
 58 H       -7.8090    -6.7540     0.0030 H     1 <1>   0.0800 
 59 H       -8.2370    -6.9020     1.6850 H     1 <1>   0.0800 
 60 H       -4.8260    -6.0530     3.7270 H     1 <1>   0.0800 
 61 H       -4.4400    -5.8660     2.0320 H     1 <1>   0.0800 
 62 H       -5.4810    -7.3750     0.4930 H     1 <1>   0.0800 
 63 H       -6.5630    -8.5820     1.1500 H     1 <1>   0.0800 
@<TRIPOS>BOND
  1   1   2  2   
  2   2   3  am  
  3   2   4  1   
  4   3   5  1   
  5   3  32  1   
  6   4   6  1   
  7   4   7  1   
  8   4  33  1   
  9   5   8  1   
 10   5  34  1   
 11   5  35  1   
 12   6   9  1   
 13   6  36  1   
 14   6  37  1   
 15   7  10  1   
 16   7  38  1   
 17   7  39  1   
 18   8  11  ar  
 19   8  12  ar  
 20   9  13  1   
 21   9  40  1   
 22   9  41  1   
 23  10  13  1   
 24  10  42  1   
 25  10  43  1   
 26  11  14  ar  
 27  11  44  1   
 28  12  15  ar  
 29  12  45  1   
 30  13  16  1   
 31  14  17  ar  
 32  14  46  1   
 33  15  17  ar  
 34  15  47  1   
 35  16  18  ar  
 36  16  19  ar  
 37  17  20  1   
 38  18  21  ar  
 39  19  22  ar  
 40  19  48  1   
 41  20  23  1   
 42  21  24  ar  
 43  21  25  1   
 44  22  24  ar  
 45  22  26  1   
 46  23  49  1   
 47  23  50  1   
 48  23  51  1   
 49  24  52  1   
 50  25  27  1   
 51  25  28  1   
 52  26  53  1   
 53  26  54  1   
 54  26  55  1   
 55  27  29  1   
 56  27  56  1   
 57  27  57  1   
 58  28  30  1   
 59  28  58  1   
 60  28  59  1   
 61  29  31  1   
 62  29  60  1   
 63  29  61  1   
 64  30  31  1   
 65  30  62  1   
 66  30  63  1   
@<TRIPOS>SUBSTRUCTURE
  1 ****   6 GROUP 4 **** **** 0

# MOE 2024.06 (io_trps.svl 2023.06)
