@<TRIPOS>MOLECULE
NONAME
40 41 1 0 0 
SMALL
USER_CHARGES


@<TRIPOS>ATOM
  1 O        0.2110    -0.2610     1.0260 O.2   1 <1>  -0.5700 
  2 C        1.2340    -0.6690     0.5120 C.2   1 <1>   0.7160 
  3 N        2.2020     0.2020     0.0800 N.am  1 <1>  -0.4940 
  4 C        1.4490    -2.0790     0.3250 C.2   1 <1>  -0.0860 
  5 C        2.3500     1.6080     0.1750 C.2   1 <1>  -0.0880 
  6 C        0.5130    -3.0210    -0.0810 C.2   1 <1>   0.1080 
  7 C        2.5510    -2.8480     0.4710 C.2   1 <1>  -0.0400 
  8 N        1.3790     2.5680     0.1800 N.pl3 1 <1>   0.3140 
  9 C        3.5320     2.2690     0.2440 C.2   1 <1>  -0.1810 
 10 N        1.0580    -4.1770    -0.1680 N.2   1 <1>  -0.4100 
 11 C       -0.9550    -2.7230    -0.3750 C.3   1 <1>   0.0210 
 12 O        2.3250    -4.1010     0.1630 O.3   1 <1>  -0.0190 
 13 C        3.9470    -2.4930     0.9470 C.3   1 <1>  -0.0600 
 14 N        1.9140     3.8060     0.2480 N.2   1 <1>  -0.7070 
 15 C       -0.0740     2.4270     0.0210 C.3   1 <1>   0.0160 
 16 C        3.1920     3.6180     0.2870 C.2   1 <1>   0.1080 
 17 C        4.9360     1.6880     0.2750 C.3   1 <1>   0.0210 
 18 C       -1.6610    -3.8360    -1.1620 C.3   1 <1>  -0.2400 
 19 C        4.1610     4.7760     0.3710 C.3   1 <1>  -0.0590 
 20 C        5.4660     1.4910    -1.1470 C.3   1 <1>  -0.2400 
 21 H        3.0030    -0.2670    -0.3370 H     1 <1>   0.3700 
 22 H       -1.0200    -1.8090    -0.9370 H     1 <1>   0.0800 
 23 H       -1.4650    -2.5710     0.5600 H     1 <1>   0.0800 
 24 H        3.9840    -1.4920     1.3330 H     1 <1>   0.0800 
 25 H        4.6470    -2.5900     0.1370 H     1 <1>   0.0800 
 26 H        4.2380    -3.1670     1.7340 H     1 <1>   0.0800 
 27 H       -0.2830     1.6440    -0.6820 H     1 <1>   0.0800 
 28 H       -0.4810     3.3530    -0.3400 H     1 <1>   0.0800 
 29 H       -0.5080     2.1920     0.9750 H     1 <1>   0.0800 
 30 H        4.9240     0.7470     0.7930 H     1 <1>   0.0800 
 31 H        5.5890     2.3480     0.8190 H     1 <1>   0.0800 
 32 H       -1.1590    -4.0030    -2.0980 H     1 <1>   0.0800 
 33 H       -2.6820    -3.5630    -1.3570 H     1 <1>   0.0800 
 34 H       -1.6510    -4.7530    -0.5980 H     1 <1>   0.0800 
 35 H        4.9620     4.6410    -0.3310 H     1 <1>   0.0800 
 36 H        4.5600     4.8410     1.3650 H     1 <1>   0.0800 
 37 H        3.6500     5.6930     0.1410 H     1 <1>   0.0800 
 38 H        4.8270     0.8240    -1.6960 H     1 <1>   0.0800 
 39 H        6.4600     1.0800    -1.1190 H     1 <1>   0.0800 
 40 H        5.4970     2.4350    -1.6630 H     1 <1>   0.0800 
@<TRIPOS>BOND
  1   1   2  2   
  2   2   3  am  
  3   2   4  1   
  4   3   5  1   
  5   3  21  1   
  6   4   6  1   
  7   4   7  2   
  8   5   8  1   
  9   5   9  2   
 10   6  10  2   
 11   6  11  1   
 12   7  12  1   
 13   7  13  1   
 14   8  14  1   
 15   8  15  1   
 16   9  16  1   
 17   9  17  1   
 18  10  12  1   
 19  11  18  1   
 20  11  22  1   
 21  11  23  1   
 22  13  24  1   
 23  13  25  1   
 24  13  26  1   
 25  14  16  2   
 26  15  27  1   
 27  15  28  1   
 28  15  29  1   
 29  16  19  1   
 30  17  20  1   
 31  17  30  1   
 32  17  31  1   
 33  18  32  1   
 34  18  33  1   
 35  18  34  1   
 36  19  35  1   
 37  19  36  1   
 38  19  37  1   
 39  20  38  1   
 40  20  39  1   
 41  20  40  1   
@<TRIPOS>SUBSTRUCTURE
  1 ****   3 GROUP 4 **** **** 0

# MOE 2024.06 (io_trps.svl 2023.06)
