@<TRIPOS>MOLECULE
NONAME
53 55 1 0 0 
SMALL
USER_CHARGES


@<TRIPOS>ATOM
  1 O       -1.7540     0.3290     2.4770 O.2   1 <1>  -0.5700 
  2 C       -2.3000     0.8340     1.5220 C.2   1 <1>   0.5690 
  3 N       -3.3090     0.1710     0.8680 N.am  1 <1>  -0.6600 
  4 C       -1.8650     2.2470     1.0880 C.3   1 <1>   0.1710 
  5 C       -4.1150     0.6580    -0.2810 C.3   1 <1>   0.1400 
  6 C       -3.7000    -1.2150     1.2230 C.3   1 <1>   0.1400 
  7 N       -0.6700     2.3310     0.1950 N.3   1 <1>  -0.8100 
  8 C       -5.1980    -0.4050    -0.4770 C.3   1 <1>   0.2000 
  9 C       -4.5740    -1.6960     0.0580 C.3   1 <1>  -0.0800 
 10 C       -0.2990     3.7400    -0.0430 C.3   1 <1>   0.1100 
 11 C       -0.8440     1.5880    -1.0600 C.3   1 <1>   0.0300 
 12 O       -6.2800    -0.0830     0.3260 O.3   1 <1>  -0.6800 
 13 C       -3.7310    -2.3930    -1.0310 C.3   1 <1>  -0.0170 
 14 C        1.1710     3.8730    -0.4460 C.3   1 <1>   0.1200 
 15 C       -3.1550    -3.7190    -0.5440 C.ar  1 <1>  -0.1440 
 16 O        1.4480     5.2230    -0.6520 O.3   1 <1>  -0.5600 
 17 C       -3.9330    -4.8980    -0.4540 C.ar  1 <1>   0.0000 
 18 C       -1.8440    -3.8000    -0.1760 C.ar  1 <1>  -0.1500 
 19 C        2.7770     5.4780    -0.9700 C.3   1 <1>   0.0400 
 20 C       -3.2960    -6.0710     0.0190 C.ar  1 <1>   0.3100 
 21 C       -5.3010    -4.9840    -0.8060 C.ar  1 <1>  -0.1500 
 22 C       -1.3120    -5.0130     0.2780 C.ar  1 <1>   0.1600 
 23 N       -1.9890    -6.1120     0.3800 N.ar  1 <1>  -0.6200 
 24 C       -4.0430    -7.2550     0.1250 C.ar  1 <1>  -0.1500 
 25 C       -6.0000    -6.1550    -0.6920 C.ar  1 <1>  -0.1500 
 26 C       -5.3660    -7.3070    -0.2210 C.ar  1 <1>  -0.1500 
 27 H       -1.6420     2.7830     1.9940 H     1 <1>   0.0800 
 28 H       -2.6920     2.7460     0.6220 H     1 <1>   0.0800 
 29 H       -4.5440     1.6270    -0.0910 H     1 <1>   0.0800 
 30 H       -3.4930     0.7010    -1.1560 H     1 <1>   0.0800 
 31 H       -2.8310    -1.8310     1.3800 H     1 <1>   0.0800 
 32 H       -4.2720    -1.1920     2.1350 H     1 <1>   0.0800 
 33 H       -5.5440    -0.4750    -1.4940 H     1 <1>   0.0800 
 34 H       -5.3310    -2.3770     0.4060 H     1 <1>   0.0800 
 35 H       -0.9270     4.1650    -0.8070 H     1 <1>   0.0800 
 36 H       -0.4330     4.3040     0.8640 H     1 <1>   0.0800 
 37 H        0.0640     1.6130    -1.6360 H     1 <1>   0.0800 
 38 H       -1.6390     2.0160    -1.6440 H     1 <1>   0.0800 
 39 H       -1.0670     0.5560    -0.8490 H     1 <1>   0.0800 
 40 H       -5.9720     0.0560     1.2440 H     1 <1>   0.4000 
 41 H       -2.9250    -1.7460    -1.3320 H     1 <1>   0.0800 
 42 H       -4.3300    -2.5690    -1.9070 H     1 <1>   0.0800 
 43 H        1.3680     3.3440    -1.3610 H     1 <1>   0.0800 
 44 H        1.8000     3.5040     0.3450 H     1 <1>   0.0800 
 45 H       -1.1910    -2.9470    -0.2160 H     1 <1>   0.1500 
 46 H        2.8890     6.5390    -1.1100 H     1 <1>   0.0800 
 47 H        3.0310     4.9630    -1.8800 H     1 <1>   0.0800 
 48 H        3.4050     5.1510    -0.1600 H     1 <1>   0.0800 
 49 H       -5.8090    -4.1130    -1.1720 H     1 <1>   0.1500 
 50 H       -0.2730    -5.0300     0.5620 H     1 <1>   0.1500 
 51 H       -3.5340    -8.1280     0.4890 H     1 <1>   0.1500 
 52 H       -7.0410    -6.2060    -0.9630 H     1 <1>   0.1500 
 53 H       -5.9260    -8.2220    -0.1350 H     1 <1>   0.1500 
@<TRIPOS>BOND
  1   1   2  2   
  2   2   3  am  
  3   2   4  1   
  4   3   5  1   
  5   3   6  1   
  6   4   7  1   
  7   4  27  1   
  8   4  28  1   
  9   5   8  1   
 10   5  29  1   
 11   5  30  1   
 12   6   9  1   
 13   6  31  1   
 14   6  32  1   
 15   7  10  1   
 16   7  11  1   
 17   8   9  1   
 18   8  12  1   
 19   8  33  1   
 20   9  13  1   
 21   9  34  1   
 22  10  14  1   
 23  10  35  1   
 24  10  36  1   
 25  11  37  1   
 26  11  38  1   
 27  11  39  1   
 28  12  40  1   
 29  13  15  1   
 30  13  41  1   
 31  13  42  1   
 32  14  16  1   
 33  14  43  1   
 34  14  44  1   
 35  15  17  ar  
 36  15  18  ar  
 37  16  19  1   
 38  17  20  ar  
 39  17  21  ar  
 40  18  22  ar  
 41  18  45  1   
 42  19  46  1   
 43  19  47  1   
 44  19  48  1   
 45  20  23  ar  
 46  20  24  ar  
 47  21  25  ar  
 48  21  49  1   
 49  22  23  ar  
 50  22  50  1   
 51  24  26  ar  
 52  24  51  1   
 53  25  26  ar  
 54  25  52  1   
 55  26  53  1   
@<TRIPOS>SUBSTRUCTURE
  1 ****   6 GROUP 4 **** **** 0

# MOE 2024.06 (io_trps.svl 2023.06)
