@<TRIPOS>MOLECULE
NONAME
55 57 1 0 0 
SMALL
USER_CHARGES


@<TRIPOS>ATOM
  1 CL      -1.1790     1.1380     0.3070 Cl    1 <1>  -0.1770 
  2 C       -2.4850    -0.0220     0.2500 C.ar  1 <1>   0.1770 
  3 C       -3.0000    -0.5210     1.4320 C.ar  1 <1>  -0.1500 
  4 C       -2.9820    -0.4240    -0.9760 C.ar  1 <1>  -0.1500 
  5 C       -4.0340    -1.4390     1.3810 C.ar  1 <1>  -0.1500 
  6 C       -4.0160    -1.3420    -1.0170 C.ar  1 <1>  -0.1500 
  7 C       -4.5510    -1.8580     0.1610 C.ar  1 <1>   0.1000 
  8 N       -5.5870    -2.7830     0.1400 N.pl3 1 <1>  -0.8380 
  9 C       -5.2200    -4.1610    -0.2520 C.3   1 <1>   0.2090 
 10 C       -6.8880    -2.3060    -0.3830 C.3   1 <1>   0.2090 
 11 C       -6.2820    -5.1080     0.2980 C.3   1 <1>  -0.1600 
 12 C       -7.9790    -3.2190     0.1660 C.3   1 <1>  -0.1600 
 13 C       -7.6690    -4.6740    -0.1920 C.3   1 <1>   0.4230 
 14 N       -8.7350    -5.5550     0.3360 N.4   1 <1>  -0.9590 
 15 C       -8.7860    -6.8820    -0.3520 C.3   1 <1>   0.3430 
 16 C       -8.8570    -5.6990     1.8110 C.3   1 <1>   0.3430 
 17 C      -10.0090    -7.7110     0.0850 C.3   1 <1>  -0.1060 
 18 C      -10.2480    -6.2470     2.1650 C.3   1 <1>  -0.1600 
 19 C      -10.7690    -8.0460    -1.1910 C.2   1 <1>   0.9060 
 20 C      -10.9730    -6.8700     0.9610 C.3   1 <1>   0.2000 
 21 C       -9.5380    -8.9770     0.8720 C.3   1 <1>  -0.1600 
 22 O      -11.2780    -9.1520    -1.3530 O.co2 1 <1>  -0.9000 
 23 O      -10.9050    -7.1270    -2.0100 O.co2 1 <1>  -0.9000 
 24 O      -11.4760    -5.8000     0.2220 O.3   1 <1>  -0.6800 
 25 C       -8.5840    -9.9150     0.1070 C.3   1 <1>  -0.1600 
 26 C       -8.2170   -11.1290     0.9640 C.3   1 <1>  -0.2400 
 27 H       -2.5970    -0.1940     2.3730 H     1 <1>   0.1500 
 28 H       -2.5630    -0.0200    -1.8800 H     1 <1>   0.1500 
 29 H       -4.4520    -1.8410     2.2860 H     1 <1>   0.1500 
 30 H       -4.4120    -1.6640    -1.9620 H     1 <1>   0.1500 
 31 H       -5.1630    -4.2310    -1.3260 H     1 <1>   0.0800 
 32 H       -4.2540    -4.4080     0.1580 H     1 <1>   0.0800 
 33 H       -7.0560    -1.2910    -0.0620 H     1 <1>   0.0800 
 34 H       -6.8780    -2.3270    -1.4600 H     1 <1>   0.0800 
 35 H       -6.2270    -5.0780     1.3710 H     1 <1>   0.0800 
 36 H       -6.0600    -6.1040    -0.0360 H     1 <1>   0.0800 
 37 H       -8.9230    -2.9280    -0.2590 H     1 <1>   0.0800 
 38 H       -8.0190    -3.0810     1.2300 H     1 <1>   0.0800 
 39 H       -7.6760    -4.7460    -1.2680 H     1 <1>   0.0800 
 40 H       -9.6510    -5.1460     0.0570 H     1 <1>   0.4500 
 41 H       -8.8250    -6.7250    -1.4180 H     1 <1>   0.0800 
 42 H       -7.8850    -7.4280    -0.1390 H     1 <1>   0.0800 
 43 H       -8.0980    -6.3770     2.1650 H     1 <1>   0.0800 
 44 H       -8.7160    -4.7480     2.2960 H     1 <1>   0.0800 
 45 H      -10.8550    -5.4610     2.5790 H     1 <1>   0.0800 
 46 H      -10.1360    -6.9840     2.9380 H     1 <1>   0.0800 
 47 H      -11.8150    -7.4660     1.2740 H     1 <1>   0.0800 
 48 H       -9.0530    -8.6880     1.7860 H     1 <1>   0.0800 
 49 H      -10.4140    -9.5450     1.1400 H     1 <1>   0.0800 
 50 H      -11.6530    -6.1260    -0.7100 H     1 <1>   0.4000 
 51 H       -9.0600   -10.2670    -0.7940 H     1 <1>   0.0800 
 52 H       -7.6780    -9.4110    -0.1750 H     1 <1>   0.0800 
 53 H       -9.1040   -11.6810     1.2250 H     1 <1>   0.0800 
 54 H       -7.7180   -10.8240     1.8670 H     1 <1>   0.0800 
 55 H       -7.5630   -11.7830     0.4140 H     1 <1>   0.0800 
@<TRIPOS>BOND
  1   1   2  1   
  2   2   3  ar  
  3   2   4  ar  
  4   3   5  ar  
  5   3  27  1   
  6   4   6  ar  
  7   4  28  1   
  8   5   7  ar  
  9   5  29  1   
 10   6   7  ar  
 11   6  30  1   
 12   7   8  1   
 13   8   9  1   
 14   8  10  1   
 15   9  11  1   
 16   9  31  1   
 17   9  32  1   
 18  10  12  1   
 19  10  33  1   
 20  10  34  1   
 21  11  13  1   
 22  11  35  1   
 23  11  36  1   
 24  12  13  1   
 25  12  37  1   
 26  12  38  1   
 27  13  14  1   
 28  13  39  1   
 29  14  15  1   
 30  14  16  1   
 31  14  40  1   
 32  15  17  1   
 33  15  41  1   
 34  15  42  1   
 35  16  18  1   
 36  16  43  1   
 37  16  44  1   
 38  17  19  1   
 39  17  20  1   
 40  17  21  1   
 41  18  20  1   
 42  18  45  1   
 43  18  46  1   
 44  19  22  ar  
 45  19  23  ar  
 46  20  24  1   
 47  20  47  1   
 48  21  25  1   
 49  21  48  1   
 50  21  49  1   
 51  24  50  1   
 52  25  26  1   
 53  25  51  1   
 54  25  52  1   
 55  26  53  1   
 56  26  54  1   
 57  26  55  1   
@<TRIPOS>SUBSTRUCTURE
  1 ****  13 GROUP 4 **** **** 0

# MOE 2024.06 (io_trps.svl 2023.06)
