@<TRIPOS>MOLECULE
NONAME
25 25 1 0 0 
SMALL
USER_CHARGES


@<TRIPOS>ATOM
  1 CL       0.7760    -0.4870    -1.6840 Cl    1 <1>  -0.1770 
  2 C        1.8260     0.5900    -0.7940 C.ar  1 <1>   0.1770 
  3 C        2.7080     0.0870     0.1540 C.ar  1 <1>   0.0830 
  4 C        1.7520     1.9470    -1.0520 C.ar  1 <1>  -0.1500 
  5 O        2.7710    -1.2410     0.4060 O.3   1 <1>  -0.3630 
  6 C        3.5150     0.9680     0.8590 C.ar  1 <1>  -0.1500 
  7 C        2.5630     2.8280    -0.3480 C.ar  1 <1>  -0.1430 
  8 C        3.7870    -1.9840    -0.2370 C.3   1 <1>   1.3000 
  9 C        3.4450     2.3290     0.6050 C.ar  1 <1>  -0.1500 
 10 C        2.4840     4.3170    -0.6130 C.3   1 <1>   0.4860 
 11 F        3.8040    -1.7620    -1.5460 F     1 <1>  -0.3400 
 12 F        4.9810    -1.6680     0.2490 F     1 <1>  -0.3400 
 13 F        3.6000    -3.2810    -0.0440 F     1 <1>  -0.3400 
 14 N        1.4430     4.8610     0.2860 N.4   1 <1>  -0.9060 
 15 C        1.2480     6.3350     0.1480 C.3   1 <1>   0.2630 
 16 H        1.0590     2.2860    -1.8030 H     1 <1>   0.1500 
 17 H        4.1960     0.5890     1.6030 H     1 <1>   0.1500 
 18 H        4.0920     2.9880     1.1620 H     1 <1>   0.1500 
 19 H        2.2230     4.4940    -1.6450 H     1 <1>   0.0800 
 20 H        3.4380     4.7780    -0.4120 H     1 <1>   0.0800 
 21 H        1.7000     4.6160     1.2520 H     1 <1>   0.4500 
 22 H        0.5660     4.3590     0.0980 H     1 <1>   0.4500 
 23 H        2.1620     6.8600     0.3770 H     1 <1>   0.0800 
 24 H        0.4800     6.6750     0.8260 H     1 <1>   0.0800 
 25 H        0.9490     6.5830    -0.8580 H     1 <1>   0.0800 
@<TRIPOS>BOND
  1   1   2  1   
  2   2   3  ar  
  3   2   4  ar  
  4   3   5  1   
  5   3   6  ar  
  6   4   7  ar  
  7   4  16  1   
  8   5   8  1   
  9   6   9  ar  
 10   6  17  1   
 11   7   9  ar  
 12   7  10  1   
 13   8  11  1   
 14   8  12  1   
 15   8  13  1   
 16   9  18  1   
 17  10  14  1   
 18  10  19  1   
 19  10  20  1   
 20  14  15  1   
 21  14  21  1   
 22  14  22  1   
 23  15  23  1   
 24  15  24  1   
 25  15  25  1   
@<TRIPOS>SUBSTRUCTURE
  1 ****   3 GROUP 4 **** **** 0

# MOE 2024.06 (io_trps.svl 2023.06)
