@<TRIPOS>MOLECULE
NONAME
52 54 1 0 0 
SMALL
USER_CHARGES


@<TRIPOS>ATOM
  1 O       -0.7020    -0.6250     2.1980 O.2   1 <1>  -0.5700 
  2 C       -1.1530     0.2290     1.4640 C.2   1 <1>   0.5690 
  3 N       -2.3810     0.0150     0.8730 N.am  1 <1>  -0.6600 
  4 C       -0.3360     1.5480     1.2660 C.3   1 <1>   0.3410 
  5 C       -3.0930     0.8950    -0.0930 C.3   1 <1>   0.1400 
  6 C       -3.1350    -1.2520     1.0550 C.3   1 <1>   0.1400 
  7 O       -0.4400     1.9610    -0.1020 O.3   1 <1>  -0.3630 
  8 C        1.1600     1.3410     1.5810 C.3   1 <1>  -0.2400 
  9 C       -0.8990     2.6420     2.1920 C.3   1 <1>  -0.2400 
 10 C       -4.4710     0.2560    -0.2630 C.3   1 <1>   0.2000 
 11 C       -4.2300    -1.2360    -0.0200 C.3   1 <1>  -0.0800 
 12 C        0.0700     3.1320    -0.5510 C.ar  1 <1>   0.0820 
 13 O       -5.3010     0.7270     0.7420 O.3   1 <1>  -0.6800 
 14 C       -3.7700    -1.9360    -1.3140 C.3   1 <1>  -0.0170 
 15 C        1.3510     3.1730    -1.0770 C.ar  1 <1>  -0.1500 
 16 C       -0.7080     4.2800    -0.5360 C.ar  1 <1>  -0.1500 
 17 C       -3.5800    -3.4310    -1.1050 C.ar  1 <1>  -0.1440 
 18 C        1.8650     4.3650    -1.5550 C.ar  1 <1>  -0.1500 
 19 C       -0.1910     5.4710    -1.0150 C.ar  1 <1>  -0.1500 
 20 C       -2.3300    -3.9970    -0.9520 C.ar  1 <1>  -0.1500 
 21 C       -4.6510    -4.3000    -1.0570 C.ar  1 <1>  -0.1500 
 22 C        1.0990     5.5210    -1.5220 C.ar  1 <1>  -0.1440 
 23 C       -2.2150    -5.3640    -0.7610 C.ar  1 <1>   0.1600 
 24 C       -4.4270    -5.6530    -0.8620 C.ar  1 <1>   0.1600 
 25 C        1.6640     6.8280    -2.0470 C.3   1 <1>  -0.0970 
 26 N       -3.2350    -6.2060    -0.7120 N.ar  1 <1>  -0.6200 
 27 H       -3.1670     1.9090     0.2580 H     1 <1>   0.0800 
 28 H       -2.5680     0.8790    -1.0320 H     1 <1>   0.0800 
 29 H       -2.4810    -2.1030     0.9720 H     1 <1>   0.0800 
 30 H       -3.5760    -1.2540     2.0370 H     1 <1>   0.0800 
 31 H        1.2770     0.9860     2.5900 H     1 <1>   0.0800 
 32 H        1.7090     2.2600     1.4940 H     1 <1>   0.0800 
 33 H        1.5760     0.6030     0.9190 H     1 <1>   0.0800 
 34 H       -0.8720     2.2950     3.2090 H     1 <1>   0.0800 
 35 H       -1.9200     2.8610     1.9440 H     1 <1>   0.0800 
 36 H       -0.3110     3.5400     2.1350 H     1 <1>   0.0800 
 37 H       -4.9290     0.4780    -1.2120 H     1 <1>   0.0800 
 38 H       -5.1240    -1.7190     0.3330 H     1 <1>   0.0800 
 39 H       -4.8410     0.6350     1.6010 H     1 <1>   0.4000 
 40 H       -2.8490    -1.5040    -1.6650 H     1 <1>   0.0800 
 41 H       -4.5090    -1.7900    -2.0820 H     1 <1>   0.0800 
 42 H        1.9400     2.2750    -1.1130 H     1 <1>   0.1500 
 43 H       -1.7110     4.2410    -0.1540 H     1 <1>   0.1500 
 44 H        2.8630     4.3900    -1.9570 H     1 <1>   0.1500 
 45 H       -0.7980     6.3590    -0.9950 H     1 <1>   0.1500 
 46 H       -1.4430    -3.3890    -0.9760 H     1 <1>   0.1500 
 47 H       -5.6570    -3.9390    -1.1690 H     1 <1>   0.1500 
 48 H       -1.2320    -5.7860    -0.6410 H     1 <1>   0.1500 
 49 H       -5.2750    -6.3160    -0.8280 H     1 <1>   0.1500 
 50 H        2.7300     6.8600    -1.9090 H     1 <1>   0.0800 
 51 H        1.2300     7.6620    -1.5260 H     1 <1>   0.0800 
 52 H        1.4470     6.9220    -3.0960 H     1 <1>   0.0800 
@<TRIPOS>BOND
  1   1   2  2   
  2   2   3  am  
  3   2   4  1   
  4   3   5  1   
  5   3   6  1   
  6   4   7  1   
  7   4   8  1   
  8   4   9  1   
  9   5  10  1   
 10   5  27  1   
 11   5  28  1   
 12   6  11  1   
 13   6  29  1   
 14   6  30  1   
 15   7  12  1   
 16   8  31  1   
 17   8  32  1   
 18   8  33  1   
 19   9  34  1   
 20   9  35  1   
 21   9  36  1   
 22  10  11  1   
 23  10  13  1   
 24  10  37  1   
 25  11  14  1   
 26  11  38  1   
 27  12  15  ar  
 28  12  16  ar  
 29  13  39  1   
 30  14  17  1   
 31  14  40  1   
 32  14  41  1   
 33  15  18  ar  
 34  15  42  1   
 35  16  19  ar  
 36  16  43  1   
 37  17  20  ar  
 38  17  21  ar  
 39  18  22  ar  
 40  18  44  1   
 41  19  22  ar  
 42  19  45  1   
 43  20  23  ar  
 44  20  46  1   
 45  21  24  ar  
 46  21  47  1   
 47  22  25  1   
 48  23  26  ar  
 49  23  48  1   
 50  24  26  ar  
 51  24  49  1   
 52  25  50  1   
 53  25  51  1   
 54  25  52  1   
@<TRIPOS>SUBSTRUCTURE
  1 ****   3 GROUP 4 **** **** 0

# MOE 2024.06 (io_trps.svl 2023.06)
