@<TRIPOS>MOLECULE
NONAME
46 49 1 0 0 
SMALL
USER_CHARGES


@<TRIPOS>ATOM
  1 F        0.5300     0.1340    -0.8480 F     1 <1>  -0.3400 
  2 C       -0.6950     0.3020    -0.3530 C.3   1 <1>   1.1640 
  3 F       -1.4950    -0.4090    -1.1450 F     1 <1>  -0.3400 
  4 F       -0.6970    -0.3270     0.8200 F     1 <1>  -0.3400 
  5 C       -1.1420     1.7880    -0.2310 C.ar  1 <1>   0.1660 
  6 N       -0.2430     2.7300    -0.4700 N.ar  1 <1>  -0.6200 
  7 C       -2.4440     2.1360     0.1170 C.ar  1 <1>  -0.1440 
  8 C       -0.6240     3.9940    -0.3710 C.ar  1 <1>   0.7200 
  9 C       -2.7390     3.4870     0.1790 C.ar  1 <1>   0.1660 
 10 C       -3.5310     1.0900     0.4060 C.3   1 <1>  -0.0170 
 11 N       -1.8430     4.4080    -0.0590 N.ar  1 <1>  -0.6200 
 12 N        0.3240     4.9590    -0.6180 N.pl3 1 <1>  -0.8380 
 13 C       -4.1210     4.0130     0.5430 C.3   1 <1>  -0.0170 
 14 C       -4.7470     1.6620     1.1420 C.3   1 <1>  -0.1600 
 15 C        0.1080     6.3610    -0.1490 C.3   1 <1>   0.3890 
 16 C        1.6050     4.6560    -1.3270 C.3   1 <1>   0.1290 
 17 C       -5.2200     2.9480     0.4660 C.3   1 <1>  -0.1600 
 18 C        1.4070     7.0760     0.1910 C.2   1 <1>  -0.0400 
 19 O        2.1320     6.6760     1.1990 O.3   1 <1>  -0.0190 
 20 C        2.0280     8.1250    -0.3630 C.2   1 <1>  -0.1500 
 21 N        3.2030     7.3950     1.3480 N.2   1 <1>  -0.4100 
 22 C        3.1830     8.3000     0.4120 C.2   1 <1>   0.2350 
 23 C        4.1880     9.3300     0.1950 C.ar  1 <1>   0.3640 
 24 N        4.0150    10.1880    -0.8200 N.ar  1 <1>  -0.6200 
 25 C        5.3020     9.4080     1.0340 C.ar  1 <1>  -0.1500 
 26 C        4.9450    11.1120    -0.9890 C.ar  1 <1>   0.1600 
 27 C        6.2640    10.3750     0.8480 C.ar  1 <1>  -0.1500 
 28 C        6.0710    11.2490    -0.1980 C.ar  1 <1>  -0.1500 
 29 H       -3.1400     0.2850     1.0020 H     1 <1>   0.0800 
 30 H       -3.8630     0.6760    -0.5310 H     1 <1>   0.0800 
 31 H       -4.3750     4.8280    -0.1110 H     1 <1>   0.0800 
 32 H       -4.0720     4.4020     1.5450 H     1 <1>   0.0800 
 33 H       -4.4830     1.8690     2.1660 H     1 <1>   0.0800 
 34 H       -5.5410     0.9350     1.1440 H     1 <1>   0.0800 
 35 H       -0.5140     6.3640     0.7300 H     1 <1>   0.0800 
 36 H       -0.4060     6.9030    -0.9230 H     1 <1>   0.0800 
 37 H        1.5150     3.7610    -1.9180 H     1 <1>   0.0800 
 38 H        2.3920     4.5180    -0.6060 H     1 <1>   0.0800 
 39 H        1.8650     5.4670    -1.9850 H     1 <1>   0.0800 
 40 H       -5.4530     2.7480    -0.5660 H     1 <1>   0.0800 
 41 H       -6.1110     3.3130     0.9460 H     1 <1>   0.0800 
 42 H        1.7510     8.7300    -1.2060 H     1 <1>   0.1500 
 43 H        5.4060     8.7020     1.8380 H     1 <1>   0.1500 
 44 H        4.8030    11.8000    -1.8050 H     1 <1>   0.1500 
 45 H        7.1260    10.4450     1.4900 H     1 <1>   0.1500 
 46 H        6.7830    12.0290    -0.4000 H     1 <1>   0.1500 
@<TRIPOS>BOND
  1   1   2  1   
  2   2   3  1   
  3   2   4  1   
  4   2   5  1   
  5   5   6  ar  
  6   5   7  ar  
  7   6   8  ar  
  8   7   9  ar  
  9   7  10  1   
 10   8  11  ar  
 11   8  12  1   
 12   9  11  ar  
 13   9  13  1   
 14  10  14  1   
 15  10  29  1   
 16  10  30  1   
 17  12  15  1   
 18  12  16  1   
 19  13  17  1   
 20  13  31  1   
 21  13  32  1   
 22  14  17  1   
 23  14  33  1   
 24  14  34  1   
 25  15  18  1   
 26  15  35  1   
 27  15  36  1   
 28  16  37  1   
 29  16  38  1   
 30  16  39  1   
 31  17  40  1   
 32  17  41  1   
 33  18  19  1   
 34  18  20  2   
 35  19  21  1   
 36  20  22  1   
 37  20  42  1   
 38  21  22  2   
 39  22  23  1   
 40  23  24  ar  
 41  23  25  ar  
 42  24  26  ar  
 43  25  27  ar  
 44  25  43  1   
 45  26  28  ar  
 46  26  44  1   
 47  27  28  ar  
 48  27  45  1   
 49  28  46  1   
@<TRIPOS>SUBSTRUCTURE
  1 ****  12 GROUP 4 **** **** 0

# MOE 2024.06 (io_trps.svl 2023.06)
