@<TRIPOS>MOLECULE
NONAME
25 25 1 0 0 
SMALL
USER_CHARGES


@<TRIPOS>ATOM
  1 F       -0.6280    -0.5810    -1.4310 F     1 <1>  -0.1900 
  2 C       -0.4420    -1.6600    -0.7190 C.ar  1 <1>   0.1900 
  3 C       -1.4700    -2.1350     0.0820 C.ar  1 <1>  -0.1440 
  4 C        0.7920    -2.2820    -0.8140 C.ar  1 <1>  -0.1500 
  5 C       -1.1930    -3.2980     0.7910 C.ar  1 <1>   0.1900 
  6 C       -2.8120    -1.4100     0.1490 C.3   1 <1>   0.3440 
  7 C        1.0280    -3.4370    -0.0860 C.ar  1 <1>  -0.1500 
  8 F       -2.1100    -3.8220     1.5620 F     1 <1>  -0.1900 
  9 C        0.0270    -3.9500     0.7230 C.ar  1 <1>  -0.1500 
 10 O       -3.1590    -1.2410     1.4750 O.3   1 <1>  -0.6800 
 11 C       -3.9130    -2.1830    -0.5690 C.3   1 <1>  -0.0990 
 12 C       -5.1910    -1.3860    -0.5820 C.2   1 <1>   0.6590 
 13 O       -5.3460    -0.4690    -1.3450 O.2   1 <1>  -0.5700 
 14 O       -6.1320    -1.7700     0.2720 O.3   1 <1>  -0.4300 
 15 C       -7.3650    -1.0890     0.3670 C.3   1 <1>   0.0400 
 16 H        1.5520    -1.8660    -1.4510 H     1 <1>   0.1500 
 17 H       -2.7350    -0.4230    -0.2770 H     1 <1>   0.0800 
 18 H        1.9830    -3.9320    -0.1490 H     1 <1>   0.1500 
 19 H        0.1880    -4.8470     1.2960 H     1 <1>   0.1500 
 20 H       -3.0580    -2.0940     1.9440 H     1 <1>   0.4000 
 21 H       -4.0780    -3.1380    -0.1090 H     1 <1>   0.0800 
 22 H       -3.6150    -2.3480    -1.5870 H     1 <1>   0.0800 
 23 H       -7.9630    -1.5700     1.1190 H     1 <1>   0.0800 
 24 H       -7.8600    -1.1310    -0.5880 H     1 <1>   0.0800 
 25 H       -7.1740    -0.0660     0.6420 H     1 <1>   0.0800 
@<TRIPOS>BOND
  1   1   2  1   
  2   2   3  ar  
  3   2   4  ar  
  4   3   5  ar  
  5   3   6  1   
  6   4   7  ar  
  7   4  16  1   
  8   5   8  1   
  9   5   9  ar  
 10   6  10  1   
 11   6  11  1   
 12   6  17  1   
 13   7   9  ar  
 14   7  18  1   
 15   9  19  1   
 16  10  20  1   
 17  11  12  1   
 18  11  21  1   
 19  11  22  1   
 20  12  13  2   
 21  12  14  1   
 22  14  15  1   
 23  15  23  1   
 24  15  24  1   
 25  15  25  1   
@<TRIPOS>SUBSTRUCTURE
  1 ****   6 GROUP 4 **** **** 0

# MOE 2024.06 (io_trps.svl 2023.06)
