@<TRIPOS>MOLECULE
NONAME
43 44 1 0 0 
SMALL
USER_CHARGES


@<TRIPOS>ATOM
  1 CL       1.0500     0.2120     1.1480 Cl    1 <1>  -0.1770 
  2 C        1.6390    -1.4180     1.4170 C.ar  1 <1>   0.1770 
  3 C        1.0060    -2.5100     0.8350 C.ar  1 <1>   0.4100 
  4 C        2.7340    -1.6450     2.2020 C.ar  1 <1>   0.1600 
  5 N        1.4550    -3.7400     1.0360 N.ar  1 <1>  -0.6200 
  6 N       -0.1110    -2.3600     0.0390 N.pl3 1 <1>  -0.8690 
  7 N        3.1910    -2.8680     2.4100 N.ar  1 <1>  -0.6200 
  8 C        2.5230    -3.8400     1.8140 C.ar  1 <1>   0.4770 
  9 C       -0.6120    -3.3980    -0.8930 C.3   1 <1>   0.2090 
 10 C        3.0460    -5.2370     2.0510 C.3   1 <1>  -0.0970 
 11 C       -1.3540    -4.4970    -0.1040 C.3   1 <1>   0.3430 
 12 N       -1.1260    -5.8890    -0.6310 N.4   1 <1>  -0.9590 
 13 C       -2.1000    -6.8250     0.0150 C.3   1 <1>   0.3430 
 14 C        0.2920    -6.3050    -0.3680 C.3   1 <1>   0.2630 
 15 C       -2.1100    -8.2040    -0.6480 C.3   1 <1>  -0.0170 
 16 C       -3.1880    -9.0440     0.0090 C.ar  1 <1>  -0.1430 
 17 C       -2.9050    -9.7680     1.1570 C.ar  1 <1>  -0.1500 
 18 C       -4.4670    -9.0860    -0.5260 C.ar  1 <1>  -0.1500 
 19 C       -3.8920   -10.5210     1.7680 C.ar  1 <1>  -0.1500 
 20 C       -5.4540    -9.8390     0.0860 C.ar  1 <1>  -0.1500 
 21 C       -5.1670   -10.5560     1.2330 C.ar  1 <1>  -0.1500 
 22 H        3.2470    -0.8210     2.6660 H     1 <1>   0.1500 
 23 H       -0.3460    -1.3880    -0.2080 H     1 <1>   0.4000 
 24 H        0.2270    -3.8060    -1.4290 H     1 <1>   0.0800 
 25 H       -1.2830    -2.9460    -1.6030 H     1 <1>   0.0800 
 26 H        2.2830    -5.8370     2.5080 H     1 <1>   0.0800 
 27 H        3.9010    -5.2130     2.7040 H     1 <1>   0.0800 
 28 H        3.3410    -5.6760     1.1170 H     1 <1>   0.0800 
 29 H       -2.4060    -4.2680    -0.1140 H     1 <1>   0.0800 
 30 H       -1.0170    -4.4550     0.9200 H     1 <1>   0.0800 
 31 H       -1.3000    -5.8910    -1.6460 H     1 <1>   0.4500 
 32 H       -3.0950    -6.4140    -0.0550 H     1 <1>   0.0800 
 33 H       -1.8660    -6.9360     1.0620 H     1 <1>   0.0800 
 34 H        0.4850    -6.3130     0.6930 H     1 <1>   0.0800 
 35 H        0.9820    -5.6140    -0.8260 H     1 <1>   0.0800 
 36 H        0.4820    -7.2880    -0.7640 H     1 <1>   0.0800 
 37 H       -1.1630    -8.6960    -0.5270 H     1 <1>   0.0800 
 38 H       -2.3210    -8.1120    -1.6990 H     1 <1>   0.0800 
 39 H       -1.9190    -9.7600     1.5880 H     1 <1>   0.1500 
 40 H       -4.7120    -8.5400    -1.4200 H     1 <1>   0.1500 
 41 H       -3.6700   -11.0840     2.6590 H     1 <1>   0.1500 
 42 H       -6.4460    -9.8720    -0.3310 H     1 <1>   0.1500 
 43 H       -5.9350   -11.1430     1.7080 H     1 <1>   0.1500 
@<TRIPOS>BOND
  1   1   2  1   
  2   2   3  ar  
  3   2   4  ar  
  4   3   5  ar  
  5   3   6  1   
  6   4   7  ar  
  7   4  22  1   
  8   5   8  ar  
  9   6   9  1   
 10   6  23  1   
 11   7   8  ar  
 12   8  10  1   
 13   9  11  1   
 14   9  24  1   
 15   9  25  1   
 16  10  26  1   
 17  10  27  1   
 18  10  28  1   
 19  11  12  1   
 20  11  29  1   
 21  11  30  1   
 22  12  13  1   
 23  12  14  1   
 24  12  31  1   
 25  13  15  1   
 26  13  32  1   
 27  13  33  1   
 28  14  34  1   
 29  14  35  1   
 30  14  36  1   
 31  15  16  1   
 32  15  37  1   
 33  15  38  1   
 34  16  17  ar  
 35  16  18  ar  
 36  17  19  ar  
 37  17  39  1   
 38  18  20  ar  
 39  18  40  1   
 40  19  21  ar  
 41  19  41  1   
 42  20  21  ar  
 43  20  42  1   
 44  21  43  1   
@<TRIPOS>SUBSTRUCTURE
  1 ****  12 GROUP 4 **** **** 0

# MOE 2024.06 (io_trps.svl 2023.06)
