@<TRIPOS>MOLECULE
NONAME
43 45 1 0 0 
SMALL
USER_CHARGES


@<TRIPOS>ATOM
  1 CL      -1.2600    -1.1910     0.1090 Cl    1 <1>  -0.1770 
  2 C       -2.0170     0.3800     0.0570 C.ar  1 <1>   0.1770 
  3 C       -1.3280     1.4430    -0.4860 C.ar  1 <1>  -0.1500 
  4 C       -3.2900     0.5360     0.5620 C.ar  1 <1>  -0.1500 
  5 C       -1.8950     2.7170    -0.5310 C.ar  1 <1>   0.0860 
  6 C       -3.8800     1.7850     0.5100 C.ar  1 <1>  -0.1500 
  7 C       -3.2020     2.8670    -0.0350 C.ar  1 <1>  -0.1440 
  8 C       -1.0990     3.8080    -1.0730 C.2   1 <1>   0.5440 
  9 C       -3.9350     4.2030    -0.0910 C.3   1 <1>  -0.0960 
 10 O       -0.3800     3.6440    -2.0410 O.2   1 <1>  -0.5700 
 11 N       -0.9910     5.0220    -0.4430 N.am  1 <1>  -0.6600 
 12 C       -0.2550     5.0390     0.8680 C.3   1 <1>   0.2200 
 13 C       -1.0170     6.2700    -1.2730 C.3   1 <1>   0.1400 
 14 C       -0.5570     6.2830     1.7190 C.3   1 <1>   0.1200 
 15 C        1.2720     4.8850     0.6360 C.3   1 <1>   0.3430 
 16 C        0.1520     7.2430    -1.0250 C.3   1 <1>  -0.0800 
 17 O        0.3070     7.3280     1.3860 O.3   1 <1>  -0.5600 
 18 N        1.6840     5.1970    -0.7800 N.4   1 <1>  -0.9590 
 19 C       -0.0390     8.0630     0.2610 C.3   1 <1>   0.1200 
 20 C        1.5710     6.6450    -1.1380 C.3   1 <1>   0.3430 
 21 C        3.0320     4.6520    -1.1000 C.3   1 <1>   0.2630 
 22 H       -0.3420     1.2760    -0.8790 H     1 <1>   0.1500 
 23 H       -3.8090    -0.3070     0.9820 H     1 <1>   0.1500 
 24 H       -4.8790     1.9030     0.8950 H     1 <1>   0.1500 
 25 H       -4.9910     4.0700     0.0660 H     1 <1>   0.0800 
 26 H       -3.8040     4.6630    -1.0540 H     1 <1>   0.0800 
 27 H       -3.5630     4.8640     0.6700 H     1 <1>   0.0800 
 28 H       -0.5900     4.1930     1.4440 H     1 <1>   0.0800 
 29 H       -1.0230     6.0000    -2.3170 H     1 <1>   0.0800 
 30 H       -1.9470     6.7800    -1.0850 H     1 <1>   0.0800 
 31 H       -0.3710     6.0550     2.7540 H     1 <1>   0.0800 
 32 H       -1.5820     6.5980     1.6240 H     1 <1>   0.0800 
 33 H        1.5350     3.8640     0.8580 H     1 <1>   0.0800 
 34 H        1.8090     5.5130     1.3270 H     1 <1>   0.0800 
 35 H        0.0830     7.9730    -1.8120 H     1 <1>   0.0800 
 36 H        0.9790     4.6990    -1.3730 H     1 <1>   0.4500 
 37 H       -1.0520     8.4140     0.3670 H     1 <1>   0.0800 
 38 H        0.6090     8.9240     0.2430 H     1 <1>   0.0800 
 39 H        2.2410     7.2220    -0.5200 H     1 <1>   0.0800 
 40 H        1.8940     6.7620    -2.1600 H     1 <1>   0.0800 
 41 H        3.7840     5.1330    -0.4970 H     1 <1>   0.0800 
 42 H        3.2620     4.8170    -2.1410 H     1 <1>   0.0800 
 43 H        3.0590     3.5910    -0.9110 H     1 <1>   0.0800 
@<TRIPOS>BOND
  1   1   2  1   
  2   2   3  ar  
  3   2   4  ar  
  4   3   5  ar  
  5   3  22  1   
  6   4   6  ar  
  7   4  23  1   
  8   5   7  ar  
  9   5   8  1   
 10   6   7  ar  
 11   6  24  1   
 12   7   9  1   
 13   8  10  2   
 14   8  11  am  
 15   9  25  1   
 16   9  26  1   
 17   9  27  1   
 18  11  12  1   
 19  11  13  1   
 20  12  14  1   
 21  12  15  1   
 22  12  28  1   
 23  13  16  1   
 24  13  29  1   
 25  13  30  1   
 26  14  17  1   
 27  14  31  1   
 28  14  32  1   
 29  15  18  1   
 30  15  33  1   
 31  15  34  1   
 32  16  19  1   
 33  16  20  1   
 34  16  35  1   
 35  17  19  1   
 36  18  20  1   
 37  18  21  1   
 38  18  36  1   
 39  19  37  1   
 40  19  38  1   
 41  20  39  1   
 42  20  40  1   
 43  21  41  1   
 44  21  42  1   
 45  21  43  1   
@<TRIPOS>SUBSTRUCTURE
  1 ****  11 GROUP 4 **** **** 0

# MOE 2024.06 (io_trps.svl 2023.06)
