@<TRIPOS>MOLECULE
NONAME
43 45 1 0 0 
SMALL
USER_CHARGES


@<TRIPOS>ATOM
  1 O        0.0020     0.4140     2.6740 O.2   1 <1>  -0.5700 
  2 C        0.5290    -0.2610     1.8210 C.2   1 <1>   0.5690 
  3 N        1.3770     0.2360     0.8710 N.am  1 <1>  -0.4940 
  4 C        0.2360    -1.7540     1.7910 C.3   1 <1>   0.1810 
  5 C        1.8380     1.5570     0.6480 C.2   1 <1>  -0.0880 
  6 O        0.9670    -2.3880     0.7450 O.3   1 <1>  -0.3630 
  7 N        2.6740     1.9280    -0.3600 N.pl3 1 <1>   0.3140 
  8 C        1.5680     2.6800     1.3530 C.2   1 <1>  -0.1500 
  9 C        0.8480    -3.7180     0.4960 C.ar  1 <1>   0.0830 
 10 N        2.9440     3.2580    -0.3080 N.2   1 <1>  -0.7070 
 11 C        3.2340     1.0090    -1.3950 C.3   1 <1>   0.1760 
 12 C        2.2760     3.6900     0.7170 C.2   1 <1>   0.1390 
 13 C        1.5870    -4.2450    -0.5600 C.ar  1 <1>  -0.1440 
 14 C        0.0250    -4.5550     1.2490 C.ar  1 <1>  -0.1500 
 15 C        4.4100     0.1860    -0.8660 C.3   1 <1>  -0.1600 
 16 C        3.8080     1.6930    -2.6370 C.3   1 <1>  -0.1600 
 17 C        1.4950    -5.5970    -0.8510 C.ar  1 <1>  -0.1500 
 18 C        2.4970    -3.3590    -1.3990 C.3   1 <1>  -0.0970 
 19 C       -0.0580    -5.9020     0.9480 C.ar  1 <1>  -0.1500 
 20 C        5.1820    -0.2660    -2.1110 C.3   1 <1>  -0.1600 
 21 C        4.7210     0.6370    -3.2630 C.3   1 <1>  -0.1600 
 22 C        0.6760    -6.4230    -0.1020 C.ar  1 <1>  -0.1500 
 23 H        1.7270    -0.4940     0.2460 H     1 <1>   0.3700 
 24 H       -0.8130    -1.9060     1.6170 H     1 <1>   0.0800 
 25 H        0.5260    -2.1940     2.7270 H     1 <1>   0.0800 
 26 H        0.9440     2.7860     2.2210 H     1 <1>   0.1500 
 27 H        2.4520     0.3430    -1.7110 H     1 <1>   0.0800 
 28 H        2.2780     4.7200     1.0330 H     1 <1>   0.1500 
 29 H       -0.5570    -4.1850     2.0700 H     1 <1>   0.1500 
 30 H        4.0850    -0.6490    -0.2710 H     1 <1>   0.0800 
 31 H        5.0460     0.8220    -0.2720 H     1 <1>   0.0800 
 32 H        4.4080     2.5400    -2.3490 H     1 <1>   0.0800 
 33 H        3.0350     2.0130    -3.3130 H     1 <1>   0.0800 
 34 H        2.0600    -6.0190    -1.6640 H     1 <1>   0.1500 
 35 H        1.9380    -2.5350    -1.8020 H     1 <1>   0.0800 
 36 H        2.9270    -3.9100    -2.2160 H     1 <1>   0.0800 
 37 H        3.2940    -2.9790    -0.7860 H     1 <1>   0.0800 
 38 H       -0.6930    -6.5480     1.5290 H     1 <1>   0.1500 
 39 H        4.9590    -1.2940    -2.3420 H     1 <1>   0.0800 
 40 H        6.2420    -0.1710    -1.9480 H     1 <1>   0.0800 
 41 H        5.5560     1.0960    -3.7670 H     1 <1>   0.0800 
 42 H        4.1640     0.0540    -3.9770 H     1 <1>   0.0800 
 43 H        0.6120    -7.4720    -0.3360 H     1 <1>   0.1500 
@<TRIPOS>BOND
  1   1   2  2   
  2   2   3  am  
  3   2   4  1   
  4   3   5  1   
  5   3  23  1   
  6   4   6  1   
  7   4  24  1   
  8   4  25  1   
  9   5   7  1   
 10   5   8  2   
 11   6   9  1   
 12   7  10  1   
 13   7  11  1   
 14   8  12  1   
 15   8  26  1   
 16   9  13  ar  
 17   9  14  ar  
 18  10  12  2   
 19  11  15  1   
 20  11  16  1   
 21  11  27  1   
 22  12  28  1   
 23  13  17  ar  
 24  13  18  1   
 25  14  19  ar  
 26  14  29  1   
 27  15  20  1   
 28  15  30  1   
 29  15  31  1   
 30  16  21  1   
 31  16  32  1   
 32  16  33  1   
 33  17  22  ar  
 34  17  34  1   
 35  18  35  1   
 36  18  36  1   
 37  18  37  1   
 38  19  22  ar  
 39  19  38  1   
 40  20  21  1   
 41  20  39  1   
 42  20  40  1   
 43  21  41  1   
 44  21  42  1   
 45  22  43  1   
@<TRIPOS>SUBSTRUCTURE
  1 ****   3 GROUP 4 **** **** 0

# MOE 2024.06 (io_trps.svl 2023.06)
