@<TRIPOS>MOLECULE
NONAME
49 52 1 0 0 
SMALL
USER_CHARGES


@<TRIPOS>ATOM
  1 S       -0.1370     0.0620     1.0580 S.o2  1 <1>   1.5010 
  2 O       -0.5230     0.9580     2.1250 O.2   1 <1>  -0.6500 
  3 O       -0.0350    -1.3460     1.3800 O.2   1 <1>  -0.6500 
  4 N       -1.4030     0.2500    -0.0370 N.am  1 <1>  -0.9140 
  5 C        1.3720     0.7030     0.2220 C.2   1 <1>   0.1640 
  6 C       -1.8210    -0.8670    -0.8890 C.3   1 <1>   0.2760 
  7 N        1.7260     0.4230    -1.0670 N.2   1 <1>  -0.5650 
  8 C        2.3250     1.5050     0.7650 C.2   1 <1>  -0.3020 
  9 C       -2.5780    -1.9690    -0.1380 C.3   1 <1>  -0.0800 
 10 C       -0.7240    -1.6170    -1.6540 C.3   1 <1>   0.1200 
 11 C        2.8400     1.0470    -1.2530 C.2   1 <1>   0.0060 
 12 N        3.2630     1.7320    -0.1680 N.pl3 1 <1>   0.0480 
 13 C       -1.8590    -3.2450    -0.5940 C.3   1 <1>   0.1200 
 14 C       -4.0730    -1.9840    -0.5140 C.3   1 <1>  -0.0170 
 15 O       -1.2210    -2.9090    -1.7800 O.3   1 <1>  -0.5600 
 16 C        3.5960     1.0100    -2.5650 C.3   1 <1>  -0.0600 
 17 C        4.4780     2.5510    -0.0110 C.3   1 <1>   0.0160 
 18 C       -4.9500    -3.0120     0.2150 C.ar  1 <1>  -0.1430 
 19 C       -6.2860    -3.2250    -0.2090 C.ar  1 <1>   0.0000 
 20 C       -4.5160    -3.7490     1.2830 C.ar  1 <1>  -0.1500 
 21 C       -7.0580    -4.1910     0.4820 C.ar  1 <1>   0.3100 
 22 C       -6.9040    -2.5320    -1.2780 C.ar  1 <1>  -0.1500 
 23 C       -5.3650    -4.6760     1.8990 C.ar  1 <1>   0.1600 
 24 N       -6.5840    -4.9060     1.5320 N.ar  1 <1>  -0.6200 
 25 C       -8.3810    -4.4270     0.0740 C.ar  1 <1>  -0.1500 
 26 C       -8.1960    -2.7850    -1.6490 C.ar  1 <1>  -0.1500 
 27 C       -8.9470    -3.7450    -0.9680 C.ar  1 <1>  -0.1500 
 28 H       -2.1810     0.5420     0.5460 H     1 <1>   0.4200 
 29 H       -2.4730    -0.4560    -1.6410 H     1 <1>   0.0800 
 30 H        2.3660     1.9140     1.7590 H     1 <1>   0.1500 
 31 H       -2.4780    -1.8540     0.9250 H     1 <1>   0.0800 
 32 H        0.2010    -1.6840    -1.1120 H     1 <1>   0.0800 
 33 H       -0.5530    -1.2060    -2.6320 H     1 <1>   0.0800 
 34 H       -2.5250    -4.0700    -0.7760 H     1 <1>   0.0800 
 35 H       -1.1030    -3.5340     0.1170 H     1 <1>   0.0800 
 36 H       -4.1390    -2.1710    -1.5720 H     1 <1>   0.0800 
 37 H       -4.4860    -1.0080    -0.3260 H     1 <1>   0.0800 
 38 H        3.0650     0.3990    -3.2740 H     1 <1>   0.0800 
 39 H        4.5740     0.5900    -2.4170 H     1 <1>   0.0800 
 40 H        3.6880     2.0010    -2.9680 H     1 <1>   0.0800 
 41 H        4.5070     2.9690     0.9780 H     1 <1>   0.0800 
 42 H        4.4660     3.3460    -0.7340 H     1 <1>   0.0800 
 43 H        5.3450     1.9340    -0.1640 H     1 <1>   0.0800 
 44 H       -3.5290    -3.6580     1.6920 H     1 <1>   0.1500 
 45 H       -6.3520    -1.7860    -1.8170 H     1 <1>   0.1500 
 46 H       -4.9770    -5.2340     2.7340 H     1 <1>   0.1500 
 47 H       -8.9390    -5.1690     0.6150 H     1 <1>   0.1500 
 48 H       -8.6510    -2.2500    -2.4660 H     1 <1>   0.1500 
 49 H       -9.9620    -3.9370    -1.2690 H     1 <1>   0.1500 
@<TRIPOS>BOND
  1   1   2  2   
  2   1   3  2   
  3   1   4  am  
  4   1   5  1   
  5   4   6  1   
  6   4  28  1   
  7   5   7  1   
  8   5   8  2   
  9   6   9  1   
 10   6  10  1   
 11   6  29  1   
 12   7  11  2   
 13   8  12  1   
 14   8  30  1   
 15   9  13  1   
 16   9  14  1   
 17   9  31  1   
 18  10  15  1   
 19  10  32  1   
 20  10  33  1   
 21  11  12  1   
 22  11  16  1   
 23  12  17  1   
 24  13  15  1   
 25  13  34  1   
 26  13  35  1   
 27  14  18  1   
 28  14  36  1   
 29  14  37  1   
 30  16  38  1   
 31  16  39  1   
 32  16  40  1   
 33  17  41  1   
 34  17  42  1   
 35  17  43  1   
 36  18  19  ar  
 37  18  20  ar  
 38  19  21  ar  
 39  19  22  ar  
 40  20  23  ar  
 41  20  44  1   
 42  21  24  ar  
 43  21  25  ar  
 44  22  26  ar  
 45  22  45  1   
 46  23  24  ar  
 47  23  46  1   
 48  25  27  ar  
 49  25  47  1   
 50  26  27  ar  
 51  26  48  1   
 52  27  49  1   
@<TRIPOS>SUBSTRUCTURE
  1 ****   9 GROUP 4 **** **** 0

# MOE 2024.06 (io_trps.svl 2023.06)
