@<TRIPOS>MOLECULE
NONAME
48 50 1 0 0 
SMALL
USER_CHARGES


@<TRIPOS>ATOM
  1 S        1.3090     1.1960     0.6520 S.o2  1 <1>   1.4470 
  2 O        1.2730     0.8190     2.0480 O.2   1 <1>  -0.6500 
  3 O        2.0780     2.3650     0.2770 O.2   1 <1>  -0.6500 
  4 N        1.9070    -0.1330    -0.2130 N.am  1 <1>  -0.8490 
  5 C       -0.3780     1.3710     0.0060 C.ar  1 <1>  -0.0090 
  6 C        3.2840     0.0000    -0.7030 C.3   1 <1>   0.3370 
  7 C        1.8250    -1.4170     0.4610 C.3   1 <1>   0.1960 
  8 C       -0.6230     1.3170    -1.3650 C.ar  1 <1>  -0.1500 
  9 C       -1.4560     1.5820     0.8630 C.ar  1 <1>  -0.1500 
 10 C        3.4900     1.0360    -1.8370 C.2   1 <1>   0.5690 
 11 C        3.6580    -1.4230    -1.1270 C.3   1 <1>  -0.1600 
 12 C        2.6890    -2.3440    -0.3820 C.3   1 <1>  -0.1600 
 13 C       -1.9030     1.4630    -1.8740 C.ar  1 <1>  -0.1500 
 14 C       -2.7440     1.7320     0.3740 C.ar  1 <1>  -0.1500 
 15 O        2.7840     1.0070    -2.8200 O.2   1 <1>  -0.5700 
 16 N        4.4500     1.9890    -1.6930 N.am  1 <1>  -0.7300 
 17 C       -2.9430     1.6690    -0.9900 C.ar  1 <1>   0.1900 
 18 C        4.5000     3.2240    -2.4810 C.3   1 <1>   0.3200 
 19 F       -4.1530     1.8090    -1.4590 F     1 <1>  -0.1900 
 20 C        4.6060     4.3550    -1.4890 C.2   1 <1>  -0.3320 
 21 N        3.7220     4.5450    -0.4860 N.pl3 1 <1>   0.3000 
 22 C        5.5270     5.3360    -1.3840 C.2   1 <1>  -0.1500 
 23 N        4.0470     5.6190     0.2620 N.2   1 <1>  -0.7070 
 24 C        5.1320     6.0870    -0.2810 C.2   1 <1>   0.1080 
 25 C        5.8540     7.3130     0.2610 C.3   1 <1>   0.3010 
 26 O        7.0980     7.4770    -0.3620 O.3   1 <1>  -0.5600 
 27 C        7.8230     8.5660     0.1080 C.3   1 <1>   0.0400 
 28 H        3.9070     0.2790     0.1300 H     1 <1>   0.0800 
 29 H        0.8050    -1.7590     0.5230 H     1 <1>   0.0800 
 30 H        2.2420    -1.3460     1.4530 H     1 <1>   0.0800 
 31 H        0.2010     1.1560    -2.0440 H     1 <1>   0.1500 
 32 H       -1.2850     1.6310     1.9270 H     1 <1>   0.1500 
 33 H        4.6840    -1.6330    -0.8830 H     1 <1>   0.0800 
 34 H        3.5260    -1.5390    -2.1890 H     1 <1>   0.0800 
 35 H        2.0680    -2.8720    -1.0850 H     1 <1>   0.0800 
 36 H        3.2020    -3.0600     0.2370 H     1 <1>   0.0800 
 37 H       -2.0900     1.4200    -2.9320 H     1 <1>   0.1500 
 38 H       -3.5770     1.8950     1.0340 H     1 <1>   0.1500 
 39 H        5.0020     2.0520    -0.8360 H     1 <1>   0.3700 
 40 H        3.6100     3.3320    -3.0800 H     1 <1>   0.0800 
 41 H        5.3590     3.2080    -3.1290 H     1 <1>   0.0800 
 42 H        2.9180     3.9310    -0.2660 H     1 <1>   0.2700 
 43 H        6.3940     5.5330    -1.9900 H     1 <1>   0.1500 
 44 H        6.0090     7.1930     1.3180 H     1 <1>   0.0800 
 45 H        5.2560     8.1880     0.0790 H     1 <1>   0.0800 
 46 H        8.7530     8.6060    -0.4310 H     1 <1>   0.0800 
 47 H        8.0180     8.4370     1.1590 H     1 <1>   0.0800 
 48 H        7.2630     9.4690    -0.0670 H     1 <1>   0.0800 
@<TRIPOS>BOND
  1   1   2  2   
  2   1   3  2   
  3   1   4  am  
  4   1   5  1   
  5   4   6  1   
  6   4   7  1   
  7   5   8  ar  
  8   5   9  ar  
  9   6  10  1   
 10   6  11  1   
 11   6  28  1   
 12   7  12  1   
 13   7  29  1   
 14   7  30  1   
 15   8  13  ar  
 16   8  31  1   
 17   9  14  ar  
 18   9  32  1   
 19  10  15  2   
 20  10  16  am  
 21  11  12  1   
 22  11  33  1   
 23  11  34  1   
 24  12  35  1   
 25  12  36  1   
 26  13  17  ar  
 27  13  37  1   
 28  14  17  ar  
 29  14  38  1   
 30  16  18  1   
 31  16  39  1   
 32  17  19  1   
 33  18  20  1   
 34  18  40  1   
 35  18  41  1   
 36  20  21  1   
 37  20  22  2   
 38  21  23  1   
 39  21  42  1   
 40  22  24  1   
 41  22  43  1   
 42  23  24  2   
 43  24  25  1   
 44  25  26  1   
 45  25  44  1   
 46  25  45  1   
 47  26  27  1   
 48  27  46  1   
 49  27  47  1   
 50  27  48  1   
@<TRIPOS>SUBSTRUCTURE
  1 ****   3 GROUP 4 **** **** 0

# MOE 2024.06 (io_trps.svl 2023.06)
