@<TRIPOS>MOLECULE
NONAME
45 48 1 0 0 
SMALL
USER_CHARGES


@<TRIPOS>ATOM
  1 CL       0.7920     1.8290     2.1160 Cl    1 <1>  -0.1770 
  2 C       -0.6930     2.1660     1.2520 C.ar  1 <1>   0.1770 
  3 C       -1.1720     3.4670     1.1290 C.ar  1 <1>  -0.1440 
  4 C       -1.3630     1.0890     0.7010 C.ar  1 <1>  -0.1500 
  5 C       -2.3570     3.6710     0.4330 C.ar  1 <1>  -0.1500 
  6 C       -0.4540     4.6790     1.7250 C.3   1 <1>   0.0450 
  7 C       -2.5410     1.3040     0.0130 C.ar  1 <1>   0.0830 
  8 C       -3.0370     2.6020    -0.1280 C.ar  1 <1>   0.0830 
  9 C       -0.1020     5.7240     0.6740 C.2   1 <1>   0.5690 
 10 O       -3.1990     0.2400    -0.5100 O.3   1 <1>  -0.3630 
 11 O       -4.1830     2.8440    -0.8140 O.3   1 <1>  -0.3630 
 12 O       -0.6910     6.7800     0.7260 O.2   1 <1>  -0.5700 
 13 N        0.8470     5.4740    -0.2830 N.am  1 <1>  -0.6600 
 14 C       -4.5400     0.4500    -0.9130 C.3   1 <1>   0.1200 
 15 C       -4.6740     1.7990    -1.6330 C.3   1 <1>   0.1200 
 16 C        1.1920     6.5120    -1.3020 C.3   1 <1>   0.3210 
 17 C        1.6710     4.2350    -0.3560 C.3   1 <1>   0.0600 
 18 C        2.5370     7.1520    -0.9910 C.2   1 <1>   0.1080 
 19 N        3.6440     6.9140    -1.6440 N.2   1 <1>  -0.7070 
 20 C        2.7440     8.0690     0.0330 C.2   1 <1>  -0.1810 
 21 N        4.5780     7.6860    -1.0380 N.pl3 1 <1>   0.3000 
 22 C        4.0320     8.3830    -0.0250 C.2   1 <1>  -0.3320 
 23 C        2.0240     8.7830     1.1410 C.3   1 <1>   0.0210 
 24 C        4.4660     9.3740     1.0170 C.3   1 <1>   0.0200 
 25 C        3.1200     9.7260     1.7000 C.3   1 <1>  -0.1600 
 26 H       -0.9760     0.0930     0.8080 H     1 <1>   0.1500 
 27 H       -2.7610     4.6620     0.3140 H     1 <1>   0.1500 
 28 H        0.4420     4.4080     2.2460 H     1 <1>   0.0800 
 29 H       -1.1050     5.1340     2.4480 H     1 <1>   0.0800 
 30 H       -5.1600     0.4320    -0.0340 H     1 <1>   0.0800 
 31 H       -4.8230    -0.3590    -1.5610 H     1 <1>   0.0800 
 32 H       -4.1050     1.7940    -2.5460 H     1 <1>   0.0800 
 33 H       -5.7030     2.0120    -1.8590 H     1 <1>   0.0800 
 34 H        0.4400     7.2800    -1.3330 H     1 <1>   0.0800 
 35 H        1.2350     6.0560    -2.2750 H     1 <1>   0.0800 
 36 H        2.0280     3.9660     0.6210 H     1 <1>   0.0800 
 37 H        2.5280     4.3900    -0.9910 H     1 <1>   0.0800 
 38 H        1.0830     3.4300    -0.7600 H     1 <1>   0.0800 
 39 H        5.5590     7.7090    -1.3380 H     1 <1>   0.2700 
 40 H        1.6990     8.0740     1.8820 H     1 <1>   0.0800 
 41 H        1.1780     9.3290     0.7610 H     1 <1>   0.0800 
 42 H        4.9180    10.2420     0.5690 H     1 <1>   0.0800 
 43 H        5.1470     8.9140     1.7120 H     1 <1>   0.0800 
 44 H        3.1970     9.6280     2.7680 H     1 <1>   0.0800 
 45 H        2.8600    10.7430     1.4650 H     1 <1>   0.0800 
@<TRIPOS>BOND
  1   1   2  1   
  2   2   3  ar  
  3   2   4  ar  
  4   3   5  ar  
  5   3   6  1   
  6   4   7  ar  
  7   4  26  1   
  8   5   8  ar  
  9   5  27  1   
 10   6   9  1   
 11   6  28  1   
 12   6  29  1   
 13   7   8  ar  
 14   7  10  1   
 15   8  11  1   
 16   9  12  2   
 17   9  13  am  
 18  10  14  1   
 19  11  15  1   
 20  13  16  1   
 21  13  17  1   
 22  14  15  1   
 23  14  30  1   
 24  14  31  1   
 25  15  32  1   
 26  15  33  1   
 27  16  18  1   
 28  16  34  1   
 29  16  35  1   
 30  17  36  1   
 31  17  37  1   
 32  17  38  1   
 33  18  19  2   
 34  18  20  1   
 35  19  21  1   
 36  20  22  2   
 37  20  23  1   
 38  21  22  1   
 39  21  39  1   
 40  22  24  1   
 41  23  25  1   
 42  23  40  1   
 43  23  41  1   
 44  24  25  1   
 45  24  42  1   
 46  24  43  1   
 47  25  44  1   
 48  25  45  1   
@<TRIPOS>SUBSTRUCTURE
  1 ****  13 GROUP 4 **** **** 0

# MOE 2024.06 (io_trps.svl 2023.06)
