@<TRIPOS>MOLECULE
NONAME
52 56 1 0 0 
SMALL
USER_CHARGES


@<TRIPOS>ATOM
  1 S        0.4320     0.3980     2.1970 S.3   1 <1>  -0.0800 
  2 C        1.0940    -0.9320     1.2460 C.ar  1 <1>   0.2970 
  3 C        1.1630     1.5820     1.1180 C.2   1 <1>  -0.1400 
  4 N        0.8980    -2.1950     1.5570 N.ar  1 <1>  -0.5670 
  5 C        1.8150    -0.4570     0.1750 C.ar  1 <1>   0.0000 
  6 C        1.8550     0.9880     0.1340 C.2   1 <1>  -0.1810 
  7 C        0.9730     3.0600     1.3750 C.3   1 <1>   0.0200 
  8 C        1.4680    -3.0340     0.7090 C.ar  1 <1>   0.4770 
  9 C        2.3510    -1.4580    -0.6360 C.ar  1 <1>   0.4100 
 10 C        2.6040     1.8120    -0.9030 C.3   1 <1>   0.0210 
 11 C        1.4350     3.8470     0.1350 C.3   1 <1>  -0.1600 
 12 N        2.1910    -2.7340    -0.3700 N.ar  1 <1>  -0.6200 
 13 C        1.2940    -4.5280     1.0120 C.3   1 <1>   0.2540 
 14 N        3.0570    -1.2130    -1.7670 N.pl3 1 <1>  -0.9000 
 15 C        2.7440     3.2810    -0.4520 C.3   1 <1>  -0.1600 
 16 N        0.1190    -5.1690     0.3570 N.3   1 <1>  -0.8100 
 17 C        0.1770    -5.1080    -1.1070 C.3   1 <1>   0.1100 
 18 C       -0.0100    -6.5910     0.7010 C.3   1 <1>   0.1100 
 19 C       -0.8110    -6.1760    -1.5540 C.3   1 <1>   0.2000 
 20 C       -0.6020    -7.2970    -0.5360 C.3   1 <1>  -0.0800 
 21 O       -2.0820    -5.6700    -1.3650 O.3   1 <1>  -0.6800 
 22 C        0.3380    -8.3820    -1.0930 C.3   1 <1>  -0.0170 
 23 C        0.5530    -9.5120    -0.0980 C.ar  1 <1>   0.1670 
 24 N        1.6760    -9.4850     0.6030 N.ar  1 <1>  -0.6200 
 25 C       -0.4140   -10.5060     0.0370 C.ar  1 <1>   0.1600 
 26 C        1.7650   -10.5080     1.4370 C.ar  1 <1>   0.1600 
 27 N       -0.3270   -11.5280     0.8720 N.ar  1 <1>  -0.6200 
 28 C        0.7970   -11.4960     1.5670 C.ar  1 <1>   0.1600 
 29 H       -0.0610     3.2720     1.5810 H     1 <1>   0.0800 
 30 H        1.5590     3.3410     2.2330 H     1 <1>   0.0800 
 31 H        3.5870     1.4020    -1.0540 H     1 <1>   0.0800 
 32 H        2.0660     1.7690    -1.8330 H     1 <1>   0.0800 
 33 H        0.6660     3.7910    -0.6170 H     1 <1>   0.0800 
 34 H        1.5650     4.8820     0.3960 H     1 <1>   0.0800 
 35 H        1.1930    -4.6390     2.0770 H     1 <1>   0.0800 
 36 H        2.1930    -5.0390     0.7150 H     1 <1>   0.0800 
 37 H        3.2950    -2.0270    -2.3350 H     1 <1>   0.4000 
 38 H        2.9210    -0.3440    -2.2810 H     1 <1>   0.4000 
 39 H        3.5120     3.3400     0.3010 H     1 <1>   0.0800 
 40 H        3.0590     3.8820    -1.2880 H     1 <1>   0.0800 
 41 H       -0.0890    -4.1320    -1.4760 H     1 <1>   0.0800 
 42 H        1.1670    -5.3620    -1.4490 H     1 <1>   0.0800 
 43 H        0.9530    -7.0030     0.9500 H     1 <1>   0.0800 
 44 H       -0.6610    -6.6990     1.5520 H     1 <1>   0.0800 
 45 H       -0.7040    -6.4720    -2.5830 H     1 <1>   0.0800 
 46 H       -1.5420    -7.7560    -0.2850 H     1 <1>   0.0800 
 47 H       -2.0590    -5.1920    -0.5070 H     1 <1>   0.4000 
 48 H        1.2900    -7.9500    -1.3500 H     1 <1>   0.0800 
 49 H       -0.0840    -8.7900    -1.9930 H     1 <1>   0.0800 
 50 H       -1.2990   -10.4520    -0.5710 H     1 <1>   0.1500 
 51 H        2.6490   -10.5680     2.0480 H     1 <1>   0.1500 
 52 H        0.9600   -12.2900     2.2740 H     1 <1>   0.1500 
@<TRIPOS>BOND
  1   1   2  1   
  2   1   3  1   
  3   2   4  ar  
  4   2   5  ar  
  5   3   6  2   
  6   3   7  1   
  7   4   8  ar  
  8   5   6  1   
  9   5   9  ar  
 10   6  10  1   
 11   7  11  1   
 12   7  29  1   
 13   7  30  1   
 14   8  12  ar  
 15   8  13  1   
 16   9  12  ar  
 17   9  14  1   
 18  10  15  1   
 19  10  31  1   
 20  10  32  1   
 21  11  15  1   
 22  11  33  1   
 23  11  34  1   
 24  13  16  1   
 25  13  35  1   
 26  13  36  1   
 27  14  37  1   
 28  14  38  1   
 29  15  39  1   
 30  15  40  1   
 31  16  17  1   
 32  16  18  1   
 33  17  19  1   
 34  17  41  1   
 35  17  42  1   
 36  18  20  1   
 37  18  43  1   
 38  18  44  1   
 39  19  20  1   
 40  19  21  1   
 41  19  45  1   
 42  20  22  1   
 43  20  46  1   
 44  21  47  1   
 45  22  23  1   
 46  22  48  1   
 47  22  49  1   
 48  23  24  ar  
 49  23  25  ar  
 50  24  26  ar  
 51  25  27  ar  
 52  25  50  1   
 53  26  28  ar  
 54  26  51  1   
 55  27  28  ar  
 56  28  52  1   
@<TRIPOS>SUBSTRUCTURE
  1 ****  13 GROUP 4 **** **** 0

# MOE 2024.06 (io_trps.svl 2023.06)
