@<TRIPOS>MOLECULE
NONAME
44 45 1 0 0 
SMALL
USER_CHARGES


@<TRIPOS>ATOM
  1 O       -0.3240    -0.6160    -0.1160 O.2   1 <1>  -0.5700 
  2 C       -0.1020    -1.7190    -0.5740 C.2   1 <1>   0.5440 
  3 N       -1.0950    -2.2490    -1.3260 N.am  1 <1>  -0.8000 
  4 C        1.1610    -2.3880    -0.3580 C.ar  1 <1>   0.0860 
  5 C        1.2890    -3.7900    -0.2740 C.ar  1 <1>   0.4100 
  6 C        2.3200    -1.6350    -0.2350 C.ar  1 <1>  -0.1500 
  7 N        2.4580    -4.4120    -0.1400 N.ar  1 <1>  -0.6200 
  8 N        0.1920    -4.6270    -0.3100 N.pl3 1 <1>  -0.8690 
  9 C        3.5290    -2.2760    -0.0740 C.ar  1 <1>  -0.1430 
 10 C        3.5400    -3.6670    -0.0450 C.ar  1 <1>   0.1670 
 11 C        0.2650    -6.0670     0.0510 C.3   1 <1>   0.2090 
 12 C        4.7960    -1.4420     0.0650 C.3   1 <1>  -0.0970 
 13 C        4.8380    -4.4380     0.1130 C.3   1 <1>  -0.0970 
 14 C       -1.1000    -6.7540    -0.1170 C.3   1 <1>   0.2000 
 15 O       -2.0950    -5.9720     0.5020 O.3   1 <1>  -0.5600 
 16 C       -1.0830    -8.1760     0.4800 C.3   1 <1>   0.1400 
 17 C       -3.3920    -6.4810     0.3550 C.3   1 <1>   0.1200 
 18 N       -2.4480    -8.7880     0.4600 N.am  1 <1>  -0.6600 
 19 C       -3.5060    -7.8760     0.9900 C.3   1 <1>   0.1400 
 20 C       -2.7520   -10.0530     0.0280 C.2   1 <1>   0.5690 
 21 O       -3.8840   -10.4720     0.0170 O.2   1 <1>  -0.5700 
 22 C       -1.6640   -10.9830    -0.4550 C.3   1 <1>  -0.1790 
 23 H       -1.9450    -1.7120    -1.4930 H     1 <1>   0.3700 
 24 H       -1.0000    -3.1600    -1.7830 H     1 <1>   0.3700 
 25 H        2.2590    -0.5610    -0.2710 H     1 <1>   0.1500 
 26 H       -0.6970    -4.2250     0.0190 H     1 <1>   0.4000 
 27 H        0.5890    -6.1520     1.0730 H     1 <1>   0.0800 
 28 H        0.9940    -6.5560    -0.5730 H     1 <1>   0.0800 
 29 H        4.5590    -0.3980     0.1720 H     1 <1>   0.0800 
 30 H        5.4130    -1.5610    -0.8070 H     1 <1>   0.0800 
 31 H        5.3500    -1.7480     0.9340 H     1 <1>   0.0800 
 32 H        4.7030    -5.4590    -0.1940 H     1 <1>   0.0800 
 33 H        5.1400    -4.4270     1.1430 H     1 <1>   0.0800 
 34 H        5.6130    -4.0090    -0.4930 H     1 <1>   0.0800 
 35 H       -1.3260    -6.8100    -1.1680 H     1 <1>   0.0800 
 36 H       -0.7420    -8.1270     1.4990 H     1 <1>   0.0800 
 37 H       -0.3860    -8.7770    -0.0740 H     1 <1>   0.0800 
 38 H       -3.6320    -6.5230    -0.6930 H     1 <1>   0.0800 
 39 H       -4.0690    -5.7990     0.8380 H     1 <1>   0.0800 
 40 H       -4.4850    -8.2740     0.7890 H     1 <1>   0.0800 
 41 H       -3.3970    -7.7910     2.0570 H     1 <1>   0.0800 
 42 H       -0.9160   -11.0990     0.3050 H     1 <1>   0.0800 
 43 H       -1.2220   -10.5920    -1.3520 H     1 <1>   0.0800 
 44 H       -2.0850   -11.9480    -0.6720 H     1 <1>   0.0800 
@<TRIPOS>BOND
  1   1   2  2   
  2   2   3  am  
  3   2   4  1   
  4   3  23  1   
  5   3  24  1   
  6   4   5  ar  
  7   4   6  ar  
  8   5   7  ar  
  9   5   8  1   
 10   6   9  ar  
 11   6  25  1   
 12   7  10  ar  
 13   8  11  1   
 14   8  26  1   
 15   9  10  ar  
 16   9  12  1   
 17  10  13  1   
 18  11  14  1   
 19  11  27  1   
 20  11  28  1   
 21  12  29  1   
 22  12  30  1   
 23  12  31  1   
 24  13  32  1   
 25  13  33  1   
 26  13  34  1   
 27  14  15  1   
 28  14  16  1   
 29  14  35  1   
 30  15  17  1   
 31  16  18  1   
 32  16  36  1   
 33  16  37  1   
 34  17  19  1   
 35  17  38  1   
 36  17  39  1   
 37  18  19  1   
 38  18  20  am  
 39  19  40  1   
 40  19  41  1   
 41  20  21  2   
 42  20  22  1   
 43  22  42  1   
 44  22  43  1   
 45  22  44  1   
@<TRIPOS>SUBSTRUCTURE
  1 ****   8 GROUP 4 **** **** 0

# MOE 2024.06 (io_trps.svl 2023.06)
