@<TRIPOS>MOLECULE
NONAME
43 45 1 0 0 
SMALL
USER_CHARGES


@<TRIPOS>ATOM
  1 S        0.7630     0.1040     1.2660 S.3   1 <1>  -0.0800 
  2 C        0.3320    -1.5830     1.4190 C.2   1 <1>  -0.1100 
  3 C        1.5190    -0.1920    -0.2850 C.2   1 <1>  -0.1100 
  4 C        0.7290    -2.3110     0.3450 C.2   1 <1>  -0.0860 
  5 C        1.4180    -1.4910    -0.6190 C.2   1 <1>  -0.1500 
  6 C        0.5330    -3.7330     0.1350 C.2   1 <1>   0.7160 
  7 O        1.3370    -4.3640    -0.5250 O.2   1 <1>  -0.5700 
  8 N       -0.5590    -4.3940     0.6520 N.am  1 <1>  -0.6600 
  9 C       -0.5990    -5.8880     0.7410 C.3   1 <1>   0.1400 
 10 C       -1.9160    -3.7720     0.7350 C.3   1 <1>   0.1400 
 11 C       -1.6450    -6.4690    -0.2230 C.3   1 <1>   0.3440 
 12 C       -2.9100    -4.4730    -0.2210 C.3   1 <1>   0.2000 
 13 O       -2.8870    -5.8560     0.0050 O.3   1 <1>  -0.5600 
 14 C       -1.7730    -7.9780    -0.0330 C.ar  1 <1>  -0.1440 
 15 C       -4.3670    -3.9820    -0.0510 C.3   1 <1>  -0.0800 
 16 C       -2.6620    -8.5230     0.8850 C.ar  1 <1>  -0.1500 
 17 C       -0.9740    -8.8310    -0.7820 C.ar  1 <1>  -0.1500 
 18 C       -5.3250    -4.7270    -0.9960 C.3   1 <1>  -0.2400 
 19 C       -4.5060    -2.4700    -0.3030 C.3   1 <1>  -0.2400 
 20 C       -2.7500    -9.8940     1.0520 C.ar  1 <1>  -0.1500 
 21 C       -1.0610   -10.2020    -0.6170 C.ar  1 <1>  -0.1500 
 22 C       -1.9490   -10.7350     0.3010 C.ar  1 <1>  -0.1500 
 23 H       -0.1820    -1.8810     2.3150 H     1 <1>   0.1500 
 24 H        1.9670     0.6480    -0.7870 H     1 <1>   0.1500 
 25 H        1.8090    -1.9320    -1.5210 H     1 <1>   0.1500 
 26 H        0.3640    -6.3110     0.5150 H     1 <1>   0.0800 
 27 H       -0.8520    -6.1770     1.7460 H     1 <1>   0.0800 
 28 H       -2.2790    -3.8460     1.7450 H     1 <1>   0.0800 
 29 H       -1.8610    -2.7310     0.4730 H     1 <1>   0.0800 
 30 H       -1.3550    -6.2640    -1.2390 H     1 <1>   0.0800 
 31 H       -2.6030    -4.3000    -1.2390 H     1 <1>   0.0800 
 32 H       -4.6710    -4.1810     0.9630 H     1 <1>   0.0800 
 33 H       -3.2920    -7.8770     1.4720 H     1 <1>   0.1500 
 34 H       -0.2780    -8.4310    -1.4990 H     1 <1>   0.1500 
 35 H       -5.0430    -4.5720    -2.0220 H     1 <1>   0.0800 
 36 H       -6.3350    -4.3820    -0.8590 H     1 <1>   0.0800 
 37 H       -5.3080    -5.7840    -0.7940 H     1 <1>   0.0800 
 38 H       -4.1480    -2.2150    -1.2850 H     1 <1>   0.0800 
 39 H       -3.9590    -1.9010     0.4270 H     1 <1>   0.0800 
 40 H       -5.5390    -2.1770    -0.2330 H     1 <1>   0.0800 
 41 H       -3.4430   -10.3040     1.7640 H     1 <1>   0.1500 
 42 H       -0.4370   -10.8550    -1.2020 H     1 <1>   0.1500 
 43 H       -2.0170   -11.8010     0.4290 H     1 <1>   0.1500 
@<TRIPOS>BOND
  1   1   2  1   
  2   1   3  1   
  3   2   4  2   
  4   2  23  1   
  5   3   5  2   
  6   3  24  1   
  7   4   5  1   
  8   4   6  1   
  9   5  25  1   
 10   6   7  2   
 11   6   8  am  
 12   8   9  1   
 13   8  10  1   
 14   9  11  1   
 15   9  26  1   
 16   9  27  1   
 17  10  12  1   
 18  10  28  1   
 19  10  29  1   
 20  11  13  1   
 21  11  14  1   
 22  11  30  1   
 23  12  13  1   
 24  12  15  1   
 25  12  31  1   
 26  14  16  ar  
 27  14  17  ar  
 28  15  18  1   
 29  15  19  1   
 30  15  32  1   
 31  16  20  ar  
 32  16  33  1   
 33  17  21  ar  
 34  17  34  1   
 35  18  35  1   
 36  18  36  1   
 37  18  37  1   
 38  19  38  1   
 39  19  39  1   
 40  19  40  1   
 41  20  22  ar  
 42  20  41  1   
 43  21  22  ar  
 44  21  42  1   
 45  22  43  1   
@<TRIPOS>SUBSTRUCTURE
  1 ****   8 GROUP 4 **** **** 0

# MOE 2024.06 (io_trps.svl 2023.06)
