@<TRIPOS>MOLECULE
NONAME
52 53 1 0 0 
SMALL
USER_CHARGES


@<TRIPOS>ATOM
  1 S       -0.1470     0.1020     1.5280 S.o2  1 <1>   1.3330 
  2 O        0.9010    -0.7980     1.9480 O.2   1 <1>  -0.6500 
  3 O       -0.5360     1.2230     2.3540 O.2   1 <1>  -0.6500 
  4 N        0.2300     0.6840    -0.0220 N.am  1 <1>  -0.8490 
  5 C       -1.6420    -0.8500     1.2280 C.3   1 <1>  -0.0550 
  6 C        1.0450    -0.2530    -0.8070 C.3   1 <1>   0.1160 
  7 C        0.9090     1.9850     0.0310 C.3   1 <1>   0.1160 
  8 C       -2.8080     0.0100     0.7000 C.3   1 <1>  -0.1600 
  9 C       -4.0870    -0.8080     0.5300 C.3   1 <1>   0.3430 
 10 N       -5.2210     0.0870     0.1750 N.4   1 <1>  -0.9590 
 11 C       -6.5440    -0.5970     0.4040 C.3   1 <1>   0.3430 
 12 C       -5.1290     0.6350    -1.2090 C.3   1 <1>   0.3430 
 13 C       -7.7530     0.1440    -0.2190 C.3   1 <1>   0.0000 
 14 C       -6.1450     1.7690    -1.3770 C.3   1 <1>  -0.1600 
 15 C       -8.9690    -0.0400     0.7140 C.3   1 <1>   0.2000 
 16 C       -7.4000     1.6270    -0.4930 C.3   1 <1>  -0.1600 
 17 C       -8.2010    -0.5860    -1.4990 C.3   1 <1>  -0.1600 
 18 O       -9.9560     0.8780     0.3540 O.3   1 <1>  -0.5600 
 19 C       -9.4780    -1.4540     0.4110 C.3   1 <1>  -0.1600 
 20 C       -9.0730    -1.7590    -1.0370 C.3   1 <1>  -0.1600 
 21 C      -10.9050     1.1600     1.3350 C.3   1 <1>   0.0400 
 22 H       -1.4220    -1.6320     0.5260 H     1 <1>   0.0800 
 23 H       -1.9340    -1.3120     2.1510 H     1 <1>   0.0800 
 24 H        1.1870     0.1250    -1.8050 H     1 <1>   0.0800 
 25 H        0.5560    -1.2100    -0.8720 H     1 <1>   0.0800 
 26 H        2.0100    -0.3920    -0.3460 H     1 <1>   0.0800 
 27 H        1.1320     2.3330    -0.9630 H     1 <1>   0.0800 
 28 H        1.8270     1.9060     0.5920 H     1 <1>   0.0800 
 29 H        0.2770     2.7150     0.5080 H     1 <1>   0.0800 
 30 H       -2.9850     0.8080     1.4020 H     1 <1>   0.0800 
 31 H       -2.5110     0.4420    -0.2400 H     1 <1>   0.0800 
 32 H       -4.3040    -1.3080     1.4610 H     1 <1>   0.0800 
 33 H       -3.9520    -1.5580    -0.2330 H     1 <1>   0.0800 
 34 H       -5.1980     0.9040     0.8010 H     1 <1>   0.4500 
 35 H       -6.5120    -1.5950    -0.0030 H     1 <1>   0.0800 
 36 H       -6.7020    -0.6890     1.4660 H     1 <1>   0.0800 
 37 H       -4.1400     1.0120    -1.4110 H     1 <1>   0.0800 
 38 H       -5.3430    -0.1480    -1.9180 H     1 <1>   0.0800 
 39 H       -5.6700     2.7120    -1.1670 H     1 <1>   0.0800 
 40 H       -6.4410     1.7970    -2.4110 H     1 <1>   0.0800 
 41 H       -8.7190     0.1070     1.7510 H     1 <1>   0.0800 
 42 H       -8.2240     2.1350    -0.9670 H     1 <1>   0.0800 
 43 H       -7.2310     2.1210     0.4490 H     1 <1>   0.0800 
 44 H       -8.8190     0.0770    -2.0830 H     1 <1>   0.0800 
 45 H       -7.3860    -0.9180    -2.1170 H     1 <1>   0.0800 
 46 H       -8.9970    -2.1560     1.0690 H     1 <1>   0.0800 
 47 H      -10.5420    -1.5410     0.5480 H     1 <1>   0.0800 
 48 H       -8.5320    -2.6880    -1.0870 H     1 <1>   0.0800 
 49 H       -9.9460    -1.8380    -1.6640 H     1 <1>   0.0800 
 50 H      -11.6130     1.8570     0.9220 H     1 <1>   0.0800 
 51 H      -10.4180     1.6040     2.1850 H     1 <1>   0.0800 
 52 H      -11.4160     0.2570     1.6190 H     1 <1>   0.0800 
@<TRIPOS>BOND
  1   1   2  2   
  2   1   3  2   
  3   1   4  am  
  4   1   5  1   
  5   4   6  1   
  6   4   7  1   
  7   5   8  1   
  8   5  22  1   
  9   5  23  1   
 10   6  24  1   
 11   6  25  1   
 12   6  26  1   
 13   7  27  1   
 14   7  28  1   
 15   7  29  1   
 16   8   9  1   
 17   8  30  1   
 18   8  31  1   
 19   9  10  1   
 20   9  32  1   
 21   9  33  1   
 22  10  11  1   
 23  10  12  1   
 24  10  34  1   
 25  11  13  1   
 26  11  35  1   
 27  11  36  1   
 28  12  14  1   
 29  12  37  1   
 30  12  38  1   
 31  13  15  1   
 32  13  16  1   
 33  13  17  1   
 34  14  16  1   
 35  14  39  1   
 36  14  40  1   
 37  15  18  1   
 38  15  19  1   
 39  15  41  1   
 40  16  42  1   
 41  16  43  1   
 42  17  20  1   
 43  17  44  1   
 44  17  45  1   
 45  18  21  1   
 46  19  20  1   
 47  19  46  1   
 48  19  47  1   
 49  20  48  1   
 50  20  49  1   
 51  21  50  1   
 52  21  51  1   
 53  21  52  1   
@<TRIPOS>SUBSTRUCTURE
  1 ****  10 GROUP 4 **** **** 0

# MOE 2024.06 (io_trps.svl 2023.06)
