@<TRIPOS>MOLECULE
NONAME
48 49 1 0 0 
SMALL
USER_CHARGES


@<TRIPOS>ATOM
  1 O       -1.0800    -0.1190     0.0950 O.2   1 <1>  -0.5700 
  2 C       -1.8740     0.7620     0.3270 C.2   1 <1>   0.5690 
  3 N       -2.9920     0.5100     1.0850 N.am  1 <1>  -0.6600 
  4 C       -1.5290     2.1310    -0.2570 C.3   1 <1>  -0.0190 
  5 C       -3.2640    -0.8950     1.5260 C.3   1 <1>   0.3200 
  6 C       -4.1200     1.4510     1.3740 C.3   1 <1>   0.1400 
  7 C       -1.1660     3.0560     0.9200 C.3   1 <1>   0.3430 
  8 C       -2.5720     2.6440    -1.2760 C.3   1 <1>  -0.2400 
  9 C       -3.8740    -1.6850     0.3820 C.2   1 <1>   0.0060 
 10 C       -5.2910     1.2510     0.4050 C.3   1 <1>   0.1200 
 11 N       -0.7800     4.4670     0.5680 N.4   1 <1>  -0.9590 
 12 N       -5.1170    -2.0410     0.3050 N.2   1 <1>  -0.5650 
 13 N       -3.1340    -2.0710    -0.6790 N.pl3 1 <1>   0.0330 
 14 O       -5.9250     2.4750     0.2350 O.3   1 <1>  -0.6800 
 15 C       -1.9620     5.3410     0.2960 C.3   1 <1>   0.3430 
 16 C        0.2480     4.5510    -0.5140 C.3   1 <1>   0.3430 
 17 C       -5.1900    -2.6980    -0.8690 C.2   1 <1>   0.0770 
 18 C       -3.9880    -2.7230    -1.4860 C.2   1 <1>  -0.3020 
 19 C       -1.5060     6.7960     0.1840 C.3   1 <1>  -0.1600 
 20 C        0.7370     5.9940    -0.6470 C.3   1 <1>  -0.1600 
 21 C       -0.4220     6.9700    -0.8880 C.3   1 <1>  -0.1600 
 22 H       -0.6230     1.9750    -0.8160 H     1 <1>   0.0800 
 23 H       -3.9410    -0.9010     2.3620 H     1 <1>   0.0800 
 24 H       -2.3500    -1.3680     1.8430 H     1 <1>   0.0800 
 25 H       -3.7830     2.4650     1.3070 H     1 <1>   0.0800 
 26 H       -4.4700     1.2940     2.3800 H     1 <1>   0.0800 
 27 H       -0.3420     2.5960     1.4420 H     1 <1>   0.0800 
 28 H       -1.9890     3.0850     1.6130 H     1 <1>   0.0800 
 29 H       -3.4470     3.0430    -0.8000 H     1 <1>   0.0800 
 30 H       -2.8800     1.8350    -1.9170 H     1 <1>   0.0800 
 31 H       -2.1500     3.4060    -1.9060 H     1 <1>   0.0800 
 32 H       -6.0000     0.5450     0.8030 H     1 <1>   0.0800 
 33 H       -4.9490     0.9160    -0.5590 H     1 <1>   0.0800 
 34 H       -0.3340     4.8700     1.4030 H     1 <1>   0.4500 
 35 H       -2.1360    -1.8630    -0.8170 H     1 <1>   0.2700 
 36 H       -6.7520     2.3550    -0.2770 H     1 <1>   0.4000 
 37 H       -2.6840     5.2500     1.0930 H     1 <1>   0.0800 
 38 H       -2.4370     5.0510    -0.6250 H     1 <1>   0.0800 
 39 H       -0.1780     4.2310    -1.4510 H     1 <1>   0.0800 
 40 H        1.0830     3.9080    -0.2840 H     1 <1>   0.0800 
 41 H       -6.1170    -3.1250    -1.2140 H     1 <1>   0.1500 
 42 H       -3.7030    -3.1580    -2.4260 H     1 <1>   0.1500 
 43 H       -1.1390     7.1320     1.1380 H     1 <1>   0.0800 
 44 H       -2.3540     7.4110    -0.0660 H     1 <1>   0.0800 
 45 H        1.4290     6.0550    -1.4690 H     1 <1>   0.0800 
 46 H        1.2730     6.2740     0.2430 H     1 <1>   0.0800 
 47 H       -0.0560     7.9840    -0.8760 H     1 <1>   0.0800 
 48 H       -0.8480     6.7890    -1.8610 H     1 <1>   0.0800 
@<TRIPOS>BOND
  1   1   2  2   
  2   2   3  am  
  3   2   4  1   
  4   3   5  1   
  5   3   6  1   
  6   4   7  1   
  7   4   8  1   
  8   4  22  1   
  9   5   9  1   
 10   5  23  1   
 11   5  24  1   
 12   6  10  1   
 13   6  25  1   
 14   6  26  1   
 15   7  11  1   
 16   7  27  1   
 17   7  28  1   
 18   8  29  1   
 19   8  30  1   
 20   8  31  1   
 21   9  12  2   
 22   9  13  1   
 23  10  14  1   
 24  10  32  1   
 25  10  33  1   
 26  11  15  1   
 27  11  16  1   
 28  11  34  1   
 29  12  17  1   
 30  13  18  1   
 31  13  35  1   
 32  14  36  1   
 33  15  19  1   
 34  15  37  1   
 35  15  38  1   
 36  16  20  1   
 37  16  39  1   
 38  16  40  1   
 39  17  18  2   
 40  17  41  1   
 41  18  42  1   
 42  19  21  1   
 43  19  43  1   
 44  19  44  1   
 45  20  21  1   
 46  20  45  1   
 47  20  46  1   
 48  21  47  1   
 49  21  48  1   
@<TRIPOS>SUBSTRUCTURE
  1 ****   4 GROUP 4 **** **** 0

# MOE 2024.06 (io_trps.svl 2023.06)
