@<TRIPOS>MOLECULE
NONAME
53 56 1 0 0 
SMALL
USER_CHARGES


@<TRIPOS>ATOM
  1 O       -0.6940     0.4830    -0.2970 O.2   1 <1>  -0.5700 
  2 C       -1.8350     0.7840     0.0020 C.2   1 <1>   0.5440 
  3 N       -2.8080    -0.2030    -0.0460 N.am  1 <1>  -0.6600 
  4 C       -2.1000     2.1560     0.3930 C.ar  1 <1>   0.0860 
  5 C       -4.2400    -0.0460    -0.4500 C.3   1 <1>   0.2200 
  6 C       -2.3870    -1.6300     0.0590 C.3   1 <1>   0.0600 
  7 C       -1.8020     3.2110    -0.4780 C.ar  1 <1>  -0.1500 
  8 C       -2.6300     2.4740     1.6490 C.ar  1 <1>  -0.1500 
  9 C       -4.5080     1.0230    -1.5170 C.3   1 <1>  -0.1600 
 10 C       -5.1440     0.2450     0.7470 C.3   1 <1>  -0.1600 
 11 C       -2.0910     4.5110    -0.1160 C.ar  1 <1>  -0.1430 
 12 C       -2.9250     3.7790     2.0090 C.ar  1 <1>  -0.1500 
 13 C       -5.7790     1.7720    -1.0940 C.3   1 <1>  -0.0800 
 14 C       -6.2160     1.2360     0.2710 C.3   1 <1>  -0.0800 
 15 C       -2.6620     4.7840     1.0980 C.ar  1 <1>   0.0820 
 16 C       -1.8830     5.8040    -0.8470 C.3   1 <1>  -0.0170 
 17 C       -5.5940     3.2810    -0.8990 C.3   1 <1>  -0.1600 
 18 C       -6.3900     2.4660     1.1790 C.3   1 <1>  -0.1600 
 19 O       -2.9080     6.0860     1.2780 O.3   1 <1>  -0.3620 
 20 C       -2.3790     6.8310     0.1880 C.3   1 <1>   0.1200 
 21 C       -6.5320     3.6710     0.2450 C.3   1 <1>   0.4230 
 22 N       -7.9460     3.8010    -0.2340 N.4   1 <1>  -0.9590 
 23 C       -8.1060     4.8430    -1.2980 C.3   1 <1>   0.2630 
 24 C       -8.8970     4.1160     0.8810 C.3   1 <1>   0.2630 
 25 H       -4.5730    -0.9790    -0.8750 H     1 <1>   0.0800 
 26 H       -3.1000    -2.1850     0.6440 H     1 <1>   0.0800 
 27 H       -1.4250    -1.7050     0.5370 H     1 <1>   0.0800 
 28 H       -2.3170    -2.0600    -0.9240 H     1 <1>   0.0800 
 29 H       -1.3450     2.9930    -1.4280 H     1 <1>   0.1500 
 30 H       -2.7970     1.6790     2.3530 H     1 <1>   0.1500 
 31 H       -3.6840     1.6920    -1.6530 H     1 <1>   0.0800 
 32 H       -4.6760     0.5340    -2.4600 H     1 <1>   0.0800 
 33 H       -5.6050    -0.6660     1.0850 H     1 <1>   0.0800 
 34 H       -4.5720     0.6410     1.5600 H     1 <1>   0.0800 
 35 H       -3.3340     4.0220     2.9730 H     1 <1>   0.1500 
 36 H       -6.5610     1.5910    -1.8130 H     1 <1>   0.0800 
 37 H       -7.1550     0.7190     0.1590 H     1 <1>   0.0800 
 38 H       -2.4720     5.8440    -1.7450 H     1 <1>   0.0800 
 39 H       -0.8450     5.9610    -1.0810 H     1 <1>   0.0800 
 40 H       -5.7230     3.8360    -1.8090 H     1 <1>   0.0800 
 41 H       -4.5950     3.4680    -0.5550 H     1 <1>   0.0800 
 42 H       -5.4940     2.6240     1.7510 H     1 <1>   0.0800 
 43 H       -7.1920     2.3400     1.8820 H     1 <1>   0.0800 
 44 H       -3.1550     7.4610    -0.2070 H     1 <1>   0.0800 
 45 H       -1.5670     7.4300     0.5620 H     1 <1>   0.0800 
 46 H       -6.2070     4.5830     0.7230 H     1 <1>   0.0800 
 47 H       -8.1960     2.8850    -0.6320 H     1 <1>   0.4500 
 48 H       -7.7480     5.7970    -0.9450 H     1 <1>   0.0800 
 49 H       -9.1450     4.9440    -1.5680 H     1 <1>   0.0800 
 50 H       -7.5560     4.5720    -2.1830 H     1 <1>   0.0800 
 51 H       -8.6060     5.0290     1.3750 H     1 <1>   0.0800 
 52 H       -8.9140     3.3210     1.6070 H     1 <1>   0.0800 
 53 H       -9.8970     4.2370     0.4950 H     1 <1>   0.0800 
@<TRIPOS>BOND
  1   1   2  2   
  2   2   3  am  
  3   2   4  1   
  4   3   5  1   
  5   3   6  1   
  6   4   7  ar  
  7   4   8  ar  
  8   5   9  1   
  9   5  10  1   
 10   5  25  1   
 11   6  26  1   
 12   6  27  1   
 13   6  28  1   
 14   7  11  ar  
 15   7  29  1   
 16   8  12  ar  
 17   8  30  1   
 18   9  13  1   
 19   9  31  1   
 20   9  32  1   
 21  10  14  1   
 22  10  33  1   
 23  10  34  1   
 24  11  15  ar  
 25  11  16  1   
 26  12  15  ar  
 27  12  35  1   
 28  13  14  1   
 29  13  17  1   
 30  13  36  1   
 31  14  18  1   
 32  14  37  1   
 33  15  19  1   
 34  16  20  1   
 35  16  38  1   
 36  16  39  1   
 37  17  21  1   
 38  17  40  1   
 39  17  41  1   
 40  18  21  1   
 41  18  42  1   
 42  18  43  1   
 43  19  20  1   
 44  20  44  1   
 45  20  45  1   
 46  21  22  1   
 47  21  46  1   
 48  22  23  1   
 49  22  24  1   
 50  22  47  1   
 51  23  48  1   
 52  23  49  1   
 53  23  50  1   
 54  24  51  1   
 55  24  52  1   
 56  24  53  1   
@<TRIPOS>SUBSTRUCTURE
  1 ****  17 GROUP 4 **** **** 0

# MOE 2024.06 (io_trps.svl 2023.06)
