@<TRIPOS>MOLECULE
NONAME
42 44 1 0 0 
SMALL
USER_CHARGES


@<TRIPOS>ATOM
  1 O        1.4190    -0.6600     1.9680 O.3   1 <1>  -0.0190 
  2 N        1.5880     0.6240     1.8820 N.2   1 <1>  -0.4100 
  3 C        1.5010    -1.0740     0.7280 C.2   1 <1>   0.2980 
  4 C        1.7620     0.9010     0.6490 C.2   1 <1>   0.3350 
  5 N        1.7020    -0.1650    -0.1420 N.2   1 <1>  -0.5650 
  6 C        1.3610    -2.5650     0.4420 C.3   1 <1>   0.2900 
  7 C        1.9890     2.3070     0.1000 C.3   1 <1>   0.3010 
  8 N       -0.0030    -3.0840     0.6990 N.3   1 <1>  -0.8100 
  9 O        3.3300     2.5010    -0.2640 O.3   1 <1>  -0.5600 
 10 C       -1.0350    -2.4000    -0.0970 C.3   1 <1>   0.1100 
 11 C       -0.1340    -4.5240     0.4160 C.3   1 <1>   0.1100 
 12 C        3.6040     3.7600    -0.7840 C.3   1 <1>   0.0400 
 13 C       -2.2040    -3.3760    -0.1050 C.3   1 <1>   0.2000 
 14 C       -1.4920    -4.7180    -0.2800 C.3   1 <1>  -0.0800 
 15 O       -2.7910    -3.3220     1.1460 O.3   1 <1>  -0.6800 
 16 C       -2.2730    -5.9530     0.2050 C.3   1 <1>  -0.0170 
 17 C       -1.4890    -7.2300    -0.0630 C.ar  1 <1>  -0.1430 
 18 C       -0.8140    -7.8970     0.9400 C.ar  1 <1>  -0.1500 
 19 C       -1.4080    -7.7840    -1.3240 C.ar  1 <1>  -0.1500 
 20 C       -0.1040    -9.0480     0.6390 C.ar  1 <1>   0.1600 
 21 C       -0.6700    -8.9390    -1.5190 C.ar  1 <1>   0.1600 
 22 N       -0.0120    -9.5820    -0.5670 N.ar  1 <1>  -0.6200 
 23 H        2.0620    -3.0950     1.0620 H     1 <1>   0.0800 
 24 H        1.6260    -2.7400    -0.5870 H     1 <1>   0.0800 
 25 H        1.7340     3.0300     0.8540 H     1 <1>   0.0800 
 26 H        1.3730     2.4530    -0.7680 H     1 <1>   0.0800 
 27 H       -1.3070    -1.4510     0.3330 H     1 <1>   0.0800 
 28 H       -0.6870    -2.2480    -1.1060 H     1 <1>   0.0800 
 29 H        0.6580    -4.8800    -0.2230 H     1 <1>   0.0800 
 30 H       -0.0970    -5.0630     1.3470 H     1 <1>   0.0800 
 31 H        4.6520     3.8000    -1.0260 H     1 <1>   0.0800 
 32 H        3.3750     4.5090    -0.0460 H     1 <1>   0.0800 
 33 H        3.0220     3.9120    -1.6770 H     1 <1>   0.0800 
 34 H       -2.9470    -3.1690    -0.8560 H     1 <1>   0.0800 
 35 H       -1.2940    -4.8400    -1.3300 H     1 <1>   0.0800 
 36 H       -2.0550    -3.2470     1.7910 H     1 <1>   0.4000 
 37 H       -3.2190    -6.0010    -0.3060 H     1 <1>   0.0800 
 38 H       -2.4800    -5.8740     1.2580 H     1 <1>   0.0800 
 39 H       -0.8330    -7.5340     1.9510 H     1 <1>   0.1500 
 40 H       -1.9120    -7.3280    -2.1570 H     1 <1>   0.1500 
 41 H        0.4150    -9.5560     1.4340 H     1 <1>   0.1500 
 42 H       -0.6190    -9.3580    -2.5090 H     1 <1>   0.1500 
@<TRIPOS>BOND
  1   1   2  1   
  2   1   3  1   
  3   2   4  2   
  4   3   5  2   
  5   3   6  1   
  6   4   5  1   
  7   4   7  1   
  8   6   8  1   
  9   6  23  1   
 10   6  24  1   
 11   7   9  1   
 12   7  25  1   
 13   7  26  1   
 14   8  10  1   
 15   8  11  1   
 16   9  12  1   
 17  10  13  1   
 18  10  27  1   
 19  10  28  1   
 20  11  14  1   
 21  11  29  1   
 22  11  30  1   
 23  12  31  1   
 24  12  32  1   
 25  12  33  1   
 26  13  14  1   
 27  13  15  1   
 28  13  34  1   
 29  14  16  1   
 30  14  35  1   
 31  15  36  1   
 32  16  17  1   
 33  16  37  1   
 34  16  38  1   
 35  17  18  ar  
 36  17  19  ar  
 37  18  20  ar  
 38  18  39  1   
 39  19  21  ar  
 40  19  40  1   
 41  20  22  ar  
 42  20  41  1   
 43  21  22  ar  
 44  21  42  1   
@<TRIPOS>SUBSTRUCTURE
  1 ****   8 GROUP 4 **** **** 0

# MOE 2024.06 (io_trps.svl 2023.06)
