@<TRIPOS>MOLECULE
NONAME
40 42 1 0 0 
SMALL
USER_CHARGES


@<TRIPOS>ATOM
  1 S        1.3750     0.0180     1.2660 S.3   1 <1>  -0.4600 
  2 C        2.9650     0.5470     0.5380 C.3   1 <1>   0.1310 
  3 C        0.3700    -0.3670    -0.1950 C.3   1 <1>   0.1650 
  4 C        2.7640     1.6730    -0.4720 C.2   1 <1>   0.5690 
  5 C       -0.9360    -0.9960     0.2910 C.3   1 <1>  -0.1950 
  6 O        2.7680     1.3650    -1.6420 O.2   1 <1>  -0.5700 
  7 N        2.5930     2.9730    -0.0680 N.am  1 <1>  -0.6600 
  8 C       -1.0160    -2.4540     0.6140 C.3   1 <1>  -0.2000 
  9 C       -1.7210    -1.9090    -0.5970 C.3   1 <1>  -0.2000 
 10 C        2.5460     4.0800    -1.0630 C.3   1 <1>   0.2840 
 11 C        2.5230     3.4180     1.3570 C.3   1 <1>   0.0600 
 12 C        3.7930     4.9390    -0.9260 C.ar  1 <1>  -0.1440 
 13 C        3.7560     6.1110    -0.1900 C.ar  1 <1>  -0.1500 
 14 C        4.9790     4.5510    -1.5270 C.ar  1 <1>  -0.1500 
 15 C        4.8830     6.9180    -0.0210 C.ar  1 <1>   0.0410 
 16 C        6.1110     5.3340    -1.3880 C.ar  1 <1>  -0.1500 
 17 C        4.8270     8.1290     0.7780 C.2   1 <1>   0.6960 
 18 C        6.0600     6.4990    -0.6460 C.ar  1 <1>  -0.1500 
 19 N        5.8180     8.9500     0.9500 N.2   1 <1>  -0.6190 
 20 N        3.7720     8.5320     1.4300 N.2   1 <1>  -0.6190 
 21 N        5.3820     9.8810     1.7180 N.2   1 <1>  -0.2500 
 22 N        4.1370     9.6270     2.0100 N.2   1 <1>  -0.2500 
 23 H        3.3890    -0.3120     0.0540 H     1 <1>   0.0800 
 24 H        3.6040     0.8580     1.3430 H     1 <1>   0.0800 
 25 H        0.9360    -1.0440    -0.8110 H     1 <1>   0.0800 
 26 H        0.1910     0.5530    -0.7240 H     1 <1>   0.0800 
 27 H       -1.4960    -0.3240     0.9180 H     1 <1>   0.1000 
 28 H       -1.5980    -2.7570     1.4670 H     1 <1>   0.1000 
 29 H       -0.1390    -3.0630     0.4780 H     1 <1>   0.1000 
 30 H       -1.3350    -2.1610    -1.5700 H     1 <1>   0.1000 
 31 H       -2.7950    -1.8460    -0.5830 H     1 <1>   0.1000 
 32 H        1.6660     4.6750    -0.8920 H     1 <1>   0.0800 
 33 H        2.4870     3.6940    -2.0660 H     1 <1>   0.0800 
 34 H        2.2480     2.6100     2.0090 H     1 <1>   0.0800 
 35 H        1.7870     4.1960     1.4610 H     1 <1>   0.0800 
 36 H        3.4800     3.8070     1.6620 H     1 <1>   0.0800 
 37 H        2.8380     6.4220     0.2800 H     1 <1>   0.1500 
 38 H        5.0200     3.6380    -2.0970 H     1 <1>   0.1500 
 39 H        7.0330     5.0360    -1.8560 H     1 <1>   0.1500 
 40 H        6.9430     7.1060    -0.5360 H     1 <1>   0.1500 
@<TRIPOS>BOND
  1   1   2  1   
  2   1   3  1   
  3   2   4  1   
  4   2  23  1   
  5   2  24  1   
  6   3   5  1   
  7   3  25  1   
  8   3  26  1   
  9   4   6  2   
 10   4   7  am  
 11   5   8  1   
 12   5   9  1   
 13   5  27  1   
 14   7  10  1   
 15   7  11  1   
 16   8   9  1   
 17   8  28  1   
 18   8  29  1   
 19   9  30  1   
 20   9  31  1   
 21  10  12  1   
 22  10  32  1   
 23  10  33  1   
 24  11  34  1   
 25  11  35  1   
 26  11  36  1   
 27  12  13  ar  
 28  12  14  ar  
 29  13  15  ar  
 30  13  37  1   
 31  14  16  ar  
 32  14  38  1   
 33  15  17  1   
 34  15  18  ar  
 35  16  18  ar  
 36  16  39  1   
 37  17  19  1   
 38  17  20  2   
 39  18  40  1   
 40  19  21  1   
 41  20  22  1   
 42  21  22  2   
@<TRIPOS>SUBSTRUCTURE
  1 ****   7 GROUP 4 **** **** 0

# MOE 2024.06 (io_trps.svl 2023.06)
