@<TRIPOS>MOLECULE
NONAME
50 53 1 0 0 
SMALL
USER_CHARGES


@<TRIPOS>ATOM
  1 O        3.7320    -0.9130     0.7940 O.2   1 <1>  -0.5700 
  2 C        2.7650    -1.2420     0.1330 C.2   1 <1>   0.5440 
  3 N        2.2450    -0.3890    -0.8160 N.am  1 <1>  -0.4940 
  4 C        2.1560    -2.5440     0.3210 C.ar  1 <1>   0.0860 
  5 C        2.4240     0.9930    -1.0820 C.2   1 <1>  -0.0880 
  6 C        0.7720    -2.7230     0.2440 C.ar  1 <1>  -0.1500 
  7 C        2.9380    -3.6700     0.5810 C.ar  1 <1>  -0.1500 
  8 N        3.5580     1.7540    -1.0110 N.pl3 1 <1>   0.3140 
  9 C        1.4400     1.8290    -1.4900 C.2   1 <1>  -0.1500 
 10 C        0.1890    -3.9690     0.3990 C.ar  1 <1>  -0.1430 
 11 C        2.3690    -4.9190     0.7390 C.ar  1 <1>  -0.1500 
 12 N        3.3030     3.0440    -1.3470 N.2   1 <1>  -0.7070 
 13 C        4.9400     1.3410    -0.6580 C.3   1 <1>   0.1760 
 14 C        2.0390     3.0720    -1.6300 C.2   1 <1>   0.1390 
 15 C        0.9970    -5.0750     0.6480 C.ar  1 <1>   0.0830 
 16 C       -1.3200    -4.1280     0.3030 C.3   1 <1>  -0.0170 
 17 C        5.2650     1.8020     0.7700 C.3   1 <1>  -0.1600 
 18 C        5.9810     1.9010    -1.6400 C.3   1 <1>  -0.1600 
 19 O        0.4870    -6.3160     0.8010 O.3   1 <1>  -0.3630 
 20 C       -1.6860    -5.5900     0.0370 C.3   1 <1>  -0.1600 
 21 C        6.6700     1.3640     1.1560 C.3   1 <1>   0.3430 
 22 C        7.3870     1.4880    -1.2160 C.3   1 <1>   0.3430 
 23 C       -0.9020    -6.5010     0.9860 C.3   1 <1>   0.1200 
 24 N        7.6490     1.9380     0.1840 N.4   1 <1>  -0.9590 
 25 C        9.0500     1.6220     0.5950 C.3   1 <1>   0.2630 
 26 H        1.4690    -0.8030    -1.3360 H     1 <1>   0.3700 
 27 H        0.1380    -1.8710     0.0720 H     1 <1>   0.1500 
 28 H        4.0050    -3.5620     0.6610 H     1 <1>   0.1500 
 29 H        0.4040     1.6130    -1.6690 H     1 <1>   0.1500 
 30 H        2.9800    -5.7820     0.9350 H     1 <1>   0.1500 
 31 H        4.9920     0.2730    -0.7250 H     1 <1>   0.0800 
 32 H        1.5220     3.9660    -1.9390 H     1 <1>   0.1500 
 33 H       -1.7140    -3.5090    -0.4840 H     1 <1>   0.0800 
 34 H       -1.7590    -3.8120     1.2340 H     1 <1>   0.0800 
 35 H        4.5640     1.3720     1.4630 H     1 <1>   0.0800 
 36 H        5.1830     2.8730     0.8450 H     1 <1>   0.0800 
 37 H        5.9260     2.9750    -1.6820 H     1 <1>   0.0800 
 38 H        5.7830     1.5200    -2.6260 H     1 <1>   0.0800 
 39 H       -1.4430    -5.8530    -0.9780 H     1 <1>   0.0800 
 40 H       -2.7410    -5.7360     0.1780 H     1 <1>   0.0800 
 41 H        6.7250     0.2870     1.1490 H     1 <1>   0.0800 
 42 H        6.8900     1.7090     2.1540 H     1 <1>   0.0800 
 43 H        8.1070     1.9300    -1.8870 H     1 <1>   0.0800 
 44 H        7.4810     0.4150    -1.2770 H     1 <1>   0.0800 
 45 H       -1.1290    -6.2720     2.0130 H     1 <1>   0.0800 
 46 H       -1.1230    -7.5360     0.7960 H     1 <1>   0.0800 
 47 H        7.5250     2.9620     0.2020 H     1 <1>   0.4500 
 48 H        9.2100     0.5560     0.5910 H     1 <1>   0.0800 
 49 H        9.2410     1.9950     1.5890 H     1 <1>   0.0800 
 50 H        9.7510     2.0800    -0.0830 H     1 <1>   0.0800 
@<TRIPOS>BOND
  1   1   2  2   
  2   2   3  am  
  3   2   4  1   
  4   3   5  1   
  5   3  26  1   
  6   4   6  ar  
  7   4   7  ar  
  8   5   8  1   
  9   5   9  2   
 10   6  10  ar  
 11   6  27  1   
 12   7  11  ar  
 13   7  28  1   
 14   8  12  1   
 15   8  13  1   
 16   9  14  1   
 17   9  29  1   
 18  10  15  ar  
 19  10  16  1   
 20  11  15  ar  
 21  11  30  1   
 22  12  14  2   
 23  13  17  1   
 24  13  18  1   
 25  13  31  1   
 26  14  32  1   
 27  15  19  1   
 28  16  20  1   
 29  16  33  1   
 30  16  34  1   
 31  17  21  1   
 32  17  35  1   
 33  17  36  1   
 34  18  22  1   
 35  18  37  1   
 36  18  38  1   
 37  19  23  1   
 38  20  23  1   
 39  20  39  1   
 40  20  40  1   
 41  21  24  1   
 42  21  41  1   
 43  21  42  1   
 44  22  24  1   
 45  22  43  1   
 46  22  44  1   
 47  23  45  1   
 48  23  46  1   
 49  24  25  1   
 50  24  47  1   
 51  25  48  1   
 52  25  49  1   
 53  25  50  1   
@<TRIPOS>SUBSTRUCTURE
  1 ****   2 GROUP 4 **** **** 0

# MOE 2024.06 (io_trps.svl 2023.06)
