@<TRIPOS>MOLECULE
NONAME
49 51 1 0 0 
SMALL
USER_CHARGES


@<TRIPOS>ATOM
  1 O        2.0300     0.0770     1.1180 O.2   1 <1>  -0.5700 
  2 C        2.7250    -0.9170     0.9960 C.2   1 <1>   0.5440 
  3 N        4.0850    -0.7270     1.0620 N.am  1 <1>  -0.6600 
  4 C        2.1370    -2.2070     0.7200 C.ar  1 <1>   0.0860 
  5 C        4.6610     0.3060     2.0010 C.3   1 <1>   0.1400 
  6 C        4.9700    -1.2050    -0.0460 C.3   1 <1>   0.1400 
  7 C        0.8980    -2.3040     0.0910 C.ar  1 <1>   0.1600 
  8 C        2.7590    -3.4060     1.0560 C.ar  1 <1>  -0.1500 
  9 C        4.9660     1.6620     1.3120 C.3   1 <1>   0.4230 
 10 C        5.5090    -0.0850    -0.9750 C.3   1 <1>  -0.0800 
 11 N        0.2810    -3.4210    -0.2430 N.ar  1 <1>  -0.6200 
 12 C        2.1260    -4.5790     0.7250 C.ar  1 <1>  -0.1500 
 13 N        4.0870     1.7730     0.0920 N.4   1 <1>  -0.9590 
 14 C        6.4890     1.8360     1.0750 C.3   1 <1>   0.1200 
 15 C        6.9580     0.3100    -0.6540 C.3   1 <1>   0.1200 
 16 C        4.6360     1.1720    -1.1610 C.3   1 <1>   0.3430 
 17 C        0.8960    -4.5590     0.0690 C.ar  1 <1>   0.4100 
 18 C        3.6740     3.2170    -0.1560 C.3   1 <1>   0.2370 
 19 O        7.1020     0.6380     0.6840 O.3   1 <1>  -0.5600 
 20 N        0.2670    -5.7380    -0.2800 N.pl3 1 <1>  -0.8380 
 21 C        4.8390     4.1750    -0.4040 C.2   1 <1>   0.9060 
 22 C        1.0080    -6.8470    -0.9360 C.3   1 <1>   0.1290 
 23 C       -1.2120    -5.7790    -0.4520 C.3   1 <1>   0.1290 
 24 O        5.3320     4.7390     0.5760 O.co2 1 <1>  -0.9000 
 25 O        5.3380     4.2000    -1.5320 O.co2 1 <1>  -0.9000 
 26 H        3.9510     0.4900     2.7880 H     1 <1>   0.0800 
 27 H        5.5450    -0.0860     2.4730 H     1 <1>   0.0800 
 28 H        5.7960    -1.7500     0.3800 H     1 <1>   0.0800 
 29 H        4.4170    -1.9000    -0.6540 H     1 <1>   0.0800 
 30 H        0.3880    -1.3880    -0.1550 H     1 <1>   0.1500 
 31 H        3.7060    -3.4110     1.5670 H     1 <1>   0.1500 
 32 H        4.6820     2.4460     1.9930 H     1 <1>   0.0800 
 33 H        5.5740    -0.5230    -1.9550 H     1 <1>   0.0800 
 34 H        2.5610    -5.5270     0.9750 H     1 <1>   0.1500 
 35 H        3.2450     1.2220     0.3510 H     1 <1>   0.4500 
 36 H        6.9440     2.1180     2.0080 H     1 <1>   0.0800 
 37 H        6.7160     2.6090     0.3630 H     1 <1>   0.0800 
 38 H        7.2890     1.1420    -1.2560 H     1 <1>   0.0800 
 39 H        7.6140    -0.5220    -0.8410 H     1 <1>   0.0800 
 40 H        3.8090     0.9270    -1.8060 H     1 <1>   0.0800 
 41 H        5.2270     1.9130    -1.6760 H     1 <1>   0.0800 
 42 H        3.0270     3.2700    -1.0120 H     1 <1>   0.0800 
 43 H        3.1370     3.5900     0.6960 H     1 <1>   0.0800 
 44 H        0.5640    -7.0700    -1.8900 H     1 <1>   0.0800 
 45 H        0.9690    -7.7240    -0.3140 H     1 <1>   0.0800 
 46 H        2.0360    -6.5730    -1.0970 H     1 <1>   0.0800 
 47 H       -1.5830    -6.7630    -0.2260 H     1 <1>   0.0800 
 48 H       -1.4660    -5.5230    -1.4660 H     1 <1>   0.0800 
 49 H       -1.6820    -5.0740     0.2120 H     1 <1>   0.0800 
@<TRIPOS>BOND
  1   1   2  2   
  2   2   3  am  
  3   2   4  1   
  4   3   5  1   
  5   3   6  1   
  6   4   7  ar  
  7   4   8  ar  
  8   5   9  1   
  9   5  26  1   
 10   5  27  1   
 11   6  10  1   
 12   6  28  1   
 13   6  29  1   
 14   7  11  ar  
 15   7  30  1   
 16   8  12  ar  
 17   8  31  1   
 18   9  13  1   
 19   9  14  1   
 20   9  32  1   
 21  10  15  1   
 22  10  16  1   
 23  10  33  1   
 24  11  17  ar  
 25  12  17  ar  
 26  12  34  1   
 27  13  16  1   
 28  13  18  1   
 29  13  35  1   
 30  14  19  1   
 31  14  36  1   
 32  14  37  1   
 33  15  19  1   
 34  15  38  1   
 35  15  39  1   
 36  16  40  1   
 37  16  41  1   
 38  17  20  1   
 39  18  21  1   
 40  18  42  1   
 41  18  43  1   
 42  20  22  1   
 43  20  23  1   
 44  21  24  ar  
 45  21  25  ar  
 46  22  44  1   
 47  22  45  1   
 48  22  46  1   
 49  23  47  1   
 50  23  48  1   
 51  23  49  1   
@<TRIPOS>SUBSTRUCTURE
  1 ****   3 GROUP 4 **** **** 0

# MOE 2024.06 (io_trps.svl 2023.06)
