@<TRIPOS>MOLECULE
NONAME
45 47 1 0 0 
SMALL
USER_CHARGES


@<TRIPOS>ATOM
  1 CL      -0.7980    -0.6100    -2.0920 Cl    1 <1>  -0.1770 
  2 C       -2.0000    -1.1080    -0.9230 C.ar  1 <1>   0.1770 
  3 C       -2.8190    -0.1780    -0.2920 C.ar  1 <1>   0.0830 
  4 C       -2.1200    -2.4590    -0.6520 C.ar  1 <1>  -0.1500 
  5 O       -2.7380     1.1450    -0.5480 O.3   1 <1>  -0.3630 
  6 C       -3.7720    -0.6200     0.6110 C.ar  1 <1>  -0.1500 
  7 C       -3.0800    -2.9000     0.2510 C.ar  1 <1>  -0.1430 
  8 C       -1.6770     1.8460     0.0610 C.3   1 <1>   0.0400 
  9 C       -3.8990    -1.9720     0.8840 C.ar  1 <1>  -0.1500 
 10 C       -3.2440    -4.3810     0.5420 C.3   1 <1>   0.4870 
 11 N       -3.8930    -5.0350    -0.6290 N.4   1 <1>  -0.9590 
 12 C       -5.2960    -4.5340    -0.8130 C.3   1 <1>   0.3430 
 13 C       -3.9930    -6.5130    -0.4170 C.3   1 <1>   0.3430 
 14 C       -6.1950    -5.5590    -0.1160 C.3   1 <1>   0.2000 
 15 C       -5.4840    -6.8710    -0.4410 C.3   1 <1>  -0.0800 
 16 O       -6.1490    -5.3230     1.2560 O.3   1 <1>  -0.6800 
 17 C       -5.8310    -8.0860     0.4430 C.3   1 <1>   0.0200 
 18 C       -4.8960    -9.2400     0.1360 C.2   1 <1>  -0.0400 
 19 O       -4.6640    -9.5740    -1.1050 O.3   1 <1>  -0.0190 
 20 C       -4.1760   -10.0520     0.9240 C.2   1 <1>  -0.1500 
 21 N       -3.8140   -10.5520    -1.1900 N.2   1 <1>  -0.4100 
 22 C       -3.5100   -10.8710     0.0170 C.2   1 <1>   0.1080 
 23 C       -2.5560   -11.9860     0.3870 C.3   1 <1>  -0.0590 
 24 H       -1.4590    -3.1420    -1.1560 H     1 <1>   0.1500 
 25 H       -4.4090     0.1010     1.0940 H     1 <1>   0.1500 
 26 H       -1.7640     2.8840    -0.2060 H     1 <1>   0.0800 
 27 H       -0.7410     1.4550    -0.2940 H     1 <1>   0.0800 
 28 H       -1.7510     1.7330     1.1280 H     1 <1>   0.0800 
 29 H       -4.6450    -2.2910     1.5950 H     1 <1>   0.1500 
 30 H       -3.8490    -4.5160     1.4240 H     1 <1>   0.0800 
 31 H       -2.2760    -4.8180     0.7220 H     1 <1>   0.0800 
 32 H       -3.3370    -4.8140    -1.4650 H     1 <1>   0.4500 
 33 H       -5.4420    -3.5460    -0.4090 H     1 <1>   0.0800 
 34 H       -5.5350    -4.5190    -1.8640 H     1 <1>   0.0800 
 35 H       -3.4630    -7.0590    -1.1820 H     1 <1>   0.0800 
 36 H       -3.5790    -6.7770     0.5440 H     1 <1>   0.0800 
 37 H       -7.2180    -5.5130    -0.4530 H     1 <1>   0.0800 
 38 H       -5.7250    -7.1300    -1.4580 H     1 <1>   0.0800 
 39 H       -6.9300    -5.7080     1.7080 H     1 <1>   0.4000 
 40 H       -6.8440    -8.3950     0.2540 H     1 <1>   0.0800 
 41 H       -5.7420    -7.8480     1.4890 H     1 <1>   0.0800 
 42 H       -4.1000   -10.0980     1.9960 H     1 <1>   0.1500 
 43 H       -1.7640   -11.6050     1.0040 H     1 <1>   0.0800 
 44 H       -2.1300   -12.4160    -0.5020 H     1 <1>   0.0800 
 45 H       -3.0850   -12.7540     0.9220 H     1 <1>   0.0800 
@<TRIPOS>BOND
  1   1   2  1   
  2   2   3  ar  
  3   2   4  ar  
  4   3   5  1   
  5   3   6  ar  
  6   4   7  ar  
  7   4  24  1   
  8   5   8  1   
  9   6   9  ar  
 10   6  25  1   
 11   7   9  ar  
 12   7  10  1   
 13   8  26  1   
 14   8  27  1   
 15   8  28  1   
 16   9  29  1   
 17  10  11  1   
 18  10  30  1   
 19  10  31  1   
 20  11  12  1   
 21  11  13  1   
 22  11  32  1   
 23  12  14  1   
 24  12  33  1   
 25  12  34  1   
 26  13  15  1   
 27  13  35  1   
 28  13  36  1   
 29  14  15  1   
 30  14  16  1   
 31  14  37  1   
 32  15  17  1   
 33  15  38  1   
 34  16  39  1   
 35  17  18  1   
 36  17  40  1   
 37  17  41  1   
 38  18  19  1   
 39  18  20  2   
 40  19  21  1   
 41  20  22  1   
 42  20  42  1   
 43  21  22  2   
 44  22  23  1   
 45  23  43  1   
 46  23  44  1   
 47  23  45  1   
@<TRIPOS>SUBSTRUCTURE
  1 ****  11 GROUP 4 **** **** 0

# MOE 2024.06 (io_trps.svl 2023.06)
