@<TRIPOS>MOLECULE
NONAME
58 60 1 0 0 
SMALL
USER_CHARGES


@<TRIPOS>ATOM
  1 O       -1.2190    -0.2290    -0.7910 O.2   1 <1>  -0.5700 
  2 C       -1.9620     0.7320    -0.9420 C.2   1 <1>   0.5440 
  3 N       -3.3180     0.4540    -0.9090 N.am  1 <1>  -0.6600 
  4 C       -1.4090     2.0840    -1.1130 C.ar  1 <1>   0.3960 
  5 C       -3.8150    -0.9060    -1.1800 C.3   1 <1>   0.1400 
  6 C       -4.2610     1.2190    -0.0530 C.3   1 <1>   0.1400 
  7 N       -2.1880     3.0980    -1.4790 N.ar  1 <1>  -0.6200 
  8 C       -0.0590     2.3090    -0.8980 C.ar  1 <1>  -0.1500 
  9 C       -4.0210    -1.5340     0.2090 C.3   1 <1>   0.4230 
 10 C       -4.6660     0.3810     1.1890 C.3   1 <1>  -0.1600 
 11 C       -1.5990     4.2670    -1.5990 C.ar  1 <1>   0.7200 
 12 C        0.4430     3.5770    -1.0650 C.ar  1 <1>   0.1660 
 13 N       -3.6360    -2.9930     0.3050 N.4   1 <1>  -0.9590 
 14 C       -5.4050    -1.0260     0.8420 C.3   1 <1>   0.0000 
 15 N       -0.3290     4.5710    -1.4240 N.ar  1 <1>  -0.6200 
 16 N       -2.3860     5.2780    -1.9660 N.pl3 1 <1>  -0.9000 
 17 C        1.9190     3.8710    -0.8400 C.3   1 <1>  -0.0170 
 18 C       -4.3830    -3.8360    -0.6450 C.3   1 <1>   0.3430 
 19 C       -2.1540    -3.1580     0.1470 C.3   1 <1>   0.2630 
 20 C       -6.1990    -2.3810     0.4500 C.3   1 <1>  -0.1600 
 21 C       -6.7390    -0.4930     1.5500 C.3   1 <1>   0.1200 
 22 C        2.1810     4.6330     0.4730 C.3   1 <1>  -0.0800 
 23 C       -5.7980    -3.2940    -0.7360 C.3   1 <1>  -0.1600 
 24 O       -7.4150     0.3540     0.6750 O.3   1 <1>  -0.6800 
 25 C        3.6690     4.9880     0.5940 C.3   1 <1>  -0.2400 
 26 C        1.7410     3.8250     1.7030 C.3   1 <1>  -0.2400 
 27 H       -4.7410    -0.8390    -1.7240 H     1 <1>   0.0800 
 28 H       -3.0990    -1.4490    -1.7700 H     1 <1>   0.0800 
 29 H       -3.8090     2.1410     0.2710 H     1 <1>   0.0800 
 30 H       -5.1380     1.4690    -0.6290 H     1 <1>   0.0800 
 31 H        0.5850     1.5020    -0.6040 H     1 <1>   0.1500 
 32 H       -3.2240    -1.0930     0.7780 H     1 <1>   0.0800 
 33 H       -3.8090     0.2430     1.8300 H     1 <1>   0.0800 
 34 H       -5.2060     1.1280     1.7470 H     1 <1>   0.0800 
 35 H       -3.8990    -3.2910     1.2530 H     1 <1>   0.4500 
 36 H       -3.2500     5.0210    -2.4340 H     1 <1>   0.4000 
 37 H       -1.8990     6.0960    -2.3230 H     1 <1>   0.4000 
 38 H        2.4770     2.9520    -0.8400 H     1 <1>   0.0800 
 39 H        2.2710     4.4610    -1.6680 H     1 <1>   0.0800 
 40 H       -3.9230    -3.8120    -1.6210 H     1 <1>   0.0800 
 41 H       -4.3960    -4.8560    -0.2960 H     1 <1>   0.0800 
 42 H       -1.8400    -2.8450    -0.8360 H     1 <1>   0.0800 
 43 H       -1.8710    -4.1880     0.2900 H     1 <1>   0.0800 
 44 H       -1.6310    -2.5520     0.8710 H     1 <1>   0.0800 
 45 H       -6.2520    -3.0070     1.3270 H     1 <1>   0.0800 
 46 H       -7.2200    -2.1790     0.1500 H     1 <1>   0.0800 
 47 H       -6.5770     0.0260     2.4800 H     1 <1>   0.0800 
 48 H       -7.4520    -1.2370     1.8740 H     1 <1>   0.0800 
 49 H        1.6160     5.5510     0.4490 H     1 <1>   0.0800 
 50 H       -5.9130    -2.7580    -1.6620 H     1 <1>   0.0800 
 51 H       -6.4760    -4.1300    -0.7920 H     1 <1>   0.0800 
 52 H       -8.2390     0.6970     1.0770 H     1 <1>   0.4000 
 53 H        4.2720     4.0970     0.6260 H     1 <1>   0.0800 
 54 H        3.8440     5.5540     1.4920 H     1 <1>   0.0800 
 55 H        3.9800     5.5850    -0.2450 H     1 <1>   0.0800 
 56 H        2.2550     2.8810     1.7440 H     1 <1>   0.0800 
 57 H        0.6810     3.6440     1.6770 H     1 <1>   0.0800 
 58 H        1.9600     4.3730     2.6030 H     1 <1>   0.0800 
@<TRIPOS>BOND
  1   1   2  2   
  2   2   3  am  
  3   2   4  1   
  4   3   5  1   
  5   3   6  1   
  6   4   7  ar  
  7   4   8  ar  
  8   5   9  1   
  9   5  27  1   
 10   5  28  1   
 11   6  10  1   
 12   6  29  1   
 13   6  30  1   
 14   7  11  ar  
 15   8  12  ar  
 16   8  31  1   
 17   9  13  1   
 18   9  14  1   
 19   9  32  1   
 20  10  14  1   
 21  10  33  1   
 22  10  34  1   
 23  11  15  ar  
 24  11  16  1   
 25  12  15  ar  
 26  12  17  1   
 27  13  18  1   
 28  13  19  1   
 29  13  35  1   
 30  14  20  1   
 31  14  21  1   
 32  16  36  1   
 33  16  37  1   
 34  17  22  1   
 35  17  38  1   
 36  17  39  1   
 37  18  23  1   
 38  18  40  1   
 39  18  41  1   
 40  19  42  1   
 41  19  43  1   
 42  19  44  1   
 43  20  23  1   
 44  20  45  1   
 45  20  46  1   
 46  21  24  1   
 47  21  47  1   
 48  21  48  1   
 49  22  25  1   
 50  22  26  1   
 51  22  49  1   
 52  23  50  1   
 53  23  51  1   
 54  24  52  1   
 55  25  53  1   
 56  25  54  1   
 57  25  55  1   
 58  26  56  1   
 59  26  57  1   
 60  26  58  1   
@<TRIPOS>SUBSTRUCTURE
  1 ****   2 GROUP 4 **** **** 0

# MOE 2024.06 (io_trps.svl 2023.06)
