@<TRIPOS>MOLECULE
NONAME
50 52 1 0 0 
SMALL
USER_CHARGES


@<TRIPOS>ATOM
  1 O       -1.0210     0.4950     1.3170 O.2   1 <1>  -0.5700 
  2 C       -1.2900     1.3500     0.4940 C.2   1 <1>   0.5440 
  3 N       -2.3430     1.1220    -0.3730 N.am  1 <1>  -0.6600 
  4 C       -0.5110     2.5640     0.4610 C.ar  1 <1>   0.0860 
  5 C       -2.9120    -0.2550    -0.4970 C.3   1 <1>   0.1400 
  6 C       -3.0470     2.2220    -1.1010 C.3   1 <1>   0.1400 
  7 C        0.0100     3.0580    -0.7340 C.ar  1 <1>   0.1600 
  8 C       -0.2380     3.2950     1.6130 C.ar  1 <1>  -0.1500 
  9 C       -3.9570    -0.5320     0.5960 C.3   1 <1>   0.1400 
 10 C       -4.5790     2.1550    -1.0100 C.3   1 <1>  -0.1600 
 11 N        0.7080     4.1700    -0.8800 N.ar  1 <1>  -0.6200 
 12 C        0.4940     4.4510     1.4860 C.ar  1 <1>  -0.1500 
 13 N       -5.2410     0.1960     0.3410 N.am  1 <1>  -0.6600 
 14 C       -5.1180     1.6820     0.3440 C.3   1 <1>   0.1400 
 15 C        0.9370     4.8490     0.2290 C.ar  1 <1>   0.4100 
 16 C       -6.4650    -0.3980     0.1400 C.2   1 <1>   0.5690 
 17 N        1.6580     5.9790     0.0560 N.pl3 1 <1>  -0.9000 
 18 O       -7.4620     0.2630    -0.0310 O.2   1 <1>  -0.5700 
 19 C       -6.5960    -1.9130     0.1310 C.3   1 <1>  -0.0990 
 20 C       -7.9800    -2.4280    -0.3080 C.3   1 <1>   0.1760 
 21 N       -8.0860    -3.8750     0.0230 N.pl3 1 <1>   0.3140 
 22 C       -8.2590    -2.1980    -1.8060 C.3   1 <1>  -0.2400 
 23 N       -8.7990    -4.3090     1.0810 N.2   1 <1>  -0.7070 
 24 C       -7.4960    -4.9100    -0.6150 C.2   1 <1>  -0.3020 
 25 C       -8.6540    -5.5990     1.0810 C.2   1 <1>   0.1390 
 26 C       -7.8460    -6.0360     0.0400 C.2   1 <1>  -0.1500 
 27 H       -2.1120    -0.9680    -0.3910 H     1 <1>   0.0800 
 28 H       -3.3460    -0.3970    -1.4710 H     1 <1>   0.0800 
 29 H       -2.7520     2.2060    -2.1360 H     1 <1>   0.0800 
 30 H       -2.7410     3.1690    -0.6900 H     1 <1>   0.0800 
 31 H       -0.1710     2.4850    -1.6270 H     1 <1>   0.1500 
 32 H       -0.5960     2.9510     2.5690 H     1 <1>   0.1500 
 33 H       -3.5590    -0.2340     1.5510 H     1 <1>   0.0800 
 34 H       -4.1230    -1.5910     0.6440 H     1 <1>   0.0800 
 35 H       -4.9710     1.5310    -1.7930 H     1 <1>   0.0800 
 36 H       -4.9540     3.1450    -1.1940 H     1 <1>   0.0800 
 37 H        0.7270     5.0550     2.3410 H     1 <1>   0.1500 
 38 H       -6.0850     2.1260     0.5130 H     1 <1>   0.0800 
 39 H       -4.4750     2.0000     1.1470 H     1 <1>   0.0800 
 40 H        2.2650     6.3110     0.8040 H     1 <1>   0.4000 
 41 H        2.0430     6.0940    -0.8830 H     1 <1>   0.4000 
 42 H       -6.4080    -2.2530     1.1330 H     1 <1>   0.0800 
 43 H       -5.8530    -2.3250    -0.5240 H     1 <1>   0.0800 
 44 H       -8.7370    -1.9220     0.2660 H     1 <1>   0.0800 
 45 H       -7.4960    -2.6450    -2.4170 H     1 <1>   0.0800 
 46 H       -8.2910    -1.1450    -2.0230 H     1 <1>   0.0800 
 47 H       -9.2140    -2.6170    -2.0670 H     1 <1>   0.0800 
 48 H       -6.8750    -4.7930    -1.4830 H     1 <1>   0.1500 
 49 H       -9.1130    -6.2450     1.8110 H     1 <1>   0.1500 
 50 H       -7.5780    -7.0570    -0.1680 H     1 <1>   0.1500 
@<TRIPOS>BOND
  1   1   2  2   
  2   2   3  am  
  3   2   4  1   
  4   3   5  1   
  5   3   6  1   
  6   4   7  ar  
  7   4   8  ar  
  8   5   9  1   
  9   5  27  1   
 10   5  28  1   
 11   6  10  1   
 12   6  29  1   
 13   6  30  1   
 14   7  11  ar  
 15   7  31  1   
 16   8  12  ar  
 17   8  32  1   
 18   9  13  1   
 19   9  33  1   
 20   9  34  1   
 21  10  14  1   
 22  10  35  1   
 23  10  36  1   
 24  11  15  ar  
 25  12  15  ar  
 26  12  37  1   
 27  13  14  1   
 28  13  16  am  
 29  14  38  1   
 30  14  39  1   
 31  15  17  1   
 32  16  18  2   
 33  16  19  1   
 34  17  40  1   
 35  17  41  1   
 36  19  20  1   
 37  19  42  1   
 38  19  43  1   
 39  20  21  1   
 40  20  22  1   
 41  20  44  1   
 42  21  23  1   
 43  21  24  1   
 44  22  45  1   
 45  22  46  1   
 46  22  47  1   
 47  23  25  2   
 48  24  26  2   
 49  24  48  1   
 50  25  26  1   
 51  25  49  1   
 52  26  50  1   
@<TRIPOS>SUBSTRUCTURE
  1 ****   9 GROUP 4 **** **** 0

# MOE 2024.06 (io_trps.svl 2023.06)
