@<TRIPOS>MOLECULE
NONAME
52 54 1 0 0 
SMALL
USER_CHARGES


@<TRIPOS>ATOM
  1 O       -0.3460    -0.2320     0.2220 O.2   1 <1>  -0.5700 
  2 C       -1.3080     0.5020     0.0890 C.2   1 <1>   0.6900 
  3 N       -2.5730    -0.0160     0.1270 N.am  1 <1>  -0.6600 
  4 N       -1.1740     1.8440    -0.1010 N.am  1 <1>  -0.5470 
  5 C       -3.8320     0.7600     0.1470 C.3   1 <1>   0.1400 
  6 C       -2.8370    -1.4610     0.2660 C.3   1 <1>   0.1400 
  7 C       -0.0950     2.7430    -0.1360 C.ar  1 <1>   0.1170 
  8 C       -4.8930    -0.2140     0.6810 C.3   1 <1>  -0.0800 
  9 C       -4.3620    -1.6070     0.2920 C.3   1 <1>  -0.0800 
 10 C       -0.3850     4.1000    -0.3170 C.ar  1 <1>   0.0830 
 11 C        1.2330     2.3540     0.0000 C.ar  1 <1>  -0.1500 
 12 C       -6.3660     0.0760     0.2580 C.3   1 <1>   0.2800 
 13 C       -4.9340    -2.0520    -1.0630 C.3   1 <1>  -0.1600 
 14 O       -1.7050     4.4410    -0.4430 O.3   1 <1>  -0.3630 
 15 C        0.6450     5.0350    -0.3620 C.ar  1 <1>  -0.1500 
 16 C        2.2530     3.2870    -0.0450 C.ar  1 <1>  -0.1500 
 17 O       -6.3980     0.7520    -0.9480 O.3   1 <1>  -0.6800 
 18 C       -7.1230    -1.2470     0.0350 C.3   1 <1>  -0.1600 
 19 C       -7.1210     0.9520     1.2820 C.3   1 <1>  -0.1600 
 20 C       -6.4690    -2.1630    -1.0230 C.3   1 <1>  -0.1600 
 21 C       -2.1060     5.7760    -0.6370 C.3   1 <1>   0.1200 
 22 C        1.9610     4.6270    -0.2260 C.ar  1 <1>  -0.1500 
 23 C       -6.5200     2.3450     1.5380 C.3   1 <1>  -0.2400 
 24 C       -3.6290     5.7970    -0.7310 C.3   1 <1>  -0.2400 
 25 H       -2.0610     2.3110    -0.2630 H     1 <1>   0.3700 
 26 H       -3.7440     1.6250     0.7800 H     1 <1>   0.0800 
 27 H       -4.0440     1.0690    -0.8610 H     1 <1>   0.0800 
 28 H       -2.3910    -2.0040    -0.5500 H     1 <1>   0.0800 
 29 H       -2.4090    -1.8040     1.1930 H     1 <1>   0.0800 
 30 H       -4.8430    -0.1700     1.7540 H     1 <1>   0.0800 
 31 H       -4.6350    -2.3380     1.0330 H     1 <1>   0.0800 
 32 H        1.4790     1.3180     0.1400 H     1 <1>   0.1500 
 33 H       -4.6550    -1.3260    -1.8090 H     1 <1>   0.0800 
 34 H       -4.5110    -2.9970    -1.3570 H     1 <1>   0.0800 
 35 H        0.4490     6.0800    -0.5010 H     1 <1>   0.1500 
 36 H        3.2750     2.9660     0.0620 H     1 <1>   0.1500 
 37 H       -7.3210     0.8350    -1.2450 H     1 <1>   0.4000 
 38 H       -7.1410    -1.7770     0.9720 H     1 <1>   0.0800 
 39 H       -8.1470    -1.0570    -0.2330 H     1 <1>   0.0800 
 40 H       -8.1380     1.0740     0.9530 H     1 <1>   0.0800 
 41 H       -7.1620     0.4260     2.2200 H     1 <1>   0.0800 
 42 H       -6.7520    -3.1810    -0.8180 H     1 <1>   0.0800 
 43 H       -6.8520    -1.9130    -1.9980 H     1 <1>   0.0800 
 44 H       -1.7680     6.3600     0.2020 H     1 <1>   0.0800 
 45 H       -1.6630     6.1360    -1.5500 H     1 <1>   0.0800 
 46 H        2.7570     5.3500    -0.2600 H     1 <1>   0.1500 
 47 H       -6.4090     2.8890     0.6160 H     1 <1>   0.0800 
 48 H       -5.5610     2.2680     2.0150 H     1 <1>   0.0800 
 49 H       -7.1690     2.9080     2.1860 H     1 <1>   0.0800 
 50 H       -4.0610     5.4210     0.1790 H     1 <1>   0.0800 
 51 H       -3.9560     5.1960    -1.5600 H     1 <1>   0.0800 
 52 H       -3.9700     6.8050    -0.8810 H     1 <1>   0.0800 
@<TRIPOS>BOND
  1   1   2  2   
  2   2   3  am  
  3   2   4  am  
  4   3   5  1   
  5   3   6  1   
  6   4   7  1   
  7   4  25  1   
  8   5   8  1   
  9   5  26  1   
 10   5  27  1   
 11   6   9  1   
 12   6  28  1   
 13   6  29  1   
 14   7  10  ar  
 15   7  11  ar  
 16   8   9  1   
 17   8  12  1   
 18   8  30  1   
 19   9  13  1   
 20   9  31  1   
 21  10  14  1   
 22  10  15  ar  
 23  11  16  ar  
 24  11  32  1   
 25  12  17  1   
 26  12  18  1   
 27  12  19  1   
 28  13  20  1   
 29  13  33  1   
 30  13  34  1   
 31  14  21  1   
 32  15  22  ar  
 33  15  35  1   
 34  16  22  ar  
 35  16  36  1   
 36  17  37  1   
 37  18  20  1   
 38  18  38  1   
 39  18  39  1   
 40  19  23  1   
 41  19  40  1   
 42  19  41  1   
 43  20  42  1   
 44  20  43  1   
 45  21  24  1   
 46  21  44  1   
 47  21  45  1   
 48  22  46  1   
 49  23  47  1   
 50  23  48  1   
 51  23  49  1   
 52  24  50  1   
 53  24  51  1   
 54  24  52  1   
@<TRIPOS>SUBSTRUCTURE
  1 ****   5 GROUP 4 **** **** 0

# MOE 2024.06 (io_trps.svl 2023.06)
