@<TRIPOS>MOLECULE
NONAME
51 53 1 0 0 
SMALL
USER_CHARGES


@<TRIPOS>ATOM
  1 F       -0.0490     1.0130    -0.1580 F     1 <1>  -0.1900 
  2 C       -1.3480     1.1550    -0.1060 C.ar  1 <1>   0.1900 
  3 C       -2.0280     2.0720    -0.9170 C.ar  1 <1>   0.0830 
  4 C       -2.0190     0.3520     0.7970 C.ar  1 <1>  -0.1500 
  5 O       -1.4820     2.9150    -1.8400 O.3   1 <1>  -0.3630 
  6 C       -3.4050     2.1490    -0.7840 C.ar  1 <1>  -0.1500 
  7 C       -3.3930     0.4550     0.9030 C.ar  1 <1>  -0.1500 
  8 C       -0.1040     2.9380    -2.1410 C.3   1 <1>   0.0400 
  9 C       -4.1170     1.3510     0.1140 C.ar  1 <1>   0.0530 
 10 C       -5.5490     1.4760     0.2240 C.2   1 <1>   0.0870 
 11 O       -6.0840     2.6710     0.2170 O.3   1 <1>  -0.0190 
 12 C       -6.5690     0.5830     0.3540 C.2   1 <1>  -0.0860 
 13 N       -7.3830     2.6510     0.3430 N.2   1 <1>  -0.4100 
 14 C       -7.7020     1.4070     0.4290 C.2   1 <1>   0.3720 
 15 C       -6.5600    -0.8500     0.3930 C.2   1 <1>   0.7160 
 16 N       -9.0280     0.9680     0.5640 N.pl3 1 <1>  -0.8210 
 17 O       -5.5610    -1.4880     0.1210 O.2   1 <1>  -0.5700 
 18 N       -7.6790    -1.5390     0.7340 N.am  1 <1>  -0.7300 
 19 C       -9.8780     1.8120     1.4480 C.3   1 <1>   0.1290 
 20 C       -9.6950     0.6990    -0.7410 C.3   1 <1>   0.1290 
 21 C       -7.9020    -2.9990     0.5550 C.3   1 <1>   0.2810 
 22 C       -9.1830    -3.3090    -0.2500 C.2   1 <1>   0.5690 
 23 C       -7.9330    -3.6410     1.9510 C.3   1 <1>  -0.1600 
 24 O       -9.9420    -2.4210    -0.5630 O.2   1 <1>  -0.5700 
 25 N       -9.4870    -4.5780    -0.6120 N.am  1 <1>  -0.7300 
 26 C       -7.6370    -5.1500     1.9460 C.3   1 <1>  -0.1600 
 27 C       -8.7510    -5.8150    -0.2850 C.3   1 <1>   0.1400 
 28 C       -8.6870    -6.0190     1.2320 C.3   1 <1>  -0.1600 
 29 H       -1.4700    -0.3440     1.4060 H     1 <1>   0.1500 
 30 H       -3.9390     2.8500    -1.3990 H     1 <1>   0.1500 
 31 H       -3.9160    -0.1680     1.6080 H     1 <1>   0.1500 
 32 H        0.0560     3.6670    -2.9150 H     1 <1>   0.0800 
 33 H        0.1950     1.9650    -2.4880 H     1 <1>   0.0800 
 34 H        0.4420     3.2180    -1.2580 H     1 <1>   0.0800 
 35 H       -8.5420    -0.9720     0.7850 H     1 <1>   0.3700 
 36 H       -9.3490     2.0340     2.3590 H     1 <1>   0.0800 
 37 H      -10.7850     1.2880     1.6930 H     1 <1>   0.0800 
 38 H      -10.1230     2.7380     0.9560 H     1 <1>   0.0800 
 39 H       -9.0660     0.0810    -1.3590 H     1 <1>   0.0800 
 40 H       -9.8860     1.6250    -1.2580 H     1 <1>   0.0800 
 41 H      -10.6250     0.1820    -0.5800 H     1 <1>   0.0800 
 42 H       -7.0690    -3.4050     0.0080 H     1 <1>   0.0800 
 43 H       -8.8890    -3.4570     2.4090 H     1 <1>   0.0800 
 44 H       -7.1800    -3.1690     2.5590 H     1 <1>   0.0800 
 45 H      -10.3620    -4.6910    -1.1280 H     1 <1>   0.3700 
 46 H       -7.5780    -5.4770     2.9710 H     1 <1>   0.0800 
 47 H       -6.6690    -5.3220     1.5070 H     1 <1>   0.0800 
 48 H       -7.7590    -5.7730    -0.7040 H     1 <1>   0.0800 
 49 H       -9.2680    -6.6470    -0.7330 H     1 <1>   0.0800 
 50 H       -9.6610    -5.8640     1.6630 H     1 <1>   0.0800 
 51 H       -8.4250    -7.0480     1.4070 H     1 <1>   0.0800 
@<TRIPOS>BOND
  1   1   2  1   
  2   2   3  ar  
  3   2   4  ar  
  4   3   5  1   
  5   3   6  ar  
  6   4   7  ar  
  7   4  29  1   
  8   5   8  1   
  9   6   9  ar  
 10   6  30  1   
 11   7   9  ar  
 12   7  31  1   
 13   8  32  1   
 14   8  33  1   
 15   8  34  1   
 16   9  10  1   
 17  10  11  1   
 18  10  12  2   
 19  11  13  1   
 20  12  14  1   
 21  12  15  1   
 22  13  14  2   
 23  14  16  1   
 24  15  17  2   
 25  15  18  am  
 26  16  19  1   
 27  16  20  1   
 28  18  21  1   
 29  18  35  1   
 30  19  36  1   
 31  19  37  1   
 32  19  38  1   
 33  20  39  1   
 34  20  40  1   
 35  20  41  1   
 36  21  22  1   
 37  21  23  1   
 38  21  42  1   
 39  22  24  2   
 40  22  25  am  
 41  23  26  1   
 42  23  43  1   
 43  23  44  1   
 44  25  27  1   
 45  25  45  1   
 46  26  28  1   
 47  26  46  1   
 48  26  47  1   
 49  27  28  1   
 50  27  48  1   
 51  27  49  1   
 52  28  50  1   
 53  28  51  1   
@<TRIPOS>SUBSTRUCTURE
  1 ****  15 GROUP 4 **** **** 0

# MOE 2024.06 (io_trps.svl 2023.06)
