@<TRIPOS>MOLECULE
NONAME
48 51 1 0 0 
SMALL
USER_CHARGES


@<TRIPOS>ATOM
  1 S        0.0160     0.3140     0.3310 S.3   1 <1>  -0.0800 
  2 C        0.2190    -1.1550    -0.6250 C.ar  1 <1>   0.0400 
  3 C       -1.5010    -0.2710     0.9890 C.2   1 <1>  -0.1100 
  4 C       -0.8480    -2.0170    -0.4130 C.ar  1 <1>   0.0000 
  5 C        1.2750    -1.4360    -1.4720 C.ar  1 <1>  -0.1500 
  6 C       -1.8340    -1.4930     0.5100 C.2   1 <1>  -0.0860 
  7 C       -0.8340    -3.2300    -1.0990 C.ar  1 <1>  -0.1500 
  8 C        1.2640    -2.6450    -2.1430 C.ar  1 <1>  -0.1500 
  9 C       -3.0300    -2.2330     0.8510 C.2   1 <1>   0.7160 
 10 C        0.2120    -3.5370    -1.9540 C.ar  1 <1>  -0.1500 
 11 O       -2.9400    -3.3840     1.2370 O.2   1 <1>  -0.5700 
 12 N       -4.2780    -1.6540     0.7510 N.am  1 <1>  -0.6600 
 13 C       -5.4850    -2.3460     1.2920 C.3   1 <1>   0.1400 
 14 C       -4.5130    -0.3820     0.0050 C.3   1 <1>   0.1400 
 15 C       -6.5320    -1.3160     1.7230 C.3   1 <1>  -0.1600 
 16 C       -5.9320    -0.3520    -0.5630 C.3   1 <1>  -0.1600 
 17 C       -6.9940    -0.4070     0.5580 C.3   1 <1>   0.2800 
 18 O       -7.0300     0.9010     1.0900 O.3   1 <1>  -0.5600 
 19 C       -8.3980    -0.8510     0.0360 C.3   1 <1>   0.2000 
 20 C       -8.2220     1.6330     1.0560 C.3   1 <1>   0.1200 
 21 O       -8.3620    -2.1040    -0.5900 O.3   1 <1>  -0.6800 
 22 C       -9.1070     0.2170    -0.8490 C.3   1 <1>   0.2800 
 23 C       -8.7660     1.6410    -0.3750 C.3   1 <1>  -0.1600 
 24 O      -10.4660     0.0370    -0.6730 O.3   1 <1>  -0.6800 
 25 C       -8.8810     0.0830    -2.3620 C.3   1 <1>  -0.2400 
 26 H       -2.0100     0.3700     1.6870 H     1 <1>   0.1500 
 27 H        2.0760    -0.7300    -1.5980 H     1 <1>   0.1500 
 28 H       -1.6380    -3.9320    -0.9590 H     1 <1>   0.1500 
 29 H        2.0680    -2.9000    -2.8100 H     1 <1>   0.1500 
 30 H        0.2130    -4.4770    -2.4780 H     1 <1>   0.1500 
 31 H       -5.8930    -2.9920     0.5320 H     1 <1>   0.0800 
 32 H       -5.2100    -2.9550     2.1370 H     1 <1>   0.0800 
 33 H       -4.3770     0.4510     0.6740 H     1 <1>   0.0800 
 34 H       -3.8050    -0.2950    -0.8020 H     1 <1>   0.0800 
 35 H       -6.0990    -0.7210     2.5080 H     1 <1>   0.0800 
 36 H       -7.3690    -1.8420     2.1440 H     1 <1>   0.0800 
 37 H       -6.0400    -1.1900    -1.2280 H     1 <1>   0.0800 
 38 H       -6.0590     0.5410    -1.1450 H     1 <1>   0.0800 
 39 H       -9.0110    -0.9870     0.9090 H     1 <1>   0.0800 
 40 H       -8.9230     1.1930     1.7460 H     1 <1>   0.0800 
 41 H       -7.9980     2.6340     1.3820 H     1 <1>   0.0800 
 42 H       -9.2720    -2.3280    -0.8720 H     1 <1>   0.4000 
 43 H       -8.0030     2.0680    -1.0010 H     1 <1>   0.0800 
 44 H       -9.6250     2.2840    -0.4360 H     1 <1>   0.0800 
 45 H      -10.9560     0.6340    -1.2690 H     1 <1>   0.4000 
 46 H       -7.8340     0.1440    -2.5930 H     1 <1>   0.0800 
 47 H       -9.3830     0.8710    -2.8940 H     1 <1>   0.0800 
 48 H       -9.2410    -0.8650    -2.7220 H     1 <1>   0.0800 
@<TRIPOS>BOND
  1   1   2  1   
  2   1   3  1   
  3   2   4  ar  
  4   2   5  ar  
  5   3   6  2   
  6   3  26  1   
  7   4   6  1   
  8   4   7  ar  
  9   5   8  ar  
 10   5  27  1   
 11   6   9  1   
 12   7  10  ar  
 13   7  28  1   
 14   8  10  ar  
 15   8  29  1   
 16   9  11  2   
 17   9  12  am  
 18  10  30  1   
 19  12  13  1   
 20  12  14  1   
 21  13  15  1   
 22  13  31  1   
 23  13  32  1   
 24  14  16  1   
 25  14  33  1   
 26  14  34  1   
 27  15  17  1   
 28  15  35  1   
 29  15  36  1   
 30  16  17  1   
 31  16  37  1   
 32  16  38  1   
 33  17  18  1   
 34  17  19  1   
 35  18  20  1   
 36  19  21  1   
 37  19  22  1   
 38  19  39  1   
 39  20  23  1   
 40  20  40  1   
 41  20  41  1   
 42  21  42  1   
 43  22  23  1   
 44  22  24  1   
 45  22  25  1   
 46  23  43  1   
 47  23  44  1   
 48  24  45  1   
 49  25  46  1   
 50  25  47  1   
 51  25  48  1   
@<TRIPOS>SUBSTRUCTURE
  1 ****  14 GROUP 4 **** **** 0

# MOE 2024.06 (io_trps.svl 2023.06)
