@<TRIPOS>MOLECULE
NONAME
51 53 1 0 0 
SMALL
USER_CHARGES


@<TRIPOS>ATOM
  1 O        1.8480    -0.0520     2.2980 O.3   1 <1>  -0.6800 
  2 C        2.9560    -0.2010     1.4820 C.3   1 <1>   0.1200 
  3 C        2.5430     0.1830     0.0540 C.3   1 <1>   0.3430 
  4 N        3.5980    -0.1580    -0.9530 N.4   1 <1>  -0.9590 
  5 C        3.6810     0.7880    -2.0910 C.3   1 <1>   0.4860 
  6 C        3.5910    -1.5820    -1.3710 C.3   1 <1>   0.5240 
  7 C        3.9400     2.1780    -1.5420 C.ar  1 <1>  -0.1430 
  8 C        4.6170    -2.2900    -0.4990 C.2   1 <1>   0.0460 
  9 C        5.0210     2.4050    -0.7030 C.ar  1 <1>  -0.1500 
 10 C        3.0830     3.2260    -1.8430 C.ar  1 <1>  -0.1500 
 11 N        5.7510    -1.6390    -0.1560 N.2   1 <1>  -0.5650 
 12 C        4.5850    -3.5280     0.0490 C.2   1 <1>  -0.3320 
 13 C        5.2360     3.6520    -0.1290 C.ar  1 <1>  -0.0230 
 14 C        3.2960     4.4780    -1.2920 C.ar  1 <1>  -0.1500 
 15 C        6.3880    -2.4930     0.5790 C.2   1 <1>   0.0360 
 16 N        5.7340    -3.6620     0.7420 N.pl3 1 <1>   0.0330 
 17 C        3.5440    -4.6330    -0.0200 C.3   1 <1>  -0.0600 
 18 N        6.3200     3.8280     0.7760 N.pl3 1 <1>   0.5930 
 19 C        4.3600     4.6880    -0.4340 C.ar  1 <1>  -0.1500 
 20 N        6.4900     3.0020     1.8400 N.2   1 <1>  -0.7070 
 21 C        7.3420     4.7270     0.7160 C.2   1 <1>  -0.3320 
 22 C        7.5740     3.4020     2.4200 C.2   1 <1>   0.1080 
 23 C        8.1560     4.4780     1.7630 C.2   1 <1>  -0.1500 
 24 C        7.5110     5.7870    -0.3620 C.3   1 <1>  -0.0600 
 25 C        8.1200     2.7460     3.6670 C.3   1 <1>  -0.0590 
 26 H        2.0880    -0.1530     3.2430 H     1 <1>   0.4000 
 27 H        3.2730    -1.2270     1.5460 H     1 <1>   0.0800 
 28 H        3.7340     0.4530     1.8400 H     1 <1>   0.0800 
 29 H        2.3590     1.2450     0.0480 H     1 <1>   0.0800 
 30 H        1.6240    -0.3200    -0.1950 H     1 <1>   0.0800 
 31 H        4.5130    -0.0940    -0.4660 H     1 <1>   0.4500 
 32 H        2.7610     0.7790    -2.6520 H     1 <1>   0.0800 
 33 H        4.4910     0.5100    -2.7460 H     1 <1>   0.0800 
 34 H        3.8990    -1.6710    -2.3990 H     1 <1>   0.0800 
 35 H        2.6160    -2.0230    -1.2510 H     1 <1>   0.0800 
 36 H        5.7140     1.6150    -0.4610 H     1 <1>   0.1500 
 37 H        2.2410     3.0850    -2.5000 H     1 <1>   0.1500 
 38 H        2.6280     5.2900    -1.5240 H     1 <1>   0.1500 
 39 H        7.3500    -2.3110     1.0280 H     1 <1>   0.1500 
 40 H        6.0550    -4.4760     1.2780 H     1 <1>   0.2700 
 41 H        2.7040    -4.3360    -0.6220 H     1 <1>   0.0800 
 42 H        3.1870    -4.8700     0.9680 H     1 <1>   0.0800 
 43 H        3.9730    -5.5210    -0.4510 H     1 <1>   0.0800 
 44 H        4.5030     5.6580     0.0100 H     1 <1>   0.1500 
 45 H        9.0630     4.9790     2.0490 H     1 <1>   0.1500 
 46 H        7.4790     5.3350    -1.3370 H     1 <1>   0.0800 
 47 H        8.4580     6.2830    -0.2470 H     1 <1>   0.0800 
 48 H        6.7320     6.5240    -0.2900 H     1 <1>   0.0800 
 49 H        7.3820     2.7900     4.4470 H     1 <1>   0.0800 
 50 H        9.0110     3.2470     3.9960 H     1 <1>   0.0800 
 51 H        8.3490     1.7170     3.4600 H     1 <1>   0.0800 
@<TRIPOS>BOND
  1   1   2  1   
  2   1  26  1   
  3   2   3  1   
  4   2  27  1   
  5   2  28  1   
  6   3   4  1   
  7   3  29  1   
  8   3  30  1   
  9   4   5  1   
 10   4   6  1   
 11   4  31  1   
 12   5   7  1   
 13   5  32  1   
 14   5  33  1   
 15   6   8  1   
 16   6  34  1   
 17   6  35  1   
 18   7   9  ar  
 19   7  10  ar  
 20   8  11  1   
 21   8  12  2   
 22   9  13  ar  
 23   9  36  1   
 24  10  14  ar  
 25  10  37  1   
 26  11  15  2   
 27  12  16  1   
 28  12  17  1   
 29  13  18  1   
 30  13  19  ar  
 31  14  19  ar  
 32  14  38  1   
 33  15  16  1   
 34  15  39  1   
 35  16  40  1   
 36  17  41  1   
 37  17  42  1   
 38  17  43  1   
 39  18  20  1   
 40  18  21  1   
 41  19  44  1   
 42  20  22  2   
 43  21  23  2   
 44  21  24  1   
 45  22  23  1   
 46  22  25  1   
 47  23  45  1   
 48  24  46  1   
 49  24  47  1   
 50  24  48  1   
 51  25  49  1   
 52  25  50  1   
 53  25  51  1   
@<TRIPOS>SUBSTRUCTURE
  1 ****   9 GROUP 4 **** **** 0

# MOE 2024.06 (io_trps.svl 2023.06)
