@<TRIPOS>MOLECULE
NONAME
58 60 1 0 0 
SMALL
USER_CHARGES


@<TRIPOS>ATOM
  1 O       -1.5620     0.4810     1.6980 O.2   1 <1>  -0.5700 
  2 C       -2.4270     1.3280     1.5600 C.2   1 <1>   0.5440 
  3 N       -3.7240     0.8990     1.3850 N.am  1 <1>  -0.6600 
  4 C       -2.0800     2.7390     1.5570 C.ar  1 <1>   0.0860 
  5 C       -4.0990    -0.5080     1.7030 C.3   1 <1>   0.1400 
  6 C       -4.6440     1.5420     0.4030 C.3   1 <1>   0.1400 
  7 C       -0.9180     3.1900     0.9360 C.ar  1 <1>  -0.1500 
  8 C       -2.8910     3.6920     2.1740 C.ar  1 <1>  -0.1500 
  9 C       -4.0030    -1.3330     0.4020 C.3   1 <1>   0.4230 
 10 C       -4.6540     0.7110    -0.8920 C.3   1 <1>  -0.1600 
 11 C       -0.5790     4.5310     0.9110 C.ar  1 <1>   0.0830 
 12 C       -2.5640     5.0360     2.1590 C.ar  1 <1>  -0.1500 
 13 N       -4.1980    -2.8130     0.5670 N.4   1 <1>  -0.9590 
 14 C       -5.0020    -0.7870    -0.6470 C.3   1 <1>  -0.1060 
 15 O        0.5690     4.8560     0.2690 O.3   1 <1>  -0.3620 
 16 C       -1.4100     5.4610     1.5280 C.ar  1 <1>  -0.1500 
 17 C       -4.0160    -3.5940    -0.6920 C.3   1 <1>   0.3430 
 18 C       -3.5000    -3.4240     1.7290 C.3   1 <1>   0.2630 
 19 C       -6.4210    -0.9400    -0.0670 C.2   1 <1>   0.9060 
 20 C       -4.8990    -1.5780    -1.9850 C.3   1 <1>  -0.1600 
 21 C        1.0250     6.1920     0.2130 C.3   1 <1>   0.1200 
 22 C       -3.8520    -2.7020    -1.9310 C.3   1 <1>  -0.1600 
 23 O       -6.6960    -1.9860     0.5430 O.co2 1 <1>  -0.9000 
 24 O       -7.2420    -0.0350    -0.1960 O.co2 1 <1>  -0.9000 
 25 C        2.3400     6.2210    -0.5560 C.3   1 <1>   0.1200 
 26 O        2.7780     7.5420    -0.6180 O.3   1 <1>  -0.5600 
 27 C        3.9760     7.7050    -1.2990 C.3   1 <1>   0.1200 
 28 C        4.3160     9.1900    -1.2780 C.3   1 <1>  -0.2400 
 29 H       -3.4220    -0.8900     2.4460 H     1 <1>   0.0800 
 30 H       -5.0960    -0.5300     2.1090 H     1 <1>   0.0800 
 31 H       -5.6350     1.5950     0.8240 H     1 <1>   0.0800 
 32 H       -4.3270     2.5460     0.1790 H     1 <1>   0.0800 
 33 H       -0.2650     2.4790     0.4630 H     1 <1>   0.1500 
 34 H       -3.7900     3.3700     2.6720 H     1 <1>   0.1500 
 35 H       -3.0060    -1.1770     0.0260 H     1 <1>   0.0800 
 36 H       -5.3780     1.1410    -1.5640 H     1 <1>   0.0800 
 37 H       -3.6890     0.7960    -1.3600 H     1 <1>   0.0800 
 38 H       -3.2090     5.7510     2.6420 H     1 <1>   0.1500 
 39 H       -5.2390    -2.8370     0.7460 H     1 <1>   0.4500 
 40 H       -1.1770     6.5100     1.5280 H     1 <1>   0.1500 
 41 H       -3.1510    -4.2310    -0.6070 H     1 <1>   0.0800 
 42 H       -4.8810    -4.2230    -0.8300 H     1 <1>   0.0800 
 43 H       -2.4340    -3.3000     1.6290 H     1 <1>   0.0800 
 44 H       -3.7300    -4.4750     1.7890 H     1 <1>   0.0800 
 45 H       -3.8220    -2.9550     2.6440 H     1 <1>   0.0800 
 46 H       -5.8600    -2.0150    -2.2090 H     1 <1>   0.0800 
 47 H       -4.6680    -0.9170    -2.8030 H     1 <1>   0.0800 
 48 H        0.2840     6.7830    -0.2960 H     1 <1>   0.0800 
 49 H        1.1740     6.5440     1.2180 H     1 <1>   0.0800 
 50 H       -2.8630    -2.2770    -1.9320 H     1 <1>   0.0800 
 51 H       -3.9350    -3.3100    -2.8140 H     1 <1>   0.0800 
 52 H        2.1920     5.8590    -1.5590 H     1 <1>   0.0800 
 53 H        3.0830     5.6340    -0.0450 H     1 <1>   0.0800 
 54 H        4.7410     7.1340    -0.8010 H     1 <1>   0.0800 
 55 H        3.8530     7.3580    -2.3110 H     1 <1>   0.0800 
 56 H        4.4220     9.5290    -0.2630 H     1 <1>   0.0800 
 57 H        3.5390     9.7520    -1.7640 H     1 <1>   0.0800 
 58 H        5.2410     9.3600    -1.7970 H     1 <1>   0.0800 
@<TRIPOS>BOND
  1   1   2  2   
  2   2   3  am  
  3   2   4  1   
  4   3   5  1   
  5   3   6  1   
  6   4   7  ar  
  7   4   8  ar  
  8   5   9  1   
  9   5  29  1   
 10   5  30  1   
 11   6  10  1   
 12   6  31  1   
 13   6  32  1   
 14   7  11  ar  
 15   7  33  1   
 16   8  12  ar  
 17   8  34  1   
 18   9  13  1   
 19   9  14  1   
 20   9  35  1   
 21  10  14  1   
 22  10  36  1   
 23  10  37  1   
 24  11  15  1   
 25  11  16  ar  
 26  12  16  ar  
 27  12  38  1   
 28  13  17  1   
 29  13  18  1   
 30  13  39  1   
 31  14  19  1   
 32  14  20  1   
 33  15  21  1   
 34  16  40  1   
 35  17  22  1   
 36  17  41  1   
 37  17  42  1   
 38  18  43  1   
 39  18  44  1   
 40  18  45  1   
 41  19  23  ar  
 42  19  24  ar  
 43  20  22  1   
 44  20  46  1   
 45  20  47  1   
 46  21  25  1   
 47  21  48  1   
 48  21  49  1   
 49  22  50  1   
 50  22  51  1   
 51  25  26  1   
 52  25  52  1   
 53  25  53  1   
 54  26  27  1   
 55  27  28  1   
 56  27  54  1   
 57  27  55  1   
 58  28  56  1   
 59  28  57  1   
 60  28  58  1   
@<TRIPOS>SUBSTRUCTURE
  1 ****   2 GROUP 4 **** **** 0

# MOE 2024.06 (io_trps.svl 2023.06)
