@<TRIPOS>MOLECULE
NONAME
54 56 1 0 0 
SMALL
USER_CHARGES


@<TRIPOS>ATOM
  1 S        1.9280    -0.8290     2.6640 S.3   1 <1>  -0.0800 
  2 C        1.2010    -0.4590     1.1230 C.2   1 <1>   0.1980 
  3 C        1.3730    -2.4630     2.5000 C.2   1 <1>  -0.1100 
  4 N        0.6020    -1.4420     0.5730 N.2   1 <1>  -0.5650 
  5 C        1.3750     0.9620     0.5990 C.3   1 <1>   0.5230 
  6 C        0.6920    -2.6210     1.3430 C.2   1 <1>   0.1410 
  7 N        0.6030     1.1400    -0.6770 N.4   1 <1>  -0.9590 
  8 C        0.1250    -3.8910     0.8920 C.2   1 <1>   0.7160 
  9 C        1.1700     2.2110    -1.5490 C.3   1 <1>   0.2630 
 10 C       -0.8530     1.3480    -0.4080 C.3   1 <1>   0.2630 
 11 O        0.4830    -4.9350     1.4090 O.2   1 <1>  -0.5700 
 12 N       -0.8360    -3.9840    -0.0940 N.am  1 <1>  -0.6600 
 13 C       -1.0140    -5.2610    -0.8350 C.3   1 <1>   0.1400 
 14 C       -2.0700    -3.1620    -0.0510 C.3   1 <1>   0.1400 
 15 C       -2.0800    -6.1170    -0.1140 C.3   1 <1>   0.4230 
 16 C       -3.1590    -3.9550     0.6910 C.3   1 <1>  -0.1600 
 17 N       -2.2310    -7.5270    -0.6600 N.4   1 <1>  -0.9590 
 18 C       -3.4350    -5.3780     0.1170 C.3   1 <1>   0.0000 
 19 C       -3.4490    -8.2370    -0.1540 C.3   1 <1>   0.3430 
 20 C       -2.1720    -7.6080    -2.1560 C.3   1 <1>   0.2630 
 21 C       -4.2340    -6.1880     1.1800 C.3   1 <1>  -0.1600 
 22 C       -4.3360    -5.2560    -1.1480 C.3   1 <1>   0.1200 
 23 C       -3.8880    -7.6940     1.2080 C.3   1 <1>  -0.1600 
 24 O       -3.6490    -4.7750    -2.2500 O.3   1 <1>  -0.6800 
 25 H        1.6140    -3.1640     3.2810 H     1 <1>   0.1500 
 26 H        2.4240     1.1250     0.4170 H     1 <1>   0.0800 
 27 H        1.0430     1.6690     1.3410 H     1 <1>   0.0800 
 28 H        0.6910     0.2210    -1.1500 H     1 <1>   0.4500 
 29 H        1.1040     3.1700    -1.0600 H     1 <1>   0.0800 
 30 H        0.6250     2.2620    -2.4780 H     1 <1>   0.0800 
 31 H        2.2040     2.0050    -1.7730 H     1 <1>   0.0800 
 32 H       -1.0110     2.2720     0.1250 H     1 <1>   0.0800 
 33 H       -1.2420     0.5350     0.1840 H     1 <1>   0.0800 
 34 H       -1.4020     1.3870    -1.3350 H     1 <1>   0.0800 
 35 H       -1.2920    -5.0380    -1.8470 H     1 <1>   0.0800 
 36 H       -0.0790    -5.7930    -0.8540 H     1 <1>   0.0800 
 37 H       -1.8880    -2.2360     0.4660 H     1 <1>   0.0800 
 38 H       -2.3810    -2.9270    -1.0540 H     1 <1>   0.0800 
 39 H       -1.6740    -6.2370     0.8770 H     1 <1>   0.0800 
 40 H       -2.8340    -4.0310     1.7150 H     1 <1>   0.0800 
 41 H       -4.0670    -3.3770     0.6990 H     1 <1>   0.0800 
 42 H       -1.4160    -8.0380    -0.2920 H     1 <1>   0.4500 
 43 H       -4.2610    -8.1050    -0.8510 H     1 <1>   0.0800 
 44 H       -3.2500    -9.2940    -0.0790 H     1 <1>   0.0800 
 45 H       -2.9830    -7.0510    -2.5960 H     1 <1>   0.0800 
 46 H       -2.2450    -8.6340    -2.4780 H     1 <1>   0.0800 
 47 H       -1.2420    -7.2030    -2.5210 H     1 <1>   0.0800 
 48 H       -4.0500    -5.8080     2.1710 H     1 <1>   0.0800 
 49 H       -5.2920    -6.0690     1.0120 H     1 <1>   0.0800 
 50 H       -5.1540    -4.5830    -0.9530 H     1 <1>   0.0800 
 51 H       -4.7540    -6.2070    -1.4230 H     1 <1>   0.0800 
 52 H       -4.7460    -8.2460     1.5500 H     1 <1>   0.0800 
 53 H       -3.0990    -7.8730     1.9200 H     1 <1>   0.0800 
 54 H       -4.2740    -4.4920    -2.9520 H     1 <1>   0.4000 
@<TRIPOS>BOND
  1   1   2  1   
  2   1   3  1   
  3   2   4  2   
  4   2   5  1   
  5   3   6  2   
  6   3  25  1   
  7   4   6  1   
  8   5   7  1   
  9   5  26  1   
 10   5  27  1   
 11   6   8  1   
 12   7   9  1   
 13   7  10  1   
 14   7  28  1   
 15   8  11  2   
 16   8  12  am  
 17   9  29  1   
 18   9  30  1   
 19   9  31  1   
 20  10  32  1   
 21  10  33  1   
 22  10  34  1   
 23  12  13  1   
 24  12  14  1   
 25  13  15  1   
 26  13  35  1   
 27  13  36  1   
 28  14  16  1   
 29  14  37  1   
 30  14  38  1   
 31  15  17  1   
 32  15  18  1   
 33  15  39  1   
 34  16  18  1   
 35  16  40  1   
 36  16  41  1   
 37  17  19  1   
 38  17  20  1   
 39  17  42  1   
 40  18  21  1   
 41  18  22  1   
 42  19  23  1   
 43  19  43  1   
 44  19  44  1   
 45  20  45  1   
 46  20  46  1   
 47  20  47  1   
 48  21  23  1   
 49  21  48  1   
 50  21  49  1   
 51  22  24  1   
 52  22  50  1   
 53  22  51  1   
 54  23  52  1   
 55  23  53  1   
 56  24  54  1   
@<TRIPOS>SUBSTRUCTURE
  1 ****  12 GROUP 4 **** **** 0

# MOE 2024.06 (io_trps.svl 2023.06)
