@<TRIPOS>MOLECULE
NONAME
43 45 1 0 0 
SMALL
USER_CHARGES


@<TRIPOS>ATOM
  1 O        3.1190     2.2300     2.6970 O.co2 1 <1>  -0.9000 
  2 C        2.4370     1.7710     1.7700 C.2   1 <1>   0.9470 
  3 O        1.2000     1.8320     1.7990 O.co2 1 <1>  -0.9000 
  4 C        3.1420     1.3380     0.4820 C.3   1 <1>  -0.2420 
  5 C        3.6900     0.0130     0.0110 C.3   1 <1>  -0.2420 
  6 C        4.0950     2.4220     0.0180 C.3   1 <1>   0.2350 
  7 C        2.3700     0.5110    -0.5170 C.3   1 <1>  -0.2000 
  8 C        3.7510    -1.3480     0.7080 C.2   1 <1>   0.9470 
  9 C        4.9710     0.2830    -0.7620 C.3   1 <1>   0.2350 
 10 N        5.0110     1.7600    -0.9570 N.am  1 <1>  -0.6600 
 11 O        4.7190    -1.6060     1.4370 O.co2 1 <1>  -0.9000 
 12 O        2.9220    -2.2200     0.4130 O.co2 1 <1>  -0.9000 
 13 C        5.7620     2.3570    -1.9300 C.2   1 <1>   0.5690 
 14 O        6.3690     1.7090    -2.7540 O.2   1 <1>  -0.5700 
 15 C        5.8530     3.8760    -2.0340 C.3   1 <1>   0.0440 
 16 C        7.0930     4.4620    -1.3600 C.ar  1 <1>  -0.1430 
 17 C        7.8980     5.3630    -2.0400 C.ar  1 <1>  -0.1500 
 18 C        7.4300     4.1130    -0.0610 C.ar  1 <1>  -0.1500 
 19 C        9.0180     5.9040    -1.4320 C.ar  1 <1>  -0.1500 
 20 C        8.5490     4.6550     0.5450 C.ar  1 <1>  -0.1500 
 21 C        9.3570     5.5560    -0.1340 C.ar  1 <1>  -0.1430 
 22 C       10.6000     6.1570     0.5200 C.3   1 <1>   0.0630 
 23 C       11.6080     5.0620     0.8810 C.3   1 <1>  -0.2400 
 24 C       10.2250     6.9810     1.7550 C.3   1 <1>  -0.2400 
 25 H        4.6640     2.7910     0.8530 H     1 <1>   0.0800 
 26 H        3.5380     3.2230    -0.4320 H     1 <1>   0.0800 
 27 H        2.2980     0.8380    -1.5370 H     1 <1>   0.1000 
 28 H        1.4770     0.0140    -0.1770 H     1 <1>   0.1000 
 29 H        4.9670    -0.2360    -1.7040 H     1 <1>   0.0800 
 30 H        5.8270    -0.0210    -0.1840 H     1 <1>   0.0800 
 31 H        5.8660     4.1210    -3.0790 H     1 <1>   0.0800 
 32 H        4.9810     4.3370    -1.6180 H     1 <1>   0.0800 
 33 H        7.6600     5.6480    -3.0490 H     1 <1>   0.1500 
 34 H        6.8280     3.4110     0.4900 H     1 <1>   0.1500 
 35 H        9.6270     6.5980    -1.9830 H     1 <1>   0.1500 
 36 H        8.7850     4.3630     1.5520 H     1 <1>   0.1500 
 37 H       11.0740     6.8190    -0.1850 H     1 <1>   0.0800 
 38 H       11.1990     4.3930     1.6180 H     1 <1>   0.0800 
 39 H       12.5090     5.4980     1.2730 H     1 <1>   0.0800 
 40 H       11.8560     4.4920     0.0040 H     1 <1>   0.0800 
 41 H        9.7930     6.3560     2.5150 H     1 <1>   0.0800 
 42 H        9.5080     7.7360     1.4850 H     1 <1>   0.0800 
 43 H       11.0960     7.4640     2.1600 H     1 <1>   0.0800 
@<TRIPOS>BOND
  1   1   2  ar  
  2   2   3  ar  
  3   2   4  1   
  4   4   5  1   
  5   4   6  1   
  6   4   7  1   
  7   5   7  1   
  8   5   8  1   
  9   5   9  1   
 10   6  10  1   
 11   6  25  1   
 12   6  26  1   
 13   7  27  1   
 14   7  28  1   
 15   8  11  ar  
 16   8  12  ar  
 17   9  10  1   
 18   9  29  1   
 19   9  30  1   
 20  10  13  am  
 21  13  14  2   
 22  13  15  1   
 23  15  16  1   
 24  15  31  1   
 25  15  32  1   
 26  16  17  ar  
 27  16  18  ar  
 28  17  19  ar  
 29  17  33  1   
 30  18  20  ar  
 31  18  34  1   
 32  19  21  ar  
 33  19  35  1   
 34  20  21  ar  
 35  20  36  1   
 36  21  22  1   
 37  22  23  1   
 38  22  24  1   
 39  22  37  1   
 40  23  38  1   
 41  23  39  1   
 42  23  40  1   
 43  24  41  1   
 44  24  42  1   
 45  24  43  1   
@<TRIPOS>SUBSTRUCTURE
  1 ****  10 GROUP 4 **** **** 0

# MOE 2024.06 (io_trps.svl 2023.06)
