@<TRIPOS>MOLECULE
NONAME
39 40 1 0 0 
SMALL
USER_CHARGES


@<TRIPOS>ATOM
  1 S       -0.5190     0.2080     1.0510 S.o2  1 <1>   1.5000 
  2 O       -0.4780    -0.9020     1.9740 O.2   1 <1>  -0.6500 
  3 O       -1.0950     1.4560     1.4870 O.2   1 <1>  -0.6500 
  4 N       -1.4850    -0.2410    -0.2510 N.am  1 <1>  -0.9140 
  5 C        1.1230     0.4900     0.3430 C.2   1 <1>  -0.0220 
  6 C       -1.5960    -1.6470    -0.6520 C.3   1 <1>   0.2760 
  7 S        1.2310     1.1500    -1.2890 S.3   1 <1>  -0.0800 
  8 C        2.3680     0.3080     0.8320 C.2   1 <1>  -0.1500 
  9 C       -2.4260    -2.5050     0.3080 C.3   1 <1>  -0.0800 
 10 C       -0.2820    -2.4200    -0.8200 C.3   1 <1>   0.1200 
 11 C        2.9840     1.1430    -1.2450 C.2   1 <1>  -0.1100 
 12 C        3.4220     0.6730    -0.0650 C.2   1 <1>  -0.1500 
 13 C       -1.4650    -3.6470     0.6560 C.3   1 <1>   0.1200 
 14 C       -3.7000    -3.0280    -0.3840 C.3   1 <1>  -0.0550 
 15 O       -0.5850    -3.7140    -0.4160 O.3   1 <1>  -0.5600 
 16 S       -4.8920    -3.7450     0.7470 S.o2  1 <1>   1.3330 
 17 O       -5.3680    -2.6770     1.5950 O.2   1 <1>  -0.6500 
 18 O       -4.3530    -4.9490     1.3370 O.2   1 <1>  -0.6500 
 19 N       -6.1550    -4.1980    -0.2930 N.am  1 <1>  -0.8490 
 20 C       -7.4590    -4.1790     0.3770 C.3   1 <1>   0.1160 
 21 C       -5.9440    -5.5050    -0.9280 C.3   1 <1>   0.1160 
 22 H       -2.4060     0.1110     0.0040 H     1 <1>   0.4200 
 23 H       -2.0720    -1.6530    -1.6190 H     1 <1>   0.0800 
 24 H        2.5920    -0.0780     1.8120 H     1 <1>   0.1500 
 25 H       -2.6980    -1.9710     1.2010 H     1 <1>   0.0800 
 26 H        0.5050    -2.0640    -0.1820 H     1 <1>   0.0800 
 27 H        0.0480    -2.4440    -1.8430 H     1 <1>   0.0800 
 28 H        3.5050     1.4970    -2.1180 H     1 <1>   0.1500 
 29 H        4.4550     0.5650     0.2210 H     1 <1>   0.1500 
 30 H       -1.9440    -4.6030     0.7780 H     1 <1>   0.0800 
 31 H       -0.8960    -3.4180     1.5420 H     1 <1>   0.0800 
 32 H       -3.4270    -3.7500    -1.1290 H     1 <1>   0.0800 
 33 H       -4.1810    -2.2100    -0.8850 H     1 <1>   0.0800 
 34 H       -8.2380    -4.4550    -0.3120 H     1 <1>   0.0800 
 35 H       -7.6710    -3.1880     0.7430 H     1 <1>   0.0800 
 36 H       -7.4620    -4.8630     1.2100 H     1 <1>   0.0800 
 37 H       -6.7240    -5.6980    -1.6440 H     1 <1>   0.0800 
 38 H       -5.9460    -6.2890    -0.1880 H     1 <1>   0.0800 
 39 H       -4.9990    -5.5210    -1.4440 H     1 <1>   0.0800 
@<TRIPOS>BOND
  1   1   2  2   
  2   1   3  2   
  3   1   4  am  
  4   1   5  1   
  5   4   6  1   
  6   4  22  1   
  7   5   7  1   
  8   5   8  2   
  9   6   9  1   
 10   6  10  1   
 11   6  23  1   
 12   7  11  1   
 13   8  12  1   
 14   8  24  1   
 15   9  13  1   
 16   9  14  1   
 17   9  25  1   
 18  10  15  1   
 19  10  26  1   
 20  10  27  1   
 21  11  12  2   
 22  11  28  1   
 23  12  29  1   
 24  13  15  1   
 25  13  30  1   
 26  13  31  1   
 27  14  16  1   
 28  14  32  1   
 29  14  33  1   
 30  16  17  2   
 31  16  18  2   
 32  16  19  am  
 33  19  20  1   
 34  19  21  1   
 35  20  34  1   
 36  20  35  1   
 37  20  36  1   
 38  21  37  1   
 39  21  38  1   
 40  21  39  1   
@<TRIPOS>SUBSTRUCTURE
  1 ****   6 GROUP 4 **** **** 0

# MOE 2024.06 (io_trps.svl 2023.06)
