@<TRIPOS>MOLECULE
NONAME
33 33 1 0 0 
SMALL
USER_CHARGES


@<TRIPOS>ATOM
  1 O       -1.4450    -0.5710    -0.7830 O.2   1 <1>  -0.5700 
  2 C       -2.0030     0.3460    -0.2160 C.2   1 <1>   0.5690 
  3 N       -2.9880     0.0770     0.7100 N.am  1 <1>  -0.6600 
  4 C       -1.5660     1.7730    -0.6300 C.3   1 <1>   0.2610 
  5 C       -3.1960    -1.3230     1.1870 C.3   1 <1>   0.3200 
  6 C       -3.9310     1.0830     1.2890 C.3   1 <1>   0.1400 
  7 O       -1.3360     2.5950     0.4880 O.3   1 <1>  -0.5600 
  8 C       -2.5730     2.4650    -1.5620 C.3   1 <1>  -0.2400 
  9 C       -4.0980    -2.0860     0.2340 C.2   1 <1>   0.0060 
 10 C       -5.3080     0.9880     0.6200 C.3   1 <1>   0.1200 
 11 C       -0.3860     3.6000     0.3140 C.3   1 <1>   0.0400 
 12 N       -5.2590    -2.5790     0.5320 N.2   1 <1>  -0.5650 
 13 N       -3.7300    -2.3060    -1.0450 N.pl3 1 <1>   0.0330 
 14 O       -6.1150     2.0190     1.0800 O.3   1 <1>  -0.6800 
 15 C       -5.6680    -3.1510    -0.6180 C.2   1 <1>   0.0770 
 16 C       -4.7470    -2.9930    -1.5940 C.2   1 <1>  -0.3020 
 17 H       -0.6320     1.6620    -1.1530 H     1 <1>   0.0800 
 18 H       -3.6360    -1.3190     2.1690 H     1 <1>   0.0800 
 19 H       -2.2470    -1.8280     1.2570 H     1 <1>   0.0800 
 20 H       -3.5520     2.0780     1.1570 H     1 <1>   0.0800 
 21 H       -4.0280     0.9080     2.3460 H     1 <1>   0.0800 
 22 H       -3.4770     2.7090    -1.0380 H     1 <1>   0.0800 
 23 H       -2.8170     1.8080    -2.3760 H     1 <1>   0.0800 
 24 H       -2.1510     3.3620    -1.9750 H     1 <1>   0.0800 
 25 H       -5.7930     0.0540     0.8430 H     1 <1>   0.0800 
 26 H       -5.2140     1.0970    -0.4460 H     1 <1>   0.0800 
 27 H       -0.2940     4.1360     1.2420 H     1 <1>   0.0800 
 28 H       -0.7090     4.2740    -0.4590 H     1 <1>   0.0800 
 29 H        0.5610     3.1550     0.0600 H     1 <1>   0.0800 
 30 H       -2.8490    -1.9740    -1.4640 H     1 <1>   0.2700 
 31 H       -6.4210     1.8380     1.9900 H     1 <1>   0.4000 
 32 H       -6.6190    -3.6530    -0.6840 H     1 <1>   0.1500 
 33 H       -4.7580    -3.3210    -2.6170 H     1 <1>   0.1500 
@<TRIPOS>BOND
  1   1   2  2   
  2   2   3  am  
  3   2   4  1   
  4   3   5  1   
  5   3   6  1   
  6   4   7  1   
  7   4   8  1   
  8   4  17  1   
  9   5   9  1   
 10   5  18  1   
 11   5  19  1   
 12   6  10  1   
 13   6  20  1   
 14   6  21  1   
 15   7  11  1   
 16   8  22  1   
 17   8  23  1   
 18   8  24  1   
 19   9  12  2   
 20   9  13  1   
 21  10  14  1   
 22  10  25  1   
 23  10  26  1   
 24  11  27  1   
 25  11  28  1   
 26  11  29  1   
 27  12  15  1   
 28  13  16  1   
 29  13  30  1   
 30  14  31  1   
 31  15  16  2   
 32  15  32  1   
 33  16  33  1   
@<TRIPOS>SUBSTRUCTURE
  1 ****   3 GROUP 4 **** **** 0

# MOE 2024.06 (io_trps.svl 2023.06)
