@<TRIPOS>MOLECULE
NONAME
44 45 1 0 0 
SMALL
USER_CHARGES


@<TRIPOS>ATOM
  1 CL      -2.0490     0.3620    -2.6290 Cl    1 <1>  -0.1230 
  2 C       -2.7120     0.2760    -1.0030 C.2   1 <1>   0.1230 
  3 C       -3.0770    -0.8810    -0.3070 C.2   1 <1>   0.2030 
  4 C       -2.9530     1.3260    -0.1980 C.2   1 <1>  -0.3320 
  5 N       -3.5310    -0.5390     0.8910 N.2   1 <1>  -0.7070 
  6 C       -2.9860    -2.2460    -0.7950 C.2   1 <1>   0.7160 
  7 N       -3.4490     0.8010     0.9440 N.pl3 1 <1>   0.3140 
  8 C       -2.7360     2.8100    -0.4560 C.3   1 <1>  -0.0600 
  9 O       -2.6940    -2.5330    -1.9420 O.2   1 <1>  -0.5700 
 10 N       -3.2710    -3.2700     0.0610 N.am  1 <1>  -0.7300 
 11 C       -3.8630     1.5440     2.1420 C.3   1 <1>   0.0160 
 12 C       -3.2380    -4.7180    -0.2430 C.3   1 <1>   0.2200 
 13 C       -4.6460    -5.2640    -0.4210 C.3   1 <1>  -0.0800 
 14 C       -2.7950    -5.4790     0.9990 C.3   1 <1>   0.1200 
 15 C       -5.0910    -5.5250     1.0220 C.3   1 <1>   0.1200 
 16 C       -5.5920    -4.3630    -1.2460 C.3   1 <1>  -0.0550 
 17 O       -3.9310    -5.5690     1.8030 O.3   1 <1>  -0.5600 
 18 S       -7.1880    -5.1000    -1.6050 S.o2  1 <1>   1.3330 
 19 O       -6.9630    -6.4590    -2.0470 O.2   1 <1>  -0.6500 
 20 O       -7.9570    -4.1990    -2.4320 O.2   1 <1>  -0.6500 
 21 N       -7.9570    -5.1690    -0.0920 N.am  1 <1>  -0.8490 
 22 C       -8.5370    -3.8860     0.3230 C.3   1 <1>   0.1160 
 23 C       -8.9840    -6.2140    -0.0440 C.3   1 <1>   0.1160 
 24 H       -2.3320     2.9640    -1.4410 H     1 <1>   0.0800 
 25 H       -2.0450     3.2160     0.2610 H     1 <1>   0.0800 
 26 H       -3.6680     3.3420    -0.3860 H     1 <1>   0.0800 
 27 H       -3.5360    -3.0120     1.0170 H     1 <1>   0.3700 
 28 H       -4.6510     2.2240     1.8820 H     1 <1>   0.0800 
 29 H       -3.0220     2.0860     2.5300 H     1 <1>   0.0800 
 30 H       -4.2160     0.8510     2.8840 H     1 <1>   0.0800 
 31 H       -2.6030    -4.9160    -1.0910 H     1 <1>   0.0800 
 32 H       -4.5690    -6.2180    -0.9150 H     1 <1>   0.0800 
 33 H       -2.0070    -4.9810     1.5360 H     1 <1>   0.0800 
 34 H       -2.4930    -6.4800     0.7450 H     1 <1>   0.0800 
 35 H       -5.6160    -6.4600     1.1180 H     1 <1>   0.0800 
 36 H       -5.7030    -4.7250     1.4010 H     1 <1>   0.0800 
 37 H       -5.1070    -4.1430    -2.1790 H     1 <1>   0.0800 
 38 H       -5.7410    -3.4300    -0.7400 H     1 <1>   0.0800 
 39 H       -8.9360    -3.9660     1.3200 H     1 <1>   0.0800 
 40 H       -9.3280    -3.5940    -0.3480 H     1 <1>   0.0800 
 41 H       -7.7830    -3.1180     0.3210 H     1 <1>   0.0800 
 42 H       -9.4430    -6.2420     0.9290 H     1 <1>   0.0800 
 43 H       -8.5400    -7.1770    -0.2340 H     1 <1>   0.0800 
 44 H       -9.7400    -6.0290    -0.7890 H     1 <1>   0.0800 
@<TRIPOS>BOND
  1   1   2  1   
  2   2   3  1   
  3   2   4  2   
  4   3   5  2   
  5   3   6  1   
  6   4   7  1   
  7   4   8  1   
  8   5   7  1   
  9   6   9  2   
 10   6  10  am  
 11   7  11  1   
 12   8  24  1   
 13   8  25  1   
 14   8  26  1   
 15  10  12  1   
 16  10  27  1   
 17  11  28  1   
 18  11  29  1   
 19  11  30  1   
 20  12  13  1   
 21  12  14  1   
 22  12  31  1   
 23  13  15  1   
 24  13  16  1   
 25  13  32  1   
 26  14  17  1   
 27  14  33  1   
 28  14  34  1   
 29  15  17  1   
 30  15  35  1   
 31  15  36  1   
 32  16  18  1   
 33  16  37  1   
 34  16  38  1   
 35  18  19  2   
 36  18  20  2   
 37  18  21  am  
 38  21  22  1   
 39  21  23  1   
 40  22  39  1   
 41  22  40  1   
 42  22  41  1   
 43  23  42  1   
 44  23  43  1   
 45  23  44  1   
@<TRIPOS>SUBSTRUCTURE
  1 ****  10 GROUP 4 **** **** 0

# MOE 2024.06 (io_trps.svl 2023.06)
