@<TRIPOS>MOLECULE
NONAME
57 60 1 0 0 
SMALL
USER_CHARGES


@<TRIPOS>ATOM
  1 O       -3.0900     1.8170     2.0870 O.2   1 <1>  -0.5700 
  2 C       -2.8050     1.9380     0.9180 C.2   1 <1>   0.5690 
  3 N       -2.7710     0.8480     0.0870 N.am  1 <1>  -0.6600 
  4 C       -2.5130     3.3350     0.4110 C.3   1 <1>   0.1570 
  5 C       -2.3530     0.8390    -1.3410 C.3   1 <1>   0.1400 
  6 C       -2.9430    -0.5420     0.5780 C.3   1 <1>   0.1400 
  7 N       -1.1160     3.4420    -0.0310 N.pl3 1 <1>   0.3140 
  8 C       -2.6990    -0.5670    -1.8260 C.3   1 <1>   0.2000 
  9 C       -2.4790    -1.4360    -0.5820 C.3   1 <1>  -0.0800 
 10 N       -0.8240     3.6250    -1.3330 N.2   1 <1>  -0.7070 
 11 C        0.0080     3.3770     0.7210 C.2   1 <1>  -0.3320 
 12 O       -4.0420    -0.5850    -2.1770 O.3   1 <1>  -0.6800 
 13 C       -3.1690    -2.8150    -0.6320 C.3   1 <1>  -0.0170 
 14 C        0.4680     3.6710    -1.3830 C.2   1 <1>   0.1080 
 15 C        1.0510     3.5210    -0.1270 C.2   1 <1>  -0.1810 
 16 C        0.0160     3.1720     2.2300 C.3   1 <1>  -0.0600 
 17 C       -2.8560    -3.7820     0.5180 C.ar  1 <1>  -0.1440 
 18 C        1.2120     3.8720    -2.6840 C.3   1 <1>  -0.0590 
 19 C        2.5380     3.5240     0.1870 C.3   1 <1>   0.0210 
 20 C       -3.6020    -4.9810     0.6480 C.ar  1 <1>   0.0000 
 21 C       -1.8720    -3.5650     1.4430 C.ar  1 <1>  -0.1500 
 22 C        3.0970     2.1020     0.1250 C.3   1 <1>  -0.2400 
 23 C       -3.2950    -5.8430     1.7300 C.ar  1 <1>   0.3100 
 24 C       -4.6310    -5.3820    -0.2380 C.ar  1 <1>  -0.1500 
 25 C       -1.6470    -4.4860     2.4720 C.ar  1 <1>   0.1600 
 26 N       -2.3170    -5.5810     2.6320 N.ar  1 <1>  -0.6200 
 27 C       -4.0260    -7.0320     1.8850 C.ar  1 <1>  -0.1500 
 28 C       -5.3230    -6.5480    -0.0600 C.ar  1 <1>  -0.1500 
 29 C       -5.0210    -7.3860     1.0160 C.ar  1 <1>  -0.1500 
 30 H       -2.6810     4.0490     1.1930 H     1 <1>   0.0800 
 31 H       -3.1590     3.5630    -0.4140 H     1 <1>   0.0800 
 32 H       -2.8480     1.6000    -1.9200 H     1 <1>   0.0800 
 33 H       -1.2870     0.9840    -1.3960 H     1 <1>   0.0800 
 34 H       -2.3620    -0.7020     1.4700 H     1 <1>   0.0800 
 35 H       -3.9840    -0.7080     0.8010 H     1 <1>   0.0800 
 36 H       -2.1160    -0.8760    -2.6770 H     1 <1>   0.0800 
 37 H       -1.4170    -1.5800    -0.4920 H     1 <1>   0.0800 
 38 H       -4.5530    -0.1360    -1.4750 H     1 <1>   0.4000 
 39 H       -2.8970    -3.2970    -1.5550 H     1 <1>   0.0800 
 40 H       -4.2320    -2.6540    -0.6540 H     1 <1>   0.0800 
 41 H        1.0160     3.2180     2.6170 H     1 <1>   0.0800 
 42 H       -0.3940     2.2080     2.4770 H     1 <1>   0.0800 
 43 H       -0.5700     3.9330     2.7130 H     1 <1>   0.0800 
 44 H        1.9920     3.1410    -2.7790 H     1 <1>   0.0800 
 45 H        1.6390     4.8570    -2.7060 H     1 <1>   0.0800 
 46 H        0.5340     3.7680    -3.5110 H     1 <1>   0.0800 
 47 H        3.0560     4.1530    -0.5140 H     1 <1>   0.0800 
 48 H        2.6980     3.9330     1.1680 H     1 <1>   0.0800 
 49 H       -1.2370    -2.7010     1.4280 H     1 <1>   0.1500 
 50 H        2.9550     1.6900    -0.8580 H     1 <1>   0.0800 
 51 H        2.5870     1.4760     0.8360 H     1 <1>   0.0800 
 52 H        4.1470     2.1050     0.3540 H     1 <1>   0.0800 
 53 H       -4.8810    -4.7610    -1.0780 H     1 <1>   0.1500 
 54 H       -0.8640    -4.2680     3.1790 H     1 <1>   0.1500 
 55 H       -3.7720    -7.6610     2.7190 H     1 <1>   0.1500 
 56 H       -6.1050    -6.8360    -0.7420 H     1 <1>   0.1500 
 57 H       -5.5730    -8.3010     1.1480 H     1 <1>   0.1500 
@<TRIPOS>BOND
  1   1   2  2   
  2   2   3  am  
  3   2   4  1   
  4   3   5  1   
  5   3   6  1   
  6   4   7  1   
  7   4  30  1   
  8   4  31  1   
  9   5   8  1   
 10   5  32  1   
 11   5  33  1   
 12   6   9  1   
 13   6  34  1   
 14   6  35  1   
 15   7  10  1   
 16   7  11  1   
 17   8   9  1   
 18   8  12  1   
 19   8  36  1   
 20   9  13  1   
 21   9  37  1   
 22  10  14  2   
 23  11  15  2   
 24  11  16  1   
 25  12  38  1   
 26  13  17  1   
 27  13  39  1   
 28  13  40  1   
 29  14  15  1   
 30  14  18  1   
 31  15  19  1   
 32  16  41  1   
 33  16  42  1   
 34  16  43  1   
 35  17  20  ar  
 36  17  21  ar  
 37  18  44  1   
 38  18  45  1   
 39  18  46  1   
 40  19  22  1   
 41  19  47  1   
 42  19  48  1   
 43  20  23  ar  
 44  20  24  ar  
 45  21  25  ar  
 46  21  49  1   
 47  22  50  1   
 48  22  51  1   
 49  22  52  1   
 50  23  26  ar  
 51  23  27  ar  
 52  24  28  ar  
 53  24  53  1   
 54  25  26  ar  
 55  25  54  1   
 56  27  29  ar  
 57  27  55  1   
 58  28  29  ar  
 59  28  56  1   
 60  29  57  1   
@<TRIPOS>SUBSTRUCTURE
  1 ****   6 GROUP 4 **** **** 0

# MOE 2024.06 (io_trps.svl 2023.06)
