@<TRIPOS>MOLECULE
NONAME
44 46 1 0 0 
SMALL
USER_CHARGES


@<TRIPOS>ATOM
  1 CL      -2.6850     1.3020     2.4360 Cl    1 <1>  -0.1770 
  2 C       -2.6420     1.0280     0.7080 C.ar  1 <1>   0.1770 
  3 C       -1.5700     1.4850    -0.0540 C.ar  1 <1>  -0.1440 
  4 C       -3.7060     0.3480     0.1460 C.ar  1 <1>  -0.1500 
  5 C       -1.5940     1.2190    -1.4210 C.ar  1 <1>  -0.1500 
  6 C       -0.4250     2.2380     0.6340 C.3   1 <1>   0.0640 
  7 C       -3.7150     0.1040    -1.2140 C.ar  1 <1>  -0.1500 
  8 C       -2.6570     0.5390    -1.9920 C.ar  1 <1>  -0.1500 
  9 C       -0.8900     3.5660     1.2420 C.3   1 <1>   0.3430 
 10 C        0.7860     2.6290    -0.2180 C.3   1 <1>  -0.1600 
 11 N        0.2090     4.5520     1.0130 N.4   1 <1>  -0.9590 
 12 C        1.3930     3.7920     0.5430 C.3   1 <1>   0.3430 
 13 C        0.4970     5.4480     2.1790 C.3   1 <1>   0.3430 
 14 C        0.6230     6.9190     1.7490 C.3   1 <1>   0.1400 
 15 N        1.5960     7.0950     0.6310 N.am  1 <1>  -0.4200 
 16 C        2.9220     7.3260     0.9200 C.2   1 <1>   0.6900 
 17 C        1.1760     7.0680    -0.6850 C.2   1 <1>   0.6160 
 18 O        3.3570     7.1400     2.0360 O.2   1 <1>  -0.5700 
 19 N        3.7580     7.7240    -0.0840 N.am  1 <1>  -0.5390 
 20 O        0.0830     6.5920    -0.9430 O.2   1 <1>  -0.5700 
 21 C        2.0710     7.5180    -1.6990 C.2   1 <1>  -0.1360 
 22 C        3.3470     7.8450    -1.3950 C.2   1 <1>  -0.0290 
 23 C        4.3720     8.3340    -2.3980 C.3   1 <1>  -0.1020 
 24 H       -4.5180     0.0130     0.7670 H     1 <1>   0.1500 
 25 H       -0.7980     1.5230    -2.0750 H     1 <1>   0.1500 
 26 H       -0.0680     1.6220     1.4420 H     1 <1>   0.0800 
 27 H       -4.5380    -0.4230    -1.6660 H     1 <1>   0.1500 
 28 H       -2.6620     0.3440    -3.0520 H     1 <1>   0.1500 
 29 H       -1.0870     3.4370     2.2940 H     1 <1>   0.0800 
 30 H       -1.7910     3.9010     0.7540 H     1 <1>   0.0800 
 31 H        0.4930     2.9940    -1.1860 H     1 <1>   0.0800 
 32 H        1.4810     1.8170    -0.3370 H     1 <1>   0.0800 
 33 H       -0.0850     5.1600     0.2170 H     1 <1>   0.4500 
 34 H        2.0320     4.3950    -0.0840 H     1 <1>   0.0800 
 35 H        1.9560     3.4230     1.3850 H     1 <1>   0.0800 
 36 H        1.4090     5.1430     2.6660 H     1 <1>   0.0800 
 37 H       -0.3000     5.3740     2.9010 H     1 <1>   0.0800 
 38 H        0.9390     7.5070     2.5940 H     1 <1>   0.0800 
 39 H       -0.3420     7.2900     1.4490 H     1 <1>   0.0800 
 40 H        4.7160     7.9370     0.2060 H     1 <1>   0.3700 
 41 H        1.6760     7.5730    -2.6970 H     1 <1>   0.1500 
 42 H        4.7190     9.3150    -2.1240 H     1 <1>   0.0800 
 43 H        3.9450     8.3880    -3.3840 H     1 <1>   0.0800 
 44 H        5.2130     7.6640    -2.4270 H     1 <1>   0.0800 
@<TRIPOS>BOND
  1   1   2  1   
  2   2   3  ar  
  3   2   4  ar  
  4   3   5  ar  
  5   3   6  1   
  6   4   7  ar  
  7   4  24  1   
  8   5   8  ar  
  9   5  25  1   
 10   6   9  1   
 11   6  10  1   
 12   6  26  1   
 13   7   8  ar  
 14   7  27  1   
 15   8  28  1   
 16   9  11  1   
 17   9  29  1   
 18   9  30  1   
 19  10  12  1   
 20  10  31  1   
 21  10  32  1   
 22  11  12  1   
 23  11  13  1   
 24  11  33  1   
 25  12  34  1   
 26  12  35  1   
 27  13  14  1   
 28  13  36  1   
 29  13  37  1   
 30  14  15  1   
 31  14  38  1   
 32  14  39  1   
 33  15  16  am  
 34  15  17  am  
 35  16  18  2   
 36  16  19  am  
 37  17  20  2   
 38  17  21  1   
 39  19  22  1   
 40  19  40  1   
 41  21  22  2   
 42  21  41  1   
 43  22  23  1   
 44  23  42  1   
 45  23  43  1   
 46  23  44  1   
@<TRIPOS>SUBSTRUCTURE
  1 ****  11 GROUP 4 **** **** 0

# MOE 2024.06 (io_trps.svl 2023.06)
