@<TRIPOS>MOLECULE
NONAME
44 46 1 0 0 
SMALL
USER_CHARGES


@<TRIPOS>ATOM
  1 O       -4.5950    -0.4350    -1.2160 O.2   1 <1>  -0.5700 
  2 C       -3.7750     0.2520    -0.6410 C.2   1 <1>   0.6900 
  3 N       -2.7910    -0.2950     0.1740 N.am  1 <1>  -0.4690 
  4 N       -3.8220     1.6030    -0.7850 N.am  1 <1>  -0.4900 
  5 C       -1.8900     0.5290     0.8390 C.2   1 <1>  -0.0410 
  6 C       -2.6950    -1.7700     0.3170 C.3   1 <1>   0.1400 
  7 C       -2.9600     2.4460    -0.1570 C.2   1 <1>   0.6160 
  8 C       -1.9650     1.8710     0.6830 C.2   1 <1>  -0.1360 
  9 C       -3.7020    -2.2660     1.3540 C.3   1 <1>  -0.0990 
 10 O       -3.0720     3.6400    -0.3360 O.2   1 <1>  -0.5700 
 11 C       -3.7970    -3.7730     1.2830 C.2   1 <1>   0.5690 
 12 O       -3.0850    -4.4130     2.0180 O.2   1 <1>  -0.5700 
 13 N       -4.6470    -4.3720     0.3950 N.am  1 <1>  -0.6600 
 14 C       -5.5530    -3.6910    -0.5680 C.3   1 <1>   0.1400 
 15 C       -4.7910    -5.8440     0.2980 C.3   1 <1>   0.1400 
 16 C       -6.2680    -4.8240    -1.3080 C.3   1 <1>   0.2000 
 17 C       -6.1230    -6.0600    -0.4230 C.3   1 <1>  -0.0800 
 18 O       -7.6110    -4.5420    -1.5030 O.3   1 <1>  -0.6800 
 19 C       -6.2050    -7.3710    -1.2230 C.3   1 <1>  -0.0160 
 20 C       -6.1220    -8.5930    -0.3220 C.ar  1 <1>   0.1670 
 21 N       -4.9090    -8.9960     0.0210 N.ar  1 <1>  -0.6200 
 22 C       -7.2900    -9.2260     0.1010 C.ar  1 <1>   0.1600 
 23 C       -4.9410   -10.0580     0.8080 C.ar  1 <1>   0.1600 
 24 N       -7.3250   -10.2880     0.8880 N.ar  1 <1>  -0.6200 
 25 C       -6.1090   -10.6820     1.2280 C.ar  1 <1>   0.1600 
 26 H       -4.5370     1.9990    -1.3840 H     1 <1>   0.3700 
 27 H       -1.1500     0.0590     1.4680 H     1 <1>   0.1500 
 28 H       -2.8930    -2.2280    -0.6370 H     1 <1>   0.0800 
 29 H       -1.6990    -2.0510     0.6130 H     1 <1>   0.0800 
 30 H       -1.2980     2.5550     1.1710 H     1 <1>   0.1500 
 31 H       -4.6700    -1.8360     1.1840 H     1 <1>   0.0800 
 32 H       -3.3740    -1.9830     2.3380 H     1 <1>   0.0800 
 33 H       -6.2560    -3.0790    -0.0320 H     1 <1>   0.0800 
 34 H       -4.9890    -3.0880    -1.2580 H     1 <1>   0.0800 
 35 H       -3.9720    -6.2410    -0.2780 H     1 <1>   0.0800 
 36 H       -4.7890    -6.3010     1.2740 H     1 <1>   0.0800 
 37 H       -5.8090    -4.9740    -2.2710 H     1 <1>   0.0800 
 38 H       -6.8920    -6.0530     0.3300 H     1 <1>   0.0800 
 39 H       -8.0520    -4.3710    -0.6480 H     1 <1>   0.4000 
 40 H       -5.4070    -7.4130    -1.9440 H     1 <1>   0.0800 
 41 H       -7.1320    -7.3930    -1.7690 H     1 <1>   0.0800 
 42 H       -8.2380    -8.8350    -0.2240 H     1 <1>   0.1500 
 43 H       -3.9970   -10.4540     1.1380 H     1 <1>   0.1500 
 44 H       -6.0330   -11.5420     1.8690 H     1 <1>   0.1500 
@<TRIPOS>BOND
  1   1   2  2   
  2   2   3  am  
  3   2   4  am  
  4   3   5  1   
  5   3   6  1   
  6   4   7  am  
  7   4  26  1   
  8   5   8  2   
  9   5  27  1   
 10   6   9  1   
 11   6  28  1   
 12   6  29  1   
 13   7   8  1   
 14   7  10  2   
 15   8  30  1   
 16   9  11  1   
 17   9  31  1   
 18   9  32  1   
 19  11  12  2   
 20  11  13  am  
 21  13  14  1   
 22  13  15  1   
 23  14  16  1   
 24  14  33  1   
 25  14  34  1   
 26  15  17  1   
 27  15  35  1   
 28  15  36  1   
 29  16  17  1   
 30  16  18  1   
 31  16  37  1   
 32  17  19  1   
 33  17  38  1   
 34  18  39  1   
 35  19  20  1   
 36  19  40  1   
 37  19  41  1   
 38  20  21  ar  
 39  20  22  ar  
 40  21  23  ar  
 41  22  24  ar  
 42  22  42  1   
 43  23  25  ar  
 44  23  43  1   
 45  24  25  ar  
 46  25  44  1   
@<TRIPOS>SUBSTRUCTURE
  1 ****  13 GROUP 4 **** **** 0

# MOE 2024.06 (io_trps.svl 2023.06)
