@<TRIPOS>MOLECULE
NONAME
49 50 1 0 0 
SMALL
USER_CHARGES


@<TRIPOS>ATOM
  1 S        1.1860     1.2580    -0.3860 S.o2  1 <1>   1.3330 
  2 O        0.5490     1.8540    -1.5350 O.2   1 <1>  -0.6500 
  3 O        2.3670     1.9080     0.1420 O.2   1 <1>  -0.6500 
  4 N        1.5230    -0.3710    -0.6940 N.am  1 <1>  -0.8490 
  5 C       -0.0120     1.2140     0.9520 C.3   1 <1>  -0.0550 
  6 C        2.8740    -0.5810    -1.2260 C.3   1 <1>   0.1160 
  7 C        0.5410    -1.0170    -1.5770 C.3   1 <1>   0.1160 
  8 C       -0.4600     2.5880     1.5200 C.3   1 <1>  -0.0800 
  9 C       -1.1180     3.4990     0.4760 C.3   1 <1>   0.2000 
 10 C        0.6970     3.4350     2.0600 C.3   1 <1>   0.3430 
 11 O       -2.1050     4.2410     1.1120 O.3   1 <1>  -0.6800 
 12 C       -0.0130     4.4430    -0.0250 C.3   1 <1>   0.3430 
 13 N        1.1390     4.2830     0.9240 N.4   1 <1>  -0.9590 
 14 C        1.8080     5.5560     1.3110 C.3   1 <1>   0.4860 
 15 C        2.0680     6.3970     0.0700 C.ar  1 <1>  -0.1440 
 16 C        3.0240     6.0040    -0.8690 C.ar  1 <1>  -0.1440 
 17 C        1.3360     7.5670    -0.1340 C.ar  1 <1>  -0.1440 
 18 C        3.2160     6.7710    -2.0070 C.ar  1 <1>  -0.1500 
 19 C        3.8930     4.7580    -0.7270 C.3   1 <1>  -0.0970 
 20 C        1.5490     8.3180    -1.2780 C.ar  1 <1>  -0.1500 
 21 C        0.3000     8.0760     0.8640 C.3   1 <1>  -0.0970 
 22 C        2.4830     7.9210    -2.2140 C.ar  1 <1>  -0.1500 
 23 H       -0.8850     0.6900     0.6120 H     1 <1>   0.0800 
 24 H        0.4030     0.6340     1.7550 H     1 <1>   0.0800 
 25 H        3.0580    -1.6320    -1.3750 H     1 <1>   0.0800 
 26 H        3.6080    -0.2100    -0.5300 H     1 <1>   0.0800 
 27 H        2.9950    -0.0650    -2.1640 H     1 <1>   0.0800 
 28 H        0.7610    -2.0670    -1.6690 H     1 <1>   0.0800 
 29 H        0.5620    -0.5680    -2.5570 H     1 <1>   0.0800 
 30 H       -0.4510    -0.9150    -1.1710 H     1 <1>   0.0800 
 31 H       -1.1510     2.3780     2.3190 H     1 <1>   0.0800 
 32 H       -1.5870     2.9620    -0.3330 H     1 <1>   0.0800 
 33 H        1.5050     2.8210     2.4290 H     1 <1>   0.0800 
 34 H        0.3350     4.0600     2.8590 H     1 <1>   0.0800 
 35 H       -1.7740     4.7590     1.8700 H     1 <1>   0.4000 
 36 H       -0.3740     5.4570    -0.0550 H     1 <1>   0.0800 
 37 H        0.2970     4.1580    -1.0180 H     1 <1>   0.0800 
 38 H        1.8590     3.7390     0.4070 H     1 <1>   0.4500 
 39 H        1.1860     6.1010     1.9980 H     1 <1>   0.0800 
 40 H        2.7440     5.3470     1.8030 H     1 <1>   0.0800 
 41 H        3.9440     6.4780    -2.7450 H     1 <1>   0.1500 
 42 H        4.8560     4.9290    -1.1750 H     1 <1>   0.0800 
 43 H        3.4330     3.9320    -1.2400 H     1 <1>   0.0800 
 44 H        4.0630     4.4920     0.2990 H     1 <1>   0.0800 
 45 H        0.9940     9.2230    -1.4550 H     1 <1>   0.1500 
 46 H       -0.1510     8.9890     0.5160 H     1 <1>   0.0800 
 47 H        0.7660     8.2850     1.8100 H     1 <1>   0.0800 
 48 H       -0.4860     7.3570     1.0020 H     1 <1>   0.0800 
 49 H        2.6410     8.5090    -3.1010 H     1 <1>   0.1500 
@<TRIPOS>BOND
  1   1   2  2   
  2   1   3  2   
  3   1   4  am  
  4   1   5  1   
  5   4   6  1   
  6   4   7  1   
  7   5   8  1   
  8   5  23  1   
  9   5  24  1   
 10   6  25  1   
 11   6  26  1   
 12   6  27  1   
 13   7  28  1   
 14   7  29  1   
 15   7  30  1   
 16   8   9  1   
 17   8  10  1   
 18   8  31  1   
 19   9  11  1   
 20   9  12  1   
 21   9  32  1   
 22  10  13  1   
 23  10  33  1   
 24  10  34  1   
 25  11  35  1   
 26  12  13  1   
 27  12  36  1   
 28  12  37  1   
 29  13  14  1   
 30  13  38  1   
 31  14  15  1   
 32  14  39  1   
 33  14  40  1   
 34  15  16  ar  
 35  15  17  ar  
 36  16  18  ar  
 37  16  19  1   
 38  17  20  ar  
 39  17  21  1   
 40  18  22  ar  
 41  18  41  1   
 42  19  42  1   
 43  19  43  1   
 44  19  44  1   
 45  20  22  ar  
 46  20  45  1   
 47  21  46  1   
 48  21  47  1   
 49  21  48  1   
 50  22  49  1   
@<TRIPOS>SUBSTRUCTURE
  1 ****  13 GROUP 4 **** **** 0

# MOE 2024.06 (io_trps.svl 2023.06)
