@<TRIPOS>MOLECULE
NONAME
47 49 1 0 0 
SMALL
USER_CHARGES


@<TRIPOS>ATOM
  1 CL       1.7850     4.4980     2.1000 Cl    1 <1>  -0.1770 
  2 C        0.7880     3.5020     1.0650 C.ar  1 <1>   0.1770 
  3 C        1.3430     2.4880     0.2930 C.ar  1 <1>  -0.1440 
  4 C       -0.5710     3.7600     1.0510 C.ar  1 <1>  -0.1500 
  5 C        0.4900     1.7240    -0.4960 C.ar  1 <1>  -0.1500 
  6 C        2.8460     2.2140     0.2960 C.3   1 <1>   0.3640 
  7 C       -1.4060     2.9920     0.2590 C.ar  1 <1>  -0.1500 
  8 C       -0.8720     1.9740    -0.5130 C.ar  1 <1>  -0.1500 
  9 N        3.0480     0.7680     0.5680 N.am  1 <1>  -0.7300 
 10 C        3.5170     2.6430    -1.0340 C.3   1 <1>   0.2610 
 11 C        3.9110    -0.0130    -0.1180 C.2   1 <1>   0.5690 
 12 O        4.7840     2.0100    -1.1900 O.3   1 <1>  -0.5600 
 13 C        3.6620     4.1660    -1.0710 C.2   1 <1>   0.5690 
 14 O        4.0250    -1.1820     0.1460 O.2   1 <1>  -0.5700 
 15 C        4.7240     0.6020    -1.2600 C.3   1 <1>   0.1810 
 16 O        2.6780     4.8380    -1.2720 O.2   1 <1>  -0.5700 
 17 N        4.8960     4.7010    -0.8670 N.am  1 <1>  -0.7300 
 18 C        5.3030     6.1060    -0.7050 C.3   1 <1>   0.3000 
 19 C        6.8300     6.1200    -0.5060 C.3   1 <1>  -0.1600 
 20 C        4.6150     6.7110     0.5330 C.3   1 <1>  -0.1600 
 21 C        4.9460     6.8820    -1.9750 C.3   1 <1>  -0.2400 
 22 C        7.2800     5.4520     0.8060 C.3   1 <1>  -0.1600 
 23 C        5.0490     6.0420     1.8490 C.3   1 <1>  -0.1600 
 24 C        6.5730     6.0800     2.0140 C.3   1 <1>  -0.1600 
 25 H       -0.9670     4.5550     1.6560 H     1 <1>   0.1500 
 26 H        0.8790     0.9250    -1.1040 H     1 <1>   0.1500 
 27 H        3.3220     2.7570     1.0930 H     1 <1>   0.0800 
 28 H       -2.4640     3.1870     0.2410 H     1 <1>   0.1500 
 29 H       -1.5210     1.3760    -1.1300 H     1 <1>   0.1500 
 30 H        2.5040     0.3530     1.3270 H     1 <1>   0.3700 
 31 H        2.9000     2.3530    -1.8650 H     1 <1>   0.0800 
 32 H        4.2870     0.3260    -2.2020 H     1 <1>   0.0800 
 33 H        5.7310     0.2280    -1.2220 H     1 <1>   0.0800 
 34 H        5.6660     4.0370    -0.7620 H     1 <1>   0.3700 
 35 H        7.3090     5.6420    -1.3430 H     1 <1>   0.0800 
 36 H        7.1630     7.1430    -0.4920 H     1 <1>   0.0800 
 37 H        4.8620     7.7570     0.5860 H     1 <1>   0.0800 
 38 H        3.5460     6.6470     0.4270 H     1 <1>   0.0800 
 39 H        5.3120     7.8900    -1.9100 H     1 <1>   0.0800 
 40 H        3.8800     6.9270    -2.1060 H     1 <1>   0.0800 
 41 H        5.3840     6.4130    -2.8370 H     1 <1>   0.0800 
 42 H        7.0650     4.3990     0.7770 H     1 <1>   0.0800 
 43 H        8.3450     5.5640     0.9180 H     1 <1>   0.0800 
 44 H        4.5820     6.5460     2.6780 H     1 <1>   0.0800 
 45 H        4.7140     5.0200     1.8600 H     1 <1>   0.0800 
 46 H        6.8920     7.1030     2.1230 H     1 <1>   0.0800 
 47 H        6.8510     5.5530     2.9110 H     1 <1>   0.0800 
@<TRIPOS>BOND
  1   1   2  1   
  2   2   3  ar  
  3   2   4  ar  
  4   3   5  ar  
  5   3   6  1   
  6   4   7  ar  
  7   4  25  1   
  8   5   8  ar  
  9   5  26  1   
 10   6   9  1   
 11   6  10  1   
 12   6  27  1   
 13   7   8  ar  
 14   7  28  1   
 15   8  29  1   
 16   9  11  am  
 17   9  30  1   
 18  10  12  1   
 19  10  13  1   
 20  10  31  1   
 21  11  14  2   
 22  11  15  1   
 23  12  15  1   
 24  13  16  2   
 25  13  17  am  
 26  15  32  1   
 27  15  33  1   
 28  17  18  1   
 29  17  34  1   
 30  18  19  1   
 31  18  20  1   
 32  18  21  1   
 33  19  22  1   
 34  19  35  1   
 35  19  36  1   
 36  20  23  1   
 37  20  37  1   
 38  20  38  1   
 39  21  39  1   
 40  21  40  1   
 41  21  41  1   
 42  22  24  1   
 43  22  42  1   
 44  22  43  1   
 45  23  24  1   
 46  23  44  1   
 47  23  45  1   
 48  24  46  1   
 49  24  47  1   
@<TRIPOS>SUBSTRUCTURE
  1 ****  13 GROUP 4 **** **** 0

# MOE 2024.06 (io_trps.svl 2023.06)
