@<TRIPOS>MOLECULE
NONAME
41 43 1 0 0 
SMALL
USER_CHARGES


@<TRIPOS>ATOM
  1 O        0.5430    -1.6880     1.5340 O.3   1 <1>  -0.6800 
  2 C        1.0650    -1.4500     0.2820 C.3   1 <1>   0.2000 
  3 C        1.6010    -2.7490    -0.3010 C.3   1 <1>  -0.1600 
  4 C        2.2780    -0.5440     0.4140 C.3   1 <1>  -0.1600 
  5 C        2.7770    -2.3360    -1.1990 C.3   1 <1>  -0.0800 
  6 C        3.2070    -0.9340    -0.7440 C.3   1 <1>  -0.0800 
  7 C        4.0080    -3.2350    -1.0320 C.3   1 <1>  -0.1600 
  8 C        4.6740    -1.0510    -0.3170 C.3   1 <1>  -0.1600 
  9 C        4.8660    -2.5280     0.0160 C.3   1 <1>   0.4230 
 10 N        6.2950    -2.9460    -0.0560 N.4   1 <1>  -0.9590 
 11 C        7.1510    -2.2280     0.9300 C.3   1 <1>   0.4860 
 12 C        6.4610    -4.4260     0.0940 C.3   1 <1>   0.2630 
 13 C        7.9170    -1.1490     0.1890 C.ar  1 <1>  -0.1430 
 14 C        7.7250     0.1930     0.4550 C.ar  1 <1>  -0.1500 
 15 C        8.8480    -1.4510    -0.7890 C.ar  1 <1>  -0.1500 
 16 C        8.4330     1.1420    -0.2630 C.ar  1 <1>   0.1600 
 17 C        9.5050    -0.4250    -1.4470 C.ar  1 <1>   0.1600 
 18 N        9.3100     0.8600    -1.2100 N.ar  1 <1>  -0.6200 
 19 H       -0.2840    -2.2030     1.4650 H     1 <1>   0.4000 
 20 H        0.3130    -1.0060    -0.3500 H     1 <1>   0.0800 
 21 H        1.9430    -3.3830     0.5000 H     1 <1>   0.0800 
 22 H        0.8430    -3.2630    -0.8650 H     1 <1>   0.0800 
 23 H        1.9910     0.4910     0.3550 H     1 <1>   0.0800 
 24 H        2.7520    -0.7260     1.3630 H     1 <1>   0.0800 
 25 H        2.4550    -2.3130    -2.2290 H     1 <1>   0.0800 
 26 H        3.0960    -0.2270    -1.5510 H     1 <1>   0.0800 
 27 H        4.5310    -3.2710    -1.9720 H     1 <1>   0.0800 
 28 H        3.7330    -4.2320    -0.7350 H     1 <1>   0.0800 
 29 H        4.8900    -0.4100     0.5180 H     1 <1>   0.0800 
 30 H        5.2930    -0.7760    -1.1530 H     1 <1>   0.0800 
 31 H        4.4570    -2.7260     0.9940 H     1 <1>   0.0800 
 32 H        6.6380    -2.6550    -0.9810 H     1 <1>   0.4500 
 33 H        6.5480    -1.7930     1.7110 H     1 <1>   0.0800 
 34 H        7.8560    -2.9060     1.3820 H     1 <1>   0.0800 
 35 H        6.0790    -4.7520     1.0480 H     1 <1>   0.0800 
 36 H        7.5030    -4.6960     0.0270 H     1 <1>   0.0800 
 37 H        5.9270    -4.9450    -0.6860 H     1 <1>   0.0800 
 38 H        7.0360     0.5270     1.2110 H     1 <1>   0.1500 
 39 H        9.0830    -2.4670    -1.0530 H     1 <1>   0.1500 
 40 H        8.2730     2.1860    -0.0480 H     1 <1>   0.1500 
 41 H       10.2290    -0.6700    -2.2080 H     1 <1>   0.1500 
@<TRIPOS>BOND
  1   1   2  1   
  2   1  19  1   
  3   2   3  1   
  4   2   4  1   
  5   2  20  1   
  6   3   5  1   
  7   3  21  1   
  8   3  22  1   
  9   4   6  1   
 10   4  23  1   
 11   4  24  1   
 12   5   6  1   
 13   5   7  1   
 14   5  25  1   
 15   6   8  1   
 16   6  26  1   
 17   7   9  1   
 18   7  27  1   
 19   7  28  1   
 20   8   9  1   
 21   8  29  1   
 22   8  30  1   
 23   9  10  1   
 24   9  31  1   
 25  10  11  1   
 26  10  12  1   
 27  10  32  1   
 28  11  13  1   
 29  11  33  1   
 30  11  34  1   
 31  12  35  1   
 32  12  36  1   
 33  12  37  1   
 34  13  14  ar  
 35  13  15  ar  
 36  14  16  ar  
 37  14  38  1   
 38  15  17  ar  
 39  15  39  1   
 40  16  18  ar  
 41  16  40  1   
 42  17  18  ar  
 43  17  41  1   
@<TRIPOS>SUBSTRUCTURE
  1 ****   8 GROUP 4 **** **** 0

# MOE 2024.06 (io_trps.svl 2023.06)
