@<TRIPOS>MOLECULE
NONAME
45 48 1 0 0 
SMALL
USER_CHARGES


@<TRIPOS>ATOM
  1 O       -0.3850     0.7010     1.9130 O.3   1 <1>  -0.0190 
  2 N       -0.2730    -0.4070     1.2480 N.2   1 <1>  -0.4100 
  3 C       -0.9290     1.5310     1.0560 C.2   1 <1>   0.2980 
  4 C       -0.7430    -0.1950     0.0840 C.2   1 <1>   0.4300 
  5 N       -1.1840     1.0410    -0.0920 N.2   1 <1>  -0.5650 
  6 C       -1.2020     2.9590     1.5160 C.3   1 <1>   0.2900 
  7 C       -0.8150    -1.2140    -1.0420 C.3   1 <1>  -0.0140 
  8 N       -0.1490     3.9480     1.1420 N.3   1 <1>  -0.8100 
  9 C       -2.1040    -1.9180    -1.3440 C.3   1 <1>  -0.2000 
 10 C       -0.9510    -2.6840    -0.7710 C.3   1 <1>  -0.2000 
 11 C       -0.5370     5.3190     1.5200 C.3   1 <1>   0.2530 
 12 C        1.1970     3.6160     1.6770 C.3   1 <1>   0.1100 
 13 C       -1.8130     5.7550     0.8130 C.ar  1 <1>  -0.1430 
 14 C        2.0200     2.7230     0.7300 C.3   1 <1>   0.2000 
 15 C       -2.8510     6.3700     1.4860 C.ar  1 <1>  -0.1500 
 16 C       -1.9990     5.5600    -0.5420 C.ar  1 <1>  -0.1500 
 17 O        3.3460     2.7260     1.1420 O.3   1 <1>  -0.5600 
 18 C        2.0820     3.2050    -0.7140 C.3   1 <1>  -0.1600 
 19 C       -3.9900     6.7460     0.7920 C.ar  1 <1>   0.1600 
 20 C       -3.1780     5.9710    -1.1400 C.ar  1 <1>   0.1600 
 21 C        4.1650     2.3170     0.0940 C.3   1 <1>   0.1200 
 22 C        3.4280     2.6860    -1.1930 C.3   1 <1>  -0.1600 
 23 N       -4.1790     6.5600    -0.5040 N.ar  1 <1>  -0.6200 
 24 H       -1.3380     2.9610     2.5830 H     1 <1>   0.0800 
 25 H       -2.1360     3.2500     1.0690 H     1 <1>   0.0800 
 26 H       -0.2100    -0.9180    -1.8800 H     1 <1>   0.1000 
 27 H       -2.3760    -2.0680    -2.3740 H     1 <1>   0.1000 
 28 H       -2.9550    -1.7130    -0.7170 H     1 <1>   0.1000 
 29 H       -1.0060    -3.0150     0.2520 H     1 <1>   0.1000 
 30 H       -0.4170    -3.3730    -1.4010 H     1 <1>   0.1000 
 31 H        0.2470     6.0000     1.2350 H     1 <1>   0.0800 
 32 H       -0.6620     5.3800     2.5870 H     1 <1>   0.0800 
 33 H        1.1130     3.1390     2.6380 H     1 <1>   0.0800 
 34 H        1.7630     4.5230     1.8060 H     1 <1>   0.0800 
 35 H        1.6850     1.7030     0.7660 H     1 <1>   0.0800 
 36 H       -2.7870     6.5630     2.5410 H     1 <1>   0.1500 
 37 H       -1.2340     5.0840    -1.1290 H     1 <1>   0.1500 
 38 H        2.0630     4.2800    -0.7380 H     1 <1>   0.0800 
 39 H        1.2550     2.8230    -1.2870 H     1 <1>   0.0800 
 40 H       -4.7880     7.2250     1.3320 H     1 <1>   0.1500 
 41 H       -3.3030     5.8050    -2.1960 H     1 <1>   0.1500 
 42 H        4.3030     1.2520     0.1730 H     1 <1>   0.0800 
 43 H        5.1120     2.8210     0.1820 H     1 <1>   0.0800 
 44 H        3.9650     3.4360    -1.7450 H     1 <1>   0.0800 
 45 H        3.3110     1.8110    -1.8070 H     1 <1>   0.0800 
@<TRIPOS>BOND
  1   1   2  1   
  2   1   3  1   
  3   2   4  2   
  4   3   5  2   
  5   3   6  1   
  6   4   5  1   
  7   4   7  1   
  8   6   8  1   
  9   6  24  1   
 10   6  25  1   
 11   7   9  1   
 12   7  10  1   
 13   7  26  1   
 14   8  11  1   
 15   8  12  1   
 16   9  10  1   
 17   9  27  1   
 18   9  28  1   
 19  10  29  1   
 20  10  30  1   
 21  11  13  1   
 22  11  31  1   
 23  11  32  1   
 24  12  14  1   
 25  12  33  1   
 26  12  34  1   
 27  13  15  ar  
 28  13  16  ar  
 29  14  17  1   
 30  14  18  1   
 31  14  35  1   
 32  15  19  ar  
 33  15  36  1   
 34  16  20  ar  
 35  16  37  1   
 36  17  21  1   
 37  18  22  1   
 38  18  38  1   
 39  18  39  1   
 40  19  23  ar  
 41  19  40  1   
 42  20  23  ar  
 43  20  41  1   
 44  21  22  1   
 45  21  42  1   
 46  21  43  1   
 47  22  44  1   
 48  22  45  1   
@<TRIPOS>SUBSTRUCTURE
  1 ****   6 GROUP 4 **** **** 0

# MOE 2024.06 (io_trps.svl 2023.06)
