@<TRIPOS>MOLECULE
NONAME
52 55 1 0 0 
SMALL
USER_CHARGES


@<TRIPOS>ATOM
  1 S        0.6960     2.5680     1.1860 S.3   1 <1>  -0.3320 
  2 C        0.8430     2.2480    -0.5770 C.ar  1 <1>   0.4120 
  3 C       -0.1990     1.1030     1.8730 C.3   1 <1>  -0.0100 
  4 N        0.2540     1.1290    -0.9780 N.ar  1 <1>  -0.6200 
  5 C        1.5430     3.1470    -1.3860 C.ar  1 <1>   0.0860 
  6 C        0.3970     0.8470    -2.2620 C.ar  1 <1>   0.1600 
  7 C        2.1160     4.3760    -0.8920 C.2   1 <1>   0.5440 
  8 C        1.6840     2.7990    -2.7240 C.ar  1 <1>  -0.1500 
  9 C        1.0960     1.6330    -3.1610 C.ar  1 <1>  -0.1500 
 10 O        3.3240     4.5070    -0.9510 O.2   1 <1>  -0.5700 
 11 N        1.3580     5.4180    -0.3950 N.am  1 <1>  -0.6600 
 12 C       -0.1340     5.5300    -0.5890 C.3   1 <1>   0.2200 
 13 C        1.9670     6.2980     0.6550 C.3   1 <1>   0.1400 
 14 C       -0.8150     6.6620     0.2340 C.3   1 <1>   0.1380 
 15 C       -0.5950     5.5590    -2.0600 C.3   1 <1>  -0.1600 
 16 C        1.1030     6.3980     1.9260 C.3   1 <1>  -0.1600 
 17 C       -0.4580     8.1330    -0.1580 C.2   1 <1>  -0.2760 
 18 C       -2.3310     6.4000     0.0490 C.3   1 <1>   0.1200 
 19 C       -0.4230     6.4040     1.7030 C.3   1 <1>  -0.1600 
 20 C       -2.1270     5.5060    -2.1220 C.3   1 <1>   0.1200 
 21 C        0.4380     8.5220    -1.0780 C.2   1 <1>  -0.2880 
 22 C       -1.1880     9.2400     0.6120 C.3   1 <1>  -0.0220 
 23 O       -2.6840     6.4890    -1.3030 O.3   1 <1>  -0.5600 
 24 C        0.7800     9.9690    -1.4010 C.3   1 <1>   0.2580 
 25 C       -1.0390    10.6040    -0.0770 C.3   1 <1>   0.1200 
 26 O        0.2960    10.8210    -0.4070 O.3   1 <1>  -0.5600 
 27 H       -0.2980     1.2440     2.9330 H     1 <1>   0.0800 
 28 H        0.3860     0.2280     1.6520 H     1 <1>   0.0800 
 29 H       -1.1620     1.0500     1.3960 H     1 <1>   0.0800 
 30 H       -0.0630    -0.0600    -2.6160 H     1 <1>   0.1500 
 31 H        2.2420     3.4360    -3.3910 H     1 <1>   0.1500 
 32 H        1.1790     1.3310    -4.1910 H     1 <1>   0.1500 
 33 H       -0.5370     4.6160    -0.1920 H     1 <1>   0.0800 
 34 H        2.9370     5.9250     0.9360 H     1 <1>   0.0800 
 35 H        2.1270     7.2770     0.2470 H     1 <1>   0.0800 
 36 H       -0.2160     4.7170    -2.6000 H     1 <1>   0.0800 
 37 H       -0.2690     6.4430    -2.5680 H     1 <1>   0.0800 
 38 H        1.3570     5.5760     2.5730 H     1 <1>   0.0800 
 39 H        1.3880     7.2990     2.4400 H     1 <1>   0.0800 
 40 H       -2.9310     7.1030     0.5920 H     1 <1>   0.0800 
 41 H       -2.5950     5.4170     0.3970 H     1 <1>   0.0800 
 42 H       -0.8860     7.1190     2.3580 H     1 <1>   0.0800 
 43 H       -0.7950     5.4350     1.9910 H     1 <1>   0.0800 
 44 H       -2.4940     4.5470    -1.7970 H     1 <1>   0.0800 
 45 H       -2.4690     5.6850    -3.1270 H     1 <1>   0.0800 
 46 H        1.0250     7.8490    -1.6740 H     1 <1>   0.1500 
 47 H       -0.7900     9.3150     1.6070 H     1 <1>   0.0800 
 48 H       -2.2390     9.0480     0.6870 H     1 <1>   0.0800 
 49 H        0.3530    10.2620    -2.3450 H     1 <1>   0.0800 
 50 H        1.8470    10.1010    -1.4400 H     1 <1>   0.0800 
 51 H       -1.3530    11.3960     0.5800 H     1 <1>   0.0800 
 52 H       -1.6250    10.6410    -0.9800 H     1 <1>   0.0800 
@<TRIPOS>BOND
  1   1   2  1   
  2   1   3  1   
  3   2   4  ar  
  4   2   5  ar  
  5   3  27  1   
  6   3  28  1   
  7   3  29  1   
  8   4   6  ar  
  9   5   7  1   
 10   5   8  ar  
 11   6   9  ar  
 12   6  30  1   
 13   7  10  2   
 14   7  11  am  
 15   8   9  ar  
 16   8  31  1   
 17   9  32  1   
 18  11  12  1   
 19  11  13  1   
 20  12  14  1   
 21  12  15  1   
 22  12  33  1   
 23  13  16  1   
 24  13  34  1   
 25  13  35  1   
 26  14  17  1   
 27  14  18  1   
 28  14  19  1   
 29  15  20  1   
 30  15  36  1   
 31  15  37  1   
 32  16  19  1   
 33  16  38  1   
 34  16  39  1   
 35  17  21  2   
 36  17  22  1   
 37  18  23  1   
 38  18  40  1   
 39  18  41  1   
 40  19  42  1   
 41  19  43  1   
 42  20  23  1   
 43  20  44  1   
 44  20  45  1   
 45  21  24  1   
 46  21  46  1   
 47  22  25  1   
 48  22  47  1   
 49  22  48  1   
 50  24  26  1   
 51  24  49  1   
 52  24  50  1   
 53  25  26  1   
 54  25  51  1   
 55  25  52  1   
@<TRIPOS>SUBSTRUCTURE
  1 ****  12 GROUP 4 **** **** 0

# MOE 2024.06 (io_trps.svl 2023.06)
