@<TRIPOS>MOLECULE
NONAME
46 48 1 0 0 
SMALL
USER_CHARGES


@<TRIPOS>ATOM
  1 F       -0.9030    -0.0440     1.2590 F     1 <1>  -0.1900 
  2 C       -1.8870    -0.8120     0.8370 C.ar  1 <1>   0.1900 
  3 C       -3.1080    -0.2830     0.4240 C.ar  1 <1>   0.4100 
  4 C       -1.7040    -2.1650     0.8150 C.ar  1 <1>   0.1600 
  5 N       -4.0640    -1.1020     0.0280 N.ar  1 <1>  -0.6200 
  6 N       -3.3980     1.0810     0.3970 N.pl3 1 <1>  -0.8380 
  7 N       -2.6560    -2.9830     0.4140 N.ar  1 <1>  -0.6200 
  8 C       -3.8000    -2.4060     0.0420 C.ar  1 <1>   0.7200 
  9 C       -2.4310     2.0630    -0.1620 C.3   1 <1>   0.1290 
 10 C       -4.8070     1.5550     0.4890 C.3   1 <1>   0.1290 
 11 N       -4.8110    -3.2500    -0.3790 N.pl3 1 <1>  -0.8380 
 12 C       -4.7910    -4.7070    -0.0700 C.3   1 <1>   0.2090 
 13 C       -5.7980    -2.8210    -1.4100 C.3   1 <1>   0.2090 
 14 C       -6.1950    -5.1840     0.3030 C.3   1 <1>  -0.1600 
 15 C       -7.1960    -3.2940    -1.0160 C.3   1 <1>  -0.1600 
 16 C       -7.2060    -4.8030    -0.7820 C.3   1 <1>   0.2000 
 17 O       -8.4860    -5.1480    -0.3640 O.3   1 <1>  -0.5600 
 18 C       -8.8630    -6.4750    -0.6220 C.3   1 <1>   0.2630 
 19 C      -10.2660    -6.7910    -0.1080 C.ar  1 <1>   0.1670 
 20 N      -10.6890    -8.0250    -0.3570 N.ar  1 <1>  -0.6200 
 21 C      -11.0230    -5.8430     0.5700 C.ar  1 <1>  -0.1500 
 22 C      -11.9030    -8.3200     0.0820 C.ar  1 <1>   0.1600 
 23 C      -12.2860    -6.1650     1.0210 C.ar  1 <1>  -0.1500 
 24 C      -12.7290    -7.4440     0.7640 C.ar  1 <1>  -0.1500 
 25 H       -0.7670    -2.5850     1.1310 H     1 <1>   0.1500 
 26 H       -1.6040     1.5560    -0.6280 H     1 <1>   0.0800 
 27 H       -2.0570     2.6910     0.6280 H     1 <1>   0.0800 
 28 H       -2.9140     2.6760    -0.9030 H     1 <1>   0.0800 
 29 H       -5.3880     0.8740     1.0870 H     1 <1>   0.0800 
 30 H       -5.2370     1.6080    -0.4960 H     1 <1>   0.0800 
 31 H       -4.8390     2.5270     0.9480 H     1 <1>   0.0800 
 32 H       -4.1290    -4.9140     0.7540 H     1 <1>   0.0800 
 33 H       -4.4320    -5.2420    -0.9320 H     1 <1>   0.0800 
 34 H       -5.5190    -3.2510    -2.3570 H     1 <1>   0.0800 
 35 H       -5.8080    -1.7510    -1.5250 H     1 <1>   0.0800 
 36 H       -6.4750    -4.7250     1.2350 H     1 <1>   0.0800 
 37 H       -6.1690    -6.2480     0.4390 H     1 <1>   0.0800 
 38 H       -7.8870    -3.0450    -1.7990 H     1 <1>   0.0800 
 39 H       -7.4920    -2.7810    -0.1180 H     1 <1>   0.0800 
 40 H       -6.9840    -5.3090    -1.7070 H     1 <1>   0.0800 
 41 H       -8.1640    -7.1360    -0.1440 H     1 <1>   0.0800 
 42 H       -8.8370    -6.6350    -1.6850 H     1 <1>   0.0800 
 43 H      -10.6320    -4.8580     0.7460 H     1 <1>   0.1500 
 44 H      -12.2600    -9.3160    -0.1140 H     1 <1>   0.1500 
 45 H      -12.8930    -5.4500     1.5480 H     1 <1>   0.1500 
 46 H      -13.7030    -7.7600     1.0870 H     1 <1>   0.1500 
@<TRIPOS>BOND
  1   1   2  1   
  2   2   3  ar  
  3   2   4  ar  
  4   3   5  ar  
  5   3   6  1   
  6   4   7  ar  
  7   4  25  1   
  8   5   8  ar  
  9   6   9  1   
 10   6  10  1   
 11   7   8  ar  
 12   8  11  1   
 13   9  26  1   
 14   9  27  1   
 15   9  28  1   
 16  10  29  1   
 17  10  30  1   
 18  10  31  1   
 19  11  12  1   
 20  11  13  1   
 21  12  14  1   
 22  12  32  1   
 23  12  33  1   
 24  13  15  1   
 25  13  34  1   
 26  13  35  1   
 27  14  16  1   
 28  14  36  1   
 29  14  37  1   
 30  15  16  1   
 31  15  38  1   
 32  15  39  1   
 33  16  17  1   
 34  16  40  1   
 35  17  18  1   
 36  18  19  1   
 37  18  41  1   
 38  18  42  1   
 39  19  20  ar  
 40  19  21  ar  
 41  20  22  ar  
 42  21  23  ar  
 43  21  43  1   
 44  22  24  ar  
 45  22  44  1   
 46  23  24  ar  
 47  23  45  1   
 48  24  46  1   
@<TRIPOS>SUBSTRUCTURE
  1 ****  15 GROUP 4 **** **** 0

# MOE 2024.06 (io_trps.svl 2023.06)
