@<TRIPOS>MOLECULE
NONAME
58 61 1 0 0 
SMALL
USER_CHARGES


@<TRIPOS>ATOM
  1 O       -0.0530    -0.7780     1.4000 O.3   1 <1>  -0.5600 
  2 C       -0.0950    -2.0120     0.7170 C.3   1 <1>   0.2800 
  3 C       -1.2390    -0.0580     1.5960 C.3   1 <1>   0.1200 
  4 C       -1.5500    -2.4010     0.3060 C.3   1 <1>   0.2000 
  5 C        0.4900    -3.0490     1.7020 C.3   1 <1>  -0.1600 
  6 C        0.8380    -1.8210    -0.4960 C.3   1 <1>  -0.1600 
  7 C       -1.9490     0.1190     0.2510 C.3   1 <1>  -0.1600 
  8 O       -1.5840    -3.5700    -0.4640 O.3   1 <1>  -0.6800 
  9 C       -2.3430    -1.2380    -0.3600 C.3   1 <1>   0.2800 
 10 C        1.4010    -4.0580     1.0020 C.3   1 <1>   0.2090 
 11 C        2.3010    -1.9610    -0.0850 C.3   1 <1>   0.2090 
 12 O       -3.6750    -1.4550    -0.0660 O.3   1 <1>  -0.6800 
 13 C       -2.2770    -1.1820    -1.8940 C.3   1 <1>  -0.2400 
 14 N        2.5840    -3.3680     0.3750 N.pl3 1 <1>  -0.8380 
 15 C        3.7720    -3.9940     0.2210 C.ar  1 <1>   0.4610 
 16 N        4.8560    -3.2830    -0.0900 N.ar  1 <1>  -0.1790 
 17 C        3.9630    -5.3910     0.3780 C.ar  1 <1>  -0.1500 
 18 C        6.1330    -3.7880    -0.2580 C.ar  1 <1>   0.3610 
 19 C        5.1830    -5.9770     0.2320 C.ar  1 <1>  -0.1440 
 20 C        6.3190    -5.1730    -0.0930 C.ar  1 <1>   0.0000 
 21 C        7.2100    -2.9400    -0.5810 C.ar  1 <1>  -0.1440 
 22 C        5.3340    -7.4840     0.4090 C.3   1 <1>  -0.0970 
 23 C        7.6150    -5.6780    -0.2590 C.ar  1 <1>  -0.1500 
 24 C        8.4750    -3.4790    -0.7370 C.ar  1 <1>  -0.1440 
 25 C        6.9540    -1.4360    -0.7510 C.3   1 <1>  -0.0970 
 26 C        8.6620    -4.8510    -0.5730 C.ar  1 <1>  -0.1500 
 27 C        9.7060    -2.6480    -1.0850 C.3   1 <1>  -0.0970 
 28 H       -1.8560    -0.5860     2.3040 H     1 <1>   0.0800 
 29 H       -0.9750     0.8980     2.0130 H     1 <1>   0.0800 
 30 H       -2.0660    -2.6440     1.2190 H     1 <1>   0.0800 
 31 H        1.0640    -2.5570     2.4670 H     1 <1>   0.0800 
 32 H       -0.3020    -3.5850     2.1920 H     1 <1>   0.0800 
 33 H        0.6320    -2.5520    -1.2580 H     1 <1>   0.0800 
 34 H        0.6780    -0.8510    -0.9280 H     1 <1>   0.0800 
 35 H       -1.2680     0.6360    -0.4010 H     1 <1>   0.0800 
 36 H       -2.8110     0.7500     0.3730 H     1 <1>   0.0800 
 37 H       -2.5200    -3.7580    -0.6830 H     1 <1>   0.4000 
 38 H        0.8440    -4.5820     0.2420 H     1 <1>   0.0800 
 39 H        1.7310    -4.7730     1.7360 H     1 <1>   0.0800 
 40 H        2.5110    -1.2680     0.7140 H     1 <1>   0.0800 
 41 H        2.9130    -1.7110    -0.9340 H     1 <1>   0.0800 
 42 H       -4.2250    -0.7940    -0.5260 H     1 <1>   0.4000 
 43 H       -1.2630    -1.0740    -2.2240 H     1 <1>   0.0800 
 44 H       -2.8370    -0.3440    -2.2670 H     1 <1>   0.0800 
 45 H       -2.6700    -2.0840    -2.3280 H     1 <1>   0.0800 
 46 H        4.7330    -2.2830    -0.1660 H     1 <1>   0.4570 
 47 H        3.1050    -5.9950     0.6050 H     1 <1>   0.1500 
 48 H        4.3910    -7.9440     0.6470 H     1 <1>   0.0800 
 49 H        6.0200    -7.6980     1.2090 H     1 <1>   0.0800 
 50 H        5.7030    -7.9300    -0.4980 H     1 <1>   0.0800 
 51 H        7.8050    -6.7300    -0.1420 H     1 <1>   0.1500 
 52 H        7.8440    -0.8900    -1.0030 H     1 <1>   0.0800 
 53 H        6.5770    -1.0150     0.1640 H     1 <1>   0.0800 
 54 H        6.2470    -1.2640    -1.5440 H     1 <1>   0.0800 
 55 H        9.6460    -5.2740    -0.6940 H     1 <1>   0.1500 
 56 H       10.5870    -3.2610    -1.1550 H     1 <1>   0.0800 
 57 H        9.8820    -1.9060    -0.3260 H     1 <1>   0.0800 
 58 H        9.5700    -2.1590    -2.0330 H     1 <1>   0.0800 
@<TRIPOS>BOND
  1   1   2  1   
  2   1   3  1   
  3   2   4  1   
  4   2   5  1   
  5   2   6  1   
  6   3   7  1   
  7   3  28  1   
  8   3  29  1   
  9   4   8  1   
 10   4   9  1   
 11   4  30  1   
 12   5  10  1   
 13   5  31  1   
 14   5  32  1   
 15   6  11  1   
 16   6  33  1   
 17   6  34  1   
 18   7   9  1   
 19   7  35  1   
 20   7  36  1   
 21   8  37  1   
 22   9  12  1   
 23   9  13  1   
 24  10  14  1   
 25  10  38  1   
 26  10  39  1   
 27  11  14  1   
 28  11  40  1   
 29  11  41  1   
 30  12  42  1   
 31  13  43  1   
 32  13  44  1   
 33  13  45  1   
 34  14  15  1   
 35  15  16  ar  
 36  15  17  ar  
 37  16  18  ar  
 38  16  46  1   
 39  17  19  ar  
 40  17  47  1   
 41  18  20  ar  
 42  18  21  ar  
 43  19  20  ar  
 44  19  22  1   
 45  20  23  ar  
 46  21  24  ar  
 47  21  25  1   
 48  22  48  1   
 49  22  49  1   
 50  22  50  1   
 51  23  26  ar  
 52  23  51  1   
 53  24  26  ar  
 54  24  27  1   
 55  25  52  1   
 56  25  53  1   
 57  25  54  1   
 58  26  55  1   
 59  27  56  1   
 60  27  57  1   
 61  27  58  1   
@<TRIPOS>SUBSTRUCTURE
  1 ****  14 GROUP 4 **** **** 0

# MOE 2024.06 (io_trps.svl 2023.06)
