@<TRIPOS>MOLECULE
NONAME
51 54 1 0 0 
SMALL
USER_CHARGES


@<TRIPOS>ATOM
  1 O       -0.5320     0.3490    -0.0660 O.2   1 <1>  -0.5700 
  2 C       -1.0450     1.3140    -0.6170 C.2   1 <1>   0.7160 
  3 N       -2.3760     1.1890    -0.9890 N.am  1 <1>  -0.6600 
  4 C       -0.2430     2.5210    -0.8410 C.2   1 <1>   0.2030 
  5 C       -2.9970    -0.1650    -1.1120 C.3   1 <1>   0.1400 
  6 C       -3.2310     2.3740    -1.2900 C.3   1 <1>   0.1400 
  7 N       -0.4670     3.4800    -1.7330 N.2   1 <1>  -0.7070 
  8 C        0.9260     2.8240    -0.1250 C.2   1 <1>  -0.1810 
  9 C       -3.6680    -0.5900     0.2010 C.3   1 <1>   0.1400 
 10 C       -4.6880     2.2390    -0.8260 C.3   1 <1>  -0.1600 
 11 N        0.5340     4.3640    -1.5850 N.pl3 1 <1>   0.3000 
 12 C        1.3860     3.9800    -0.6220 C.2   1 <1>  -0.3320 
 13 C        1.6320     2.0800     1.0000 C.3   1 <1>   0.3010 
 14 N       -4.9690     0.1180     0.4130 N.am  1 <1>  -0.6600 
 15 C       -4.8500     1.5970     0.5560 C.3   1 <1>   0.1400 
 16 C        2.6470     4.6430    -0.1070 C.3   1 <1>   0.0200 
 17 O        2.5660     2.9350     1.6180 O.3   1 <1>  -0.5600 
 18 C       -6.2120    -0.4780     0.4170 C.2   1 <1>   0.5690 
 19 C        3.4280     3.6190     0.7440 C.3   1 <1>   0.1200 
 20 O       -7.2190     0.1880     0.5120 O.2   1 <1>  -0.5700 
 21 C       -6.3670    -2.0010     0.2830 C.3   1 <1>  -0.0190 
 22 C       -6.2160    -2.5100    -1.1550 C.3   1 <1>  -0.1600 
 23 C       -7.7280    -2.5710     0.7010 C.3   1 <1>  -0.1600 
 24 C       -6.8920    -3.8850    -1.1820 C.3   1 <1>  -0.1600 
 25 C       -7.7750    -3.9620     0.0690 C.3   1 <1>  -0.1600 
 26 H       -2.2280    -0.8800    -1.3520 H     1 <1>   0.0800 
 27 H       -3.7110    -0.1790    -1.9170 H     1 <1>   0.0800 
 28 H       -3.2030     2.5680    -2.3490 H     1 <1>   0.0800 
 29 H       -2.8160     3.2330    -0.7930 H     1 <1>   0.0800 
 30 H       -3.0050    -0.3830     1.0230 H     1 <1>   0.0800 
 31 H       -3.8120    -1.6520     0.1720 H     1 <1>   0.0800 
 32 H       -5.2660     1.6950    -1.5520 H     1 <1>   0.0800 
 33 H       -5.1030     3.2300    -0.7860 H     1 <1>   0.0800 
 34 H        0.6110     5.2150    -2.1560 H     1 <1>   0.2700 
 35 H        2.1520     1.2190     0.6170 H     1 <1>   0.0800 
 36 H        0.9280     1.7650     1.7490 H     1 <1>   0.0800 
 37 H       -5.7380     1.9870     1.0240 H     1 <1>   0.0800 
 38 H       -4.0170     1.8420     1.1920 H     1 <1>   0.0800 
 39 H        2.3910     5.4930     0.5010 H     1 <1>   0.0800 
 40 H        3.2640     4.9750    -0.9220 H     1 <1>   0.0800 
 41 H        4.1750     4.1160     1.3370 H     1 <1>   0.0800 
 42 H        3.9100     2.8920     0.1120 H     1 <1>   0.0800 
 43 H       -5.6340    -2.4780     0.9060 H     1 <1>   0.0800 
 44 H       -5.1890    -2.5660    -1.4650 H     1 <1>   0.0800 
 45 H       -6.7440    -1.8450    -1.8170 H     1 <1>   0.0800 
 46 H       -8.5200    -1.9720     0.2840 H     1 <1>   0.0800 
 47 H       -7.8410    -2.6030     1.7710 H     1 <1>   0.0800 
 48 H       -6.1530    -4.6680    -1.1540 H     1 <1>   0.0800 
 49 H       -7.4810    -3.9950    -2.0760 H     1 <1>   0.0800 
 50 H       -8.7850    -4.2460    -0.1720 H     1 <1>   0.0800 
 51 H       -7.3640    -4.6830     0.7550 H     1 <1>   0.0800 
@<TRIPOS>BOND
  1   1   2  2   
  2   2   3  am  
  3   2   4  1   
  4   3   5  1   
  5   3   6  1   
  6   4   7  2   
  7   4   8  1   
  8   5   9  1   
  9   5  26  1   
 10   5  27  1   
 11   6  10  1   
 12   6  28  1   
 13   6  29  1   
 14   7  11  1   
 15   8  12  2   
 16   8  13  1   
 17   9  14  1   
 18   9  30  1   
 19   9  31  1   
 20  10  15  1   
 21  10  32  1   
 22  10  33  1   
 23  11  12  1   
 24  11  34  1   
 25  12  16  1   
 26  13  17  1   
 27  13  35  1   
 28  13  36  1   
 29  14  15  1   
 30  14  18  am  
 31  15  37  1   
 32  15  38  1   
 33  16  19  1   
 34  16  39  1   
 35  16  40  1   
 36  17  19  1   
 37  18  20  2   
 38  18  21  1   
 39  19  41  1   
 40  19  42  1   
 41  21  22  1   
 42  21  23  1   
 43  21  43  1   
 44  22  24  1   
 45  22  44  1   
 46  22  45  1   
 47  23  25  1   
 48  23  46  1   
 49  23  47  1   
 50  24  25  1   
 51  24  48  1   
 52  24  49  1   
 53  25  50  1   
 54  25  51  1   
@<TRIPOS>SUBSTRUCTURE
  1 ****   3 GROUP 4 **** **** 0

# MOE 2024.06 (io_trps.svl 2023.06)
