@<TRIPOS>MOLECULE
NONAME
46 48 1 0 0 
SMALL
USER_CHARGES


@<TRIPOS>ATOM
  1 O       -0.7600     1.0550     1.9690 O.3   1 <1>  -0.5600 
  2 C        0.1240     1.3450     0.9220 C.3   1 <1>   0.1200 
  3 C       -2.0510     1.5020     1.6740 C.3   1 <1>   0.1200 
  4 C       -0.6210     2.2560    -0.0520 C.3   1 <1>   0.2890 
  5 C       -2.0660     1.8600     0.1860 C.3   1 <1>  -0.0800 
  6 N       -0.4430     3.6740     0.3490 N.pl3 1 <1>  -0.8690 
  7 C       -2.4800     0.6670    -0.6970 C.3   1 <1>  -0.0170 
  8 C        0.2300     4.6120    -0.3940 C.ar  1 <1>   0.4100 
  9 C       -3.9340     0.2820    -0.4670 C.ar  1 <1>  -0.1430 
 10 N        0.5400     4.3190    -1.6420 N.ar  1 <1>  -0.6200 
 11 C        0.5680     5.8230     0.1570 C.ar  1 <1>  -0.1500 
 12 C       -4.9730     1.0440    -0.9600 C.ar  1 <1>  -0.1500 
 13 C       -4.2900    -0.8460     0.2450 C.ar  1 <1>  -0.1500 
 14 C        1.1900     5.2620    -2.2960 C.ar  1 <1>   0.4700 
 15 C        1.2440     6.7310    -0.6200 C.ar  1 <1>   0.4100 
 16 C       -6.2810     0.6550    -0.7210 C.ar  1 <1>   0.1600 
 17 C       -5.6290    -1.1460     0.4270 C.ar  1 <1>   0.1600 
 18 N        1.5670     6.4500    -1.8700 N.ar  1 <1>  -0.6200 
 19 N        1.5930     7.9690    -0.1190 N.pl3 1 <1>  -0.8380 
 20 N       -6.6340    -0.4220    -0.0380 N.ar  1 <1>  -0.6200 
 21 C        2.8580     8.6080    -0.5640 C.3   1 <1>   0.2090 
 22 C        0.4990     8.9030     0.2610 C.3   1 <1>   0.1290 
 23 C        3.5780     9.2040     0.6420 C.3   1 <1>  -0.2400 
 24 H        1.0130     1.8060     1.3150 H     1 <1>   0.0800 
 25 H        0.3780     0.4140     0.4470 H     1 <1>   0.0800 
 26 H       -2.7590     0.7370     1.9380 H     1 <1>   0.0800 
 27 H       -2.2340     2.3780     2.2720 H     1 <1>   0.0800 
 28 H       -0.3080     2.0920    -1.0690 H     1 <1>   0.0800 
 29 H       -2.7290     2.6850    -0.0080 H     1 <1>   0.0800 
 30 H       -0.4530     3.8040     1.3630 H     1 <1>   0.4000 
 31 H       -1.8470    -0.1800    -0.5000 H     1 <1>   0.0800 
 32 H       -2.3560     0.9320    -1.7330 H     1 <1>   0.0800 
 33 H        0.3200     6.0620     1.1680 H     1 <1>   0.1500 
 34 H       -4.7790     1.9370    -1.5260 H     1 <1>   0.1500 
 35 H       -3.5400    -1.4940     0.6610 H     1 <1>   0.1500 
 36 H        1.4470     5.0300    -3.3150 H     1 <1>   0.1500 
 37 H       -7.0780     1.2630    -1.1140 H     1 <1>   0.1500 
 38 H       -5.8880    -2.0300     0.9850 H     1 <1>   0.1500 
 39 H        3.4980     7.8730    -1.0230 H     1 <1>   0.0800 
 40 H        2.6450     9.3700    -1.2950 H     1 <1>   0.0800 
 41 H        0.6600     9.2620     1.2630 H     1 <1>   0.0800 
 42 H       -0.4540     8.4030     0.2200 H     1 <1>   0.0800 
 43 H        0.4760     9.7380    -0.4160 H     1 <1>   0.0800 
 44 H        3.7530     8.4380     1.3760 H     1 <1>   0.0800 
 45 H        2.9970     9.9950     1.0780 H     1 <1>   0.0800 
 46 H        4.5240     9.6060     0.3330 H     1 <1>   0.0800 
@<TRIPOS>BOND
  1   1   2  1   
  2   1   3  1   
  3   2   4  1   
  4   2  24  1   
  5   2  25  1   
  6   3   5  1   
  7   3  26  1   
  8   3  27  1   
  9   4   5  1   
 10   4   6  1   
 11   4  28  1   
 12   5   7  1   
 13   5  29  1   
 14   6   8  1   
 15   6  30  1   
 16   7   9  1   
 17   7  31  1   
 18   7  32  1   
 19   8  10  ar  
 20   8  11  ar  
 21   9  12  ar  
 22   9  13  ar  
 23  10  14  ar  
 24  11  15  ar  
 25  11  33  1   
 26  12  16  ar  
 27  12  34  1   
 28  13  17  ar  
 29  13  35  1   
 30  14  18  ar  
 31  14  36  1   
 32  15  18  ar  
 33  15  19  1   
 34  16  20  ar  
 35  16  37  1   
 36  17  20  ar  
 37  17  38  1   
 38  19  21  1   
 39  19  22  1   
 40  21  23  1   
 41  21  39  1   
 42  21  40  1   
 43  22  41  1   
 44  22  42  1   
 45  22  43  1   
 46  23  44  1   
 47  23  45  1   
 48  23  46  1   
@<TRIPOS>SUBSTRUCTURE
  1 ****   6 GROUP 4 **** **** 0

# MOE 2024.06 (io_trps.svl 2023.06)
