@<TRIPOS>MOLECULE
NONAME
53 54 1 0 0 
SMALL
USER_CHARGES


@<TRIPOS>ATOM
  1 O       -0.5680    -0.8570     1.0850 O.2   1 <1>  -0.5700 
  2 C       -1.2950    -0.0200     0.6020 C.2   1 <1>   0.5690 
  3 N       -2.1250    -0.3620    -0.4470 N.am  1 <1>  -0.6600 
  4 C       -1.3010     1.3860     1.2490 C.3   1 <1>   0.1250 
  5 C       -2.3090    -1.8070    -0.8100 C.3   1 <1>   0.3210 
  6 C       -2.8720     0.5650    -1.3460 C.3   1 <1>   0.1400 
  7 C       -1.1050     2.5240     0.2420 C.ar  1 <1>  -0.1440 
  8 C       -0.2790     1.5280     2.4050 C.3   1 <1>  -0.1600 
  9 C       -3.7310    -2.2690    -0.4910 C.2   1 <1>   0.0460 
 10 C       -4.1640     1.0630    -0.6790 C.3   1 <1>   0.3430 
 11 C       -0.0740     2.4710    -0.6850 C.ar  1 <1>  -0.1500 
 12 C       -1.9590     3.6190     0.2430 C.ar  1 <1>  -0.1500 
 13 C       -0.3660     2.8680     3.1520 C.3   1 <1>  -0.2400 
 14 N       -4.7830    -1.9690    -1.2920 N.2   1 <1>  -0.5650 
 15 C       -4.1320    -3.0180     0.5630 C.2   1 <1>  -0.3320 
 16 N       -5.0720     1.7640    -1.6470 N.4   1 <1>  -0.9590 
 17 C        0.0850     3.4840    -1.6140 C.ar  1 <1>  -0.1500 
 18 C       -1.7990     4.6340    -0.6840 C.ar  1 <1>  -0.1500 
 19 C       -5.7810    -2.5670    -0.7240 C.2   1 <1>   0.0360 
 20 N       -5.4520    -3.2190     0.4100 N.pl3 1 <1>   0.0330 
 21 C       -3.3460    -3.5850     1.7360 C.3   1 <1>  -0.0600 
 22 C       -6.1340     2.5140    -0.9140 C.3   1 <1>   0.2630 
 23 C       -5.6950     0.7760    -2.5880 C.3   1 <1>   0.2630 
 24 C       -0.7800     4.5640    -1.6170 C.ar  1 <1>  -0.1500 
 25 H       -2.2730     1.4910     1.6920 H     1 <1>   0.0800 
 26 H       -1.6120    -2.4310    -0.2810 H     1 <1>   0.0800 
 27 H       -2.1180    -1.9460    -1.8590 H     1 <1>   0.0800 
 28 H       -3.1180     0.0350    -2.2480 H     1 <1>   0.0800 
 29 H       -2.2540     1.3930    -1.6320 H     1 <1>   0.0800 
 30 H        0.7170     1.4070     2.0130 H     1 <1>   0.0800 
 31 H       -0.4430     0.7350     3.1150 H     1 <1>   0.0800 
 32 H       -3.8970     1.7370     0.1160 H     1 <1>   0.0800 
 33 H       -4.6820     0.2210    -0.2500 H     1 <1>   0.0800 
 34 H        0.6120     1.6390    -0.6900 H     1 <1>   0.1500 
 35 H       -2.7430     3.6980     0.9750 H     1 <1>   0.1500 
 36 H       -0.1100     3.6870     2.5020 H     1 <1>   0.0800 
 37 H        0.3270     2.8690     3.9750 H     1 <1>   0.0800 
 38 H       -1.3560     3.0250     3.5410 H     1 <1>   0.0800 
 39 H       -4.5070     2.4360    -2.1900 H     1 <1>   0.4500 
 40 H        0.8870     3.4350    -2.3310 H     1 <1>   0.1500 
 41 H       -2.4570     5.4860    -0.6750 H     1 <1>   0.1500 
 42 H       -6.7890    -2.5680    -1.1010 H     1 <1>   0.1500 
 43 H       -6.0730    -3.7670     1.0140 H     1 <1>   0.2700 
 44 H       -2.3260    -3.2450     1.7160 H     1 <1>   0.0800 
 45 H       -3.3470    -4.6600     1.6980 H     1 <1>   0.0800 
 46 H       -3.7840    -3.2690     2.6660 H     1 <1>   0.0800 
 47 H       -6.7340     1.8360    -0.3290 H     1 <1>   0.0800 
 48 H       -6.7750     3.0310    -1.6090 H     1 <1>   0.0800 
 49 H       -5.6890     3.2410    -0.2530 H     1 <1>   0.0800 
 50 H       -6.2600     0.0420    -2.0370 H     1 <1>   0.0800 
 51 H       -4.9380     0.2580    -3.1530 H     1 <1>   0.0800 
 52 H       -6.3550     1.2760    -3.2780 H     1 <1>   0.0800 
 53 H       -0.6490     5.3540    -2.3370 H     1 <1>   0.1500 
@<TRIPOS>BOND
  1   1   2  2   
  2   2   3  am  
  3   2   4  1   
  4   3   5  1   
  5   3   6  1   
  6   4   7  1   
  7   4   8  1   
  8   4  25  1   
  9   5   9  1   
 10   5  26  1   
 11   5  27  1   
 12   6  10  1   
 13   6  28  1   
 14   6  29  1   
 15   7  11  ar  
 16   7  12  ar  
 17   8  13  1   
 18   8  30  1   
 19   8  31  1   
 20   9  14  1   
 21   9  15  2   
 22  10  16  1   
 23  10  32  1   
 24  10  33  1   
 25  11  17  ar  
 26  11  34  1   
 27  12  18  ar  
 28  12  35  1   
 29  13  36  1   
 30  13  37  1   
 31  13  38  1   
 32  14  19  2   
 33  15  20  1   
 34  15  21  1   
 35  16  22  1   
 36  16  23  1   
 37  16  39  1   
 38  17  24  ar  
 39  17  40  1   
 40  18  24  ar  
 41  18  41  1   
 42  19  20  1   
 43  19  42  1   
 44  20  43  1   
 45  21  44  1   
 46  21  45  1   
 47  21  46  1   
 48  22  47  1   
 49  22  48  1   
 50  22  49  1   
 51  23  50  1   
 52  23  51  1   
 53  23  52  1   
 54  24  53  1   
@<TRIPOS>SUBSTRUCTURE
  1 ****   3 GROUP 4 **** **** 0

# MOE 2024.06 (io_trps.svl 2023.06)
