@<TRIPOS>MOLECULE
NONAME
38 41 1 0 0 
SMALL
USER_CHARGES


@<TRIPOS>ATOM
  1 CL      -1.2710    -0.1300     1.7660 Cl    1 <1>  -0.1770 
  2 C       -0.7810    -1.7010     1.2050 C.ar  1 <1>   0.4870 
  3 N        0.4670    -2.0430     1.3640 N.ar  1 <1>  -0.6200 
  4 C       -1.7340    -2.5230     0.6120 C.ar  1 <1>   0.0000 
  5 C        0.7810    -3.2660     0.9070 C.ar  1 <1>   0.4700 
  6 C       -1.2820    -3.7580     0.1910 C.ar  1 <1>   0.1050 
  7 C       -3.1050    -2.4650     0.2810 C.2   1 <1>  -0.1500 
  8 N       -0.0090    -4.1430     0.3350 N.ar  1 <1>  -0.5670 
  9 N       -2.3190    -4.4570    -0.3690 N.pl3 1 <1>   0.0480 
 10 C       -3.4240    -3.6380    -0.3150 C.2   1 <1>  -0.3020 
 11 C       -2.1980    -5.8030    -1.0010 C.3   1 <1>   0.4560 
 12 O       -3.4740    -6.2500    -1.3920 O.3   1 <1>  -0.5600 
 13 C       -1.6270    -6.8530    -0.0410 C.3   1 <1>   0.2000 
 14 C       -3.9530    -7.2310    -0.5150 C.3   1 <1>   0.2000 
 15 O       -0.7740    -7.7210    -0.7050 O.3   1 <1>  -0.5600 
 16 C       -2.7510    -7.7650     0.2680 C.3   1 <1>   0.2000 
 17 C       -5.0310    -6.6080     0.3860 C.3   1 <1>   0.1200 
 18 C       -0.8970    -9.0130    -0.1840 C.3   1 <1>   0.5600 
 19 O       -2.2880    -8.9360    -0.3000 O.3   1 <1>  -0.5600 
 20 O       -5.4970    -7.5440     1.3030 O.3   1 <1>  -0.6800 
 21 C       -1.0470   -10.4940     0.3110 C.3   1 <1>  -0.2400 
 22 C        0.6570    -9.0460     0.0280 C.3   1 <1>  -0.2400 
 23 H        1.8130    -3.5510     1.0310 H     1 <1>   0.1500 
 24 H       -3.7410    -1.6180     0.4770 H     1 <1>   0.1500 
 25 H       -4.3750    -3.9440    -0.7180 H     1 <1>   0.1500 
 26 H       -1.5800    -5.7220    -1.8770 H     1 <1>   0.0800 
 27 H       -1.1370    -6.4530     0.8280 H     1 <1>   0.0800 
 28 H       -4.3910    -8.0120    -1.1110 H     1 <1>   0.0800 
 29 H       -2.9290    -7.9110     1.3190 H     1 <1>   0.0800 
 30 H       -5.8650    -6.2680    -0.2020 H     1 <1>   0.0800 
 31 H       -4.6250    -5.7860     0.9490 H     1 <1>   0.0800 
 32 H       -5.9890    -8.2610     0.8540 H     1 <1>   0.4000 
 33 H       -1.0530   -10.5110     1.3860 H     1 <1>   0.0800 
 34 H       -0.2640   -11.1510    -0.0300 H     1 <1>   0.0800 
 35 H       -1.9420   -11.0030    -0.0190 H     1 <1>   0.0800 
 36 H        0.9660    -9.5610     0.9230 H     1 <1>   0.0800 
 37 H        1.1380    -8.0840     0.1260 H     1 <1>   0.0800 
 38 H        1.1140    -9.5370    -0.8130 H     1 <1>   0.0800 
@<TRIPOS>BOND
  1   1   2  1   
  2   2   3  ar  
  3   2   4  ar  
  4   3   5  ar  
  5   4   6  ar  
  6   4   7  1   
  7   5   8  ar  
  8   5  23  1   
  9   6   8  ar  
 10   6   9  1   
 11   7  10  2   
 12   7  24  1   
 13   9  10  1   
 14   9  11  1   
 15  10  25  1   
 16  11  12  1   
 17  11  13  1   
 18  11  26  1   
 19  12  14  1   
 20  13  15  1   
 21  13  16  1   
 22  13  27  1   
 23  14  16  1   
 24  14  17  1   
 25  14  28  1   
 26  15  18  1   
 27  16  19  1   
 28  16  29  1   
 29  17  20  1   
 30  17  30  1   
 31  17  31  1   
 32  18  19  1   
 33  18  21  1   
 34  18  22  1   
 35  20  32  1   
 36  21  33  1   
 37  21  34  1   
 38  21  35  1   
 39  22  36  1   
 40  22  37  1   
 41  22  38  1   
@<TRIPOS>SUBSTRUCTURE
  1 ****  11 GROUP 4 **** **** 0

# MOE 2024.06 (io_trps.svl 2023.06)
