@<TRIPOS>MOLECULE
NONAME
51 53 1 0 0 
SMALL
USER_CHARGES


@<TRIPOS>ATOM
  1 O        3.6460    -0.1270     0.6700 O.2   1 <1>  -0.5700 
  2 C        2.9640    -0.7050    -0.1640 C.2   1 <1>   0.5440 
  3 N        2.7960    -0.0300    -1.3570 N.am  1 <1>  -0.6600 
  4 C        2.4460    -2.0570     0.0790 C.ar  1 <1>   0.3960 
  5 C        3.5660    -0.4550    -2.5690 C.3   1 <1>   0.1400 
  6 C        2.2790     1.3670    -1.3880 C.3   1 <1>   0.1400 
  7 N        2.1370    -2.8480    -0.9640 N.ar  1 <1>  -0.6200 
  8 C        2.2940    -2.4980     1.3900 C.ar  1 <1>  -0.1500 
  9 C        5.0720    -0.1470    -2.4120 C.3   1 <1>   0.3430 
 10 C        3.3650     2.4120    -1.0740 C.3   1 <1>  -0.1600 
 11 C        1.6720    -4.0540    -0.6880 C.ar  1 <1>   0.1600 
 12 C        1.8160    -3.7580     1.6660 C.ar  1 <1>   0.0830 
 13 N        5.3070     0.9440    -1.4120 N.4   1 <1>  -0.9590 
 14 C        4.6940     2.2360    -1.8150 C.3   1 <1>   0.3430 
 15 C        1.4930    -4.5570     0.5860 C.ar  1 <1>  -0.1500 
 16 O        1.6960    -4.1230     2.9590 O.3   1 <1>  -0.3630 
 17 C        6.7360     1.0510    -1.0040 C.3   1 <1>   0.3430 
 18 C        1.2110    -5.3960     3.3270 C.3   1 <1>   0.0400 
 19 C        6.8660     1.5950     0.4210 C.3   1 <1>   0.0200 
 20 C        8.3330     1.7290     0.7750 C.2   1 <1>   0.0060 
 21 N        9.2710     1.7060    -0.1170 N.2   1 <1>  -0.5650 
 22 N        8.7900     1.8870     2.0430 N.pl3 1 <1>   0.0480 
 23 C       10.4000     1.8550     0.5990 C.2   1 <1>   0.0770 
 24 C       10.1250     1.9650     1.9150 C.2   1 <1>  -0.3020 
 25 C        8.0330     1.9560     3.3070 C.3   1 <1>   0.0160 
 26 H        3.1830     0.0550    -3.4350 H     1 <1>   0.0800 
 27 H        3.4350    -1.5090    -2.7420 H     1 <1>   0.0800 
 28 H        1.4830     1.4590    -0.6670 H     1 <1>   0.0800 
 29 H        1.8530     1.5610    -2.3580 H     1 <1>   0.0800 
 30 H        2.5510    -1.8510     2.2090 H     1 <1>   0.1500 
 31 H        5.4960     0.1130    -3.3680 H     1 <1>   0.0800 
 32 H        5.5600    -1.0450    -2.0710 H     1 <1>   0.0800 
 33 H        3.5490     2.4240    -0.0140 H     1 <1>   0.0800 
 34 H        2.9690     3.3810    -1.3210 H     1 <1>   0.0800 
 35 H        1.4170    -4.6830    -1.5260 H     1 <1>   0.1500 
 36 H        4.7560     0.6340    -0.5800 H     1 <1>   0.4500 
 37 H        5.3520     3.0500    -1.5530 H     1 <1>   0.0800 
 38 H        4.5350     2.2610    -2.8800 H     1 <1>   0.0800 
 39 H        1.1100    -5.5510     0.7110 H     1 <1>   0.1500 
 40 H        7.2740     1.6910    -1.6860 H     1 <1>   0.0800 
 41 H        7.2010     0.0790    -1.0310 H     1 <1>   0.0800 
 42 H        1.2060    -5.4530     4.4010 H     1 <1>   0.0800 
 43 H        1.8640    -6.1490     2.9240 H     1 <1>   0.0800 
 44 H        0.2100    -5.5100     2.9510 H     1 <1>   0.0800 
 45 H        6.3930     0.9140     1.1070 H     1 <1>   0.0800 
 46 H        6.4050     2.5620     0.4990 H     1 <1>   0.0800 
 47 H       11.3680     1.8750     0.1240 H     1 <1>   0.1500 
 48 H       10.7970     2.0920     2.7450 H     1 <1>   0.1500 
 49 H        7.2120     2.6410     3.1990 H     1 <1>   0.0800 
 50 H        8.6800     2.2990     4.0940 H     1 <1>   0.0800 
 51 H        7.6610     0.9780     3.5530 H     1 <1>   0.0800 
@<TRIPOS>BOND
  1   1   2  2   
  2   2   3  am  
  3   2   4  1   
  4   3   5  1   
  5   3   6  1   
  6   4   7  ar  
  7   4   8  ar  
  8   5   9  1   
  9   5  26  1   
 10   5  27  1   
 11   6  10  1   
 12   6  28  1   
 13   6  29  1   
 14   7  11  ar  
 15   8  12  ar  
 16   8  30  1   
 17   9  13  1   
 18   9  31  1   
 19   9  32  1   
 20  10  14  1   
 21  10  33  1   
 22  10  34  1   
 23  11  15  ar  
 24  11  35  1   
 25  12  15  ar  
 26  12  16  1   
 27  13  14  1   
 28  13  17  1   
 29  13  36  1   
 30  14  37  1   
 31  14  38  1   
 32  15  39  1   
 33  16  18  1   
 34  17  19  1   
 35  17  40  1   
 36  17  41  1   
 37  18  42  1   
 38  18  43  1   
 39  18  44  1   
 40  19  20  1   
 41  19  45  1   
 42  19  46  1   
 43  20  21  2   
 44  20  22  1   
 45  21  23  1   
 46  22  24  1   
 47  22  25  1   
 48  23  24  2   
 49  23  47  1   
 50  24  48  1   
 51  25  49  1   
 52  25  50  1   
 53  25  51  1   
@<TRIPOS>SUBSTRUCTURE
  1 ****   1 GROUP 4 **** **** 0

# MOE 2024.06 (io_trps.svl 2023.06)
