@<TRIPOS>MOLECULE
NONAME
44 47 1 0 0 
SMALL
USER_CHARGES


@<TRIPOS>ATOM
  1 F        0.9370     3.4280     0.3490 F     1 <1>  -0.3400 
  2 C        1.2320     2.7900     1.4780 C.3   1 <1>   0.9600 
  3 F        1.3210     3.7570     2.3870 F     1 <1>  -0.3400 
  4 O        2.5470     2.2510     1.3570 O.3   1 <1>  -0.3630 
  5 C        0.0920     1.8060     1.8760 C.3   1 <1>   0.6000 
  6 C        2.8290     1.3440     0.3970 C.ar  1 <1>   0.0830 
  7 F        0.4110     1.0710     2.9450 F     1 <1>  -0.3400 
  8 F       -0.1790     0.9070     0.9270 F     1 <1>  -0.3400 
  9 C        3.2530     1.7410    -0.8800 C.ar  1 <1>   0.0860 
 10 C        2.7310     0.0000     0.7310 C.ar  1 <1>  -0.1500 
 11 C        3.4290     3.1260    -1.2700 C.2   1 <1>   0.5440 
 12 C        3.5100     0.7320    -1.8100 C.ar  1 <1>  -0.1500 
 13 C        3.0060    -0.9750    -0.2080 C.ar  1 <1>  -0.1500 
 14 O        2.8750     3.5250    -2.2780 O.2   1 <1>  -0.5700 
 15 N        4.2310     4.0050    -0.5770 N.am  1 <1>  -0.6600 
 16 C        3.3900    -0.6060    -1.4850 C.ar  1 <1>  -0.1500 
 17 C        4.1980     5.4590    -0.9260 C.3   1 <1>   0.3210 
 18 C        5.3140     3.5830     0.3670 C.3   1 <1>   0.1400 
 19 C        4.6140     6.3220     0.2540 C.2   1 <1>  -0.1810 
 20 C        5.2090     4.3270     1.7030 C.3   1 <1>   0.0210 
 21 C        4.6290     7.6630     0.4210 C.2   1 <1>  -0.2370 
 22 C        5.0820     5.8100     1.4560 C.2   1 <1>   0.1080 
 23 N        5.0920     7.8840     1.6690 N.pl3 1 <1>   0.3000 
 24 C        4.2250     8.7820    -0.5170 C.3   1 <1>  -0.0150 
 25 N        5.3790     6.7350     2.3140 N.2   1 <1>  -0.7070 
 26 C        4.5740     8.7250    -1.9710 C.3   1 <1>  -0.2000 
 27 C        5.2740     9.6940    -1.0670 C.3   1 <1>  -0.2000 
 28 H       -0.8200     2.3260     2.0970 H     1 <1>   0.0800 
 29 H        2.4360    -0.2870     1.7250 H     1 <1>   0.1500 
 30 H        3.8080     1.0140    -2.8060 H     1 <1>   0.1500 
 31 H        2.9190    -2.0170     0.0500 H     1 <1>   0.1500 
 32 H        3.5960    -1.3620    -2.2240 H     1 <1>   0.1500 
 33 H        3.2040     5.7400    -1.2300 H     1 <1>   0.0800 
 34 H        4.8660     5.6310    -1.7500 H     1 <1>   0.0800 
 35 H        6.2640     3.8140    -0.0840 H     1 <1>   0.0800 
 36 H        5.2830     2.5230     0.5420 H     1 <1>   0.0800 
 37 H        6.0840     4.1360     2.2970 H     1 <1>   0.0800 
 38 H        4.3500     3.9890     2.2510 H     1 <1>   0.0800 
 39 H        5.2230     8.8050     2.1030 H     1 <1>   0.2700 
 40 H        3.2760     9.2190    -0.2550 H     1 <1>   0.1000 
 41 H        3.8590     9.0970    -2.6830 H     1 <1>   0.1000 
 42 H        5.1420     7.8960    -2.3510 H     1 <1>   0.1000 
 43 H        6.3060     9.5070    -0.8230 H     1 <1>   0.1000 
 44 H        5.0520    10.7420    -1.1620 H     1 <1>   0.1000 
@<TRIPOS>BOND
  1   1   2  1   
  2   2   3  1   
  3   2   4  1   
  4   2   5  1   
  5   4   6  1   
  6   5   7  1   
  7   5   8  1   
  8   5  28  1   
  9   6   9  ar  
 10   6  10  ar  
 11   9  11  1   
 12   9  12  ar  
 13  10  13  ar  
 14  10  29  1   
 15  11  14  2   
 16  11  15  am  
 17  12  16  ar  
 18  12  30  1   
 19  13  16  ar  
 20  13  31  1   
 21  15  17  1   
 22  15  18  1   
 23  16  32  1   
 24  17  19  1   
 25  17  33  1   
 26  17  34  1   
 27  18  20  1   
 28  18  35  1   
 29  18  36  1   
 30  19  21  2   
 31  19  22  1   
 32  20  22  1   
 33  20  37  1   
 34  20  38  1   
 35  21  23  1   
 36  21  24  1   
 37  22  25  2   
 38  23  25  1   
 39  23  39  1   
 40  24  26  1   
 41  24  27  1   
 42  24  40  1   
 43  26  27  1   
 44  26  41  1   
 45  26  42  1   
 46  27  43  1   
 47  27  44  1   
@<TRIPOS>SUBSTRUCTURE
  1 ****  15 GROUP 4 **** **** 0

# MOE 2024.06 (io_trps.svl 2023.06)
