@<TRIPOS>MOLECULE
NONAME
51 53 1 0 0 
SMALL
USER_CHARGES


@<TRIPOS>ATOM
  1 O       -0.2670     1.3530    -1.6560 O.co2 1 <1>  -0.9000 
  2 C       -0.4230     1.5420    -0.4450 C.2   1 <1>   0.9060 
  3 O       -0.0050     0.7480     0.4050 O.co2 1 <1>  -0.9000 
  4 C       -1.1510     2.7890     0.0500 C.3   1 <1>  -0.1860 
  5 C       -2.0650     3.4410    -1.0100 C.3   1 <1>  -0.1600 
  6 C       -0.1570     3.8330     0.5910 C.3   1 <1>  -0.1600 
  7 C       -2.7600     4.6970    -0.4720 C.3   1 <1>   0.1400 
  8 C       -0.8830     5.0680     1.1260 C.3   1 <1>   0.1400 
  9 N       -1.7430     5.6510     0.0540 N.am  1 <1>  -0.6600 
 10 C       -1.5830     6.8970    -0.4970 C.2   1 <1>   0.5690 
 11 O       -2.3710     7.3480    -1.2970 O.2   1 <1>  -0.5700 
 12 C       -0.3830     7.7440    -0.1080 C.3   1 <1>  -0.0990 
 13 C       -0.2480     9.0160    -0.9520 C.3   1 <1>   0.1100 
 14 N        0.9660     9.7520    -0.5550 N.3   1 <1>  -0.8100 
 15 C        2.1700     9.2210    -1.2470 C.3   1 <1>   0.2530 
 16 C        0.8120    11.2070    -0.7630 C.3   1 <1>   0.2900 
 17 C        3.4910     9.6710    -0.6180 C.ar  1 <1>   0.1670 
 18 C       -0.1560    11.8330     0.2300 C.2   1 <1>  -0.0400 
 19 N        3.9160     8.9960     0.4430 N.ar  1 <1>  -0.6200 
 20 C        4.1880    10.7300    -1.1840 C.ar  1 <1>  -0.1500 
 21 O       -0.6270    13.0400    -0.0260 O.3   1 <1>  -0.2800 
 22 C       -0.6540    11.3740     1.3990 C.2   1 <1>  -0.1500 
 23 C        5.0600     9.4040     0.9670 C.ar  1 <1>   0.1600 
 24 C        5.3820    11.1410    -0.6310 C.ar  1 <1>  -0.1500 
 25 C       -1.4340    13.3710     0.9630 C.2   1 <1>  -0.0100 
 26 C       -1.4960    12.3840     1.8800 C.2   1 <1>  -0.1500 
 27 C        5.8200    10.4520     0.4790 C.ar  1 <1>  -0.1500 
 28 H       -1.7690     2.4600     0.8650 H     1 <1>   0.0800 
 29 H       -2.8030     2.7270    -1.3300 H     1 <1>   0.0800 
 30 H       -1.4800     3.7070    -1.8730 H     1 <1>   0.0800 
 31 H        0.5220     4.1230    -0.1920 H     1 <1>   0.0800 
 32 H        0.4250     3.3880     1.3790 H     1 <1>   0.0800 
 33 H       -3.4330     4.4280     0.3240 H     1 <1>   0.0800 
 34 H       -3.3370     5.1500    -1.2600 H     1 <1>   0.0800 
 35 H       -0.1640     5.7780     1.4900 H     1 <1>   0.0800 
 36 H       -1.5090     4.7810     1.9530 H     1 <1>   0.0800 
 37 H        0.4970     7.1420    -0.2240 H     1 <1>   0.0800 
 38 H       -0.4830     8.0250     0.9220 H     1 <1>   0.0800 
 39 H       -1.1260     9.6180    -0.7840 H     1 <1>   0.0800 
 40 H       -0.2170     8.7700    -2.0000 H     1 <1>   0.0800 
 41 H        2.1440     9.5110    -2.2830 H     1 <1>   0.0800 
 42 H        2.1600     8.1460    -1.2170 H     1 <1>   0.0800 
 43 H        0.4630    11.3940    -1.7640 H     1 <1>   0.0800 
 44 H        1.7560    11.7030    -0.6360 H     1 <1>   0.0800 
 45 H        3.8010    11.2330    -2.0510 H     1 <1>   0.1500 
 46 H       -0.4520    10.4320     1.8780 H     1 <1>   0.1500 
 47 H        5.4110     8.8720     1.8340 H     1 <1>   0.1500 
 48 H        5.9440    11.9610    -1.0440 H     1 <1>   0.1500 
 49 H       -1.9230    14.3290     0.9340 H     1 <1>   0.1500 
 50 H       -2.0580    12.3440     2.7960 H     1 <1>   0.1500 
 51 H        6.7410    10.7220     0.9630 H     1 <1>   0.1500 
@<TRIPOS>BOND
  1   1   2  ar  
  2   2   3  ar  
  3   2   4  1   
  4   4   5  1   
  5   4   6  1   
  6   4  28  1   
  7   5   7  1   
  8   5  29  1   
  9   5  30  1   
 10   6   8  1   
 11   6  31  1   
 12   6  32  1   
 13   7   9  1   
 14   7  33  1   
 15   7  34  1   
 16   8   9  1   
 17   8  35  1   
 18   8  36  1   
 19   9  10  am  
 20  10  11  2   
 21  10  12  1   
 22  12  13  1   
 23  12  37  1   
 24  12  38  1   
 25  13  14  1   
 26  13  39  1   
 27  13  40  1   
 28  14  15  1   
 29  14  16  1   
 30  15  17  1   
 31  15  41  1   
 32  15  42  1   
 33  16  18  1   
 34  16  43  1   
 35  16  44  1   
 36  17  19  ar  
 37  17  20  ar  
 38  18  21  1   
 39  18  22  2   
 40  19  23  ar  
 41  20  24  ar  
 42  20  45  1   
 43  21  25  1   
 44  22  26  1   
 45  22  46  1   
 46  23  27  ar  
 47  23  47  1   
 48  24  27  ar  
 49  24  48  1   
 50  25  26  2   
 51  25  49  1   
 52  26  50  1   
 53  27  51  1   
@<TRIPOS>SUBSTRUCTURE
  1 ****  12 GROUP 4 **** **** 0

# MOE 2024.06 (io_trps.svl 2023.06)
