@<TRIPOS>MOLECULE
NONAME
38 40 1 0 0 
SMALL
USER_CHARGES


@<TRIPOS>ATOM
  1 F       -1.4120    -0.0210     1.4450 F     1 <1>  -0.3400 
  2 C       -1.7170     0.2750     0.1810 C.3   1 <1>   0.2600 
  3 C       -2.5770     1.5370     0.1980 C.3   1 <1>   0.2000 
  4 C       -2.6450    -0.8230    -0.3530 C.3   1 <1>   0.2090 
  5 O       -2.6150     2.0720    -1.0890 O.3   1 <1>  -0.6800 
  6 C       -3.9690     0.9980     0.5290 C.3   1 <1>   0.2090 
  7 N       -4.0420    -0.3200    -0.1700 N.pl3 1 <1>  -0.8380 
  8 C       -5.1060    -1.1800     0.0530 C.ar  1 <1>   0.4100 
  9 N       -6.1010    -0.7340     0.7990 N.ar  1 <1>  -0.6200 
 10 C       -5.1470    -2.4440    -0.4880 C.ar  1 <1>  -0.1500 
 11 C       -7.0960    -1.5790     0.9800 C.ar  1 <1>   0.4700 
 12 C       -6.2310    -3.2460    -0.2220 C.ar  1 <1>   0.4100 
 13 N       -7.2300    -2.8050     0.5210 N.ar  1 <1>  -0.6200 
 14 N       -6.3090    -4.5340    -0.7210 N.pl3 1 <1>  -0.8380 
 15 C       -5.1930    -5.4920    -0.5010 C.3   1 <1>   0.2090 
 16 C       -7.6320    -5.1690    -0.9850 C.3   1 <1>   0.2090 
 17 C       -5.5450    -6.4480     0.6430 C.3   1 <1>  -0.1600 
 18 C       -7.9920    -6.1310     0.1520 C.3   1 <1>  -0.1600 
 19 C       -6.8820    -7.1620     0.4000 C.3   1 <1>  -0.1600 
 20 H       -0.7870     0.3780    -0.3480 H     1 <1>   0.0800 
 21 H       -2.2200     2.2900     0.8770 H     1 <1>   0.0800 
 22 H       -2.4860    -1.7510     0.1700 H     1 <1>   0.0800 
 23 H       -2.4670    -0.9650    -1.4040 H     1 <1>   0.0800 
 24 H       -3.2450     1.5380    -1.6200 H     1 <1>   0.4000 
 25 H       -4.7490     1.6630     0.2020 H     1 <1>   0.0800 
 26 H       -4.0580     0.8410     1.5910 H     1 <1>   0.0800 
 27 H       -4.3630    -2.8000    -1.1190 H     1 <1>   0.1500 
 28 H       -7.9090    -1.2180     1.5860 H     1 <1>   0.1500 
 29 H       -5.0260    -6.0480    -1.4070 H     1 <1>   0.0800 
 30 H       -4.2880    -4.9640    -0.2570 H     1 <1>   0.0800 
 31 H       -8.3930    -4.4140    -1.0830 H     1 <1>   0.0800 
 32 H       -7.5790    -5.7080    -1.9150 H     1 <1>   0.0800 
 33 H       -4.7610    -7.1760     0.7520 H     1 <1>   0.0800 
 34 H       -5.5990    -5.8820     1.5570 H     1 <1>   0.0800 
 35 H       -8.1560    -5.5530     1.0450 H     1 <1>   0.0800 
 36 H       -8.9110    -6.6340    -0.0860 H     1 <1>   0.0800 
 37 H       -7.1320    -7.7680     1.2540 H     1 <1>   0.0800 
 38 H       -6.7950    -7.8070    -0.4570 H     1 <1>   0.0800 
@<TRIPOS>BOND
  1   1   2  1   
  2   2   3  1   
  3   2   4  1   
  4   2  20  1   
  5   3   5  1   
  6   3   6  1   
  7   3  21  1   
  8   4   7  1   
  9   4  22  1   
 10   4  23  1   
 11   5  24  1   
 12   6   7  1   
 13   6  25  1   
 14   6  26  1   
 15   7   8  1   
 16   8   9  ar  
 17   8  10  ar  
 18   9  11  ar  
 19  10  12  ar  
 20  10  27  1   
 21  11  13  ar  
 22  11  28  1   
 23  12  13  ar  
 24  12  14  1   
 25  14  15  1   
 26  14  16  1   
 27  15  17  1   
 28  15  29  1   
 29  15  30  1   
 30  16  18  1   
 31  16  31  1   
 32  16  32  1   
 33  17  19  1   
 34  17  33  1   
 35  17  34  1   
 36  18  19  1   
 37  18  35  1   
 38  18  36  1   
 39  19  37  1   
 40  19  38  1   
@<TRIPOS>SUBSTRUCTURE
  1 ****  10 GROUP 4 **** **** 0

# MOE 2024.06 (io_trps.svl 2023.06)
