@<TRIPOS>MOLECULE
NONAME
51 53 1 0 0 
SMALL
USER_CHARGES


@<TRIPOS>ATOM
  1 O       -1.2730     0.7730     2.1570 O.2   1 <1>  -0.5700 
  2 C       -1.7380     1.2110     1.1210 C.2   1 <1>   0.5440 
  3 N       -2.3950     0.3400     0.2850 N.am  1 <1>  -0.6600 
  4 C       -1.6080     2.6150     0.8060 C.ar  1 <1>   0.0860 
  5 C       -3.0760     0.7020    -0.9830 C.3   1 <1>   0.1400 
  6 C       -2.5630    -1.1030     0.5750 C.3   1 <1>   0.1400 
  7 C       -0.8870     3.0840    -0.2980 C.ar  1 <1>   0.0830 
  8 C       -2.2340     3.5640     1.6110 C.ar  1 <1>  -0.1500 
  9 C       -4.0440    -0.4540    -1.2270 C.3   1 <1>   0.2000 
 10 C       -3.3130    -1.6670    -0.6390 C.3   1 <1>  -0.0800 
 11 O       -0.2200     2.2470    -1.1230 O.3   1 <1>  -0.3630 
 12 C       -0.8350     4.4350    -0.5990 C.ar  1 <1>  -0.1500 
 13 C       -2.1910     4.9150     1.3240 C.ar  1 <1>   0.0830 
 14 O       -5.1970    -0.2090    -0.4970 O.3   1 <1>  -0.6800 
 15 C       -4.2150    -2.8720    -0.3110 C.3   1 <1>   0.0200 
 16 C        0.9280     1.6070    -0.6070 C.3   1 <1>   0.0400 
 17 C       -1.4760     5.3710     0.2040 C.ar  1 <1>   0.0830 
 18 O       -2.8680     5.7170     2.1940 O.3   1 <1>  -0.3630 
 19 C       -3.4370    -4.1010     0.1270 C.2   1 <1>  -0.0400 
 20 O       -1.4080     6.7040    -0.0600 O.3   1 <1>  -0.3620 
 21 C       -3.6360     6.7950     1.7050 C.3   1 <1>   0.0400 
 22 O       -4.1000    -5.1420     0.5550 O.3   1 <1>  -0.0190 
 23 C       -2.1290    -4.4010     0.1820 C.2   1 <1>  -0.1500 
 24 C       -0.6000     7.2310    -1.0900 C.3   1 <1>   0.0400 
 25 N       -3.3100    -6.1180     0.8960 N.2   1 <1>  -0.4100 
 26 C       -2.1150    -5.7000     0.6830 C.2   1 <1>   0.1080 
 27 C       -0.8690    -6.5170     0.9430 C.3   1 <1>  -0.0590 
 28 H       -3.5870     1.6470    -0.9150 H     1 <1>   0.0800 
 29 H       -2.3450     0.7430    -1.7720 H     1 <1>   0.0800 
 30 H       -1.6040    -1.5730     0.7110 H     1 <1>   0.0800 
 31 H       -3.1420    -1.2140     1.4760 H     1 <1>   0.0800 
 32 H       -2.7730     3.2340     2.4800 H     1 <1>   0.1500 
 33 H       -4.3110    -0.5720    -2.2630 H     1 <1>   0.0800 
 34 H       -2.5780    -1.9790    -1.3610 H     1 <1>   0.0800 
 35 H       -0.2790     4.7260    -1.4680 H     1 <1>   0.1500 
 36 H       -4.9410     0.0650     0.4080 H     1 <1>   0.4000 
 37 H       -4.7950    -3.1290    -1.1800 H     1 <1>   0.0800 
 38 H       -4.9050    -2.6110     0.4730 H     1 <1>   0.0800 
 39 H        1.4490     1.1400    -1.4230 H     1 <1>   0.0800 
 40 H        0.6340     0.8610     0.1090 H     1 <1>   0.0800 
 41 H        1.5600     2.3430    -0.1410 H     1 <1>   0.0800 
 42 H       -4.3900     7.0280     2.4350 H     1 <1>   0.0800 
 43 H       -4.0970     6.5100     0.7760 H     1 <1>   0.0800 
 44 H       -2.9930     7.6450     1.5660 H     1 <1>   0.0800 
 45 H       -1.2660    -3.8210    -0.0840 H     1 <1>   0.1500 
 46 H       -0.6800     8.3020    -1.0620 H     1 <1>   0.0800 
 47 H       -0.9560     6.8630    -2.0370 H     1 <1>   0.0800 
 48 H        0.4200     6.9370    -0.9190 H     1 <1>   0.0800 
 49 H       -0.2380    -6.0050     1.6470 H     1 <1>   0.0800 
 50 H       -0.3320    -6.6650     0.0250 H     1 <1>   0.0800 
 51 H       -1.1370    -7.4750     1.3490 H     1 <1>   0.0800 
@<TRIPOS>BOND
  1   1   2  2   
  2   2   3  am  
  3   2   4  1   
  4   3   5  1   
  5   3   6  1   
  6   4   7  ar  
  7   4   8  ar  
  8   5   9  1   
  9   5  28  1   
 10   5  29  1   
 11   6  10  1   
 12   6  30  1   
 13   6  31  1   
 14   7  11  1   
 15   7  12  ar  
 16   8  13  ar  
 17   8  32  1   
 18   9  10  1   
 19   9  14  1   
 20   9  33  1   
 21  10  15  1   
 22  10  34  1   
 23  11  16  1   
 24  12  17  ar  
 25  12  35  1   
 26  13  17  ar  
 27  13  18  1   
 28  14  36  1   
 29  15  19  1   
 30  15  37  1   
 31  15  38  1   
 32  16  39  1   
 33  16  40  1   
 34  16  41  1   
 35  17  20  1   
 36  18  21  1   
 37  19  22  1   
 38  19  23  2   
 39  20  24  1   
 40  21  42  1   
 41  21  43  1   
 42  21  44  1   
 43  22  25  1   
 44  23  26  1   
 45  23  45  1   
 46  24  46  1   
 47  24  47  1   
 48  24  48  1   
 49  25  26  2   
 50  26  27  1   
 51  27  49  1   
 52  27  50  1   
 53  27  51  1   
@<TRIPOS>SUBSTRUCTURE
  1 ****   3 GROUP 4 **** **** 0

# MOE 2024.06 (io_trps.svl 2023.06)
