@<TRIPOS>MOLECULE
NONAME
57 59 1 0 0 
SMALL
USER_CHARGES


@<TRIPOS>ATOM
  1 O       -1.1520     0.2590    -0.7360 O.2   1 <1>  -0.5700 
  2 C       -1.9540     1.1750    -0.7970 C.2   1 <1>   0.5440 
  3 N       -3.2770     0.8380    -0.9930 N.am  1 <1>  -0.6600 
  4 C       -1.5270     2.5520    -0.6220 C.ar  1 <1>   0.0860 
  5 C       -3.6050    -0.5160    -1.5070 C.3   1 <1>   0.1400 
  6 C       -4.3370     1.4170    -0.1250 C.3   1 <1>   0.1400 
  7 C       -0.4870     2.8810     0.2470 C.ar  1 <1>  -0.1500 
  8 C       -2.1380     3.5990    -1.3100 C.ar  1 <1>  -0.1500 
  9 C       -3.7500    -1.4730    -0.3030 C.3   1 <1>   0.4230 
 10 C       -4.5230     0.4890     1.0850 C.3   1 <1>  -0.1600 
 11 C       -0.0740     4.1880     0.4480 C.ar  1 <1>  -0.1440 
 12 C       -1.7460     4.9100    -1.1230 C.ar  1 <1>  -0.1500 
 13 N       -3.8640    -2.9410    -0.6880 N.4   1 <1>  -0.9590 
 14 C       -4.8410    -0.9880     0.7010 C.3   1 <1>   0.0000 
 15 C       -0.7150     5.2190    -0.2380 C.ar  1 <1>   0.0820 
 16 C        1.0700     4.4610     1.4250 C.3   1 <1>   0.1220 
 17 C       -4.4050    -3.8180     0.4000 C.3   1 <1>   0.3430 
 18 C       -4.5750    -3.2190    -1.9780 C.3   1 <1>   0.2630 
 19 C       -4.7790    -1.8630     1.9880 C.3   1 <1>  -0.1600 
 20 C       -6.2490    -1.0840     0.0470 C.3   1 <1>   0.1200 
 21 O       -0.3100     6.4920    -0.0150 O.3   1 <1>  -0.3630 
 22 C        2.2620     3.5580     1.1450 C.2   1 <1>  -0.2880 
 23 C       -4.1040    -3.2320     1.7780 C.3   1 <1>  -0.1600 
 24 O       -7.2190    -0.4750     0.8250 O.3   1 <1>  -0.6800 
 25 C       -0.8610     7.5960    -0.6990 C.3   1 <1>   0.0400 
 26 C        2.7940     2.6870     2.0070 C.2   1 <1>  -0.3000 
 27 H       -4.5080    -0.4590    -2.0860 H     1 <1>   0.0800 
 28 H       -2.8090    -0.8530    -2.1480 H     1 <1>   0.0800 
 29 H       -4.0550     2.3990     0.2170 H     1 <1>   0.0800 
 30 H       -5.2560     1.5110    -0.6800 H     1 <1>   0.0800 
 31 H        0.0070     2.0830     0.7750 H     1 <1>   0.1500 
 32 H       -2.9300     3.3800    -2.0030 H     1 <1>   0.1500 
 33 H       -2.8170    -1.3770     0.2310 H     1 <1>   0.0800 
 34 H       -3.6110     0.5280     1.6560 H     1 <1>   0.0800 
 35 H       -5.2950     0.8940     1.7160 H     1 <1>   0.0800 
 36 H       -2.2530     5.6780    -1.6740 H     1 <1>   0.1500 
 37 H       -2.8820    -3.2320    -0.8220 H     1 <1>   0.4500 
 38 H        1.4030     5.4800     1.3640 H     1 <1>   0.0800 
 39 H        0.7150     4.2980     2.4270 H     1 <1>   0.0800 
 40 H       -5.4740    -3.9100     0.2960 H     1 <1>   0.0800 
 41 H       -3.9780    -4.8050     0.3220 H     1 <1>   0.0800 
 42 H       -5.6000    -2.8910    -1.9230 H     1 <1>   0.0800 
 43 H       -4.5650    -4.2770    -2.1880 H     1 <1>   0.0800 
 44 H       -4.0910    -2.7100    -2.7950 H     1 <1>   0.0800 
 45 H       -4.2340    -1.3540     2.7670 H     1 <1>   0.0800 
 46 H       -5.7710    -2.0190     2.3770 H     1 <1>   0.0800 
 47 H       -6.5490    -2.1060    -0.0970 H     1 <1>   0.0800 
 48 H       -6.2750    -0.5860    -0.9060 H     1 <1>   0.0800 
 49 H        2.6460     3.6950     0.1470 H     1 <1>   0.1500 
 50 H       -4.4480    -3.9140     2.5370 H     1 <1>   0.0800 
 51 H       -3.0370    -3.1420     1.8970 H     1 <1>   0.0800 
 52 H       -7.3130    -0.8990     1.7010 H     1 <1>   0.4000 
 53 H       -0.3570     8.4830    -0.3610 H     1 <1>   0.0800 
 54 H       -1.9100     7.6610    -0.4690 H     1 <1>   0.0800 
 55 H       -0.7030     7.4660    -1.7550 H     1 <1>   0.0800 
 56 H        3.6400     2.0600     1.7780 H     1 <1>   0.1500 
 57 H        2.4350     2.5250     3.0090 H     1 <1>   0.1500 
@<TRIPOS>BOND
  1   1   2  2   
  2   2   3  am  
  3   2   4  1   
  4   3   5  1   
  5   3   6  1   
  6   4   7  ar  
  7   4   8  ar  
  8   5   9  1   
  9   5  27  1   
 10   5  28  1   
 11   6  10  1   
 12   6  29  1   
 13   6  30  1   
 14   7  11  ar  
 15   7  31  1   
 16   8  12  ar  
 17   8  32  1   
 18   9  13  1   
 19   9  14  1   
 20   9  33  1   
 21  10  14  1   
 22  10  34  1   
 23  10  35  1   
 24  11  15  ar  
 25  11  16  1   
 26  12  15  ar  
 27  12  36  1   
 28  13  17  1   
 29  13  18  1   
 30  13  37  1   
 31  14  19  1   
 32  14  20  1   
 33  15  21  1   
 34  16  22  1   
 35  16  38  1   
 36  16  39  1   
 37  17  23  1   
 38  17  40  1   
 39  17  41  1   
 40  18  42  1   
 41  18  43  1   
 42  18  44  1   
 43  19  23  1   
 44  19  45  1   
 45  19  46  1   
 46  20  24  1   
 47  20  47  1   
 48  20  48  1   
 49  21  25  1   
 50  22  26  2   
 51  22  49  1   
 52  23  50  1   
 53  23  51  1   
 54  24  52  1   
 55  25  53  1   
 56  25  54  1   
 57  25  55  1   
 58  26  56  1   
 59  26  57  1   
@<TRIPOS>SUBSTRUCTURE
  1 ****   2 GROUP 4 **** **** 0

# MOE 2024.06 (io_trps.svl 2023.06)
