@<TRIPOS>MOLECULE
NONAME
55 57 1 0 0 
SMALL
USER_CHARGES


@<TRIPOS>ATOM
  1 O       -1.2940    -0.9680     1.6000 O.2   1 <1>  -0.5700 
  2 C       -1.8690    -0.1510     0.9040 C.2   1 <1>   0.5440 
  3 N       -1.1700     0.9620     0.4700 N.am  1 <1>  -0.6600 
  4 C       -3.2490    -0.3860     0.5500 C.ar  1 <1>   0.0860 
  5 C       -1.5400     1.7510    -0.7370 C.3   1 <1>   0.0600 
  6 C        0.1490     1.3230     1.0610 C.3   1 <1>   0.0600 
  7 C       -3.6690    -1.6600     0.1760 C.ar  1 <1>   0.1600 
  8 C       -4.2210     0.6100     0.5740 C.ar  1 <1>  -0.1500 
  9 N       -4.8960    -2.0040    -0.1820 N.ar  1 <1>  -0.6200 
 10 C       -5.5020     0.2720     0.2100 C.ar  1 <1>  -0.1500 
 11 C       -5.8030    -1.0340    -0.1640 C.ar  1 <1>   0.4100 
 12 N       -7.0850    -1.3590    -0.5290 N.pl3 1 <1>  -0.8690 
 13 C       -7.4490    -2.6540    -1.1450 C.3   1 <1>   0.2090 
 14 C       -7.6590    -3.6970    -0.0380 C.3   1 <1>  -0.0800 
 15 C       -7.9540    -5.0880    -0.5910 C.3   1 <1>   0.3430 
 16 C       -8.8170    -3.3760     0.9070 C.3   1 <1>  -0.1600 
 17 N       -9.2120    -5.5520     0.0720 N.4   1 <1>  -0.9590 
 18 C       -9.3470    -4.7370     1.3090 C.3   1 <1>   0.3430 
 19 C       -9.2730    -7.0260     0.2980 C.3   1 <1>   0.4230 
 20 C       -9.1440    -7.7640    -1.0460 C.3   1 <1>  -0.1600 
 21 C      -10.5970    -7.3990     0.9880 C.3   1 <1>  -0.1600 
 22 C       -9.2860    -9.2840    -0.8760 C.3   1 <1>  -0.1600 
 23 C      -10.7410    -8.9190     1.1580 C.3   1 <1>  -0.1600 
 24 C      -10.6050    -9.6440    -0.1850 C.3   1 <1>  -0.1600 
 25 H       -2.3030     1.2490    -1.3060 H     1 <1>   0.0800 
 26 H       -0.6770     1.8750    -1.3690 H     1 <1>   0.0800 
 27 H       -1.8990     2.7210    -0.4400 H     1 <1>   0.0800 
 28 H        0.2690     0.8620     2.0270 H     1 <1>   0.0800 
 29 H        0.2180     2.3890     1.1810 H     1 <1>   0.0800 
 30 H        0.9400     0.9830     0.4160 H     1 <1>   0.0800 
 31 H       -2.9260    -2.4400     0.1760 H     1 <1>   0.1500 
 32 H       -3.9670     1.6100     0.8770 H     1 <1>   0.1500 
 33 H       -6.2830     1.0090     0.2160 H     1 <1>   0.1500 
 34 H       -7.7090    -0.5770    -0.7440 H     1 <1>   0.4000 
 35 H       -6.6570    -2.9670    -1.8060 H     1 <1>   0.0800 
 36 H       -8.3450    -2.5310    -1.7280 H     1 <1>   0.0800 
 37 H       -6.7490    -3.7750     0.5310 H     1 <1>   0.0800 
 38 H       -7.1350    -5.7450    -0.3450 H     1 <1>   0.0800 
 39 H       -8.0750    -5.0660    -1.6620 H     1 <1>   0.0800 
 40 H       -9.5910    -2.8260     0.4000 H     1 <1>   0.0800 
 41 H       -8.4890    -2.8060     1.7590 H     1 <1>   0.0800 
 42 H       -9.9980    -5.3050    -0.5410 H     1 <1>   0.4500 
 43 H      -10.3700    -4.6840     1.6480 H     1 <1>   0.0800 
 44 H       -8.7280    -5.1490     2.0900 H     1 <1>   0.0800 
 45 H       -8.4570    -7.3260     0.9350 H     1 <1>   0.0800 
 46 H       -8.1830    -7.5770    -1.4910 H     1 <1>   0.0800 
 47 H       -9.9080    -7.4240    -1.7230 H     1 <1>   0.0800 
 48 H      -11.4260    -7.0410     0.4020 H     1 <1>   0.0800 
 49 H      -10.6510    -6.9580     1.9660 H     1 <1>   0.0800 
 50 H       -8.4630    -9.6630    -0.2930 H     1 <1>   0.0800 
 51 H       -9.2470    -9.7620    -1.8410 H     1 <1>   0.0800 
 52 H      -11.7020    -9.1470     1.5900 H     1 <1>   0.0800 
 53 H       -9.9860    -9.2820     1.8360 H     1 <1>   0.0800 
 54 H      -10.6480   -10.7090    -0.0250 H     1 <1>   0.0800 
 55 H      -11.4320    -9.3800    -0.8240 H     1 <1>   0.0800 
@<TRIPOS>BOND
  1   1   2  2   
  2   2   3  am  
  3   2   4  1   
  4   3   5  1   
  5   3   6  1   
  6   4   7  ar  
  7   4   8  ar  
  8   5  25  1   
  9   5  26  1   
 10   5  27  1   
 11   6  28  1   
 12   6  29  1   
 13   6  30  1   
 14   7   9  ar  
 15   7  31  1   
 16   8  10  ar  
 17   8  32  1   
 18   9  11  ar  
 19  10  11  ar  
 20  10  33  1   
 21  11  12  1   
 22  12  13  1   
 23  12  34  1   
 24  13  14  1   
 25  13  35  1   
 26  13  36  1   
 27  14  15  1   
 28  14  16  1   
 29  14  37  1   
 30  15  17  1   
 31  15  38  1   
 32  15  39  1   
 33  16  18  1   
 34  16  40  1   
 35  16  41  1   
 36  17  18  1   
 37  17  19  1   
 38  17  42  1   
 39  18  43  1   
 40  18  44  1   
 41  19  20  1   
 42  19  21  1   
 43  19  45  1   
 44  20  22  1   
 45  20  46  1   
 46  20  47  1   
 47  21  23  1   
 48  21  48  1   
 49  21  49  1   
 50  22  24  1   
 51  22  50  1   
 52  22  51  1   
 53  23  24  1   
 54  23  52  1   
 55  23  53  1   
 56  24  54  1   
 57  24  55  1   
@<TRIPOS>SUBSTRUCTURE
  1 ****  14 GROUP 4 **** **** 0

# MOE 2024.06 (io_trps.svl 2023.06)
