@<TRIPOS>MOLECULE
NONAME
45 47 1 0 0 
SMALL
USER_CHARGES


@<TRIPOS>ATOM
  1 CL       0.9880     0.3450    -1.3770 Cl    1 <1>  -0.1770 
  2 C        1.3890    -0.9920    -0.3120 C.ar  1 <1>   0.1770 
  3 C        0.7320    -2.2180    -0.3850 C.ar  1 <1>   0.4100 
  4 C        2.3790    -0.8440     0.6200 C.ar  1 <1>   0.1600 
  5 N        1.0660    -3.2040     0.4320 N.ar  1 <1>  -0.6200 
  6 N       -0.2960    -2.4810    -1.2760 N.pl3 1 <1>  -0.8380 
  7 N        2.7190    -1.8260     1.4390 N.ar  1 <1>  -0.6200 
  8 C        2.0410    -2.9510     1.2880 C.ar  1 <1>   0.4770 
  9 C       -0.3600    -3.7720    -1.9880 C.3   1 <1>   0.2090 
 10 C       -1.5730    -1.7560    -1.1600 C.3   1 <1>   0.2090 
 11 C        2.4260    -4.0820     2.2110 C.3   1 <1>  -0.0960 
 12 C       -1.3230    -4.6950    -1.2470 C.3   1 <1>  -0.1600 
 13 C       -2.5380    -2.6330    -0.3690 C.3   1 <1>  -0.1600 
 14 C       -2.6900    -4.0360    -0.9860 C.3   1 <1>   0.4230 
 15 N       -3.5030    -4.9000    -0.0630 N.4   1 <1>  -0.9590 
 16 C       -3.6180    -6.3270    -0.5470 C.3   1 <1>   0.3430 
 17 C       -4.8660    -4.3420     0.2140 C.3   1 <1>   0.3430 
 18 C       -4.3710    -7.2330     0.4430 C.3   1 <1>   0.2000 
 19 C       -5.5910    -5.1920     1.2620 C.3   1 <1>  -0.1600 
 20 O       -4.5740    -8.4500    -0.1710 O.3   1 <1>  -0.6800 
 21 C       -5.7360    -6.6550     0.8190 C.3   1 <1>  -0.1600 
 22 H        2.9050     0.0900     0.7000 H     1 <1>   0.1500 
 23 H        0.6220    -4.2150    -2.0290 H     1 <1>   0.0800 
 24 H       -0.6930    -3.6030    -2.9990 H     1 <1>   0.0800 
 25 H       -1.9570    -1.5450    -2.1450 H     1 <1>   0.0800 
 26 H       -1.4260    -0.8200    -0.6480 H     1 <1>   0.0800 
 27 H        2.3160    -5.0240     1.7070 H     1 <1>   0.0800 
 28 H        1.7930    -4.0660     3.0770 H     1 <1>   0.0800 
 29 H        3.4490    -3.9740     2.5220 H     1 <1>   0.0800 
 30 H       -0.8630    -4.9720    -0.3150 H     1 <1>   0.0800 
 31 H       -1.4330    -5.5760    -1.8510 H     1 <1>   0.0800 
 32 H       -3.4800    -2.1190    -0.3480 H     1 <1>   0.0800 
 33 H       -2.1610    -2.7100     0.6360 H     1 <1>   0.0800 
 34 H       -3.2010    -3.9370    -1.9300 H     1 <1>   0.0800 
 35 H       -2.9880    -4.9190     0.8260 H     1 <1>   0.4500 
 36 H       -2.6390    -6.7500    -0.6960 H     1 <1>   0.0800 
 37 H       -4.1440    -6.3430    -1.4870 H     1 <1>   0.0800 
 38 H       -5.4440    -4.3240    -0.6960 H     1 <1>   0.0800 
 39 H       -4.7910    -3.3340     0.5870 H     1 <1>   0.0800 
 40 H       -3.7680    -7.4020     1.3200 H     1 <1>   0.0800 
 41 H       -6.5710    -4.7780     1.4270 H     1 <1>   0.0800 
 42 H       -5.0610    -5.1380     2.1970 H     1 <1>   0.0800 
 43 H       -5.0340    -9.0760     0.4260 H     1 <1>   0.4000 
 44 H       -6.1730    -7.2320     1.6160 H     1 <1>   0.0800 
 45 H       -6.3930    -6.6990    -0.0350 H     1 <1>   0.0800 
@<TRIPOS>BOND
  1   1   2  1   
  2   2   3  ar  
  3   2   4  ar  
  4   3   5  ar  
  5   3   6  1   
  6   4   7  ar  
  7   4  22  1   
  8   5   8  ar  
  9   6   9  1   
 10   6  10  1   
 11   7   8  ar  
 12   8  11  1   
 13   9  12  1   
 14   9  23  1   
 15   9  24  1   
 16  10  13  1   
 17  10  25  1   
 18  10  26  1   
 19  11  27  1   
 20  11  28  1   
 21  11  29  1   
 22  12  14  1   
 23  12  30  1   
 24  12  31  1   
 25  13  14  1   
 26  13  32  1   
 27  13  33  1   
 28  14  15  1   
 29  14  34  1   
 30  15  16  1   
 31  15  17  1   
 32  15  35  1   
 33  16  18  1   
 34  16  36  1   
 35  16  37  1   
 36  17  19  1   
 37  17  38  1   
 38  17  39  1   
 39  18  20  1   
 40  18  21  1   
 41  18  40  1   
 42  19  21  1   
 43  19  41  1   
 44  19  42  1   
 45  20  43  1   
 46  21  44  1   
 47  21  45  1   
@<TRIPOS>SUBSTRUCTURE
  1 ****  12 GROUP 4 **** **** 0

# MOE 2024.06 (io_trps.svl 2023.06)
