@<TRIPOS>MOLECULE
NONAME
54 56 1 0 0 
SMALL
USER_CHARGES


@<TRIPOS>ATOM
  1 F        1.7080    -0.3380     1.9330 F     1 <1>  -0.1900 
  2 C        2.3520    -1.2460     1.2540 C.ar  1 <1>   0.1900 
  3 C        2.0300    -2.5740     1.4520 C.ar  1 <1>  -0.1500 
  4 C        3.3250    -0.8510     0.3610 C.ar  1 <1>  -0.1500 
  5 C        2.7000    -3.5490     0.7240 C.ar  1 <1>  -0.1440 
  6 C        3.9990    -1.8260    -0.3510 C.ar  1 <1>  -0.1500 
  7 C        3.7000    -3.1720    -0.1750 C.ar  1 <1>  -0.1430 
  8 C        2.3140    -5.0020     0.9330 C.3   1 <1>   0.4870 
  9 C        4.5040    -4.1880    -0.9810 C.3   1 <1>  -0.0970 
 10 N        1.3880    -5.4030    -0.1590 N.4   1 <1>  -0.9590 
 11 C        1.2220    -6.8920    -0.1990 C.3   1 <1>   0.5660 
 12 C        0.0680    -4.6940    -0.0670 C.3   1 <1>   0.3430 
 13 C        2.5630    -7.4850    -0.6110 C.ar  1 <1>  -0.1430 
 14 C        0.0730    -7.3740    -1.1290 C.3   1 <1>   0.2000 
 15 C       -0.9390    -5.2310    -1.0980 C.3   1 <1>   0.1200 
 16 C        3.2760    -8.2350     0.3130 C.ar  1 <1>  -0.1500 
 17 C        3.0990    -7.2840    -1.8790 C.ar  1 <1>  -0.1500 
 18 O       -1.0930    -6.6100    -0.9380 O.3   1 <1>  -0.5600 
 19 C       -0.2580    -8.8490    -0.8480 C.3   1 <1>   0.1200 
 20 C        4.5130    -8.7660    -0.0070 C.ar  1 <1>   0.0830 
 21 C        4.3390    -7.8060    -2.2030 C.ar  1 <1>  -0.1500 
 22 O       -0.3700    -9.0630     0.5240 O.3   1 <1>  -0.6800 
 23 O        5.1320    -9.4990     0.9480 O.3   1 <1>  -0.3630 
 24 C        5.0630    -8.5290    -1.2710 C.ar  1 <1>   0.0830 
 25 C        5.3350   -10.8680     0.6650 C.3   1 <1>   0.0400 
 26 O        6.2860    -8.9740    -1.6470 O.3   1 <1>  -0.3630 
 27 C        7.4000    -8.4660    -0.9450 C.3   1 <1>   0.0400 
 28 H        1.2670    -2.8160     2.1710 H     1 <1>   0.1500 
 29 H        3.5500     0.1940     0.2320 H     1 <1>   0.1500 
 30 H        4.7670    -1.5240    -1.0450 H     1 <1>   0.1500 
 31 H        1.8380    -5.1260     1.8920 H     1 <1>   0.0800 
 32 H        3.2030    -5.6110     0.9180 H     1 <1>   0.0800 
 33 H        5.4300    -3.7530    -1.3130 H     1 <1>   0.0800 
 34 H        3.9530    -4.4950    -1.8510 H     1 <1>   0.0800 
 35 H        4.7540    -5.0520    -0.3920 H     1 <1>   0.0800 
 36 H        1.8480    -5.1260    -1.0310 H     1 <1>   0.4500 
 37 H        0.9880    -7.2360     0.7950 H     1 <1>   0.0800 
 38 H       -0.3530    -4.8310     0.9160 H     1 <1>   0.0800 
 39 H        0.2070    -3.6370    -0.2240 H     1 <1>   0.0800 
 40 H        0.3530    -7.2750    -2.1620 H     1 <1>   0.0800 
 41 H       -0.6200    -5.0260    -2.1050 H     1 <1>   0.0800 
 42 H       -1.9020    -4.7770    -0.9440 H     1 <1>   0.0800 
 43 H        2.8830    -8.4310     1.2970 H     1 <1>   0.1500 
 44 H        2.5710    -6.7260    -2.6330 H     1 <1>   0.1500 
 45 H        0.5240    -9.4910    -1.2180 H     1 <1>   0.0800 
 46 H       -1.1890    -9.1170    -1.3200 H     1 <1>   0.0800 
 47 H        4.7610    -7.6550    -3.1820 H     1 <1>   0.1500 
 48 H       -0.8080    -9.9230     0.7040 H     1 <1>   0.4000 
 49 H        5.7400   -11.3360     1.5440 H     1 <1>   0.0800 
 50 H        6.0250   -10.9680    -0.1520 H     1 <1>   0.0800 
 51 H        4.3900   -11.3160     0.4120 H     1 <1>   0.0800 
 52 H        8.2920    -8.8310    -1.4220 H     1 <1>   0.0800 
 53 H        7.3690    -8.8060     0.0740 H     1 <1>   0.0800 
 54 H        7.3760    -7.3920    -0.9830 H     1 <1>   0.0800 
@<TRIPOS>BOND
  1   1   2  1   
  2   2   3  ar  
  3   2   4  ar  
  4   3   5  ar  
  5   3  28  1   
  6   4   6  ar  
  7   4  29  1   
  8   5   7  ar  
  9   5   8  1   
 10   6   7  ar  
 11   6  30  1   
 12   7   9  1   
 13   8  10  1   
 14   8  31  1   
 15   8  32  1   
 16   9  33  1   
 17   9  34  1   
 18   9  35  1   
 19  10  11  1   
 20  10  12  1   
 21  10  36  1   
 22  11  13  1   
 23  11  14  1   
 24  11  37  1   
 25  12  15  1   
 26  12  38  1   
 27  12  39  1   
 28  13  16  ar  
 29  13  17  ar  
 30  14  18  1   
 31  14  19  1   
 32  14  40  1   
 33  15  18  1   
 34  15  41  1   
 35  15  42  1   
 36  16  20  ar  
 37  16  43  1   
 38  17  21  ar  
 39  17  44  1   
 40  19  22  1   
 41  19  45  1   
 42  19  46  1   
 43  20  23  1   
 44  20  24  ar  
 45  21  24  ar  
 46  21  47  1   
 47  22  48  1   
 48  23  25  1   
 49  24  26  1   
 50  25  49  1   
 51  25  50  1   
 52  25  51  1   
 53  26  27  1   
 54  27  52  1   
 55  27  53  1   
 56  27  54  1   
@<TRIPOS>SUBSTRUCTURE
  1 ****  10 GROUP 4 **** **** 0

# MOE 2024.06 (io_trps.svl 2023.06)
