@<TRIPOS>MOLECULE
NONAME
50 53 1 0 0 
SMALL
USER_CHARGES


@<TRIPOS>ATOM
  1 S       -0.4110     0.1070    -1.5800 S.o2  1 <1>   1.4470 
  2 O       -0.2370     1.3030    -2.3740 O.2   1 <1>  -0.6500 
  3 O       -1.0770    -1.0440    -2.1500 O.2   1 <1>  -0.6500 
  4 N       -1.2830     0.5480    -0.1950 N.am  1 <1>  -0.8490 
  5 C        1.1990    -0.3780    -0.8970 C.ar  1 <1>  -0.0090 
  6 C       -2.4850     1.3290    -0.5480 C.3   1 <1>   0.1960 
  7 C       -1.6500    -0.6120     0.6240 C.3   1 <1>   0.1960 
  8 C        1.8780     0.4630    -0.0230 C.ar  1 <1>  -0.1500 
  9 C        1.7930    -1.5950    -1.2280 C.ar  1 <1>  -0.1500 
 10 C       -3.1910     1.8820     0.7060 C.3   1 <1>   0.1440 
 11 C       -2.3020    -0.1510     1.9330 C.3   1 <1>  -0.1600 
 12 C        3.0990     0.0740     0.4910 C.ar  1 <1>   0.1900 
 13 C        3.0220    -1.9740    -0.7060 C.ar  1 <1>  -0.1500 
 14 C       -4.4180     2.6520     0.2620 C.ar  1 <1>   0.1670 
 15 C       -3.5380     0.7220     1.6620 C.3   1 <1>  -0.1600 
 16 C       -2.3390     2.9780     1.4010 C.3   1 <1>  -0.1600 
 17 F        3.7170     0.8760     1.3150 F     1 <1>  -0.1900 
 18 C        3.6870    -1.1320     0.1670 C.ar  1 <1>  -0.1500 
 19 N       -5.5200     2.1160    -0.2010 N.ar  1 <1>  -0.6200 
 20 C       -4.2380     3.9960     0.3790 C.ar  1 <1>  -0.1430 
 21 C       -2.8700     4.3380     0.9130 C.3   1 <1>  -0.0170 
 22 C       -6.4760     2.9850    -0.5410 C.ar  1 <1>   0.7200 
 23 C       -5.2740     4.8120     0.0040 C.ar  1 <1>   0.1600 
 24 N       -6.3990     4.3170    -0.4550 N.ar  1 <1>  -0.6200 
 25 N       -7.6540     2.4550    -1.0320 N.pl3 1 <1>  -0.8380 
 26 C       -8.8900     3.2720    -1.1670 C.3   1 <1>   0.1290 
 27 C       -7.7570     1.0400    -1.4850 C.3   1 <1>   0.1290 
 28 H       -3.1710     0.7090    -1.1030 H     1 <1>   0.0800 
 29 H       -2.2130     2.1590    -1.1790 H     1 <1>   0.0800 
 30 H       -0.7710    -1.1900     0.8570 H     1 <1>   0.0800 
 31 H       -2.3340    -1.2450     0.0810 H     1 <1>   0.0800 
 32 H        1.4570     1.4130     0.2550 H     1 <1>   0.1500 
 33 H        1.2840    -2.2590    -1.9090 H     1 <1>   0.1500 
 34 H       -1.5780     0.3980     2.5100 H     1 <1>   0.0800 
 35 H       -2.5920    -1.0130     2.5080 H     1 <1>   0.0800 
 36 H        3.4570    -2.9200    -0.9790 H     1 <1>   0.1500 
 37 H       -4.2970     0.1100     1.2050 H     1 <1>   0.0800 
 38 H       -3.9430     1.1020     2.5830 H     1 <1>   0.0800 
 39 H       -1.2870     2.8700     1.2010 H     1 <1>   0.0800 
 40 H       -2.4850     2.9260     2.4660 H     1 <1>   0.0800 
 41 H        4.6400    -1.3990     0.5880 H     1 <1>   0.1500 
 42 H       -2.2560     4.7210     0.1160 H     1 <1>   0.0800 
 43 H       -2.9210     5.0540     1.7140 H     1 <1>   0.0800 
 44 H       -5.1810     5.8820     0.0790 H     1 <1>   0.1500 
 45 H       -8.9110     4.0500    -0.4240 H     1 <1>   0.0800 
 46 H       -9.7600     2.6530    -1.0330 H     1 <1>   0.0800 
 47 H       -8.9180     3.7210    -2.1440 H     1 <1>   0.0800 
 48 H       -6.8030     0.6850    -1.8360 H     1 <1>   0.0800 
 49 H       -8.4640     0.9610    -2.2920 H     1 <1>   0.0800 
 50 H       -8.0800     0.4230    -0.6650 H     1 <1>   0.0800 
@<TRIPOS>BOND
  1   1   2  2   
  2   1   3  2   
  3   1   4  am  
  4   1   5  1   
  5   4   6  1   
  6   4   7  1   
  7   5   8  ar  
  8   5   9  ar  
  9   6  10  1   
 10   6  28  1   
 11   6  29  1   
 12   7  11  1   
 13   7  30  1   
 14   7  31  1   
 15   8  12  ar  
 16   8  32  1   
 17   9  13  ar  
 18   9  33  1   
 19  10  14  1   
 20  10  15  1   
 21  10  16  1   
 22  11  15  1   
 23  11  34  1   
 24  11  35  1   
 25  12  17  1   
 26  12  18  ar  
 27  13  18  ar  
 28  13  36  1   
 29  14  19  ar  
 30  14  20  ar  
 31  15  37  1   
 32  15  38  1   
 33  16  21  1   
 34  16  39  1   
 35  16  40  1   
 36  18  41  1   
 37  19  22  ar  
 38  20  21  1   
 39  20  23  ar  
 40  21  42  1   
 41  21  43  1   
 42  22  24  ar  
 43  22  25  1   
 44  23  24  ar  
 45  23  44  1   
 46  25  26  1   
 47  25  27  1   
 48  26  45  1   
 49  26  46  1   
 50  26  47  1   
 51  27  48  1   
 52  27  49  1   
 53  27  50  1   
@<TRIPOS>SUBSTRUCTURE
  1 ****   6 GROUP 4 **** **** 0

# MOE 2024.06 (io_trps.svl 2023.06)
