@<TRIPOS>MOLECULE
NONAME
46 48 1 0 0 
SMALL
USER_CHARGES


@<TRIPOS>ATOM
  1 O       -1.3510     1.0000     2.4570 O.3   1 <1>  -0.5600 
  2 C       -0.1870     1.3370     1.7520 C.3   1 <1>   0.1200 
  3 C       -2.4830     1.5340     1.8390 C.3   1 <1>   0.1200 
  4 C       -0.6030     2.2610     0.6070 C.3   1 <1>   0.2890 
  5 C       -2.0660     1.9010     0.4150 C.3   1 <1>  -0.0800 
  6 N       -0.5090     3.6810     1.0360 N.pl3 1 <1>  -0.8690 
  7 C       -2.2320     0.7200    -0.5610 C.3   1 <1>  -0.0170 
  8 C        0.6080     4.4720     0.8370 C.ar  1 <1>   0.4100 
  9 C       -3.6980     0.3730    -0.7690 C.ar  1 <1>  -0.1430 
 10 N        1.5750     3.9330     0.1030 N.ar  1 <1>  -0.6200 
 11 C        0.6890     5.7570     1.3910 C.ar  1 <1>   0.0730 
 12 C       -4.5240     1.1550    -1.5500 C.ar  1 <1>  -0.1500 
 13 C       -4.2770    -0.7380    -0.1890 C.ar  1 <1>  -0.1500 
 14 C        2.6590     4.6610    -0.1070 C.ar  1 <1>   0.1670 
 15 C       -0.3850     6.2790     2.1740 C.1   1 <1>   0.4840 
 16 C        1.8280     6.5060     1.1640 C.ar  1 <1>  -0.1500 
 17 C       -5.8540     0.8010    -1.7050 C.ar  1 <1>   0.1600 
 18 C       -5.6190    -1.0030    -0.4090 C.ar  1 <1>   0.1600 
 19 C        2.8250     5.9410     0.4000 C.ar  1 <1>  -0.1500 
 20 C        3.7550     4.0170    -0.9580 C.3   1 <1>   0.0640 
 21 N       -1.2450     6.6790     2.8090 N.1   1 <1>  -0.5570 
 22 N       -6.4220    -0.2590    -1.1520 N.ar  1 <1>  -0.6200 
 23 C        5.0610     3.8540    -0.1680 C.3   1 <1>  -0.2400 
 24 C        3.9990     4.8060    -2.2520 C.3   1 <1>  -0.2400 
 25 H        0.5150     1.8070     2.4180 H     1 <1>   0.0800 
 26 H        0.2320     0.4250     1.3670 H     1 <1>   0.0800 
 27 H       -3.2820     0.8150     1.8810 H     1 <1>   0.0800 
 28 H       -2.7680     2.4140     2.3900 H     1 <1>   0.0800 
 29 H       -0.0200     2.0900    -0.2820 H     1 <1>   0.0800 
 30 H       -2.6290     2.7410     0.0480 H     1 <1>   0.0800 
 31 H       -1.0800     3.8790     1.8630 H     1 <1>   0.4000 
 32 H       -1.7050    -0.1430    -0.1930 H     1 <1>   0.0800 
 33 H       -1.8030     0.9810    -1.5130 H     1 <1>   0.0800 
 34 H       -4.1480     2.0350    -2.0370 H     1 <1>   0.1500 
 35 H       -3.7000    -1.3980     0.4330 H     1 <1>   0.1500 
 36 H        1.9350     7.4990     1.5680 H     1 <1>   0.1500 
 37 H       -6.4850     1.4230    -2.3180 H     1 <1>   0.1500 
 38 H       -6.0540    -1.8730     0.0520 H     1 <1>   0.1500 
 39 H        3.7260     6.4920     0.2000 H     1 <1>   0.1500 
 40 H        3.4210     3.0320    -1.2380 H     1 <1>   0.0800 
 41 H        5.4740     4.8100     0.0990 H     1 <1>   0.0800 
 42 H        5.7850     3.3190    -0.7540 H     1 <1>   0.0800 
 43 H        4.8730     3.2970     0.7330 H     1 <1>   0.0800 
 44 H        4.3820     5.7880    -2.0400 H     1 <1>   0.0800 
 45 H        3.0760     4.9060    -2.7960 H     1 <1>   0.0800 
 46 H        4.7070     4.2880    -2.8740 H     1 <1>   0.0800 
@<TRIPOS>BOND
  1   1   2  1   
  2   1   3  1   
  3   2   4  1   
  4   2  25  1   
  5   2  26  1   
  6   3   5  1   
  7   3  27  1   
  8   3  28  1   
  9   4   5  1   
 10   4   6  1   
 11   4  29  1   
 12   5   7  1   
 13   5  30  1   
 14   6   8  1   
 15   6  31  1   
 16   7   9  1   
 17   7  32  1   
 18   7  33  1   
 19   8  10  ar  
 20   8  11  ar  
 21   9  12  ar  
 22   9  13  ar  
 23  10  14  ar  
 24  11  15  1   
 25  11  16  ar  
 26  12  17  ar  
 27  12  34  1   
 28  13  18  ar  
 29  13  35  1   
 30  14  19  ar  
 31  14  20  1   
 32  15  21  3   
 33  16  19  ar  
 34  16  36  1   
 35  17  22  ar  
 36  17  37  1   
 37  18  22  ar  
 38  18  38  1   
 39  19  39  1   
 40  20  23  1   
 41  20  24  1   
 42  20  40  1   
 43  23  41  1   
 44  23  42  1   
 45  23  43  1   
 46  24  44  1   
 47  24  45  1   
 48  24  46  1   
@<TRIPOS>SUBSTRUCTURE
  1 ****   4 GROUP 4 **** **** 0

# MOE 2024.06 (io_trps.svl 2023.06)
