@<TRIPOS>MOLECULE
NONAME
45 48 1 0 0 
SMALL
USER_CHARGES


@<TRIPOS>ATOM
  1 S       -0.3390    -0.2560    -1.3210 S.o2  1 <1>   1.5010 
  2 O       -1.2760     0.6900    -1.8900 O.2   1 <1>  -0.6500 
  3 O       -0.0060    -1.4440    -2.0770 O.2   1 <1>  -0.6500 
  4 N       -0.9550    -0.7600     0.1840 N.am  1 <1>  -0.8490 
  5 C        1.1650     0.6100    -0.8620 C.2   1 <1>  -0.0630 
  6 C       -1.1410    -2.2240     0.3060 C.3   1 <1>   0.1960 
  7 C       -2.2100    -0.0890     0.5840 C.3   1 <1>   0.1960 
  8 C        1.4370     1.9280    -1.2040 C.2   1 <1>   0.1390 
  9 C        2.2630     0.2290    -0.1590 C.2   1 <1>  -0.3020 
 10 C       -2.3900    -2.7300    -0.4540 C.3   1 <1>   0.3440 
 11 C       -3.4540    -0.6490    -0.1540 C.3   1 <1>   0.2950 
 12 N        2.5860     2.3370    -0.7600 N.2   1 <1>  -0.7070 
 13 N        3.0990     1.2820    -0.1120 N.pl3 1 <1>   0.3140 
 14 O       -3.5260    -2.0380    -0.0030 O.3   1 <1>  -0.5600 
 15 C       -2.5740    -4.2280    -0.2320 C.ar  1 <1>  -0.1440 
 16 C       -4.7500    -0.0600     0.4100 C.3   1 <1>  -0.1950 
 17 C        4.4140     1.3450     0.5360 C.3   1 <1>   0.0160 
 18 C       -3.3390    -4.7250     0.8140 C.ar  1 <1>  -0.1500 
 19 C       -1.9460    -5.1200    -1.0910 C.ar  1 <1>  -0.1500 
 20 C       -6.0070    -0.0360    -0.4010 C.3   1 <1>  -0.2000 
 21 C       -5.2820     1.2450    -0.0960 C.3   1 <1>  -0.2000 
 22 C       -3.4740    -6.0900     1.0000 C.ar  1 <1>  -0.1500 
 23 C       -2.0800    -6.4850    -0.9060 C.ar  1 <1>  -0.1500 
 24 C       -2.8430    -6.9720     0.1400 C.ar  1 <1>  -0.1500 
 25 H       -0.2660    -2.7450    -0.0440 H     1 <1>   0.0800 
 26 H       -1.2580    -2.4780     1.3450 H     1 <1>   0.0800 
 27 H       -2.3560    -0.2310     1.6410 H     1 <1>   0.0800 
 28 H       -2.1370     0.9720     0.4170 H     1 <1>   0.0800 
 29 H        0.7680     2.5510    -1.7770 H     1 <1>   0.1500 
 30 H        2.4780    -0.7190     0.2970 H     1 <1>   0.1500 
 31 H       -2.2890    -2.5440    -1.5090 H     1 <1>   0.0800 
 32 H       -3.3980    -0.4320    -1.2070 H     1 <1>   0.0800 
 33 H       -4.8560    -0.2550     1.4630 H     1 <1>   0.1000 
 34 H        4.5780     0.4540     1.1120 H     1 <1>   0.0800 
 35 H        4.4440     2.2050     1.1780 H     1 <1>   0.0800 
 36 H        5.1700     1.4370    -0.2210 H     1 <1>   0.0800 
 37 H       -3.8390    -4.0490     1.4870 H     1 <1>   0.1500 
 38 H       -1.3490    -4.7560    -1.9090 H     1 <1>   0.1500 
 39 H       -5.9800    -0.4270    -1.4040 H     1 <1>   0.1000 
 40 H       -6.9390    -0.2420     0.0950 H     1 <1>   0.1000 
 41 H       -5.7260     1.9320     0.6040 H     1 <1>   0.1000 
 42 H       -4.7760     1.7480    -0.9030 H     1 <1>   0.1000 
 43 H       -4.0710    -6.4650     1.8120 H     1 <1>   0.1500 
 44 H       -1.5900    -7.1690    -1.5770 H     1 <1>   0.1500 
 45 H       -2.9490    -8.0330     0.2840 H     1 <1>   0.1500 
@<TRIPOS>BOND
  1   1   2  2   
  2   1   3  2   
  3   1   4  am  
  4   1   5  1   
  5   4   6  1   
  6   4   7  1   
  7   5   8  1   
  8   5   9  2   
  9   6  10  1   
 10   6  25  1   
 11   6  26  1   
 12   7  11  1   
 13   7  27  1   
 14   7  28  1   
 15   8  12  2   
 16   8  29  1   
 17   9  13  1   
 18   9  30  1   
 19  10  14  1   
 20  10  15  1   
 21  10  31  1   
 22  11  14  1   
 23  11  16  1   
 24  11  32  1   
 25  12  13  1   
 26  13  17  1   
 27  15  18  ar  
 28  15  19  ar  
 29  16  20  1   
 30  16  21  1   
 31  16  33  1   
 32  17  34  1   
 33  17  35  1   
 34  17  36  1   
 35  18  22  ar  
 36  18  37  1   
 37  19  23  ar  
 38  19  38  1   
 39  20  21  1   
 40  20  39  1   
 41  20  40  1   
 42  21  41  1   
 43  21  42  1   
 44  22  24  ar  
 45  22  43  1   
 46  23  24  ar  
 47  23  44  1   
 48  24  45  1   
@<TRIPOS>SUBSTRUCTURE
  1 ****   4 GROUP 4 **** **** 0

# MOE 2024.06 (io_trps.svl 2023.06)
