@<TRIPOS>MOLECULE
NONAME
42 45 1 0 0 
SMALL
USER_CHARGES


@<TRIPOS>ATOM
  1 S       -0.9140     0.6150     1.6620 S.3   1 <1>  -0.0800 
  2 C       -0.9270    -0.9690     0.9520 C.2   1 <1>  -0.1400 
  3 C       -0.9820     1.2970     0.0430 C.2   1 <1>   0.1980 
  4 C       -0.9960    -0.8530    -0.3770 C.2   1 <1>   0.0460 
  5 C       -0.8650    -2.2340     1.7770 C.3   1 <1>   0.0200 
  6 N       -1.0280     0.4300    -0.8940 N.2   1 <1>  -0.5650 
  7 C       -0.9990     2.8210    -0.0740 C.3   1 <1>   0.2900 
  8 C       -1.0320    -2.0590    -1.2930 C.3   1 <1>   0.0210 
  9 C       -0.5510    -3.4170     0.8400 C.3   1 <1>  -0.1600 
 10 N        0.3410     3.4480    -0.1940 N.3   1 <1>  -0.8100 
 11 C       -1.3370    -3.3430    -0.4890 C.3   1 <1>  -0.1600 
 12 C        1.1540     3.2840     1.0380 C.3   1 <1>   0.1100 
 13 C        1.0270     3.0000    -1.4270 C.3   1 <1>   0.1100 
 14 C        2.4520     4.1340     1.1100 C.3   1 <1>   0.2200 
 15 C        2.2830     3.8210    -1.7910 C.3   1 <1>  -0.0190 
 16 N        2.4320     5.3030     0.1910 N.am  1 <1>  -0.7300 
 17 C        3.7150     3.2830     0.8580 C.3   1 <1>   0.1200 
 18 C        2.3070     5.1950    -1.1480 C.2   1 <1>   0.5690 
 19 C        3.5960     3.0720    -1.5100 C.3   1 <1>   0.1200 
 20 O        3.6030     2.4480    -0.2600 O.3   1 <1>  -0.5600 
 21 O        2.2490     6.1850    -1.8360 O.2   1 <1>  -0.5700 
 22 H       -0.1030    -2.1500     2.5320 H     1 <1>   0.0800 
 23 H       -1.8150    -2.3820     2.2590 H     1 <1>   0.0800 
 24 H       -1.5090     3.2330     0.7780 H     1 <1>   0.0800 
 25 H       -1.5760     3.0800    -0.9440 H     1 <1>   0.0800 
 26 H       -1.7840    -1.9130    -2.0470 H     1 <1>   0.0800 
 27 H       -0.0760    -2.1430    -1.7790 H     1 <1>   0.0800 
 28 H        0.5020    -3.4090     0.6150 H     1 <1>   0.0800 
 29 H       -0.7710    -4.3410     1.3460 H     1 <1>   0.0800 
 30 H       -2.3900    -3.3660    -0.2670 H     1 <1>   0.0800 
 31 H       -1.1120    -4.2030    -1.0960 H     1 <1>   0.0800 
 32 H        0.5450     3.5650     1.8800 H     1 <1>   0.0800 
 33 H        1.4070     2.2450     1.1670 H     1 <1>   0.0800 
 34 H        1.2820     1.9560    -1.3470 H     1 <1>   0.0800 
 35 H        0.3330     3.0950    -2.2450 H     1 <1>   0.0800 
 36 H        2.5370     4.5150     2.1120 H     1 <1>   0.0800 
 37 H        2.2570     3.9820    -2.8530 H     1 <1>   0.0800 
 38 H        2.2890     6.2300     0.5890 H     1 <1>   0.3700 
 39 H        3.8720     2.6370     1.7020 H     1 <1>   0.0800 
 40 H        4.5840     3.9080     0.7460 H     1 <1>   0.0800 
 41 H        4.4430     3.7320    -1.5790 H     1 <1>   0.0800 
 42 H        3.7170     2.2910    -2.2400 H     1 <1>   0.0800 
@<TRIPOS>BOND
  1   1   2  1   
  2   1   3  1   
  3   2   4  2   
  4   2   5  1   
  5   3   6  2   
  6   3   7  1   
  7   4   6  1   
  8   4   8  1   
  9   5   9  1   
 10   5  22  1   
 11   5  23  1   
 12   7  10  1   
 13   7  24  1   
 14   7  25  1   
 15   8  11  1   
 16   8  26  1   
 17   8  27  1   
 18   9  11  1   
 19   9  28  1   
 20   9  29  1   
 21  10  12  1   
 22  10  13  1   
 23  11  30  1   
 24  11  31  1   
 25  12  14  1   
 26  12  32  1   
 27  12  33  1   
 28  13  15  1   
 29  13  34  1   
 30  13  35  1   
 31  14  16  1   
 32  14  17  1   
 33  14  36  1   
 34  15  18  1   
 35  15  19  1   
 36  15  37  1   
 37  16  18  am  
 38  16  38  1   
 39  17  20  1   
 40  17  39  1   
 41  17  40  1   
 42  18  21  2   
 43  19  20  1   
 44  19  41  1   
 45  19  42  1   
@<TRIPOS>SUBSTRUCTURE
  1 ****   3 GROUP 4 **** **** 0

# MOE 2024.06 (io_trps.svl 2023.06)
