@<TRIPOS>MOLECULE
NONAME
48 51 1 0 0 
SMALL
USER_CHARGES


@<TRIPOS>ATOM
  1 S        0.0640    -0.4990     1.3200 S.o2  1 <1>   1.5760 
  2 O        0.0530    -1.9340     1.4740 O.2   1 <1>  -0.6500 
  3 O        0.0450     0.3640     2.4750 O.2   1 <1>  -0.6500 
  4 N        1.3350    -0.0490     0.3150 N.am  1 <1>  -0.8490 
  5 N       -1.2290    -0.0210     0.3760 N.am  1 <1>  -0.9140 
  6 C        1.4830     1.3850     0.1440 C.3   1 <1>   0.1960 
  7 C        2.6200    -0.5160     0.7970 C.3   1 <1>   0.1960 
  8 C       -1.7720    -0.9440    -0.6260 C.3   1 <1>   0.2760 
  9 C        2.8810     1.5490    -0.4390 C.3   1 <1>  -0.1600 
 10 C        3.6410     0.3020     0.0150 C.3   1 <1>  -0.1600 
 11 C       -2.5530    -2.1210    -0.0310 C.3   1 <1>  -0.0800 
 12 C       -0.7700    -1.5980    -1.5850 C.3   1 <1>   0.1200 
 13 C       -1.9230    -3.3320    -0.7310 C.3   1 <1>   0.1200 
 14 C       -4.0630    -2.0110    -0.3270 C.3   1 <1>  -0.0170 
 15 O       -1.3380    -2.8300    -1.8870 O.3   1 <1>  -0.5600 
 16 C       -4.9540    -3.1040     0.2780 C.ar  1 <1>  -0.1430 
 17 C       -6.3200    -3.1850    -0.0930 C.ar  1 <1>   0.0000 
 18 C       -4.5050    -4.0240     1.1850 C.ar  1 <1>  -0.1500 
 19 C       -7.1060    -4.2140     0.4820 C.ar  1 <1>   0.3100 
 20 C       -6.9550    -2.3020    -0.9990 C.ar  1 <1>  -0.1500 
 21 C       -5.3690    -4.9990     1.6960 C.ar  1 <1>   0.1600 
 22 N       -6.6170    -5.1110     1.3730 N.ar  1 <1>  -0.6200 
 23 C       -8.4600    -4.3210     0.1230 C.ar  1 <1>  -0.1500 
 24 C       -8.2770    -2.4320    -1.3250 C.ar  1 <1>  -0.1500 
 25 C       -9.0420    -3.4540    -0.7610 C.ar  1 <1>  -0.1500 
 26 H       -1.9510     0.1840     1.0590 H     1 <1>   0.4200 
 27 H        0.7230     1.7770    -0.5110 H     1 <1>   0.0800 
 28 H        1.4300     1.8860     1.0970 H     1 <1>   0.0800 
 29 H        2.7150    -0.3080     1.8510 H     1 <1>   0.0800 
 30 H        2.7340    -1.5750     0.6280 H     1 <1>   0.0800 
 31 H       -2.4410    -0.3690    -1.2450 H     1 <1>   0.0800 
 32 H        2.8220     1.5790    -1.5130 H     1 <1>   0.0800 
 33 H        3.3390     2.4560    -0.0860 H     1 <1>   0.0800 
 34 H        4.4870     0.5460     0.6340 H     1 <1>   0.0800 
 35 H        3.9800    -0.2600    -0.8380 H     1 <1>   0.0800 
 36 H       -2.4050    -2.1920     1.0300 H     1 <1>   0.0800 
 37 H        0.1860    -1.7910    -1.1360 H     1 <1>   0.0800 
 38 H       -0.6500    -1.0360    -2.4930 H     1 <1>   0.0800 
 39 H       -2.6370    -4.0910    -1.0010 H     1 <1>   0.0800 
 40 H       -1.1420    -3.7620    -0.1260 H     1 <1>   0.0800 
 41 H       -4.1870    -2.0230    -1.3970 H     1 <1>   0.0800 
 42 H       -4.4160    -1.0610     0.0350 H     1 <1>   0.0800 
 43 H       -3.4940    -4.0480     1.5430 H     1 <1>   0.1500 
 44 H       -6.3920    -1.5050    -1.4460 H     1 <1>   0.1500 
 45 H       -4.9670    -5.7030     2.4060 H     1 <1>   0.1500 
 46 H       -9.0280    -5.1150     0.5720 H     1 <1>   0.1500 
 47 H       -8.7450    -1.7520    -2.0180 H     1 <1>   0.1500 
 48 H      -10.0810    -3.5480    -1.0260 H     1 <1>   0.1500 
@<TRIPOS>BOND
  1   1   2  2   
  2   1   3  2   
  3   1   4  am  
  4   1   5  am  
  5   4   6  1   
  6   4   7  1   
  7   5   8  1   
  8   5  26  1   
  9   6   9  1   
 10   6  27  1   
 11   6  28  1   
 12   7  10  1   
 13   7  29  1   
 14   7  30  1   
 15   8  11  1   
 16   8  12  1   
 17   8  31  1   
 18   9  10  1   
 19   9  32  1   
 20   9  33  1   
 21  10  34  1   
 22  10  35  1   
 23  11  13  1   
 24  11  14  1   
 25  11  36  1   
 26  12  15  1   
 27  12  37  1   
 28  12  38  1   
 29  13  15  1   
 30  13  39  1   
 31  13  40  1   
 32  14  16  1   
 33  14  41  1   
 34  14  42  1   
 35  16  17  ar  
 36  16  18  ar  
 37  17  19  ar  
 38  17  20  ar  
 39  18  21  ar  
 40  18  43  1   
 41  19  22  ar  
 42  19  23  ar  
 43  20  24  ar  
 44  20  44  1   
 45  21  22  ar  
 46  21  45  1   
 47  23  25  ar  
 48  23  46  1   
 49  24  25  ar  
 50  24  47  1   
 51  25  48  1   
@<TRIPOS>SUBSTRUCTURE
  1 ****  11 GROUP 4 **** **** 0

# MOE 2024.06 (io_trps.svl 2023.06)
