@<TRIPOS>MOLECULE
NONAME
51 54 1 0 0 
SMALL
USER_CHARGES


@<TRIPOS>ATOM
  1 O        0.6580    -3.1880     1.4080 O.3   1 <1>  -0.6800 
  2 C        0.6120    -1.8990     0.8980 C.3   1 <1>   0.2000 
  3 C        1.8160    -1.6890    -0.0390 C.3   1 <1>   0.0000 
  4 C       -0.6300    -1.7760     0.0160 C.3   1 <1>  -0.1600 
  5 C        3.0720    -2.4040     0.5190 C.3   1 <1>   0.3430 
  6 C        2.0920    -0.1770    -0.2280 C.3   1 <1>  -0.1600 
  7 C        1.3300    -2.3270    -1.3590 C.3   1 <1>  -0.1600 
  8 C       -0.1860    -2.1090    -1.4130 C.3   1 <1>  -0.1600 
  9 N        4.3670    -1.7180     0.1900 N.4   1 <1>  -0.9590 
 10 C        3.3250     0.0900    -1.1180 C.3   1 <1>  -0.1600 
 11 C        4.3440    -1.0560    -1.1410 C.3   1 <1>   0.3430 
 12 C        5.5230    -2.6380     0.3520 C.3   1 <1>   0.4860 
 13 C        6.7950    -1.8180     0.2790 C.ar  1 <1>  -0.1440 
 14 C        7.6110    -1.8780    -0.8410 C.ar  1 <1>  -0.1500 
 15 C        7.1460    -0.9800     1.3270 C.ar  1 <1>  -0.1500 
 16 C        8.7480    -1.0950    -0.9180 C.ar  1 <1>  -0.1500 
 17 C        8.2840    -0.2000     1.2410 C.ar  1 <1>  -0.1500 
 18 C        9.1070    -0.2350     0.1180 C.ar  1 <1>   0.0000 
 19 C       10.2850     0.6030     0.0370 C.ar  1 <1>   0.3100 
 20 N       10.1380     1.9010     0.3100 N.ar  1 <1>  -0.6200 
 21 C       11.5150     0.0510    -0.3140 C.ar  1 <1>  -0.1500 
 22 C       11.2230     2.6500     0.2240 C.ar  1 <1>   0.1600 
 23 C       12.6400     0.8420    -0.4010 C.ar  1 <1>  -0.1500 
 24 C       12.4780     2.1810    -0.1220 C.ar  1 <1>  -0.1500 
 25 H       -0.1990    -3.4140     1.8240 H     1 <1>   0.4000 
 26 H        0.5930    -1.2110     1.7280 H     1 <1>   0.0800 
 27 H       -1.4340    -2.4110     0.3470 H     1 <1>   0.0800 
 28 H       -0.9760    -0.7570     0.0410 H     1 <1>   0.0800 
 29 H        3.0790    -3.4140     0.1420 H     1 <1>   0.0800 
 30 H        2.9780    -2.4700     1.5910 H     1 <1>   0.0800 
 31 H        1.2350     0.3230    -0.6460 H     1 <1>   0.0800 
 32 H        2.2700     0.2620     0.7400 H     1 <1>   0.0800 
 33 H        1.8080    -1.9310    -2.2370 H     1 <1>   0.0800 
 34 H        1.5060    -3.3890    -1.3300 H     1 <1>   0.0800 
 35 H       -0.6820    -2.9940    -1.7750 H     1 <1>   0.0800 
 36 H       -0.4250    -1.2900    -2.0710 H     1 <1>   0.0800 
 37 H        4.5050    -0.9590     0.8680 H     1 <1>   0.4500 
 38 H        3.8120     0.9920    -0.7910 H     1 <1>   0.0800 
 39 H        3.0040     0.2650    -2.1310 H     1 <1>   0.0800 
 40 H        5.3170    -0.6620    -1.3910 H     1 <1>   0.0800 
 41 H        4.0650    -1.7750    -1.8940 H     1 <1>   0.0800 
 42 H        5.4730    -3.1330     1.3080 H     1 <1>   0.0800 
 43 H        5.5170    -3.3860    -0.4240 H     1 <1>   0.0800 
 44 H        7.3720    -2.5290    -1.6660 H     1 <1>   0.1500 
 45 H        6.5470    -0.9190     2.2190 H     1 <1>   0.1500 
 46 H        9.3670    -1.1410    -1.7980 H     1 <1>   0.1500 
 47 H        8.5490     0.4580     2.0520 H     1 <1>   0.1500 
 48 H       11.5850    -1.0020    -0.5140 H     1 <1>   0.1500 
 49 H       11.1070     3.6980     0.4410 H     1 <1>   0.1500 
 50 H       13.5990     0.4340    -0.6710 H     1 <1>   0.1500 
 51 H       13.3130     2.8560    -0.1710 H     1 <1>   0.1500 
@<TRIPOS>BOND
  1   1   2  1   
  2   1  25  1   
  3   2   3  1   
  4   2   4  1   
  5   2  26  1   
  6   3   5  1   
  7   3   6  1   
  8   3   7  1   
  9   4   8  1   
 10   4  27  1   
 11   4  28  1   
 12   5   9  1   
 13   5  29  1   
 14   5  30  1   
 15   6  10  1   
 16   6  31  1   
 17   6  32  1   
 18   7   8  1   
 19   7  33  1   
 20   7  34  1   
 21   8  35  1   
 22   8  36  1   
 23   9  11  1   
 24   9  12  1   
 25   9  37  1   
 26  10  11  1   
 27  10  38  1   
 28  10  39  1   
 29  11  40  1   
 30  11  41  1   
 31  12  13  1   
 32  12  42  1   
 33  12  43  1   
 34  13  14  ar  
 35  13  15  ar  
 36  14  16  ar  
 37  14  44  1   
 38  15  17  ar  
 39  15  45  1   
 40  16  18  ar  
 41  16  46  1   
 42  17  18  ar  
 43  17  47  1   
 44  18  19  1   
 45  19  20  ar  
 46  19  21  ar  
 47  20  22  ar  
 48  21  23  ar  
 49  21  48  1   
 50  22  24  ar  
 51  22  49  1   
 52  23  24  ar  
 53  23  50  1   
 54  24  51  1   
@<TRIPOS>SUBSTRUCTURE
  1 ****  13 GROUP 4 **** **** 0

# MOE 2024.06 (io_trps.svl 2023.06)
