@<TRIPOS>MOLECULE
NONAME
48 50 1 0 0 
SMALL
USER_CHARGES


@<TRIPOS>ATOM
  1 S        0.2740    -0.4200    -0.3460 S.3   1 <1>  -0.0800 
  2 C       -0.3710     1.2050    -0.5440 C.2   1 <1>  -0.1400 
  3 C       -1.2800    -1.1440    -0.7190 C.2   1 <1>  -0.1400 
  4 C       -1.6750     1.1460    -0.8760 C.2   1 <1>  -0.1500 
  5 C        0.5990     2.3600    -0.3300 C.3   1 <1>   0.1000 
  6 C       -2.1900    -0.1850    -0.9750 C.2   1 <1>  -0.1500 
  7 C       -1.3430    -2.6610    -0.7000 C.3   1 <1>   0.2900 
  8 C        0.9620     2.4890     1.1590 C.3   1 <1>  -0.1600 
  9 C        0.0200     3.6850    -0.8560 C.3   1 <1>  -0.1600 
 10 N       -2.7310    -3.1360    -0.5440 N.3   1 <1>  -0.8100 
 11 C        1.9170     3.6650     1.4130 C.3   1 <1>  -0.1600 
 12 C        0.9810     4.8590    -0.6150 C.3   1 <1>  -0.1600 
 13 C       -2.8160    -4.5980    -0.8090 C.3   1 <1>   0.1100 
 14 C       -3.2370    -2.8710     0.8290 C.3   1 <1>   0.1100 
 15 C        1.3400     4.9790     0.8720 C.3   1 <1>  -0.1600 
 16 C       -4.2200    -5.1920    -0.5250 C.3   1 <1>   0.3170 
 17 C       -4.7010    -3.3360     1.0220 C.3   1 <1>   0.3430 
 18 N       -5.2130    -4.0690    -0.1830 N.4   1 <1>  -0.9590 
 19 C       -4.0710    -6.3440     0.4980 C.2   1 <1>   0.9060 
 20 C       -6.5750    -4.6210     0.0600 C.3   1 <1>   0.2630 
 21 O       -3.5130    -7.3780     0.1280 O.co2 1 <1>  -0.9000 
 22 O       -4.5200    -6.2010     1.6460 O.co2 1 <1>  -0.9000 
 23 H       -2.3130     1.9920    -1.0610 H     1 <1>   0.1500 
 24 H        1.4960     2.1450    -0.8850 H     1 <1>   0.0800 
 25 H       -3.2170    -0.3630    -1.2390 H     1 <1>   0.1500 
 26 H       -0.7360    -3.0400     0.1060 H     1 <1>   0.0800 
 27 H       -0.9350    -3.0260    -1.6270 H     1 <1>   0.0800 
 28 H        1.4240     1.5790     1.4990 H     1 <1>   0.0800 
 29 H        0.0600     2.6320     1.7290 H     1 <1>   0.0800 
 30 H       -0.9120     3.8900    -0.3580 H     1 <1>   0.0800 
 31 H       -0.1780     3.5950    -1.9100 H     1 <1>   0.0800 
 32 H        2.8600     3.4660     0.9330 H     1 <1>   0.0800 
 33 H        2.0990     3.7590     2.4690 H     1 <1>   0.0800 
 34 H        0.5250     5.7740    -0.9510 H     1 <1>   0.0800 
 35 H        1.8800     4.7080    -1.1880 H     1 <1>   0.0800 
 36 H       -2.0850    -5.1200    -0.2110 H     1 <1>   0.0800 
 37 H       -2.5690    -4.7900    -1.8390 H     1 <1>   0.0800 
 38 H       -3.1790    -1.8190     1.0500 H     1 <1>   0.0800 
 39 H       -2.6210    -3.3840     1.5490 H     1 <1>   0.0800 
 40 H        2.0570     5.7710     1.0070 H     1 <1>   0.0800 
 41 H        0.4570     5.2360     1.4310 H     1 <1>   0.0800 
 42 H       -4.5490    -5.6720    -1.4280 H     1 <1>   0.0800 
 43 H       -5.3200    -2.4780     1.2170 H     1 <1>   0.0800 
 44 H       -4.7490    -3.9770     1.8890 H     1 <1>   0.0800 
 45 H       -5.1600    -3.4070    -0.9660 H     1 <1>   0.4500 
 46 H       -6.5510    -5.2970     0.9010 H     1 <1>   0.0800 
 47 H       -6.9170    -5.1630    -0.8060 H     1 <1>   0.0800 
 48 H       -7.2690    -3.8260     0.2740 H     1 <1>   0.0800 
@<TRIPOS>BOND
  1   1   2  1   
  2   1   3  1   
  3   2   4  2   
  4   2   5  1   
  5   3   6  2   
  6   3   7  1   
  7   4   6  1   
  8   4  23  1   
  9   5   8  1   
 10   5   9  1   
 11   5  24  1   
 12   6  25  1   
 13   7  10  1   
 14   7  26  1   
 15   7  27  1   
 16   8  11  1   
 17   8  28  1   
 18   8  29  1   
 19   9  12  1   
 20   9  30  1   
 21   9  31  1   
 22  10  13  1   
 23  10  14  1   
 24  11  15  1   
 25  11  32  1   
 26  11  33  1   
 27  12  15  1   
 28  12  34  1   
 29  12  35  1   
 30  13  16  1   
 31  13  36  1   
 32  13  37  1   
 33  14  17  1   
 34  14  38  1   
 35  14  39  1   
 36  15  40  1   
 37  15  41  1   
 38  16  18  1   
 39  16  19  1   
 40  16  42  1   
 41  17  18  1   
 42  17  43  1   
 43  17  44  1   
 44  18  20  1   
 45  18  45  1   
 46  19  21  ar  
 47  19  22  ar  
 48  20  46  1   
 49  20  47  1   
 50  20  48  1   
@<TRIPOS>SUBSTRUCTURE
  1 ****   3 GROUP 4 **** **** 0

# MOE 2024.06 (io_trps.svl 2023.06)
