@<TRIPOS>MOLECULE
NONAME
51 53 1 0 0 
SMALL
USER_CHARGES


@<TRIPOS>ATOM
  1 O       -5.0840     3.7070     0.7340 O.2   1 <1>  -0.5700 
  2 C       -4.0370     3.2020     1.0850 C.2   1 <1>   0.5440 
  3 N       -4.0100     1.8410     1.3080 N.am  1 <1>  -0.6600 
  4 C       -2.8320     3.9970     1.1730 C.ar  1 <1>   0.0860 
  5 C       -2.8360     1.1170     1.8800 C.3   1 <1>   0.3200 
  6 C       -5.1700     0.9980     0.8950 C.3   1 <1>   0.1400 
  7 C       -1.8050     3.7510     0.2730 C.ar  1 <1>  -0.1500 
  8 C       -2.6300     4.9750     2.1410 C.ar  1 <1>  -0.1500 
  9 C       -2.3150     0.1610     0.8250 C.2   1 <1>  -0.3320 
 10 C       -5.2700     1.0080    -0.6410 C.3   1 <1>   0.3430 
 11 C       -0.5620     4.3600     0.3630 C.ar  1 <1>   0.0530 
 12 C       -1.4190     5.6400     2.2240 C.ar  1 <1>  -0.1500 
 13 N       -1.4340     0.4790    -0.1480 N.pl3 1 <1>   0.0330 
 14 C       -2.6250    -1.1410     0.6430 C.2   1 <1>   0.0770 
 15 N       -6.0720    -0.1280    -1.2070 N.4   1 <1>  -0.9590 
 16 C        0.5000     3.9560    -0.5270 C.2   1 <1>   0.0870 
 17 C       -0.3920     5.3270     1.3500 C.ar  1 <1>  -0.1500 
 18 C       -1.3170    -0.6430    -0.8890 C.2   1 <1>   0.0360 
 19 N       -2.0340    -1.6310    -0.4590 N.2   1 <1>  -0.5650 
 20 C       -5.2960    -1.4110    -1.1640 C.3   1 <1>   0.2630 
 21 C       -6.4590     0.1850    -2.6160 C.3   1 <1>   0.2630 
 22 O        0.4600     2.7530    -1.0920 O.3   1 <1>  -0.2800 
 23 C        1.6330     4.5910    -0.9280 C.2   1 <1>  -0.1500 
 24 C        1.5330     2.6040    -1.8370 C.2   1 <1>  -0.0400 
 25 C        2.3020     3.7100    -1.7800 C.2   1 <1>  -0.1500 
 26 C        1.7350     1.3080    -2.5930 C.3   1 <1>  -0.0600 
 27 H       -3.1580     0.5630     2.7470 H     1 <1>   0.0800 
 28 H       -2.0610     1.7930     2.1970 H     1 <1>   0.0800 
 29 H       -6.0710     1.4060     1.3190 H     1 <1>   0.0800 
 30 H       -5.0410    -0.0030     1.2650 H     1 <1>   0.0800 
 31 H       -1.9850     3.0570    -0.5240 H     1 <1>   0.1500 
 32 H       -3.4250     5.2090     2.8290 H     1 <1>   0.1500 
 33 H       -4.2720     0.9650    -1.0470 H     1 <1>   0.0800 
 34 H       -5.7090     1.9480    -0.9350 H     1 <1>   0.0800 
 35 H       -1.2730     6.3980     2.9760 H     1 <1>   0.1500 
 36 H       -0.9190     1.3590    -0.2980 H     1 <1>   0.2700 
 37 H       -3.2640    -1.7610     1.2520 H     1 <1>   0.1500 
 38 H       -6.9350    -0.2290    -0.6510 H     1 <1>   0.4500 
 39 H        0.5530     5.8350     1.4380 H     1 <1>   0.1500 
 40 H       -0.6760    -0.6900    -1.7530 H     1 <1>   0.1500 
 41 H       -4.3560    -1.3010    -1.6810 H     1 <1>   0.0800 
 42 H       -5.8550    -2.2060    -1.6300 H     1 <1>   0.0800 
 43 H       -5.0890    -1.6930    -0.1450 H     1 <1>   0.0800 
 44 H       -5.5780     0.3050    -3.2270 H     1 <1>   0.0800 
 45 H       -7.0300     1.0990    -2.6520 H     1 <1>   0.0800 
 46 H       -7.0580    -0.6110    -3.0260 H     1 <1>   0.0800 
 47 H        1.9730     5.5740    -0.6610 H     1 <1>   0.1500 
 48 H        3.2380     3.9060    -2.2730 H     1 <1>   0.1500 
 49 H        0.9180     1.1490    -3.2720 H     1 <1>   0.0800 
 50 H        1.7870     0.4860    -1.9020 H     1 <1>   0.0800 
 51 H        2.6510     1.3470    -3.1540 H     1 <1>   0.0800 
@<TRIPOS>BOND
  1   1   2  2   
  2   2   3  am  
  3   2   4  1   
  4   3   5  1   
  5   3   6  1   
  6   4   7  ar  
  7   4   8  ar  
  8   5   9  1   
  9   5  27  1   
 10   5  28  1   
 11   6  10  1   
 12   6  29  1   
 13   6  30  1   
 14   7  11  ar  
 15   7  31  1   
 16   8  12  ar  
 17   8  32  1   
 18   9  13  1   
 19   9  14  2   
 20  10  15  1   
 21  10  33  1   
 22  10  34  1   
 23  11  16  1   
 24  11  17  ar  
 25  12  17  ar  
 26  12  35  1   
 27  13  18  1   
 28  13  36  1   
 29  14  19  1   
 30  14  37  1   
 31  15  20  1   
 32  15  21  1   
 33  15  38  1   
 34  16  22  1   
 35  16  23  2   
 36  17  39  1   
 37  18  19  2   
 38  18  40  1   
 39  20  41  1   
 40  20  42  1   
 41  20  43  1   
 42  21  44  1   
 43  21  45  1   
 44  21  46  1   
 45  22  24  1   
 46  23  25  1   
 47  23  47  1   
 48  24  25  2   
 49  24  26  1   
 50  25  48  1   
 51  26  49  1   
 52  26  50  1   
 53  26  51  1   
@<TRIPOS>SUBSTRUCTURE
  1 ****   7 GROUP 4 **** **** 0

# MOE 2024.06 (io_trps.svl 2023.06)
