@<TRIPOS>MOLECULE
NONAME
19 18 1 0 0 
SMALL
USER_CHARGES


@<TRIPOS>ATOM
  1 F       -0.6220     0.1060    -0.4990 F     1 <1>  -0.3400 
  2 C       -1.5810    -0.7990    -0.3740 C.3   1 <1>   0.6000 
  3 F       -1.7050    -1.3310    -1.5820 F     1 <1>  -0.3400 
  4 C       -2.8790    -0.1080     0.0260 C.3   1 <1>  -0.1600 
  5 C       -4.0900    -1.0490     0.0090 C.3   1 <1>   0.2510 
  6 N       -3.8850    -2.1290     1.0000 N.3   1 <1>  -0.9900 
  7 C       -5.3910    -0.2450     0.2390 C.2   1 <1>   0.6590 
  8 O       -5.5390     0.4630     1.2060 O.2   1 <1>  -0.5700 
  9 O       -6.3290    -0.3620    -0.6960 O.3   1 <1>  -0.4300 
 10 C       -7.5650     0.3150    -0.5960 C.3   1 <1>   0.0400 
 11 H       -1.2440    -1.5630     0.3040 H     1 <1>   0.0800 
 12 H       -2.7700     0.3130     1.0090 H     1 <1>   0.0800 
 13 H       -3.0560     0.7000    -0.6620 H     1 <1>   0.0800 
 14 H       -4.1710    -1.4990    -0.9660 H     1 <1>   0.0800 
 15 H       -3.8660    -1.7290     1.9490 H     1 <1>   0.3600 
 16 H       -3.0240    -2.6570     0.8310 H     1 <1>   0.3600 
 17 H       -8.1600     0.0690    -1.4580 H     1 <1>   0.0800 
 18 H       -7.3800     1.3750    -0.5620 H     1 <1>   0.0800 
 19 H       -8.0630    -0.0040     0.3030 H     1 <1>   0.0800 
@<TRIPOS>BOND
  1   1   2  1   
  2   2   3  1   
  3   2   4  1   
  4   2  11  1   
  5   4   5  1   
  6   4  12  1   
  7   4  13  1   
  8   5   6  1   
  9   5   7  1   
 10   5  14  1   
 11   6  15  1   
 12   6  16  1   
 13   7   8  2   
 14   7   9  1   
 15   9  10  1   
 16  10  17  1   
 17  10  18  1   
 18  10  19  1   
@<TRIPOS>SUBSTRUCTURE
  1 ****   5 GROUP 4 **** **** 0

# MOE 2024.06 (io_trps.svl 2023.06)
