@<TRIPOS>MOLECULE
NONAME
35 37 1 0 0 
SMALL
USER_CHARGES


@<TRIPOS>ATOM
  1 BR       0.2970     0.0780    -1.4520 Br    1 <1>  -0.1110 
  2 C        0.1710     1.8300    -0.6570 C.ar  1 <1>   0.1110 
  3 C        1.3300     2.5580    -0.4260 C.ar  1 <1>   0.1400 
  4 C       -1.0650     2.3390    -0.3250 C.ar  1 <1>  -0.1500 
  5 O        2.6020     2.2330    -0.6770 O.3   1 <1>  -0.2800 
  6 C        1.2610     3.8140     0.1460 C.ar  1 <1>   0.0000 
  7 C       -1.1380     3.6160     0.2550 C.ar  1 <1>   0.0830 
  8 C        3.3590     3.2510    -0.2800 C.2   1 <1>  -0.0400 
  9 C        0.0150     4.3460     0.4880 C.ar  1 <1>  -0.1500 
 10 C        2.6020     4.2440     0.2290 C.2   1 <1>  -0.1500 
 11 O       -2.3110     4.2010     0.6150 O.3   1 <1>  -0.3630 
 12 C        4.8600     3.1020    -0.4740 C.3   1 <1>   0.1000 
 13 C       -3.5450     3.5460     0.4200 C.3   1 <1>   0.0400 
 14 C        5.3720     1.8820     0.3080 C.3   1 <1>  -0.1600 
 15 C        5.6260     4.3630    -0.0450 C.3   1 <1>  -0.1600 
 16 C        6.8850     1.7240     0.1830 C.3   1 <1>   0.3430 
 17 C        7.1360     4.1700    -0.1710 C.3   1 <1>   0.3430 
 18 N        7.5550     2.9800     0.6200 N.4   1 <1>  -0.9060 
 19 H       -1.9400     1.7500    -0.5170 H     1 <1>   0.1500 
 20 H       -0.0480     5.3220     0.9320 H     1 <1>   0.1500 
 21 H        2.8900     5.1980     0.6320 H     1 <1>   0.1500 
 22 H        5.0310     2.9350    -1.5250 H     1 <1>   0.0800 
 23 H       -4.3260     4.1930     0.7750 H     1 <1>   0.0800 
 24 H       -3.5470     2.6290     0.9820 H     1 <1>   0.0800 
 25 H       -3.6780     3.3560    -0.6310 H     1 <1>   0.0800 
 26 H        4.8990     0.9930    -0.0740 H     1 <1>   0.0800 
 27 H        5.0970     1.9680     1.3450 H     1 <1>   0.0800 
 28 H        5.3810     4.6180     0.9710 H     1 <1>   0.0800 
 29 H        5.3250     5.1880    -0.6680 H     1 <1>   0.0800 
 30 H        7.1400     1.5120    -0.8430 H     1 <1>   0.0800 
 31 H        7.2140     0.8960     0.7910 H     1 <1>   0.0800 
 32 H        7.6460     5.0520     0.1860 H     1 <1>   0.0800 
 33 H        7.3950     4.0270    -1.2090 H     1 <1>   0.0800 
 34 H        8.5760     2.8650     0.5600 H     1 <1>   0.4500 
 35 H        7.3340     3.1440     1.6110 H     1 <1>   0.4500 
@<TRIPOS>BOND
  1   1   2  1   
  2   2   3  ar  
  3   2   4  ar  
  4   3   5  1   
  5   3   6  ar  
  6   4   7  ar  
  7   4  19  1   
  8   5   8  1   
  9   6   9  ar  
 10   6  10  1   
 11   7   9  ar  
 12   7  11  1   
 13   8  10  2   
 14   8  12  1   
 15   9  20  1   
 16  10  21  1   
 17  11  13  1   
 18  12  14  1   
 19  12  15  1   
 20  12  22  1   
 21  13  23  1   
 22  13  24  1   
 23  13  25  1   
 24  14  16  1   
 25  14  26  1   
 26  14  27  1   
 27  15  17  1   
 28  15  28  1   
 29  15  29  1   
 30  16  18  1   
 31  16  30  1   
 32  16  31  1   
 33  17  18  1   
 34  17  32  1   
 35  17  33  1   
 36  18  34  1   
 37  18  35  1   
@<TRIPOS>SUBSTRUCTURE
  1 ****   5 GROUP 4 **** **** 0

# MOE 2024.06 (io_trps.svl 2023.06)
