@<TRIPOS>MOLECULE
NONAME
53 56 1 0 0 
SMALL
USER_CHARGES


@<TRIPOS>ATOM
  1 S        0.0750     0.0300     1.8850 S.o2  1 <1>   1.4470 
  2 O       -0.4620    -1.0090     2.7360 O.2   1 <1>  -0.6500 
  3 O        0.4420     1.3030     2.4690 O.2   1 <1>  -0.6500 
  4 N       -1.0840     0.3550     0.6920 N.am  1 <1>  -0.8490 
  5 C        1.4670    -0.6460     0.9390 C.ar  1 <1>  -0.0090 
  6 C       -2.4180     0.5510     1.2850 C.3   1 <1>   0.1960 
  7 C       -0.7140     1.5030    -0.1410 C.3   1 <1>   0.1960 
  8 C        2.7550    -0.1670     1.1080 C.ar  1 <1>  -0.1500 
  9 C        1.2680    -1.6740     0.0190 C.ar  1 <1>  -0.1500 
 10 C       -3.5260     0.6960     0.2130 C.3   1 <1>   0.0000 
 11 C       -1.7160     1.6700    -1.2860 C.3   1 <1>  -0.1600 
 12 C        3.8480    -0.6690     0.3920 C.ar  1 <1>   0.0280 
 13 C        2.3180    -2.1950    -0.7040 C.ar  1 <1>  -0.1500 
 14 C       -4.8790     0.9190     0.9210 C.3   1 <1>   0.2000 
 15 C       -3.1460     1.8420    -0.7530 C.3   1 <1>  -0.1600 
 16 C       -3.7430    -0.6390    -0.5220 C.3   1 <1>  -0.1600 
 17 C        3.6080    -1.7050    -0.5300 C.ar  1 <1>   0.1170 
 18 C        5.2000    -0.1890     0.5430 C.2   1 <1>  -0.1670 
 19 O       -5.8030     1.4490     0.0140 O.3   1 <1>  -0.5600 
 20 C       -5.3480    -0.4830     1.3300 C.3   1 <1>  -0.1600 
 21 C       -4.6710    -1.4710     0.3690 C.3   1 <1>  -0.1600 
 22 N        4.6670    -2.2290    -1.2610 N.am  1 <1>  -0.5470 
 23 C        6.1940    -0.7410    -0.1990 C.2   1 <1>  -0.1360 
 24 C        5.5070     0.9290     1.5310 C.3   1 <1>  -0.1020 
 25 C       -6.8580     2.1530     0.5870 C.3   1 <1>   0.0400 
 26 C        5.9460    -1.7890    -1.1310 C.2   1 <1>   0.6160 
 27 O        6.8160    -2.3020    -1.8090 O.2   1 <1>  -0.5700 
 28 H       -2.6520    -0.2900     1.9150 H     1 <1>   0.0800 
 29 H       -2.4010     1.4300     1.9080 H     1 <1>   0.0800 
 30 H       -0.6930     2.4010     0.4560 H     1 <1>   0.0800 
 31 H        0.2680     1.3510    -0.5570 H     1 <1>   0.0800 
 32 H        2.9100     0.6230     1.8210 H     1 <1>   0.1500 
 33 H        0.2710    -2.0600    -0.1210 H     1 <1>   0.1500 
 34 H       -1.4470     2.5310    -1.8710 H     1 <1>   0.0800 
 35 H       -1.6630     0.8080    -1.9270 H     1 <1>   0.0800 
 36 H        2.1430    -2.9880    -1.4090 H     1 <1>   0.1500 
 37 H       -4.7840     1.5890     1.7590 H     1 <1>   0.0800 
 38 H       -3.8350     1.8820    -1.5790 H     1 <1>   0.0800 
 39 H       -3.2150     2.7790    -0.2290 H     1 <1>   0.0800 
 40 H       -4.2480    -0.4510    -1.4540 H     1 <1>   0.0800 
 41 H       -2.8210    -1.1540    -0.7320 H     1 <1>   0.0800 
 42 H       -5.0170    -0.6880     2.3320 H     1 <1>   0.0800 
 43 H       -6.4190    -0.5760     1.2990 H     1 <1>   0.0800 
 44 H       -4.1010    -2.1940     0.9270 H     1 <1>   0.0800 
 45 H       -5.4000    -1.9880    -0.2300 H     1 <1>   0.0800 
 46 H        4.5340    -2.9820    -1.9340 H     1 <1>   0.3700 
 47 H        7.2170    -0.4260    -0.1290 H     1 <1>   0.1500 
 48 H        4.9570     1.8160     1.2710 H     1 <1>   0.0800 
 49 H        6.5550     1.1700     1.5250 H     1 <1>   0.0800 
 50 H        5.2390     0.6270     2.5280 H     1 <1>   0.0800 
 51 H       -7.5090     2.4800    -0.2050 H     1 <1>   0.0800 
 52 H       -6.4700     3.0090     1.1110 H     1 <1>   0.0800 
 53 H       -7.4000     1.5110     1.2580 H     1 <1>   0.0800 
@<TRIPOS>BOND
  1   1   2  2   
  2   1   3  2   
  3   1   4  am  
  4   1   5  1   
  5   4   6  1   
  6   4   7  1   
  7   5   8  ar  
  8   5   9  ar  
  9   6  10  1   
 10   6  28  1   
 11   6  29  1   
 12   7  11  1   
 13   7  30  1   
 14   7  31  1   
 15   8  12  ar  
 16   8  32  1   
 17   9  13  ar  
 18   9  33  1   
 19  10  14  1   
 20  10  15  1   
 21  10  16  1   
 22  11  15  1   
 23  11  34  1   
 24  11  35  1   
 25  12  17  ar  
 26  12  18  1   
 27  13  17  ar  
 28  13  36  1   
 29  14  19  1   
 30  14  20  1   
 31  14  37  1   
 32  15  38  1   
 33  15  39  1   
 34  16  21  1   
 35  16  40  1   
 36  16  41  1   
 37  17  22  1   
 38  18  23  2   
 39  18  24  1   
 40  19  25  1   
 41  20  21  1   
 42  20  42  1   
 43  20  43  1   
 44  21  44  1   
 45  21  45  1   
 46  22  26  am  
 47  22  46  1   
 48  23  26  1   
 49  23  47  1   
 50  24  48  1   
 51  24  49  1   
 52  24  50  1   
 53  25  51  1   
 54  25  52  1   
 55  25  53  1   
 56  26  27  2   
@<TRIPOS>SUBSTRUCTURE
  1 ****   4 GROUP 4 **** **** 0

# MOE 2024.06 (io_trps.svl 2023.06)
