@<TRIPOS>MOLECULE
NONAME
48 50 1 0 0 
SMALL
USER_CHARGES


@<TRIPOS>ATOM
  1 O        0.3790     1.1340    -0.8850 O.co2 1 <1>  -0.9000 
  2 C       -0.6500     1.3230    -0.2200 C.2   1 <1>   0.9060 
  3 O       -1.5610     0.4900    -0.1420 O.co2 1 <1>  -0.9000 
  4 C       -0.8080     2.6480     0.5410 C.3   1 <1>   0.1030 
  5 N        0.2590     3.6780     0.2450 N.pl3 1 <1>  -0.8690 
  6 C        0.2510     5.0070     0.3820 C.ar  1 <1>   0.4100 
  7 N        1.2660     5.6520    -0.1480 N.ar  1 <1>  -0.6200 
  8 C       -0.7880     5.6690     1.0570 C.ar  1 <1>  -0.1500 
  9 C        1.2940     6.9720    -0.0430 C.ar  1 <1>   0.7710 
 10 C       -0.7410     7.0160     1.1530 C.ar  1 <1>   0.2110 
 11 N        0.3180     7.6490     0.5900 N.ar  1 <1>  -0.1790 
 12 N        2.3320     7.6630    -0.5910 N.pl3 1 <1>  -0.8380 
 13 C        2.5060     9.1530    -0.6330 C.3   1 <1>   0.2090 
 14 C        3.3900     6.9220    -1.3630 C.3   1 <1>   0.1290 
 15 C        3.0610     9.7110     0.6940 C.3   1 <1>  -0.0800 
 16 C        3.3240    11.2050     0.5280 C.3   1 <1>   0.2090 
 17 C        4.4570     9.1830     1.0410 C.3   1 <1>  -0.1600 
 18 N        4.6560    11.2730    -0.1060 N.pl3 1 <1>  -0.8380 
 19 C        5.4120    10.0320     0.2060 C.3   1 <1>   0.2090 
 20 C        5.3380    12.4780     0.0360 C.ar  1 <1>   0.1000 
 21 C        5.8540    12.8950     1.2590 C.ar  1 <1>  -0.1500 
 22 C        5.5060    13.2990    -1.0710 C.ar  1 <1>  -0.1500 
 23 C        6.5210    14.1020     1.3710 C.ar  1 <1>  -0.1500 
 24 C        6.1710    14.5060    -0.9650 C.ar  1 <1>  -0.1500 
 25 C        6.6800    14.9110     0.2580 C.ar  1 <1>  -0.1500 
 26 H       -0.7930     2.4120     1.5880 H     1 <1>   0.0800 
 27 H       -1.7750     3.0400     0.2910 H     1 <1>   0.0800 
 28 H        0.9980     3.2300    -0.3270 H     1 <1>   0.4000 
 29 H       -1.5860     5.0860     1.4760 H     1 <1>   0.1500 
 30 H       -1.5020     7.5930     1.6540 H     1 <1>   0.1500 
 31 H        0.4340     8.6530     0.6110 H     1 <1>   0.4570 
 32 H        1.5650     9.6230    -0.8640 H     1 <1>   0.0800 
 33 H        3.1760     9.4160    -1.4370 H     1 <1>   0.0800 
 34 H        3.6660     6.0130    -0.8540 H     1 <1>   0.0800 
 35 H        4.2780     7.5190    -1.4790 H     1 <1>   0.0800 
 36 H        3.0140     6.6650    -2.3400 H     1 <1>   0.0800 
 37 H        2.3690     9.5430     1.4970 H     1 <1>   0.0800 
 38 H        3.3560    11.6920     1.4890 H     1 <1>   0.0800 
 39 H        2.5890    11.6920    -0.0910 H     1 <1>   0.0800 
 40 H        4.5870     8.1330     0.8580 H     1 <1>   0.0800 
 41 H        4.6640     9.3690     2.0800 H     1 <1>   0.0800 
 42 H        5.6540     9.5350    -0.7170 H     1 <1>   0.0800 
 43 H        6.3230    10.2450     0.7400 H     1 <1>   0.0800 
 44 H        5.7330    12.2700     2.1230 H     1 <1>   0.1500 
 45 H        5.1090    12.9770    -2.0150 H     1 <1>   0.1500 
 46 H        6.9160    14.4130     2.3220 H     1 <1>   0.1500 
 47 H        6.2920    15.1310    -1.8320 H     1 <1>   0.1500 
 48 H        7.1970    15.8500     0.3430 H     1 <1>   0.1500 
@<TRIPOS>BOND
  1   1   2  ar  
  2   2   3  ar  
  3   2   4  1   
  4   4   5  1   
  5   4  26  1   
  6   4  27  1   
  7   5   6  1   
  8   5  28  1   
  9   6   7  ar  
 10   6   8  ar  
 11   7   9  ar  
 12   8  10  ar  
 13   8  29  1   
 14   9  11  ar  
 15   9  12  1   
 16  10  11  ar  
 17  10  30  1   
 18  11  31  1   
 19  12  13  1   
 20  12  14  1   
 21  13  15  1   
 22  13  32  1   
 23  13  33  1   
 24  14  34  1   
 25  14  35  1   
 26  14  36  1   
 27  15  16  1   
 28  15  17  1   
 29  15  37  1   
 30  16  18  1   
 31  16  38  1   
 32  16  39  1   
 33  17  19  1   
 34  17  40  1   
 35  17  41  1   
 36  18  19  1   
 37  18  20  1   
 38  19  42  1   
 39  19  43  1   
 40  20  21  ar  
 41  20  22  ar  
 42  21  23  ar  
 43  21  44  1   
 44  22  24  ar  
 45  22  45  1   
 46  23  25  ar  
 47  23  46  1   
 48  24  25  ar  
 49  24  47  1   
 50  25  48  1   
@<TRIPOS>SUBSTRUCTURE
  1 ****  12 GROUP 4 **** **** 0

# MOE 2024.06 (io_trps.svl 2023.06)
