@<TRIPOS>MOLECULE
NONAME
45 47 1 0 0 
SMALL
USER_CHARGES


@<TRIPOS>ATOM
  1 O       -1.0270    -0.5020     1.0960 O.2   1 <1>  -0.5700 
  2 C       -1.7920     0.2730     0.5530 C.2   1 <1>   0.5440 
  3 N       -1.3440     1.5490     0.2570 N.am  1 <1>  -0.6600 
  4 C       -3.1370    -0.1590     0.2520 C.ar  1 <1>   0.0860 
  5 C        0.1030     1.8930     0.3220 C.3   1 <1>   0.0600 
  6 C       -2.2490     2.7180     0.0780 C.3   1 <1>   0.0600 
  7 C       -3.8700    -0.8830     1.1870 C.ar  1 <1>   0.1600 
  8 C       -3.7640     0.1090    -0.9600 C.ar  1 <1>  -0.1500 
  9 N       -5.1110    -1.3090     1.0420 N.ar  1 <1>  -0.6200 
 10 C       -5.0520    -0.3340    -1.1330 C.ar  1 <1>  -0.1500 
 11 C       -5.7040    -1.0370    -0.1180 C.ar  1 <1>   0.4100 
 12 N       -7.0000    -1.4820    -0.2580 N.pl3 1 <1>  -0.8380 
 13 C       -7.3740    -2.8400     0.2420 C.3   1 <1>   0.2090 
 14 C       -7.8930    -1.1400    -1.3830 C.3   1 <1>   0.2090 
 15 C       -8.5390    -3.3400    -0.6300 C.3   1 <1>   0.0370 
 16 C       -9.1180    -2.0030    -1.1400 C.3   1 <1>  -0.1600 
 17 C       -9.5520    -4.1650     0.2000 C.ar  1 <1>  -0.1430 
 18 C       -7.9310    -4.1800    -1.7750 C.2   1 <1>   0.9060 
 19 C       -9.0840    -5.1890     1.0140 C.ar  1 <1>  -0.1500 
 20 C      -10.9240    -3.9380     0.1590 C.ar  1 <1>  -0.1500 
 21 O       -8.1510    -3.8670    -2.9570 O.co2 1 <1>  -0.9000 
 22 O       -7.2100    -5.1530    -1.5050 O.co2 1 <1>  -0.9000 
 23 C       -9.9480    -5.9420     1.7890 C.ar  1 <1>  -0.1500 
 24 C      -11.7940    -4.6880     0.9320 C.ar  1 <1>  -0.1500 
 25 C      -11.3070    -5.6890     1.7530 C.ar  1 <1>  -0.1500 
 26 H        0.7060     1.0030     0.2560 H     1 <1>   0.0800 
 27 H        0.3160     2.3870     1.2540 H     1 <1>   0.0800 
 28 H        0.3630     2.5430    -0.4950 H     1 <1>   0.0800 
 29 H       -3.2570     2.4720     0.3620 H     1 <1>   0.0800 
 30 H       -2.2380     3.0300    -0.9520 H     1 <1>   0.0800 
 31 H       -1.9160     3.5340     0.6960 H     1 <1>   0.0800 
 32 H       -3.3860    -1.1190     2.1190 H     1 <1>   0.1500 
 33 H       -3.2450     0.6400    -1.7370 H     1 <1>   0.1500 
 34 H       -5.5610    -0.1500    -2.0580 H     1 <1>   0.1500 
 35 H       -7.6930    -2.7450     1.2650 H     1 <1>   0.0800 
 36 H       -6.5300    -3.5090     0.2050 H     1 <1>   0.0800 
 37 H       -7.4310    -1.4180    -2.3170 H     1 <1>   0.0800 
 38 H       -8.1360    -0.0920    -1.3810 H     1 <1>   0.0800 
 39 H       -9.7080    -2.1200    -2.0310 H     1 <1>   0.0800 
 40 H       -9.7100    -1.5320    -0.3760 H     1 <1>   0.0800 
 41 H       -8.0300    -5.4120     1.0320 H     1 <1>   0.1500 
 42 H      -11.3360    -3.1800    -0.4800 H     1 <1>   0.1500 
 43 H       -9.5580    -6.7270     2.4100 H     1 <1>   0.1500 
 44 H      -12.8500    -4.4940     0.8900 H     1 <1>   0.1500 
 45 H      -11.9800    -6.2730     2.3540 H     1 <1>   0.1500 
@<TRIPOS>BOND
  1   1   2  2   
  2   2   3  am  
  3   2   4  1   
  4   3   5  1   
  5   3   6  1   
  6   4   7  ar  
  7   4   8  ar  
  8   5  26  1   
  9   5  27  1   
 10   5  28  1   
 11   6  29  1   
 12   6  30  1   
 13   6  31  1   
 14   7   9  ar  
 15   7  32  1   
 16   8  10  ar  
 17   8  33  1   
 18   9  11  ar  
 19  10  11  ar  
 20  10  34  1   
 21  11  12  1   
 22  12  13  1   
 23  12  14  1   
 24  13  15  1   
 25  13  35  1   
 26  13  36  1   
 27  14  16  1   
 28  14  37  1   
 29  14  38  1   
 30  15  16  1   
 31  15  17  1   
 32  15  18  1   
 33  16  39  1   
 34  16  40  1   
 35  17  19  ar  
 36  17  20  ar  
 37  18  21  ar  
 38  18  22  ar  
 39  19  23  ar  
 40  19  41  1   
 41  20  24  ar  
 42  20  42  1   
 43  23  25  ar  
 44  23  43  1   
 45  24  25  ar  
 46  24  44  1   
 47  25  45  1   
@<TRIPOS>SUBSTRUCTURE
  1 ****  12 GROUP 4 **** **** 0

# MOE 2024.06 (io_trps.svl 2023.06)
