@<TRIPOS>MOLECULE
NONAME
54 56 1 0 0 
SMALL
USER_CHARGES


@<TRIPOS>ATOM
  1 F        1.6620     1.4050    -2.6020 F     1 <1>  -0.1900 
  2 C        2.4720     1.8850    -1.6940 C.ar  1 <1>   0.1900 
  3 C        2.0540     3.0020    -0.9260 C.ar  1 <1>   0.3100 
  4 C        3.6840     1.2700    -1.5470 C.ar  1 <1>  -0.1500 
  5 N        0.8340     3.5650    -1.1350 N.ar  1 <1>  -0.6200 
  6 C        2.9600     3.4940     0.0470 C.ar  1 <1>   0.0000 
  7 C        4.5430     1.7830    -0.5810 C.ar  1 <1>   0.1900 
  8 C        0.5000     4.5810    -0.3990 C.ar  1 <1>   0.1660 
  9 C        2.5710     4.6180     0.8180 C.ar  1 <1>   0.1000 
 10 C        4.2100     2.8540     0.2000 C.ar  1 <1>  -0.1500 
 11 F        5.7080     1.2140    -0.4290 F     1 <1>  -0.1900 
 12 C        1.3240     5.1320     0.5790 C.ar  1 <1>  -0.1500 
 13 C       -0.8720     5.1710    -0.6460 C.3   1 <1>  -0.0960 
 14 N        3.4130     5.1660     1.7790 N.pl3 1 <1>  -0.8380 
 15 C        3.6620     6.6340     1.8170 C.3   1 <1>   0.2090 
 16 C        3.5020     4.4680     3.0930 C.3   1 <1>   0.1290 
 17 C        5.0900     6.9360     1.3290 C.3   1 <1>  -0.0800 
 18 C        5.4210     8.4290     1.4940 C.3   1 <1>  -0.1600 
 19 C        5.2940     6.5250    -0.1420 C.3   1 <1>  -0.1600 
 20 C        6.8100     8.7660     0.9470 C.3   1 <1>   0.3430 
 21 C        6.6810     6.9000    -0.6540 C.3   1 <1>   0.3430 
 22 N        6.9000     8.3660    -0.4890 N.4   1 <1>  -0.9590 
 23 C        8.2140     8.7540    -1.1030 C.3   1 <1>   0.3430 
 24 C        8.3890    10.2710    -1.2390 C.3   1 <1>   0.1200 
 25 O        9.6140    10.4850    -1.8530 O.3   1 <1>  -0.5600 
 26 C        9.9260    11.8260    -2.0720 C.3   1 <1>   0.0400 
 27 H        3.9740     0.4260    -2.1450 H     1 <1>   0.1500 
 28 H        4.9030     3.2150     0.9370 H     1 <1>   0.1500 
 29 H        0.9690     5.9640     1.1550 H     1 <1>   0.1500 
 30 H       -1.6210     4.4160    -0.4860 H     1 <1>   0.0800 
 31 H       -0.9380     5.5100    -1.6640 H     1 <1>   0.0800 
 32 H       -1.0680     5.9980     0.0100 H     1 <1>   0.0800 
 33 H        3.5300     6.9960     2.8230 H     1 <1>   0.0800 
 34 H        2.9540     7.1440     1.1870 H     1 <1>   0.0800 
 35 H        3.1950     3.4410     2.9880 H     1 <1>   0.0800 
 36 H        2.8570     4.9450     3.8100 H     1 <1>   0.0800 
 37 H        4.5150     4.4900     3.4540 H     1 <1>   0.0800 
 38 H        5.7700     6.3710     1.9450 H     1 <1>   0.0800 
 39 H        5.3900     8.6890     2.5380 H     1 <1>   0.0800 
 40 H        4.6860     9.0320     0.9900 H     1 <1>   0.0800 
 41 H        4.5420     6.9770    -0.7650 H     1 <1>   0.0800 
 42 H        5.1810     5.4600    -0.2350 H     1 <1>   0.0800 
 43 H        7.5580     8.2410     1.5190 H     1 <1>   0.0800 
 44 H        6.9860     9.8250     1.0520 H     1 <1>   0.0800 
 45 H        6.7630     6.6270    -1.6950 H     1 <1>   0.0800 
 46 H        7.4280     6.3530    -0.1010 H     1 <1>   0.0800 
 47 H        6.1460     8.8390    -1.0020 H     1 <1>   0.4500 
 48 H        8.2850     8.3260    -2.0900 H     1 <1>   0.0800 
 49 H        9.0230     8.3630    -0.5080 H     1 <1>   0.0800 
 50 H        8.4080    10.7520    -0.2770 H     1 <1>   0.0800 
 51 H        7.6190    10.6920    -1.8630 H     1 <1>   0.0800 
 52 H       10.8900    11.8720    -2.5490 H     1 <1>   0.0800 
 53 H        9.9670    12.3450    -1.1300 H     1 <1>   0.0800 
 54 H        9.1850    12.2670    -2.7180 H     1 <1>   0.0800 
@<TRIPOS>BOND
  1   1   2  1   
  2   2   3  ar  
  3   2   4  ar  
  4   3   5  ar  
  5   3   6  ar  
  6   4   7  ar  
  7   4  27  1   
  8   5   8  ar  
  9   6   9  ar  
 10   6  10  ar  
 11   7  10  ar  
 12   7  11  1   
 13   8  12  ar  
 14   8  13  1   
 15   9  12  ar  
 16   9  14  1   
 17  10  28  1   
 18  12  29  1   
 19  13  30  1   
 20  13  31  1   
 21  13  32  1   
 22  14  15  1   
 23  14  16  1   
 24  15  17  1   
 25  15  33  1   
 26  15  34  1   
 27  16  35  1   
 28  16  36  1   
 29  16  37  1   
 30  17  18  1   
 31  17  19  1   
 32  17  38  1   
 33  18  20  1   
 34  18  39  1   
 35  18  40  1   
 36  19  21  1   
 37  19  41  1   
 38  19  42  1   
 39  20  22  1   
 40  20  43  1   
 41  20  44  1   
 42  21  22  1   
 43  21  45  1   
 44  21  46  1   
 45  22  23  1   
 46  22  47  1   
 47  23  24  1   
 48  23  48  1   
 49  23  49  1   
 50  24  25  1   
 51  24  50  1   
 52  24  51  1   
 53  25  26  1   
 54  26  52  1   
 55  26  53  1   
 56  26  54  1   
@<TRIPOS>SUBSTRUCTURE
  1 ****  19 GROUP 4 **** **** 0

# MOE 2024.06 (io_trps.svl 2023.06)
