@<TRIPOS>MOLECULE
NONAME
43 47 1 0 0 
SMALL
USER_CHARGES


@<TRIPOS>ATOM
  1 S       -0.5870     0.7200     1.8700 S.3   1 <1>  -0.0800 
  2 C       -0.3300     1.9760     0.6770 C.2   1 <1>  -0.1400 
  3 C        0.9770     1.0630     2.5950 C.2   1 <1>  -0.1100 
  4 C        0.8560     2.5780     0.8320 C.2   1 <1>  -0.1810 
  5 C       -1.3470     2.3130    -0.3800 C.3   1 <1>   0.0200 
  6 C        1.6060     2.0580     1.9400 C.2   1 <1>  -0.1500 
  7 C        1.3000     3.6980    -0.1120 C.3   1 <1>   0.4610 
  8 C       -0.9880     3.7020    -0.9310 C.3   1 <1>   0.1200 
  9 O        0.3920     3.8050    -1.1950 O.3   1 <1>  -0.5600 
 10 C        1.3680     5.0440     0.6210 C.3   1 <1>  -0.1600 
 11 C        2.6600     3.3650    -0.7340 C.3   1 <1>  -0.1600 
 12 C        1.8840     6.1640    -0.2840 C.3   1 <1>   0.1400 
 13 C        3.1580     4.4960    -1.6340 C.3   1 <1>   0.1400 
 14 N        3.2000     5.7660    -0.8550 N.am  1 <1>  -0.6600 
 15 C        4.3800     6.4720    -0.6670 C.2   1 <1>   0.7160 
 16 O        5.4290     5.8740    -0.8520 O.2   1 <1>  -0.5700 
 17 C        4.4360     7.8730    -0.2460 C.2   1 <1>   0.2030 
 18 N        3.5140     8.8120    -0.4460 N.2   1 <1>  -0.7070 
 19 C        5.5330     8.4040     0.4340 C.2   1 <1>  -0.1500 
 20 N        4.0240     9.9260     0.1000 N.pl3 1 <1>   0.6010 
 21 C        5.2600     9.7100     0.6560 C.2   1 <1>  -0.0260 
 22 C        3.4670    11.1880     0.1630 C.2   1 <1>  -0.1810 
 23 N        5.9920    10.6930     1.2910 N.2   1 <1>  -0.5760 
 24 C        4.1760    12.1670     0.7830 C.2   1 <1>  -0.1360 
 25 C        5.4540    11.8670     1.3400 C.2   1 <1>   0.3760 
 26 H        1.2630     0.4740     3.4480 H     1 <1>   0.1500 
 27 H       -2.3350     2.3320     0.0410 H     1 <1>   0.0800 
 28 H       -1.3170     1.5800    -1.1660 H     1 <1>   0.0800 
 29 H        2.5750     2.4510     2.1930 H     1 <1>   0.1500 
 30 H       -1.2580     4.4670    -0.2240 H     1 <1>   0.0800 
 31 H       -1.5130     3.8830    -1.8520 H     1 <1>   0.0800 
 32 H        2.0340     4.9530     1.4590 H     1 <1>   0.0800 
 33 H        0.4030     5.3020     1.0140 H     1 <1>   0.0800 
 34 H        2.5770     2.4560    -1.3000 H     1 <1>   0.0800 
 35 H        3.3880     3.2020     0.0380 H     1 <1>   0.0800 
 36 H        1.9660     7.0620     0.3000 H     1 <1>   0.0800 
 37 H        1.1910     6.3450    -1.0880 H     1 <1>   0.0800 
 38 H        2.4910     4.6210    -2.4700 H     1 <1>   0.0800 
 39 H        4.1310     4.2490    -2.0230 H     1 <1>   0.0800 
 40 H        6.4210     7.8670     0.7170 H     1 <1>   0.1500 
 41 H        2.5010    11.3060    -0.2890 H     1 <1>   0.1500 
 42 H        3.8120    13.1740     0.8730 H     1 <1>   0.1500 
 43 H        5.9860    12.6670     1.8240 H     1 <1>   0.0600 
@<TRIPOS>BOND
  1   1   2  1   
  2   1   3  1   
  3   2   4  2   
  4   2   5  1   
  5   3   6  2   
  6   3  26  1   
  7   4   6  1   
  8   4   7  1   
  9   5   8  1   
 10   5  27  1   
 11   5  28  1   
 12   6  29  1   
 13   7   9  1   
 14   7  10  1   
 15   7  11  1   
 16   8   9  1   
 17   8  30  1   
 18   8  31  1   
 19  10  12  1   
 20  10  32  1   
 21  10  33  1   
 22  11  13  1   
 23  11  34  1   
 24  11  35  1   
 25  12  14  1   
 26  12  36  1   
 27  12  37  1   
 28  13  14  1   
 29  13  38  1   
 30  13  39  1   
 31  14  15  am  
 32  15  16  2   
 33  15  17  1   
 34  17  18  2   
 35  17  19  1   
 36  18  20  1   
 37  19  21  2   
 38  19  40  1   
 39  20  21  1   
 40  20  22  1   
 41  21  23  1   
 42  22  24  2   
 43  22  41  1   
 44  23  25  2   
 45  24  25  1   
 46  24  42  1   
 47  25  43  1   
@<TRIPOS>SUBSTRUCTURE
  1 ****  12 GROUP 4 **** **** 0

# MOE 2024.06 (io_trps.svl 2023.06)
