@<TRIPOS>MOLECULE
NONAME
55 58 1 0 0 
SMALL
USER_CHARGES


@<TRIPOS>ATOM
  1 O       -2.9240     1.5830     2.3780 O.2   1 <1>  -0.5700 
  2 C       -3.0790     2.0510     1.2760 C.2   1 <1>   0.5690 
  3 N       -2.3720     3.1230     0.8530 N.am  1 <1>  -0.7300 
  4 C       -4.0980     1.4100     0.3360 C.3   1 <1>  -0.0190 
  5 C       -1.3470     3.8040     1.6580 C.3   1 <1>   0.2840 
  6 C       -5.4780     1.2930     1.0220 C.3   1 <1>  -0.1600 
  7 C       -3.5940     0.0340    -0.1480 C.3   1 <1>  -0.1600 
  8 C       -0.6430     4.8010     0.7580 C.ar  1 <1>  -0.1440 
  9 C       -6.4800     0.5180     0.1670 C.3   1 <1>   0.2090 
 10 C       -4.6420    -0.7170    -0.9710 C.3   1 <1>   0.2090 
 11 C        0.5090     4.4410     0.0750 C.ar  1 <1>  -0.1500 
 12 C       -1.1530     6.0820     0.6020 C.ar  1 <1>  -0.1500 
 13 N       -5.8870    -0.8060    -0.1620 N.pl3 1 <1>  -0.8380 
 14 C        1.1480     5.3470    -0.7540 C.ar  1 <1>  -0.1500 
 15 C       -0.5160     6.9890    -0.2270 C.ar  1 <1>  -0.1500 
 16 C       -6.4920    -2.0040     0.0730 C.ar  1 <1>   0.7710 
 17 C        0.6350     6.6310    -0.9090 C.ar  1 <1>   0.0820 
 18 N       -6.9470    -2.2130     1.3410 N.ar  1 <1>  -0.1790 
 19 N       -6.5910    -2.8960    -0.8750 N.ar  1 <1>  -0.5670 
 20 O        1.1960     7.5800    -1.7000 O.3   1 <1>  -0.3620 
 21 C       -7.5620    -3.3390     1.7240 C.ar  1 <1>   0.4610 
 22 C       -7.2200    -4.0480    -0.5310 C.ar  1 <1>   0.1050 
 23 C        2.3820     7.3270    -2.4200 C.3   1 <1>   0.0400 
 24 N       -7.9820    -3.4950     2.9910 N.pl3 1 <1>  -0.9000 
 25 C       -7.7140    -4.3090     0.7260 C.ar  1 <1>   0.0000 
 26 N       -7.4930    -5.1380    -1.2900 N.pl3 1 <1>   0.3140 
 27 C       -8.2670    -5.5930     0.6140 C.2   1 <1>   0.1390 
 28 N       -8.1410    -6.0880    -0.5700 N.2   1 <1>  -0.7070 
 29 C       -7.1710    -5.3500    -2.7090 C.3   1 <1>   0.0160 
 30 H       -2.4790     3.5110    -0.0860 H     1 <1>   0.3700 
 31 H       -4.2100     2.0450    -0.5250 H     1 <1>   0.0800 
 32 H       -0.6500     3.0800     2.0460 H     1 <1>   0.0800 
 33 H       -1.8140     4.3070     2.4880 H     1 <1>   0.0800 
 34 H       -5.8620     2.2790     1.2170 H     1 <1>   0.0800 
 35 H       -5.3700     0.7980     1.9710 H     1 <1>   0.0800 
 36 H       -3.3240    -0.5710     0.7010 H     1 <1>   0.0800 
 37 H       -2.7060     0.1660    -0.7410 H     1 <1>   0.0800 
 38 H       -6.6730     1.0570    -0.7460 H     1 <1>   0.0800 
 39 H       -7.4160     0.4090     0.6890 H     1 <1>   0.0800 
 40 H       -4.2740    -1.7000    -1.2190 H     1 <1>   0.0800 
 41 H       -4.8440    -0.1920    -1.8900 H     1 <1>   0.0800 
 42 H        0.9130     3.4490     0.1870 H     1 <1>   0.1500 
 43 H       -2.0470     6.3770     1.1230 H     1 <1>   0.1500 
 44 H        2.0380     5.0370    -1.2670 H     1 <1>   0.1500 
 45 H       -0.9080     7.9820    -0.3500 H     1 <1>   0.1500 
 46 H       -6.7240    -1.4750     1.9920 H     1 <1>   0.4570 
 47 H        2.6370     8.2190    -2.9640 H     1 <1>   0.0800 
 48 H        2.2080     6.5180    -3.1060 H     1 <1>   0.0800 
 49 H        3.1670     7.0860    -1.7260 H     1 <1>   0.0800 
 50 H       -8.4530    -4.3520     3.3090 H     1 <1>   0.4000 
 51 H       -7.8820    -2.8190     3.7580 H     1 <1>   0.4000 
 52 H       -8.7480    -6.1180     1.4240 H     1 <1>   0.1500 
 53 H       -6.7280    -4.4620    -3.1200 H     1 <1>   0.0800 
 54 H       -8.0740    -5.5840    -3.2410 H     1 <1>   0.0800 
 55 H       -6.4840    -6.1710    -2.7930 H     1 <1>   0.0800 
@<TRIPOS>BOND
  1   1   2  2   
  2   2   3  am  
  3   2   4  1   
  4   3   5  1   
  5   3  30  1   
  6   4   6  1   
  7   4   7  1   
  8   4  31  1   
  9   5   8  1   
 10   5  32  1   
 11   5  33  1   
 12   6   9  1   
 13   6  34  1   
 14   6  35  1   
 15   7  10  1   
 16   7  36  1   
 17   7  37  1   
 18   8  11  ar  
 19   8  12  ar  
 20   9  13  1   
 21   9  38  1   
 22   9  39  1   
 23  10  13  1   
 24  10  40  1   
 25  10  41  1   
 26  11  14  ar  
 27  11  42  1   
 28  12  15  ar  
 29  12  43  1   
 30  13  16  1   
 31  14  17  ar  
 32  14  44  1   
 33  15  17  ar  
 34  15  45  1   
 35  16  18  ar  
 36  16  19  ar  
 37  17  20  1   
 38  18  21  ar  
 39  18  46  1   
 40  19  22  ar  
 41  20  23  1   
 42  21  24  1   
 43  21  25  ar  
 44  22  25  ar  
 45  22  26  1   
 46  23  47  1   
 47  23  48  1   
 48  23  49  1   
 49  24  50  1   
 50  24  51  1   
 51  25  27  1   
 52  26  28  1   
 53  26  29  1   
 54  27  28  2   
 55  27  52  1   
 56  29  53  1   
 57  29  54  1   
 58  29  55  1   
@<TRIPOS>SUBSTRUCTURE
  1 ****   7 GROUP 4 **** **** 0

# MOE 2024.06 (io_trps.svl 2023.06)
