@<TRIPOS>MOLECULE
NONAME
52 54 1 0 0 
SMALL
USER_CHARGES


@<TRIPOS>ATOM
  1 O       -0.5230     0.0660     1.2970 O.3   1 <1>  -0.2800 
  2 C       -0.8870     0.6740     0.1760 C.2   1 <1>   0.0870 
  3 C        0.2130    -0.9810     0.9900 C.2   1 <1>  -0.0100 
  4 C       -1.6960     1.8730     0.2000 C.ar  1 <1>   0.0530 
  5 C       -0.3620    -0.0070    -0.8780 C.2   1 <1>  -0.1500 
  6 C        0.3500    -1.0850    -0.3480 C.2   1 <1>  -0.1500 
  7 C       -2.8580     2.0390     0.9730 C.ar  1 <1>  -0.1440 
  8 C       -1.2850     2.9380    -0.6010 C.ar  1 <1>  -0.1500 
  9 C       -3.5220     3.2590     0.9550 C.ar  1 <1>  -0.1500 
 10 C       -3.4280     0.9340     1.8720 C.3   1 <1>   0.2540 
 11 C       -1.9680     4.1370    -0.6290 C.ar  1 <1>  -0.1500 
 12 C       -3.0890     4.3010     0.1580 C.ar  1 <1>  -0.1500 
 13 N       -4.3640     0.0110     1.1810 N.3   1 <1>  -0.8100 
 14 C       -3.6380    -0.8500     0.2270 C.3   1 <1>   0.2900 
 15 C       -5.5210     0.7010     0.5660 C.3   1 <1>   0.1100 
 16 C       -4.5660    -1.9240    -0.2860 C.2   1 <1>  -0.3320 
 17 C       -6.8190    -0.1000     0.7890 C.3   1 <1>   0.3430 
 18 N       -5.0130    -2.9460     0.4660 N.pl3 1 <1>   0.0330 
 19 C       -5.1250    -2.0730    -1.5050 C.2   1 <1>   0.0770 
 20 N       -7.9360     0.3250    -0.1170 N.4   1 <1>  -0.9590 
 21 C       -5.8600    -3.6270    -0.3370 C.2   1 <1>   0.0060 
 22 N       -5.9690    -3.1200    -1.5220 N.2   1 <1>  -0.5650 
 23 C       -9.2440    -0.1430     0.4290 C.3   1 <1>   0.2630 
 24 C       -7.7360    -0.2430    -1.4890 C.3   1 <1>   0.2630 
 25 C       -6.5950    -4.8710     0.1160 C.3   1 <1>  -0.0600 
 26 H        0.6020    -1.5960     1.7830 H     1 <1>   0.1500 
 27 H       -0.4590     0.2190    -1.9240 H     1 <1>   0.1500 
 28 H        0.8890    -1.8240    -0.9140 H     1 <1>   0.1500 
 29 H       -0.4020     2.8270    -1.2050 H     1 <1>   0.1500 
 30 H       -4.3890     3.4160     1.5710 H     1 <1>   0.1500 
 31 H       -3.9540     1.3970     2.6890 H     1 <1>   0.0800 
 32 H       -2.6360     0.3670     2.3260 H     1 <1>   0.0800 
 33 H       -1.6240     4.9430    -1.2540 H     1 <1>   0.1500 
 34 H       -3.6180     5.2400     0.1530 H     1 <1>   0.1500 
 35 H       -2.7930    -1.3110     0.7110 H     1 <1>   0.0800 
 36 H       -3.2790    -0.2630    -0.6010 H     1 <1>   0.0800 
 37 H       -5.3330     0.8530    -0.4830 H     1 <1>   0.0800 
 38 H       -5.6610     1.6610     1.0270 H     1 <1>   0.0800 
 39 H       -7.1140     0.0290     1.8170 H     1 <1>   0.0800 
 40 H       -6.6260    -1.1460     0.6310 H     1 <1>   0.0800 
 41 H       -4.7600    -3.1580     1.4360 H     1 <1>   0.2700 
 42 H       -4.9710    -1.4660    -2.3820 H     1 <1>   0.1500 
 43 H       -7.9440     1.3540    -0.1730 H     1 <1>   0.4500 
 44 H       -9.2570    -1.2190     0.4940 H     1 <1>   0.0800 
 45 H      -10.0520     0.1730    -0.2120 H     1 <1>   0.0800 
 46 H       -9.4080     0.2660     1.4130 H     1 <1>   0.0800 
 47 H       -7.7140    -1.3210    -1.4480 H     1 <1>   0.0800 
 48 H       -6.8030     0.0980    -1.9060 H     1 <1>   0.0800 
 49 H       -8.5370     0.0590    -2.1440 H     1 <1>   0.0800 
 50 H       -7.2140    -4.6520     0.9670 H     1 <1>   0.0800 
 51 H       -5.8900    -5.6390     0.3780 H     1 <1>   0.0800 
 52 H       -7.2170    -5.2380    -0.6800 H     1 <1>   0.0800 
@<TRIPOS>BOND
  1   1   2  1   
  2   1   3  1   
  3   2   4  1   
  4   2   5  2   
  5   3   6  2   
  6   3  26  1   
  7   4   7  ar  
  8   4   8  ar  
  9   5   6  1   
 10   5  27  1   
 11   6  28  1   
 12   7   9  ar  
 13   7  10  1   
 14   8  11  ar  
 15   8  29  1   
 16   9  12  ar  
 17   9  30  1   
 18  10  13  1   
 19  10  31  1   
 20  10  32  1   
 21  11  12  ar  
 22  11  33  1   
 23  12  34  1   
 24  13  14  1   
 25  13  15  1   
 26  14  16  1   
 27  14  35  1   
 28  14  36  1   
 29  15  17  1   
 30  15  37  1   
 31  15  38  1   
 32  16  18  1   
 33  16  19  2   
 34  17  20  1   
 35  17  39  1   
 36  17  40  1   
 37  18  21  1   
 38  18  41  1   
 39  19  22  1   
 40  19  42  1   
 41  20  23  1   
 42  20  24  1   
 43  20  43  1   
 44  21  22  2   
 45  21  25  1   
 46  23  44  1   
 47  23  45  1   
 48  23  46  1   
 49  24  47  1   
 50  24  48  1   
 51  24  49  1   
 52  25  50  1   
 53  25  51  1   
 54  25  52  1   
@<TRIPOS>SUBSTRUCTURE
  1 ****  14 GROUP 4 **** **** 0

# MOE 2024.06 (io_trps.svl 2023.06)
