@<TRIPOS>MOLECULE
NONAME
40 42 1 0 0 
SMALL
USER_CHARGES


@<TRIPOS>ATOM
  1 S       -0.0520    -0.3220     1.2400 S.3   1 <1>  -0.0800 
  2 C       -0.9710     0.8570     0.3280 C.2   1 <1>   0.1980 
  3 C       -1.4780    -1.3120     1.3410 C.2   1 <1>  -0.1100 
  4 N       -2.1880     0.5350     0.1330 N.2   1 <1>  -0.5650 
  5 C       -0.2530     2.1140    -0.1240 C.3   1 <1>   0.0200 
  6 C       -2.4870    -0.6970     0.7020 C.2   1 <1>   0.0460 
  7 C        0.7390     1.8320    -1.2590 C.3   1 <1>  -0.2400 
  8 C       -3.9140    -1.2100     0.5450 C.3   1 <1>   0.3900 
  9 N       -4.0110    -2.6490     0.8880 N.pl3 1 <1>  -0.8690 
 10 C       -5.1820    -3.3110     0.7990 C.ar  1 <1>   0.7200 
 11 N       -5.0460    -4.5950     0.5170 N.ar  1 <1>  -0.6200 
 12 N       -6.3020    -2.6200     0.9860 N.ar  1 <1>  -0.6200 
 13 C       -6.1620    -5.2940     0.4180 C.ar  1 <1>   0.4100 
 14 C       -7.4130    -3.3250     0.8960 C.ar  1 <1>   0.1600 
 15 N       -6.0290    -6.6450     0.1170 N.pl3 1 <1>  -0.8380 
 16 C       -7.3880    -4.6630     0.6140 C.ar  1 <1>   0.1900 
 17 C       -6.6750    -7.1970    -1.1100 C.3   1 <1>   0.2090 
 18 C       -4.7630    -7.3630     0.4580 C.3   1 <1>   0.2090 
 19 F       -8.5260    -5.3240     0.5450 F     1 <1>  -0.1900 
 20 C       -6.7910    -8.7300    -1.0230 C.3   1 <1>   0.1200 
 21 C       -4.9770    -8.8870     0.4540 C.3   1 <1>   0.1200 
 22 O       -5.5450    -9.3140    -0.7550 O.3   1 <1>  -0.5600 
 23 H       -1.4130    -2.2450     1.8700 H     1 <1>   0.1500 
 24 H        0.2620     2.5450     0.7160 H     1 <1>   0.0800 
 25 H       -0.9870     2.8230    -0.4620 H     1 <1>   0.0800 
 26 H        1.5030     1.1500    -0.9300 H     1 <1>   0.0800 
 27 H        1.2060     2.7460    -1.5780 H     1 <1>   0.0800 
 28 H        0.2230     1.3950    -2.0960 H     1 <1>   0.0800 
 29 H       -4.2280    -1.0700    -0.4750 H     1 <1>   0.0800 
 30 H       -4.5650    -0.6360     1.1820 H     1 <1>   0.0800 
 31 H       -3.2530    -3.2090     0.5080 H     1 <1>   0.4000 
 32 H       -8.3530    -2.8250     1.0490 H     1 <1>   0.1500 
 33 H       -6.0820    -6.9380    -1.9700 H     1 <1>   0.0800 
 34 H       -7.6550    -6.7760    -1.2430 H     1 <1>   0.0800 
 35 H       -4.4230    -7.0520     1.4310 H     1 <1>   0.0800 
 36 H       -4.0020    -7.1070    -0.2600 H     1 <1>   0.0800 
 37 H       -7.1460    -9.1290    -1.9560 H     1 <1>   0.0800 
 38 H       -7.4780    -9.0090    -0.2430 H     1 <1>   0.0800 
 39 H       -5.6290    -9.1740     1.2600 H     1 <1>   0.0800 
 40 H       -4.0360    -9.3940     0.5720 H     1 <1>   0.0800 
@<TRIPOS>BOND
  1   1   2  1   
  2   1   3  1   
  3   2   4  2   
  4   2   5  1   
  5   3   6  2   
  6   3  23  1   
  7   4   6  1   
  8   5   7  1   
  9   5  24  1   
 10   5  25  1   
 11   6   8  1   
 12   7  26  1   
 13   7  27  1   
 14   7  28  1   
 15   8   9  1   
 16   8  29  1   
 17   8  30  1   
 18   9  10  1   
 19   9  31  1   
 20  10  11  ar  
 21  10  12  ar  
 22  11  13  ar  
 23  12  14  ar  
 24  13  15  1   
 25  13  16  ar  
 26  14  16  ar  
 27  14  32  1   
 28  15  17  1   
 29  15  18  1   
 30  16  19  1   
 31  17  20  1   
 32  17  33  1   
 33  17  34  1   
 34  18  21  1   
 35  18  35  1   
 36  18  36  1   
 37  20  22  1   
 38  20  37  1   
 39  20  38  1   
 40  21  22  1   
 41  21  39  1   
 42  21  40  1   
@<TRIPOS>SUBSTRUCTURE
  1 ****  10 GROUP 4 **** **** 0

# MOE 2024.06 (io_trps.svl 2023.06)
