@<TRIPOS>MOLECULE
NONAME
55 56 1 0 0 
SMALL
USER_CHARGES


@<TRIPOS>ATOM
  1 O       -1.5800     0.0100     2.3870 O.2   1 <1>  -0.5700 
  2 C       -1.6770     0.4800     1.2760 C.2   1 <1>   0.5690 
  3 N       -1.8190    -0.3370     0.1760 N.am  1 <1>  -0.6600 
  4 C       -1.6530     2.0140     1.1970 C.3   1 <1>  -0.0190 
  5 C       -1.9360    -1.8110     0.3620 C.3   1 <1>   0.2840 
  6 C       -1.9940     0.0970    -1.2400 C.3   1 <1>   0.0600 
  7 C       -2.9740     2.6230     0.6790 C.3   1 <1>  -0.1600 
  8 C       -0.3960     2.5760     0.4860 C.3   1 <1>  -0.1600 
  9 C       -3.3950    -2.2280     0.2230 C.ar  1 <1>  -0.1430 
 10 C       -2.9890     4.1560     0.8010 C.3   1 <1>   0.2000 
 11 C       -0.6450     3.9230    -0.2180 C.3   1 <1>  -0.1600 
 12 C       -3.8380    -2.9220    -0.8910 C.ar  1 <1>  -0.1500 
 13 C       -4.2980    -1.9010     1.2210 C.ar  1 <1>  -0.1500 
 14 O       -3.8880     4.6210    -0.1750 O.3   1 <1>  -0.5600 
 15 C       -1.5900     4.8060     0.6020 C.3   1 <1>   0.2000 
 16 C       -5.1680    -3.2860    -1.0050 C.ar  1 <1>  -0.1500 
 17 C       -5.6280    -2.2620     1.1110 C.ar  1 <1>  -0.1500 
 18 C       -4.8830     5.4720     0.3040 C.3   1 <1>   0.0400 
 19 O       -1.7260     6.0070    -0.0640 O.3   1 <1>  -0.6800 
 20 C       -6.0710    -2.9630    -0.0010 C.ar  1 <1>  -0.1430 
 21 C       -7.5250    -3.3740    -0.1150 C.3   1 <1>   0.4860 
 22 N       -7.7730    -4.5050     0.8250 N.4   1 <1>  -0.9590 
 23 C       -6.9950    -5.7240     0.4380 C.3   1 <1>   0.2630 
 24 C       -9.2310    -4.8050     0.9520 C.3   1 <1>   0.2630 
 25 H       -1.5780     2.3470     2.2190 H     1 <1>   0.0800 
 26 H       -1.3300    -2.3130    -0.3710 H     1 <1>   0.0800 
 27 H       -1.5720    -2.1060     1.3320 H     1 <1>   0.0800 
 28 H       -1.4110    -0.5310    -1.8900 H     1 <1>   0.0800 
 29 H       -1.6790     1.1110    -1.3900 H     1 <1>   0.0800 
 30 H       -3.0320     0.0140    -1.5150 H     1 <1>   0.0800 
 31 H       -3.7980     2.2200     1.2410 H     1 <1>   0.0800 
 32 H       -3.1200     2.3600    -0.3510 H     1 <1>   0.0800 
 33 H        0.3740     2.7050     1.2270 H     1 <1>   0.0800 
 34 H       -0.0110     1.8740    -0.2310 H     1 <1>   0.0800 
 35 H       -3.3470     4.4210     1.7820 H     1 <1>   0.0800 
 36 H       -1.0870     3.7440    -1.1820 H     1 <1>   0.0800 
 37 H        0.2940     4.4300    -0.3640 H     1 <1>   0.0800 
 38 H       -3.1470    -3.1780    -1.6770 H     1 <1>   0.1500 
 39 H       -3.9560    -1.3540     2.0860 H     1 <1>   0.1500 
 40 H       -1.1390     5.0090     1.5580 H     1 <1>   0.0800 
 41 H       -5.4860    -3.8190    -1.8850 H     1 <1>   0.1500 
 42 H       -6.3030    -1.9810     1.9010 H     1 <1>   0.1500 
 43 H       -5.4910     5.7800    -0.5280 H     1 <1>   0.0800 
 44 H       -4.4250     6.3340     0.7610 H     1 <1>   0.0800 
 45 H       -5.4880     4.9410     1.0190 H     1 <1>   0.0800 
 46 H       -2.5110     5.9010    -0.6470 H     1 <1>   0.4000 
 47 H       -7.7480    -3.6700    -1.1260 H     1 <1>   0.0800 
 48 H       -8.1490    -2.5330     0.1420 H     1 <1>   0.0800 
 49 H       -7.4100    -4.1910     1.7380 H     1 <1>   0.4500 
 50 H       -7.3020    -6.0730    -0.5350 H     1 <1>   0.0800 
 51 H       -7.1540    -6.5130     1.1550 H     1 <1>   0.0800 
 52 H       -5.9400    -5.5000     0.4070 H     1 <1>   0.0800 
 53 H       -9.6330    -5.1260     0.0040 H     1 <1>   0.0800 
 54 H       -9.7680    -3.9280     1.2760 H     1 <1>   0.0800 
 55 H       -9.3890    -5.5890     1.6750 H     1 <1>   0.0800 
@<TRIPOS>BOND
  1   1   2  2   
  2   2   3  am  
  3   2   4  1   
  4   3   5  1   
  5   3   6  1   
  6   4   7  1   
  7   4   8  1   
  8   4  25  1   
  9   5   9  1   
 10   5  26  1   
 11   5  27  1   
 12   6  28  1   
 13   6  29  1   
 14   6  30  1   
 15   7  10  1   
 16   7  31  1   
 17   7  32  1   
 18   8  11  1   
 19   8  33  1   
 20   8  34  1   
 21   9  12  ar  
 22   9  13  ar  
 23  10  14  1   
 24  10  15  1   
 25  10  35  1   
 26  11  15  1   
 27  11  36  1   
 28  11  37  1   
 29  12  16  ar  
 30  12  38  1   
 31  13  17  ar  
 32  13  39  1   
 33  14  18  1   
 34  15  19  1   
 35  15  40  1   
 36  16  20  ar  
 37  16  41  1   
 38  17  20  ar  
 39  17  42  1   
 40  18  43  1   
 41  18  44  1   
 42  18  45  1   
 43  19  46  1   
 44  20  21  1   
 45  21  22  1   
 46  21  47  1   
 47  21  48  1   
 48  22  23  1   
 49  22  24  1   
 50  22  49  1   
 51  23  50  1   
 52  23  51  1   
 53  23  52  1   
 54  24  53  1   
 55  24  54  1   
 56  24  55  1   
@<TRIPOS>SUBSTRUCTURE
  1 ****   3 GROUP 4 **** **** 0

# MOE 2024.06 (io_trps.svl 2023.06)
