@<TRIPOS>MOLECULE
NONAME
50 53 1 0 0 
SMALL
USER_CHARGES


@<TRIPOS>ATOM
  1 O        2.8190    -1.0390    -2.6840 O.2   1 <1>  -0.5700 
  2 C        2.1750    -1.3780    -1.7040 C.2   1 <1>   0.5440 
  3 N        1.7390    -0.3700    -0.8600 N.am  1 <1>  -0.6600 
  4 C        1.9400    -2.8070    -1.4740 C.ar  1 <1>   0.3960 
  5 C        2.0810     1.0540    -1.0720 C.3   1 <1>   0.1400 
  6 C        1.0500    -0.5550     0.4390 C.3   1 <1>   0.1400 
  7 N        0.8460    -3.2400    -0.8260 N.ar  1 <1>  -0.6200 
  8 C        2.8940    -3.7060    -1.9600 C.ar  1 <1>   0.1600 
  9 C        1.9290     1.6960     0.3020 C.3   1 <1>  -0.1600 
 10 C        0.8700     0.8510     1.0030 C.3   1 <1>  -0.1600 
 11 C        0.7710    -4.5540    -0.6900 C.ar  1 <1>   0.4100 
 12 N        2.8520    -5.0250    -1.8320 N.ar  1 <1>  -0.6200 
 13 N       -0.3490    -5.0340    -0.0170 N.pl3 1 <1>  -0.8380 
 14 C        1.7720    -5.4100    -1.1840 C.ar  1 <1>   0.1600 
 15 C       -1.5050    -4.1580     0.3360 C.3   1 <1>   0.2090 
 16 C       -0.7920    -6.4510    -0.0830 C.3   1 <1>   0.2090 
 17 C       -2.7180    -5.0880     0.4120 C.3   1 <1>   0.2000 
 18 C       -2.1470    -6.4870     0.6210 C.3   1 <1>  -0.0800 
 19 O       -3.5630    -4.7590     1.4620 O.3   1 <1>  -0.6800 
 20 C       -3.0790    -7.6020     0.1160 C.3   1 <1>   0.0210 
 21 C       -2.4220    -8.9720     0.1500 C.2   1 <1>   0.1080 
 22 N       -1.5670    -9.3380     1.0560 N.2   1 <1>  -0.7070 
 23 C       -2.6630    -9.9790    -0.7780 C.2   1 <1>  -0.1500 
 24 N       -1.2420   -10.6030     0.7280 N.pl3 1 <1>   0.3000 
 25 C       -1.8920   -11.0130    -0.3810 C.2   1 <1>  -0.3320 
 26 C       -1.7360   -12.3900    -1.0000 C.3   1 <1>  -0.0600 
 27 H        3.0830     1.1640    -1.4520 H     1 <1>   0.0800 
 28 H        1.3810     1.4800    -1.7700 H     1 <1>   0.0800 
 29 H        0.0960    -1.0370     0.3020 H     1 <1>   0.0800 
 30 H        1.6690    -1.1510     1.0880 H     1 <1>   0.0800 
 31 H        3.7440    -3.3040    -2.4820 H     1 <1>   0.1500 
 32 H        2.8660     1.6190     0.8260 H     1 <1>   0.0800 
 33 H        1.6500     2.7310     0.2300 H     1 <1>   0.0800 
 34 H       -0.1110     1.2070     0.7410 H     1 <1>   0.0800 
 35 H        0.9740     0.8670     2.0730 H     1 <1>   0.0800 
 36 H        1.6570    -6.4640    -1.0230 H     1 <1>   0.1500 
 37 H       -1.3140    -3.6910     1.2860 H     1 <1>   0.0800 
 38 H       -1.6620    -3.4050    -0.4180 H     1 <1>   0.0800 
 39 H       -0.8910    -6.7490    -1.1130 H     1 <1>   0.0800 
 40 H       -0.0900    -7.0990     0.4160 H     1 <1>   0.0800 
 41 H       -3.2760    -5.0220    -0.5060 H     1 <1>   0.0800 
 42 H       -1.9470    -6.6430     1.6670 H     1 <1>   0.0800 
 43 H       -3.1030    -4.8900     2.3140 H     1 <1>   0.4000 
 44 H       -3.3830    -7.3910    -0.8940 H     1 <1>   0.0800 
 45 H       -3.9610    -7.6290     0.7290 H     1 <1>   0.0800 
 46 H       -3.3300    -9.9210    -1.6200 H     1 <1>   0.1500 
 47 H       -0.5780   -11.1580     1.2810 H     1 <1>   0.2700 
 48 H       -2.3600   -12.4760    -1.8720 H     1 <1>   0.0800 
 49 H       -2.0260   -13.1500    -0.2960 H     1 <1>   0.0800 
 50 H       -0.7140   -12.5530    -1.2940 H     1 <1>   0.0800 
@<TRIPOS>BOND
  1   1   2  2   
  2   2   3  am  
  3   2   4  1   
  4   3   5  1   
  5   3   6  1   
  6   4   7  ar  
  7   4   8  ar  
  8   5   9  1   
  9   5  27  1   
 10   5  28  1   
 11   6  10  1   
 12   6  29  1   
 13   6  30  1   
 14   7  11  ar  
 15   8  12  ar  
 16   8  31  1   
 17   9  10  1   
 18   9  32  1   
 19   9  33  1   
 20  10  34  1   
 21  10  35  1   
 22  11  13  1   
 23  11  14  ar  
 24  12  14  ar  
 25  13  15  1   
 26  13  16  1   
 27  14  36  1   
 28  15  17  1   
 29  15  37  1   
 30  15  38  1   
 31  16  18  1   
 32  16  39  1   
 33  16  40  1   
 34  17  18  1   
 35  17  19  1   
 36  17  41  1   
 37  18  20  1   
 38  18  42  1   
 39  19  43  1   
 40  20  21  1   
 41  20  44  1   
 42  20  45  1   
 43  21  22  2   
 44  21  23  1   
 45  22  24  1   
 46  23  25  2   
 47  23  46  1   
 48  24  25  1   
 49  24  47  1   
 50  25  26  1   
 51  26  48  1   
 52  26  49  1   
 53  26  50  1   
@<TRIPOS>SUBSTRUCTURE
  1 ****  13 GROUP 4 **** **** 0

# MOE 2024.06 (io_trps.svl 2023.06)
