@<TRIPOS>MOLECULE
NONAME
49 51 1 0 0 
SMALL
USER_CHARGES


@<TRIPOS>ATOM
  1 CL       1.2990    -0.2920     0.0170 Cl    1 <1>  -0.1770 
  2 C        0.7780    -1.9490    -0.1580 C.ar  1 <1>   0.1770 
  3 C        1.4280    -2.9670     0.5240 C.ar  1 <1>  -0.1440 
  4 C       -0.2920    -2.2170    -0.9900 C.ar  1 <1>  -0.1500 
  5 C        0.9780    -4.2670     0.3580 C.ar  1 <1>  -0.1500 
  6 C        2.6120    -2.6720     1.4340 C.3   1 <1>  -0.0960 
  7 C       -0.7260    -3.5210    -1.1430 C.ar  1 <1>  -0.1500 
  8 C       -0.1070    -4.5760    -0.4670 C.ar  1 <1>   0.0860 
  9 C       -0.5670    -5.9470    -0.6130 C.2   1 <1>   0.5440 
 10 O        0.2050    -6.8820    -0.4890 O.2   1 <1>  -0.5700 
 11 N       -1.8940    -6.2490    -0.8320 N.am  1 <1>  -0.6600 
 12 C       -2.2160    -7.5860    -1.4140 C.3   1 <1>   0.1400 
 13 C       -2.8980    -5.6940     0.1390 C.3   1 <1>   0.1400 
 14 C       -2.5490    -8.4690    -0.2100 C.3   1 <1>   0.4230 
 15 C       -4.1650    -6.5660     0.2590 C.3   1 <1>  -0.1600 
 16 N       -2.2620    -9.9460    -0.3160 N.4   1 <1>  -0.9590 
 17 C       -3.9390    -8.1110     0.3700 C.3   1 <1>   0.0000 
 18 C       -2.8380   -10.7260     0.8340 C.3   1 <1>   0.3430 
 19 C       -2.5960   -10.5700    -1.6360 C.3   1 <1>   0.2630 
 20 C       -3.9150    -8.5870     1.8480 C.3   1 <1>  -0.1600 
 21 C       -5.0830    -8.8160    -0.4120 C.3   1 <1>   0.1200 
 22 C       -3.0360    -9.8450     2.0800 C.3   1 <1>  -0.1600 
 23 O       -6.3270    -8.3680     0.0000 O.3   1 <1>  -0.6800 
 24 H       -0.7730    -1.4090    -1.5120 H     1 <1>   0.1500 
 25 H        1.4730    -5.0720     0.8730 H     1 <1>   0.1500 
 26 H        2.9890    -3.5740     1.8830 H     1 <1>   0.0800 
 27 H        2.3160    -1.9980     2.2180 H     1 <1>   0.0800 
 28 H        3.4050    -2.2160     0.8680 H     1 <1>   0.0800 
 29 H       -1.5520    -3.7270    -1.8010 H     1 <1>   0.1500 
 30 H       -3.0460    -7.5000    -2.0930 H     1 <1>   0.0800 
 31 H       -1.3640    -7.9690    -1.9490 H     1 <1>   0.0800 
 32 H       -2.4360    -5.6120     1.1090 H     1 <1>   0.0800 
 33 H       -3.1800    -4.7010    -0.1720 H     1 <1>   0.0800 
 34 H       -1.8540    -8.1210     0.5370 H     1 <1>   0.0800 
 35 H       -4.7580    -6.2170     1.0870 H     1 <1>   0.0800 
 36 H       -4.7480    -6.3520    -0.6220 H     1 <1>   0.0800 
 37 H       -1.2350    -9.9980    -0.2150 H     1 <1>   0.4500 
 38 H       -3.7940   -11.1350     0.5510 H     1 <1>   0.0800 
 39 H       -2.1900   -11.5540     1.0740 H     1 <1>   0.0800 
 40 H       -3.6550   -10.5230    -1.8230 H     1 <1>   0.0800 
 41 H       -2.2910   -11.6040    -1.6470 H     1 <1>   0.0800 
 42 H       -2.0820   -10.0590    -2.4350 H     1 <1>   0.0800 
 43 H       -3.5260    -7.8010     2.4730 H     1 <1>   0.0800 
 44 H       -4.9160    -8.7790     2.1920 H     1 <1>   0.0800 
 45 H       -5.0740    -9.8820    -0.2840 H     1 <1>   0.0800 
 46 H       -5.0100    -8.5980    -1.4640 H     1 <1>   0.0800 
 47 H       -3.4740   -10.4400     2.8630 H     1 <1>   0.0800 
 48 H       -2.0650    -9.5410     2.4340 H     1 <1>   0.0800 
 49 H       -6.5120    -8.5880     0.9340 H     1 <1>   0.4000 
@<TRIPOS>BOND
  1   1   2  1   
  2   2   3  ar  
  3   2   4  ar  
  4   3   5  ar  
  5   3   6  1   
  6   4   7  ar  
  7   4  24  1   
  8   5   8  ar  
  9   5  25  1   
 10   6  26  1   
 11   6  27  1   
 12   6  28  1   
 13   7   8  ar  
 14   7  29  1   
 15   8   9  1   
 16   9  10  2   
 17   9  11  am  
 18  11  12  1   
 19  11  13  1   
 20  12  14  1   
 21  12  30  1   
 22  12  31  1   
 23  13  15  1   
 24  13  32  1   
 25  13  33  1   
 26  14  16  1   
 27  14  17  1   
 28  14  34  1   
 29  15  17  1   
 30  15  35  1   
 31  15  36  1   
 32  16  18  1   
 33  16  19  1   
 34  16  37  1   
 35  17  20  1   
 36  17  21  1   
 37  18  22  1   
 38  18  38  1   
 39  18  39  1   
 40  19  40  1   
 41  19  41  1   
 42  19  42  1   
 43  20  22  1   
 44  20  43  1   
 45  20  44  1   
 46  21  23  1   
 47  21  45  1   
 48  21  46  1   
 49  22  47  1   
 50  22  48  1   
 51  23  49  1   
@<TRIPOS>SUBSTRUCTURE
  1 ****  11 GROUP 4 **** **** 0

# MOE 2024.06 (io_trps.svl 2023.06)
