@<TRIPOS>MOLECULE
NONAME
48 49 1 0 0 
SMALL
USER_CHARGES


@<TRIPOS>ATOM
  1 F        0.9260    -4.2410     2.8960 F     1 <1>  -0.3400 
  2 C        1.1810    -3.7000     1.7130 C.3   1 <1>   1.0200 
  3 F        1.7110    -2.5090     1.9470 F     1 <1>  -0.3400 
  4 F        2.1350    -4.4380     1.1610 F     1 <1>  -0.3400 
  5 C       -0.0670    -3.6130     0.8370 C.3   1 <1>  -0.1600 
  6 C       -0.7190    -4.9850     0.5420 C.3   1 <1>  -0.0990 
  7 C       -1.9730    -4.8990    -0.3250 C.2   1 <1>   0.5690 
  8 O       -2.1560    -3.8700    -0.9320 O.2   1 <1>  -0.5700 
  9 N       -2.8660    -5.9380    -0.4170 N.am  1 <1>  -0.6600 
 10 C       -2.7180    -7.2450     0.3270 C.3   1 <1>   0.3640 
 11 C       -4.1240    -5.7130    -1.1960 C.3   1 <1>   0.1400 
 12 C       -1.4030    -7.9110    -0.0890 C.ar  1 <1>  -0.1440 
 13 C       -3.8760    -8.2810     0.1530 C.3   1 <1>   0.2000 
 14 C       -4.8500    -7.0090    -1.5500 C.3   1 <1>   0.1200 
 15 C       -0.5270    -8.3820     0.8800 C.ar  1 <1>  -0.1500 
 16 C       -1.0610    -8.0480    -1.4290 C.ar  1 <1>  -0.1500 
 17 O       -5.0500    -7.7410    -0.3870 O.3   1 <1>  -0.5600 
 18 C       -4.2820    -8.9340     1.4830 C.3   1 <1>   0.1200 
 19 C        0.6730    -8.9740     0.5260 C.ar  1 <1>   0.0830 
 20 C        0.1420    -8.6270    -1.7930 C.ar  1 <1>  -0.1500 
 21 O       -3.1950    -9.5450     2.1000 O.3   1 <1>  -0.6800 
 22 O        1.4600    -9.4310     1.5300 O.3   1 <1>  -0.3630 
 23 C        1.0230    -9.0750    -0.8240 C.ar  1 <1>   0.0830 
 24 C        1.6730   -10.8240     1.5820 C.3   1 <1>   0.0400 
 25 O        2.2050    -9.5880    -1.2430 O.3   1 <1>  -0.3630 
 26 C        3.3590    -8.8490    -0.9060 C.3   1 <1>   0.0400 
 27 H       -0.7810    -2.9770     1.3290 H     1 <1>   0.0800 
 28 H        0.2110    -3.1430    -0.0890 H     1 <1>   0.0800 
 29 H       -0.9690    -5.4540     1.4750 H     1 <1>   0.0800 
 30 H       -0.0040    -5.6040     0.0310 H     1 <1>   0.0800 
 31 H       -2.6590    -7.0060     1.3750 H     1 <1>   0.0800 
 32 H       -4.7840    -5.0920    -0.6150 H     1 <1>   0.0800 
 33 H       -3.8960    -5.1850    -2.1060 H     1 <1>   0.0800 
 34 H       -3.5600    -9.0580    -0.5200 H     1 <1>   0.0800 
 35 H       -4.2870    -7.5970    -2.2540 H     1 <1>   0.0800 
 36 H       -5.8150    -6.7890    -1.9720 H     1 <1>   0.0800 
 37 H       -0.7670    -8.3000     1.9260 H     1 <1>   0.1500 
 38 H       -1.7260    -7.6920    -2.1970 H     1 <1>   0.1500 
 39 H       -5.0390    -9.6820     1.3190 H     1 <1>   0.0800 
 40 H       -4.6610    -8.1870     2.1590 H     1 <1>   0.0800 
 41 H        0.4090    -8.7250    -2.8300 H     1 <1>   0.1500 
 42 H       -2.8980   -10.3280     1.5940 H     1 <1>   0.4000 
 43 H        2.2150   -11.0480     2.4830 H     1 <1>   0.0800 
 44 H        2.2450   -11.1310     0.7250 H     1 <1>   0.0800 
 45 H        0.7190   -11.3210     1.5920 H     1 <1>   0.0800 
 46 H        4.2050    -9.3090    -1.3830 H     1 <1>   0.0800 
 47 H        3.4900    -8.8570     0.1610 H     1 <1>   0.0800 
 48 H        3.2400    -7.8390    -1.2580 H     1 <1>   0.0800 
@<TRIPOS>BOND
  1   1   2  1   
  2   2   3  1   
  3   2   4  1   
  4   2   5  1   
  5   5   6  1   
  6   5  27  1   
  7   5  28  1   
  8   6   7  1   
  9   6  29  1   
 10   6  30  1   
 11   7   8  2   
 12   7   9  am  
 13   9  10  1   
 14   9  11  1   
 15  10  12  1   
 16  10  13  1   
 17  10  31  1   
 18  11  14  1   
 19  11  32  1   
 20  11  33  1   
 21  12  15  ar  
 22  12  16  ar  
 23  13  17  1   
 24  13  18  1   
 25  13  34  1   
 26  14  17  1   
 27  14  35  1   
 28  14  36  1   
 29  15  19  ar  
 30  15  37  1   
 31  16  20  ar  
 32  16  38  1   
 33  18  21  1   
 34  18  39  1   
 35  18  40  1   
 36  19  22  1   
 37  19  23  ar  
 38  20  23  ar  
 39  20  41  1   
 40  21  42  1   
 41  22  24  1   
 42  23  25  1   
 43  24  43  1   
 44  24  44  1   
 45  24  45  1   
 46  25  26  1   
 47  26  46  1   
 48  26  47  1   
 49  26  48  1   
@<TRIPOS>SUBSTRUCTURE
  1 ****  12 GROUP 4 **** **** 0

# MOE 2024.06 (io_trps.svl 2023.06)
