@<TRIPOS>MOLECULE
NONAME
51 53 1 0 0 
SMALL
USER_CHARGES


@<TRIPOS>ATOM
  1 CL       2.2830     0.8720     2.3870 Cl    1 <1>  -0.1770 
  2 C        2.6350    -0.4030     1.2490 C.ar  1 <1>   0.1770 
  3 C        2.2310    -1.6900     1.5320 C.ar  1 <1>  -0.1500 
  4 C        3.3090    -0.1020     0.0830 C.ar  1 <1>  -0.1500 
  5 C        2.4880    -2.7240     0.6340 C.ar  1 <1>   0.0860 
  6 C        3.5800    -1.1190    -0.8160 C.ar  1 <1>  -0.1500 
  7 C        3.1760    -2.4190    -0.5480 C.ar  1 <1>  -0.1440 
  8 C        2.0250    -4.0640     0.9430 C.2   1 <1>   0.5440 
  9 C        3.4930    -3.5180    -1.5540 C.3   1 <1>  -0.0960 
 10 O        2.8310    -4.8990     1.3080 O.2   1 <1>  -0.5700 
 11 N        0.6910    -4.4130     0.8400 N.am  1 <1>  -0.6600 
 12 C       -0.3120    -3.5150     0.1910 C.3   1 <1>   0.2200 
 13 C        0.2400    -5.7500     1.3380 C.3   1 <1>   0.0600 
 14 C       -1.2830    -2.9030     1.1980 C.3   1 <1>  -0.1600 
 15 C       -1.2040    -4.2050    -0.8410 C.3   1 <1>  -0.1600 
 16 C       -2.5000    -2.4900     0.3580 C.3   1 <1>  -0.0800 
 17 C       -2.4410    -3.3000    -0.9420 C.3   1 <1>  -0.0800 
 18 C       -3.8670    -2.8030     0.9840 C.3   1 <1>  -0.1600 
 19 C       -3.7870    -4.0360    -1.0410 C.3   1 <1>  -0.1600 
 20 C       -4.7650    -3.2250    -0.1840 C.3   1 <1>   0.4230 
 21 N       -5.2690    -2.0280    -0.9340 N.4   1 <1>  -0.9590 
 22 C       -6.1200    -1.1300    -0.0870 C.3   1 <1>   0.2630 
 23 C       -6.0500    -2.4000    -2.1580 C.3   1 <1>   0.2630 
 24 H        1.7160    -1.8980     2.4520 H     1 <1>   0.1500 
 25 H        3.6180     0.9090    -0.1140 H     1 <1>   0.1500 
 26 H        4.1110    -0.8890    -1.7240 H     1 <1>   0.1500 
 27 H        3.9920    -3.1240    -2.4200 H     1 <1>   0.0800 
 28 H        2.5870    -4.0020    -1.8740 H     1 <1>   0.0800 
 29 H        4.1330    -4.2550    -1.1000 H     1 <1>   0.0800 
 30 H        0.1890    -2.7080    -0.3170 H     1 <1>   0.0800 
 31 H       -0.7710    -5.7070     1.6980 H     1 <1>   0.0800 
 32 H        0.8700    -6.0790     2.1470 H     1 <1>   0.0800 
 33 H        0.3050    -6.4710     0.5420 H     1 <1>   0.0800 
 34 H       -1.5570    -3.6360     1.9340 H     1 <1>   0.0800 
 35 H       -0.8430    -2.0560     1.6930 H     1 <1>   0.0800 
 36 H       -0.7000    -4.2920    -1.7880 H     1 <1>   0.0800 
 37 H       -1.4890    -5.1830    -0.5050 H     1 <1>   0.0800 
 38 H       -2.4300    -1.4410     0.1190 H     1 <1>   0.0800 
 39 H       -2.3220    -2.6210    -1.7710 H     1 <1>   0.0800 
 40 H       -4.2420    -1.9900     1.5770 H     1 <1>   0.0800 
 41 H       -3.7750    -3.6550     1.6350 H     1 <1>   0.0800 
 42 H       -3.7000    -5.0070    -0.5850 H     1 <1>   0.0800 
 43 H       -4.0930    -4.1900    -2.0580 H     1 <1>   0.0800 
 44 H       -5.5910    -3.8320     0.1530 H     1 <1>   0.0800 
 45 H       -4.4330    -1.5030    -1.2270 H     1 <1>   0.4500 
 46 H       -6.9580    -1.6770     0.3150 H     1 <1>   0.0800 
 47 H       -6.4960    -0.3090    -0.6760 H     1 <1>   0.0800 
 48 H       -5.5500    -0.7200     0.7300 H     1 <1>   0.0800 
 49 H       -6.8840    -3.0290    -1.8940 H     1 <1>   0.0800 
 50 H       -5.4300    -2.9260    -2.8640 H     1 <1>   0.0800 
 51 H       -6.4280    -1.5130    -2.6420 H     1 <1>   0.0800 
@<TRIPOS>BOND
  1   1   2  1   
  2   2   3  ar  
  3   2   4  ar  
  4   3   5  ar  
  5   3  24  1   
  6   4   6  ar  
  7   4  25  1   
  8   5   7  ar  
  9   5   8  1   
 10   6   7  ar  
 11   6  26  1   
 12   7   9  1   
 13   8  10  2   
 14   8  11  am  
 15   9  27  1   
 16   9  28  1   
 17   9  29  1   
 18  11  12  1   
 19  11  13  1   
 20  12  14  1   
 21  12  15  1   
 22  12  30  1   
 23  13  31  1   
 24  13  32  1   
 25  13  33  1   
 26  14  16  1   
 27  14  34  1   
 28  14  35  1   
 29  15  17  1   
 30  15  36  1   
 31  15  37  1   
 32  16  17  1   
 33  16  18  1   
 34  16  38  1   
 35  17  19  1   
 36  17  39  1   
 37  18  20  1   
 38  18  40  1   
 39  18  41  1   
 40  19  20  1   
 41  19  42  1   
 42  19  43  1   
 43  20  21  1   
 44  20  44  1   
 45  21  22  1   
 46  21  23  1   
 47  21  45  1   
 48  22  46  1   
 49  22  47  1   
 50  22  48  1   
 51  23  49  1   
 52  23  50  1   
 53  23  51  1   
@<TRIPOS>SUBSTRUCTURE
  1 ****  12 GROUP 4 **** **** 0

# MOE 2024.06 (io_trps.svl 2023.06)
