@<TRIPOS>MOLECULE
NONAME
48 51 1 0 0 
SMALL
USER_CHARGES


@<TRIPOS>ATOM
  1 F        1.4950     0.8640     1.3420 F     1 <1>  -0.1900 
  2 C        2.1890     0.0220     0.6170 C.ar  1 <1>   0.1900 
  3 C        3.1300     0.5390    -0.2760 C.ar  1 <1>   0.1000 
  4 C        1.9600    -1.3250     0.7710 C.ar  1 <1>  -0.1500 
  5 N        3.3390     1.9140    -0.4150 N.pl3 1 <1>  -0.6000 
  6 C        3.8750    -0.3650    -1.0500 C.ar  1 <1>   0.0860 
  7 C        2.7000    -2.2150     0.0030 C.ar  1 <1>  -0.1500 
  8 C        4.2740     2.4270    -1.2900 C.2   1 <1>  -0.0380 
  9 C        4.8480     0.1650    -1.9700 C.2   1 <1>   0.4690 
 10 C        3.6390    -1.7380    -0.8900 C.ar  1 <1>  -0.1500 
 11 C        5.0030     1.5730    -2.0530 C.2   1 <1>  -0.1360 
 12 C        4.4750     3.9370    -1.3510 C.3   1 <1>   0.4810 
 13 O        5.5520    -0.5550    -2.6590 O.2   1 <1>  -0.5700 
 14 N        5.0720     4.3870    -0.0610 N.4   1 <1>  -0.9590 
 15 C        4.9130     5.8790     0.0860 C.3   1 <1>   0.3430 
 16 C        6.4820     3.8910     0.0610 C.3   1 <1>   0.3430 
 17 C        5.5550     6.4810     1.3510 C.3   1 <1>   0.1400 
 18 C        6.9110     3.8530     1.5290 C.3   1 <1>  -0.1600 
 19 N        7.0400     6.3450     1.3090 N.am  1 <1>  -0.6600 
 20 C        7.5940     5.1430     1.9970 C.3   1 <1>   0.1400 
 21 C        7.8830     7.3390     0.8200 C.2   1 <1>   0.7150 
 22 O        9.0710     7.2440     1.0670 O.2   1 <1>  -0.5700 
 23 C        7.4340     8.4630     0.0190 C.2   1 <1>   0.0550 
 24 O        6.2770     8.4710    -0.6460 O.3   1 <1>  -0.2800 
 25 C        8.0690     9.6440    -0.2270 C.2   1 <1>  -0.1500 
 26 C        6.1620     9.6120    -1.2890 C.2   1 <1>  -0.0100 
 27 C        7.2440    10.3880    -1.0700 C.2   1 <1>  -0.1500 
 28 H        1.2240    -1.6810     1.4710 H     1 <1>   0.1500 
 29 H        2.6660     2.4990     0.1040 H     1 <1>   0.4000 
 30 H        2.5370    -3.2760     0.1060 H     1 <1>   0.1500 
 31 H        4.2110    -2.4320    -1.4850 H     1 <1>   0.1500 
 32 H        5.7400     1.9090    -2.7600 H     1 <1>   0.1500 
 33 H        3.5200     4.4120    -1.5100 H     1 <1>   0.0800 
 34 H        5.1260     4.1940    -2.1710 H     1 <1>   0.0800 
 35 H        4.5400     3.9130     0.6780 H     1 <1>   0.4500 
 36 H        3.8630     6.1210     0.0980 H     1 <1>   0.0800 
 37 H        5.3440     6.3680    -0.7710 H     1 <1>   0.0800 
 38 H        7.1570     4.5100    -0.5100 H     1 <1>   0.0800 
 39 H        6.5420     2.8860    -0.3260 H     1 <1>   0.0800 
 40 H        5.1630     6.0040     2.2320 H     1 <1>   0.0800 
 41 H        5.2950     7.5240     1.4210 H     1 <1>   0.0800 
 42 H        7.6250     3.0580     1.6510 H     1 <1>   0.0800 
 43 H        6.0790     3.6160     2.1670 H     1 <1>   0.0800 
 44 H        8.6490     5.0570     1.7900 H     1 <1>   0.0800 
 45 H        7.4880     5.2560     3.0630 H     1 <1>   0.0800 
 46 H        9.0290     9.9570     0.1480 H     1 <1>   0.1500 
 47 H        5.2850     9.8030    -1.8840 H     1 <1>   0.1500 
 48 H        7.4570    11.3720    -1.4500 H     1 <1>   0.1500 
@<TRIPOS>BOND
  1   1   2  1   
  2   2   3  ar  
  3   2   4  ar  
  4   3   5  1   
  5   3   6  ar  
  6   4   7  ar  
  7   4  28  1   
  8   5   8  1   
  9   5  29  1   
 10   6   9  1   
 11   6  10  ar  
 12   7  10  ar  
 13   7  30  1   
 14   8  11  2   
 15   8  12  1   
 16   9  11  1   
 17   9  13  2   
 18  10  31  1   
 19  11  32  1   
 20  12  14  1   
 21  12  33  1   
 22  12  34  1   
 23  14  15  1   
 24  14  16  1   
 25  14  35  1   
 26  15  17  1   
 27  15  36  1   
 28  15  37  1   
 29  16  18  1   
 30  16  38  1   
 31  16  39  1   
 32  17  19  1   
 33  17  40  1   
 34  17  41  1   
 35  18  20  1   
 36  18  42  1   
 37  18  43  1   
 38  19  20  1   
 39  19  21  am  
 40  20  44  1   
 41  20  45  1   
 42  21  22  2   
 43  21  23  1   
 44  23  24  1   
 45  23  25  2   
 46  24  26  1   
 47  25  27  1   
 48  25  46  1   
 49  26  27  2   
 50  26  47  1   
 51  27  48  1   
@<TRIPOS>SUBSTRUCTURE
  1 ****  14 GROUP 4 **** **** 0

# MOE 2024.06 (io_trps.svl 2023.06)
