@<TRIPOS>MOLECULE
NONAME
50 52 1 0 0 
SMALL
USER_CHARGES


@<TRIPOS>ATOM
  1 S        0.4060    -1.0100     2.8760 S.o2  1 <1>   1.4470 
  2 O        1.3230    -2.0390     3.3140 O.2   1 <1>  -0.6500 
  3 O       -0.2380    -0.1550     3.8420 O.2   1 <1>  -0.6500 
  4 N       -0.8510    -1.8050     2.1050 N.am  1 <1>  -0.9140 
  5 C        1.1250    -0.0400     1.5230 C.ar  1 <1>  -0.0090 
  6 C       -0.4420    -2.9690     1.3310 C.3   1 <1>   0.2760 
  7 C        0.3210     0.7590     0.7190 C.ar  1 <1>  -0.1500 
  8 C        2.4850    -0.0820     1.2430 C.ar  1 <1>  -0.1500 
  9 C       -1.4730    -3.2600     0.2500 C.3   1 <1>  -0.0800 
 10 C       -0.5740    -4.2320     2.1790 C.3   1 <1>   0.1200 
 11 C        0.8400     1.4820    -0.3420 C.ar  1 <1>  -0.1430 
 12 C        3.0240     0.6360     0.1910 C.ar  1 <1>  -0.1500 
 13 C       -2.5330    -4.0770     0.9980 C.3   1 <1>   0.1200 
 14 C       -2.0240    -2.0250    -0.4900 C.3   1 <1>  -0.0170 
 15 O       -1.9390    -4.5150     2.1870 O.3   1 <1>  -0.5600 
 16 C        2.2030     1.4210    -0.6140 C.ar  1 <1>   0.0830 
 17 C       -0.0830     2.3360    -1.1990 C.3   1 <1>  -0.0970 
 18 C       -2.9440    -2.4390    -1.6260 C.ar  1 <1>  -0.1430 
 19 O        2.6690     2.1430    -1.6650 O.3   1 <1>  -0.3630 
 20 C       -2.4500    -2.7990    -2.8630 C.ar  1 <1>  -0.1500 
 21 C       -4.3160    -2.4760    -1.4800 C.ar  1 <1>  -0.1500 
 22 C        4.0430     2.2190    -1.9680 C.3   1 <1>   0.1200 
 23 C       -3.3270    -3.1720    -3.8670 C.ar  1 <1>   0.1600 
 24 C       -5.1050    -2.8660    -2.5490 C.ar  1 <1>   0.1600 
 25 C        4.2100     3.1480    -3.1670 C.3   1 <1>  -0.2400 
 26 N       -4.6430    -3.2170    -3.7380 N.ar  1 <1>  -0.6200 
 27 H       -1.4430    -2.1590     2.8580 H     1 <1>   0.4200 
 28 H        0.5460    -2.8440     0.9170 H     1 <1>   0.0800 
 29 H       -0.7330     0.8090     0.9350 H     1 <1>   0.1500 
 30 H        3.1320    -0.6880     1.8570 H     1 <1>   0.1500 
 31 H       -1.0170    -3.9110    -0.4740 H     1 <1>   0.0800 
 32 H       -0.2210    -4.1100     3.1880 H     1 <1>   0.0800 
 33 H       -0.0670    -5.0590     1.7140 H     1 <1>   0.0800 
 34 H        4.0800     0.5700     0.0120 H     1 <1>   0.1500 
 35 H       -2.8540    -4.9320     0.4290 H     1 <1>   0.0800 
 36 H       -3.3840    -3.4750     1.2640 H     1 <1>   0.0800 
 37 H       -1.2050    -1.4520    -0.8890 H     1 <1>   0.0800 
 38 H       -2.5630    -1.3870     0.1880 H     1 <1>   0.0800 
 39 H       -1.1020     2.2730    -0.8620 H     1 <1>   0.0800 
 40 H       -0.0390     2.0070    -2.2220 H     1 <1>   0.0800 
 41 H        0.2300     3.3640    -1.1560 H     1 <1>   0.0800 
 42 H       -1.3930    -2.7910    -3.0580 H     1 <1>   0.1500 
 43 H       -4.7790    -2.2050    -0.5490 H     1 <1>   0.1500 
 44 H        4.5600     2.6110    -1.1090 H     1 <1>   0.0800 
 45 H        4.3970     1.2300    -2.2020 H     1 <1>   0.0800 
 46 H       -2.9260    -3.4500    -4.8270 H     1 <1>   0.1500 
 47 H       -6.1740    -2.8900    -2.4200 H     1 <1>   0.1500 
 48 H        3.8390     4.1290    -2.9300 H     1 <1>   0.0800 
 49 H        3.6760     2.7570    -4.0150 H     1 <1>   0.0800 
 50 H        5.2510     3.2280    -3.4240 H     1 <1>   0.0800 
@<TRIPOS>BOND
  1   1   2  2   
  2   1   3  2   
  3   1   4  am  
  4   1   5  1   
  5   4   6  1   
  6   4  27  1   
  7   5   7  ar  
  8   5   8  ar  
  9   6   9  1   
 10   6  10  1   
 11   6  28  1   
 12   7  11  ar  
 13   7  29  1   
 14   8  12  ar  
 15   8  30  1   
 16   9  13  1   
 17   9  14  1   
 18   9  31  1   
 19  10  15  1   
 20  10  32  1   
 21  10  33  1   
 22  11  16  ar  
 23  11  17  1   
 24  12  16  ar  
 25  12  34  1   
 26  13  15  1   
 27  13  35  1   
 28  13  36  1   
 29  14  18  1   
 30  14  37  1   
 31  14  38  1   
 32  16  19  1   
 33  17  39  1   
 34  17  40  1   
 35  17  41  1   
 36  18  20  ar  
 37  18  21  ar  
 38  19  22  1   
 39  20  23  ar  
 40  20  42  1   
 41  21  24  ar  
 42  21  43  1   
 43  22  25  1   
 44  22  44  1   
 45  22  45  1   
 46  23  26  ar  
 47  23  46  1   
 48  24  26  ar  
 49  24  47  1   
 50  25  48  1   
 51  25  49  1   
 52  25  50  1   
@<TRIPOS>SUBSTRUCTURE
  1 ****  14 GROUP 4 **** **** 0

# MOE 2024.06 (io_trps.svl 2023.06)
