@<TRIPOS>MOLECULE
NONAME
48 50 1 0 0 
SMALL
USER_CHARGES


@<TRIPOS>ATOM
  1 S        0.0630    -0.0440     1.9380 S.o2  1 <1>   1.4470 
  2 O       -0.5680    -1.1410     2.6390 O.2   1 <1>  -0.6500 
  3 O        0.4680     1.1310     2.6800 O.2   1 <1>  -0.6500 
  4 N       -1.0150     0.4800     0.7400 N.am  1 <1>  -0.8490 
  5 C        1.4650    -0.6890     0.9820 C.ar  1 <1>  -0.0090 
  6 C       -2.3690     0.6680     1.2860 C.3   1 <1>   0.1960 
  7 C       -0.5510     1.6990     0.0710 C.3   1 <1>   0.1960 
  8 C        2.7730    -0.3400     1.2970 C.ar  1 <1>  -0.1500 
  9 C        1.2650    -1.5580    -0.0870 C.ar  1 <1>  -0.1500 
 10 C       -3.4100     0.9940     0.1860 C.3   1 <1>   0.0000 
 11 C       -1.4820     2.0510    -1.0910 C.3   1 <1>  -0.1600 
 12 C        3.8280    -0.8430     0.5590 C.ar  1 <1>   0.1900 
 13 C        2.3260    -2.0600    -0.8240 C.ar  1 <1>  -0.1500 
 14 C       -4.7890     1.1940     0.8480 C.3   1 <1>   0.2000 
 15 C       -2.9290     2.2280    -0.6120 C.3   1 <1>  -0.1600 
 16 C       -3.6410    -0.2310    -0.7170 C.3   1 <1>  -0.1600 
 17 F        5.0240    -0.4550     0.9240 F     1 <1>  -0.1900 
 18 C        3.6320    -1.7130    -0.5180 C.ar  1 <1>   0.0830 
 19 O       -5.6390     1.8730    -0.0330 O.3   1 <1>  -0.5600 
 20 C       -5.3380    -0.2230     1.0580 C.3   1 <1>  -0.1600 
 21 C       -4.6480    -1.1190     0.0200 C.3   1 <1>  -0.1600 
 22 O        4.5870    -2.2700    -1.3140 O.3   1 <1>  -0.3630 
 23 C       -6.6950     2.5530     0.5690 C.3   1 <1>   0.0400 
 24 C        5.9690    -2.0660    -1.1180 C.3   1 <1>   0.0400 
 25 H       -2.6730    -0.2290     1.7970 H     1 <1>   0.0800 
 26 H       -2.3490     1.4650     2.0120 H     1 <1>   0.0800 
 27 H       -0.5220     2.5170     0.7740 H     1 <1>   0.0800 
 28 H        0.4440     1.5490    -0.3120 H     1 <1>   0.0800 
 29 H        2.9710     0.3260     2.1190 H     1 <1>   0.1500 
 30 H        0.2580    -1.8450    -0.3450 H     1 <1>   0.1500 
 31 H       -1.1440     2.9620    -1.5530 H     1 <1>   0.0800 
 32 H       -1.4310     1.2720    -1.8310 H     1 <1>   0.0800 
 33 H        2.1440    -2.7290    -1.6460 H     1 <1>   0.1500 
 34 H       -4.7140     1.7530     1.7660 H     1 <1>   0.0800 
 35 H       -3.5710     2.4000    -1.4590 H     1 <1>   0.0800 
 36 H       -2.9880     3.0980     0.0190 H     1 <1>   0.0800 
 37 H       -4.0870     0.0910    -1.6420 H     1 <1>   0.0800 
 38 H       -2.7310    -0.7600    -0.9430 H     1 <1>   0.0800 
 39 H       -5.0730    -0.5620     2.0440 H     1 <1>   0.0800 
 40 H       -6.4080    -0.2600     0.9610 H     1 <1>   0.0800 
 41 H       -4.1390    -1.9290     0.5140 H     1 <1>   0.0800 
 42 H       -5.3630    -1.5280    -0.6730 H     1 <1>   0.0800 
 43 H       -7.2870     3.0030    -0.2080 H     1 <1>   0.0800 
 44 H       -6.3000     3.3200     1.2130 H     1 <1>   0.0800 
 45 H       -7.2990     1.8610     1.1290 H     1 <1>   0.0800 
 46 H        6.4990    -2.6340    -1.8610 H     1 <1>   0.0800 
 47 H        6.2380    -2.4110    -0.1360 H     1 <1>   0.0800 
 48 H        6.1890    -1.0200    -1.2340 H     1 <1>   0.0800 
@<TRIPOS>BOND
  1   1   2  2   
  2   1   3  2   
  3   1   4  am  
  4   1   5  1   
  5   4   6  1   
  6   4   7  1   
  7   5   8  ar  
  8   5   9  ar  
  9   6  10  1   
 10   6  25  1   
 11   6  26  1   
 12   7  11  1   
 13   7  27  1   
 14   7  28  1   
 15   8  12  ar  
 16   8  29  1   
 17   9  13  ar  
 18   9  30  1   
 19  10  14  1   
 20  10  15  1   
 21  10  16  1   
 22  11  15  1   
 23  11  31  1   
 24  11  32  1   
 25  12  17  1   
 26  12  18  ar  
 27  13  18  ar  
 28  13  33  1   
 29  14  19  1   
 30  14  20  1   
 31  14  34  1   
 32  15  35  1   
 33  15  36  1   
 34  16  21  1   
 35  16  37  1   
 36  16  38  1   
 37  18  22  1   
 38  19  23  1   
 39  20  21  1   
 40  20  39  1   
 41  20  40  1   
 42  21  41  1   
 43  21  42  1   
 44  22  24  1   
 45  23  43  1   
 46  23  44  1   
 47  23  45  1   
 48  24  46  1   
 49  24  47  1   
 50  24  48  1   
@<TRIPOS>SUBSTRUCTURE
  1 ****   4 GROUP 4 **** **** 0

# MOE 2024.06 (io_trps.svl 2023.06)
