@<TRIPOS>MOLECULE
NONAME
55 57 1 0 0 
SMALL
USER_CHARGES


@<TRIPOS>ATOM
  1 S        0.8110     0.0810    -0.0240 S.3   1 <1>  -0.4600 
  2 C        0.5620    -1.7130     0.1270 C.3   1 <1>   0.2140 
  3 C        2.5630     0.3080     0.3490 C.3   1 <1>   0.0700 
  4 C       -0.8680    -2.0390    -0.2820 C.ar  1 <1>  -0.1440 
  5 C        2.7780     1.8140     0.5090 C.3   1 <1>  -0.1600 
  6 C       -1.9310    -1.9750     0.6160 C.ar  1 <1>  -0.1430 
  7 C       -1.1070    -2.4180    -1.5950 C.ar  1 <1>  -0.1500 
  8 C        4.2620     2.1750     0.4840 C.3   1 <1>   0.2090 
  9 C       -3.2090    -2.2980     0.1850 C.ar  1 <1>  -0.1500 
 10 C       -1.7330    -1.5530     2.0650 C.3   1 <1>  -0.0960 
 11 C       -2.3850    -2.7370    -2.0180 C.ar  1 <1>  -0.1500 
 12 N        4.4220     3.6290     0.7180 N.pl3 1 <1>  -0.8690 
 13 C       -3.4380    -2.6780    -1.1250 C.ar  1 <1>  -0.1500 
 14 C        4.1800     4.7040    -0.0400 C.ar  1 <1>   0.7710 
 15 N        4.5080     5.8660     0.4820 N.ar  1 <1>  -0.6200 
 16 N        3.6280     4.5750    -1.2580 N.ar  1 <1>  -0.1790 
 17 C        4.2970     6.9530    -0.2400 C.ar  1 <1>   0.4100 
 18 C        3.3700     5.6640    -2.0210 C.ar  1 <1>   0.2110 
 19 N        4.6720     8.1470     0.2910 N.pl3 1 <1>  -0.8380 
 20 C        3.7020     6.8750    -1.5160 C.ar  1 <1>  -0.1500 
 21 C        5.1290     9.3300    -0.5100 C.3   1 <1>   0.2090 
 22 C        4.7610     8.3800     1.7660 C.3   1 <1>   0.2090 
 23 C        4.2910    10.5700    -0.1570 C.3   1 <1>   0.2000 
 24 C        3.9190     9.6060     2.1440 C.3   1 <1>  -0.1600 
 25 O        4.7890    11.6750    -0.8250 O.3   1 <1>  -0.6800 
 26 C        4.3190    10.8610     1.3480 C.3   1 <1>  -0.1600 
 27 H        0.7620    -1.9880     1.1460 H     1 <1>   0.0800 
 28 H        1.2710    -2.1920    -0.5230 H     1 <1>   0.0800 
 29 H        3.1150    -0.1020    -0.4790 H     1 <1>   0.0800 
 30 H        2.7840    -0.2300     1.2550 H     1 <1>   0.0800 
 31 H        2.3450     2.1230     1.4450 H     1 <1>   0.0800 
 32 H        2.2640     2.3180    -0.2880 H     1 <1>   0.0800 
 33 H       -0.2970    -2.4640    -2.3010 H     1 <1>   0.1500 
 34 H        4.7050     1.9000    -0.4600 H     1 <1>   0.0800 
 35 H        4.7800     1.6370     1.2620 H     1 <1>   0.0800 
 36 H       -4.0390    -2.2530     0.8670 H     1 <1>   0.1500 
 37 H       -1.2340    -0.6010     2.1080 H     1 <1>   0.0800 
 38 H       -1.1440    -2.2860     2.5860 H     1 <1>   0.0800 
 39 H       -2.6760    -1.4560     2.5700 H     1 <1>   0.0800 
 40 H       -2.5590    -3.0280    -3.0380 H     1 <1>   0.1500 
 41 H        4.8200     3.8630     1.6360 H     1 <1>   0.4000 
 42 H       -4.4330    -2.9250    -1.4490 H     1 <1>   0.1500 
 43 H        3.3970     3.6300    -1.5440 H     1 <1>   0.4570 
 44 H        2.9090     5.5370    -2.9880 H     1 <1>   0.1500 
 45 H        3.5050     7.7780    -2.0610 H     1 <1>   0.1500 
 46 H        5.0650     9.1400    -1.5650 H     1 <1>   0.0800 
 47 H        6.1610     9.5220    -0.2710 H     1 <1>   0.0800 
 48 H        5.7910     8.5410     2.0380 H     1 <1>   0.0800 
 49 H        4.4020     7.5270     2.3150 H     1 <1>   0.0800 
 50 H        3.2790    10.4200    -0.4910 H     1 <1>   0.0800 
 51 H        4.0290     9.7990     3.1960 H     1 <1>   0.0800 
 52 H        2.8830     9.3780     1.9630 H     1 <1>   0.0800 
 53 H        5.6060    11.9950    -0.3980 H     1 <1>   0.4000 
 54 H        3.6350    11.6620     1.5730 H     1 <1>   0.0800 
 55 H        5.3100    11.1560     1.6440 H     1 <1>   0.0800 
@<TRIPOS>BOND
  1   1   2  1   
  2   1   3  1   
  3   2   4  1   
  4   2  27  1   
  5   2  28  1   
  6   3   5  1   
  7   3  29  1   
  8   3  30  1   
  9   4   6  ar  
 10   4   7  ar  
 11   5   8  1   
 12   5  31  1   
 13   5  32  1   
 14   6   9  ar  
 15   6  10  1   
 16   7  11  ar  
 17   7  33  1   
 18   8  12  1   
 19   8  34  1   
 20   8  35  1   
 21   9  13  ar  
 22   9  36  1   
 23  10  37  1   
 24  10  38  1   
 25  10  39  1   
 26  11  13  ar  
 27  11  40  1   
 28  12  14  1   
 29  12  41  1   
 30  13  42  1   
 31  14  15  ar  
 32  14  16  ar  
 33  15  17  ar  
 34  16  18  ar  
 35  16  43  1   
 36  17  19  1   
 37  17  20  ar  
 38  18  20  ar  
 39  18  44  1   
 40  19  21  1   
 41  19  22  1   
 42  20  45  1   
 43  21  23  1   
 44  21  46  1   
 45  21  47  1   
 46  22  24  1   
 47  22  48  1   
 48  22  49  1   
 49  23  25  1   
 50  23  26  1   
 51  23  50  1   
 52  24  26  1   
 53  24  51  1   
 54  24  52  1   
 55  25  53  1   
 56  26  54  1   
 57  26  55  1   
@<TRIPOS>SUBSTRUCTURE
  1 ****   5 GROUP 4 **** **** 0

# MOE 2024.06 (io_trps.svl 2023.06)
