@<TRIPOS>MOLECULE
NONAME
39 40 1 0 0 
SMALL
USER_CHARGES


@<TRIPOS>ATOM
  1 O        0.7340     0.6910     0.2870 O.2   1 <1>  -0.5700 
  2 C        1.2590     1.6970    -0.1080 C.2   1 <1>   0.5690 
  3 N        0.6820     2.9010    -0.1680 N.am  1 <1>  -0.7300 
  4 C        2.6840     1.7840    -0.5780 C.3   1 <1>  -0.0990 
  5 C        1.5760     3.9880    -0.6120 C.3   1 <1>   0.2810 
  6 C        2.9620     3.3000    -0.5650 C.3   1 <1>  -0.1600 
  7 C        1.4480     5.2900     0.2090 C.2   1 <1>   0.5690 
  8 O        0.3660     5.5760     0.6670 O.2   1 <1>  -0.5700 
  9 N        2.5560     6.0870     0.3680 N.am  1 <1>  -0.4940 
 10 C        2.6860     7.3220     1.0510 C.2   1 <1>  -0.0880 
 11 N        3.8550     8.0040     1.2340 N.pl3 1 <1>   0.3140 
 12 C        1.7220     8.0660     1.6430 C.2   1 <1>  -0.1500 
 13 N        3.6500     9.1520     1.9220 N.2   1 <1>  -0.7070 
 14 C        5.2340     7.6210     0.8110 C.3   1 <1>   0.1760 
 15 C        2.3760     9.1760     2.1590 C.2   1 <1>   0.1390 
 16 C        5.2980     7.3970    -0.7200 C.3   1 <1>  -0.1600 
 17 C        5.7130     6.4140     1.6500 C.3   1 <1>  -0.1600 
 18 C        6.5660     7.9870    -1.3540 C.3   1 <1>  -0.2400 
 19 C        7.1750     6.0160     1.4050 C.3   1 <1>  -0.2400 
 20 H       -0.2340     3.1130     0.2410 H     1 <1>   0.3700 
 21 H        2.7450     1.3800    -1.5720 H     1 <1>   0.0800 
 22 H        3.3370     1.2440     0.0820 H     1 <1>   0.0800 
 23 H        1.3240     4.2180    -1.6330 H     1 <1>   0.0800 
 24 H        3.5870     3.6020    -1.3870 H     1 <1>   0.0800 
 25 H        3.4550     3.5420     0.3610 H     1 <1>   0.0800 
 26 H        3.4120     5.7380    -0.0590 H     1 <1>   0.3700 
 27 H        0.6690     7.8640     1.7140 H     1 <1>   0.1500 
 28 H        5.8600     8.4620     1.0540 H     1 <1>   0.0800 
 29 H        1.8880     9.9720     2.6960 H     1 <1>   0.1500 
 30 H        4.4570     7.8830    -1.1870 H     1 <1>   0.0800 
 31 H        5.2450     6.3480    -0.9480 H     1 <1>   0.0800 
 32 H        5.0870     5.5600     1.4650 H     1 <1>   0.0800 
 33 H        5.6100     6.6740     2.6910 H     1 <1>   0.0800 
 34 H        6.6100     9.0490    -1.1810 H     1 <1>   0.0800 
 35 H        6.5580     7.8210    -2.4170 H     1 <1>   0.0800 
 36 H        7.4550     7.5390    -0.9500 H     1 <1>   0.0800 
 37 H        7.3100     5.6270     0.4120 H     1 <1>   0.0800 
 38 H        7.4660     5.2520     2.1050 H     1 <1>   0.0800 
 39 H        7.8240     6.8630     1.5440 H     1 <1>   0.0800 
@<TRIPOS>BOND
  1   1   2  2   
  2   2   3  am  
  3   2   4  1   
  4   3   5  1   
  5   3  20  1   
  6   4   6  1   
  7   4  21  1   
  8   4  22  1   
  9   5   6  1   
 10   5   7  1   
 11   5  23  1   
 12   6  24  1   
 13   6  25  1   
 14   7   8  2   
 15   7   9  am  
 16   9  10  1   
 17   9  26  1   
 18  10  11  1   
 19  10  12  2   
 20  11  13  1   
 21  11  14  1   
 22  12  15  1   
 23  12  27  1   
 24  13  15  2   
 25  14  16  1   
 26  14  17  1   
 27  14  28  1   
 28  15  29  1   
 29  16  18  1   
 30  16  30  1   
 31  16  31  1   
 32  17  19  1   
 33  17  32  1   
 34  17  33  1   
 35  18  34  1   
 36  18  35  1   
 37  18  36  1   
 38  19  37  1   
 39  19  38  1   
 40  19  39  1   
@<TRIPOS>SUBSTRUCTURE
  1 ****   9 GROUP 4 **** **** 0

# MOE 2024.06 (io_trps.svl 2023.06)
