@<TRIPOS>MOLECULE
NONAME
49 52 1 0 0 
SMALL
USER_CHARGES


@<TRIPOS>ATOM
  1 F       -2.3750    -1.6820    -1.2960 F     1 <1>  -0.1900 
  2 C       -3.1690    -0.8430    -0.6920 C.ar  1 <1>   0.1900 
  3 C       -3.5660    -1.1130     0.6040 C.ar  1 <1>  -0.1500 
  4 C       -3.5870     0.2870    -1.3680 C.ar  1 <1>  -0.1500 
  5 C       -4.4240    -0.2270     1.2320 C.ar  1 <1>  -0.1500 
  6 C       -4.4440     1.1630    -0.7250 C.ar  1 <1>  -0.1500 
  7 C       -4.8930     0.9110     0.5720 C.ar  1 <1>   0.0540 
  8 C       -5.8410     1.7990     1.2040 C.2   1 <1>   0.2350 
  9 N       -5.5890     3.0420     1.5020 N.2   1 <1>  -0.7070 
 10 C       -7.1500     1.4590     1.5580 C.2   1 <1>  -0.1810 
 11 N       -6.7040     3.5100     2.0850 N.pl3 1 <1>   0.3000 
 12 C       -7.6680     2.5690     2.1270 C.2   1 <1>  -0.3020 
 13 C       -7.7960     0.1150     1.3100 C.3   1 <1>   0.5240 
 14 N       -7.9220    -0.0510    -0.1670 N.4   1 <1>  -0.9590 
 15 C       -9.2980     0.0690    -0.7310 C.3   1 <1>   0.4230 
 16 C       -7.2470    -1.3020    -0.6330 C.3   1 <1>   0.2630 
 17 C      -10.2980    -0.9500    -0.1870 C.3   1 <1>  -0.1600 
 18 C       -9.9470     1.4210    -0.4600 C.3   1 <1>  -0.1600 
 19 C      -11.6700    -0.3510    -0.5310 C.3   1 <1>  -0.0800 
 20 C      -11.4480     1.1780    -0.6580 C.3   1 <1>  -0.0800 
 21 C      -12.7890    -0.7930     0.4380 C.3   1 <1>   0.1400 
 22 C      -12.3230     2.0300     0.2840 C.3   1 <1>  -0.0990 
 23 N      -13.9060     0.1680     0.3770 N.am  1 <1>  -0.7300 
 24 C      -13.7410     1.5050     0.3130 C.2   1 <1>   0.5690 
 25 O      -14.6760     2.2590     0.2890 O.2   1 <1>  -0.5700 
 26 H       -3.1980    -1.9920     1.1050 H     1 <1>   0.1500 
 27 H       -3.2370     0.4760    -2.3680 H     1 <1>   0.1500 
 28 H       -4.7230    -0.4090     2.2500 H     1 <1>   0.1500 
 29 H       -4.7650     2.0630    -1.2240 H     1 <1>   0.1500 
 30 H       -6.7730     4.4750     2.4400 H     1 <1>   0.2700 
 31 H       -8.6380     2.7600     2.5510 H     1 <1>   0.1500 
 32 H       -8.7610     0.0830     1.7860 H     1 <1>   0.0800 
 33 H       -7.1770    -0.6620     1.7290 H     1 <1>   0.0800 
 34 H       -7.3890     0.7450    -0.5460 H     1 <1>   0.4500 
 35 H       -9.2510    -0.0560    -1.8020 H     1 <1>   0.0800 
 36 H       -7.7420    -2.1710    -0.2310 H     1 <1>   0.0800 
 37 H       -6.2160    -1.3140    -0.3170 H     1 <1>   0.0800 
 38 H       -7.2700    -1.3600    -1.7100 H     1 <1>   0.0800 
 39 H      -10.1760    -1.9140    -0.6480 H     1 <1>   0.0800 
 40 H      -10.2110    -1.0460     0.8800 H     1 <1>   0.0800 
 41 H       -9.7760     1.7360     0.5510 H     1 <1>   0.0800 
 42 H       -9.5850     2.1770    -1.1350 H     1 <1>   0.0800 
 43 H      -11.9480    -0.7110    -1.5090 H     1 <1>   0.0800 
 44 H      -11.7100     1.4520    -1.6680 H     1 <1>   0.0800 
 45 H      -12.4270    -0.8210     1.4510 H     1 <1>   0.0800 
 46 H      -13.1410    -1.7770     0.1740 H     1 <1>   0.0800 
 47 H      -12.3310     3.0550    -0.0400 H     1 <1>   0.0800 
 48 H      -11.9510     1.9970     1.2910 H     1 <1>   0.0800 
 49 H      -14.8670    -0.1820     0.4370 H     1 <1>   0.3700 
@<TRIPOS>BOND
  1   1   2  1   
  2   2   3  ar  
  3   2   4  ar  
  4   3   5  ar  
  5   3  26  1   
  6   4   6  ar  
  7   4  27  1   
  8   5   7  ar  
  9   5  28  1   
 10   6   7  ar  
 11   6  29  1   
 12   7   8  1   
 13   8   9  2   
 14   8  10  1   
 15   9  11  1   
 16  10  12  2   
 17  10  13  1   
 18  11  12  1   
 19  11  30  1   
 20  12  31  1   
 21  13  14  1   
 22  13  32  1   
 23  13  33  1   
 24  14  15  1   
 25  14  16  1   
 26  14  34  1   
 27  15  17  1   
 28  15  18  1   
 29  15  35  1   
 30  16  36  1   
 31  16  37  1   
 32  16  38  1   
 33  17  19  1   
 34  17  39  1   
 35  17  40  1   
 36  18  20  1   
 37  18  41  1   
 38  18  42  1   
 39  19  20  1   
 40  19  21  1   
 41  19  43  1   
 42  20  22  1   
 43  20  44  1   
 44  21  23  1   
 45  21  45  1   
 46  21  46  1   
 47  22  24  1   
 48  22  47  1   
 49  22  48  1   
 50  23  24  am  
 51  23  49  1   
 52  24  25  2   
@<TRIPOS>SUBSTRUCTURE
  1 ****  14 GROUP 4 **** **** 0

# MOE 2024.06 (io_trps.svl 2023.06)
