@<TRIPOS>MOLECULE
NONAME
58 62 1 0 0 
SMALL
USER_CHARGES


@<TRIPOS>ATOM
  1 O        0.2500     4.9180    -1.1250 O.2   1 <1>  -0.5700 
  2 C        0.4220     4.0490    -0.2880 C.2   1 <1>   0.5440 
  3 N       -0.6660     3.3020     0.1230 N.am  1 <1>  -0.6600 
  4 C        1.7460     3.8440     0.2580 C.ar  1 <1>   0.0860 
  5 C       -2.0010     3.4290    -0.5410 C.3   1 <1>   0.1400 
  6 C       -0.6720     2.5380     1.4110 C.3   1 <1>   0.1400 
  7 C        2.3900     2.5940     0.1950 C.ar  1 <1>   0.1000 
  8 C        2.4200     4.9090     0.8560 C.ar  1 <1>  -0.1500 
  9 C       -3.0020     4.1860     0.3620 C.3   1 <1>   0.1440 
 10 C       -2.0670     2.5170     2.0610 C.3   1 <1>  -0.1600 
 11 N        1.7850     1.5030    -0.4170 N.pl3 1 <1>  -0.8690 
 12 C        3.6540     2.4510     0.7630 C.ar  1 <1>  -0.1500 
 13 C        3.6780     4.7540     1.4030 C.ar  1 <1>  -0.1500 
 14 C       -4.4000     3.8450    -0.1270 C.ar  1 <1>   0.1670 
 15 C       -2.7960     3.8560     1.8650 C.3   1 <1>  -0.1600 
 16 C       -2.9420     5.7160     0.1160 C.3   1 <1>  -0.1600 
 17 C        2.5190     0.6690    -1.4190 C.3   1 <1>   0.3530 
 18 C        4.2960     3.5150     1.3610 C.ar  1 <1>  -0.1500 
 19 N       -5.0320     2.7100     0.0860 N.ar  1 <1>  -0.6200 
 20 C       -4.9420     4.8660    -0.8480 C.ar  1 <1>  -0.1430 
 21 C       -4.0000     6.0390    -0.9520 C.3   1 <1>  -0.0170 
 22 C        2.5910    -0.8160    -1.0530 C.ar  1 <1>   0.1670 
 23 C       -6.2430     2.6490    -0.4470 C.ar  1 <1>   0.4770 
 24 C       -6.2040     4.6930    -1.3580 C.ar  1 <1>   0.1600 
 25 N        2.8440    -1.6440    -2.0600 N.ar  1 <1>  -0.6200 
 26 C        2.4110    -1.2410     0.2590 C.ar  1 <1>  -0.1500 
 27 N       -6.8710     3.5740    -1.1600 N.ar  1 <1>  -0.6200 
 28 C       -6.9990     1.3620    -0.2210 C.3   1 <1>  -0.0970 
 29 C        2.9130    -2.9290    -1.7520 C.ar  1 <1>   0.1600 
 30 C        2.4860    -2.5830     0.5650 C.ar  1 <1>  -0.1500 
 31 C        2.7450    -3.4440    -0.4790 C.ar  1 <1>  -0.1500 
 32 H       -2.3740     2.4370    -0.7290 H     1 <1>   0.0800 
 33 H       -1.9140     3.9200    -1.4940 H     1 <1>   0.0800 
 34 H        0.0200     3.0000     2.0940 H     1 <1>   0.0800 
 35 H       -0.3430     1.5280     1.2360 H     1 <1>   0.0800 
 36 H        1.9400     5.8720     0.8840 H     1 <1>   0.1500 
 37 H       -1.9660     2.3020     3.1100 H     1 <1>   0.0800 
 38 H       -2.6530     1.7240     1.6270 H     1 <1>   0.0800 
 39 H        0.8110     1.6670    -0.7130 H     1 <1>   0.4000 
 40 H        4.1360     1.4900     0.7380 H     1 <1>   0.1500 
 41 H        4.1790     5.5900     1.8610 H     1 <1>   0.1500 
 42 H       -3.7460     3.8400     2.3710 H     1 <1>   0.0800 
 43 H       -2.1940     4.6220     2.3220 H     1 <1>   0.0800 
 44 H       -1.9610     6.0450    -0.1790 H     1 <1>   0.0800 
 45 H       -3.2170     6.2360     1.0170 H     1 <1>   0.0800 
 46 H        3.5210     1.0400    -1.5470 H     1 <1>   0.0800 
 47 H        2.0210     0.7600    -2.3690 H     1 <1>   0.0800 
 48 H        5.2740     3.3880     1.7920 H     1 <1>   0.1500 
 49 H       -3.5550     6.0630    -1.9310 H     1 <1>   0.0800 
 50 H       -4.4960     6.9730    -0.7490 H     1 <1>   0.0800 
 51 H       -6.6740     5.4730    -1.9340 H     1 <1>   0.1500 
 52 H        2.2130    -0.5290     1.0390 H     1 <1>   0.1500 
 53 H       -6.7150     0.9290     0.7200 H     1 <1>   0.0800 
 54 H       -6.7700     0.6740    -1.0110 H     1 <1>   0.0800 
 55 H       -8.0570     1.5520    -0.2120 H     1 <1>   0.0800 
 56 H        3.1160    -3.6120    -2.5600 H     1 <1>   0.1500 
 57 H        2.3490    -2.9390     1.5710 H     1 <1>   0.1500 
 58 H        2.8160    -4.5030    -0.3100 H     1 <1>   0.1500 
@<TRIPOS>BOND
  1   1   2  2   
  2   2   3  am  
  3   2   4  1   
  4   3   5  1   
  5   3   6  1   
  6   4   7  ar  
  7   4   8  ar  
  8   5   9  1   
  9   5  32  1   
 10   5  33  1   
 11   6  10  1   
 12   6  34  1   
 13   6  35  1   
 14   7  11  1   
 15   7  12  ar  
 16   8  13  ar  
 17   8  36  1   
 18   9  14  1   
 19   9  15  1   
 20   9  16  1   
 21  10  15  1   
 22  10  37  1   
 23  10  38  1   
 24  11  17  1   
 25  11  39  1   
 26  12  18  ar  
 27  12  40  1   
 28  13  18  ar  
 29  13  41  1   
 30  14  19  ar  
 31  14  20  ar  
 32  15  42  1   
 33  15  43  1   
 34  16  21  1   
 35  16  44  1   
 36  16  45  1   
 37  17  22  1   
 38  17  46  1   
 39  17  47  1   
 40  18  48  1   
 41  19  23  ar  
 42  20  21  1   
 43  20  24  ar  
 44  21  49  1   
 45  21  50  1   
 46  22  25  ar  
 47  22  26  ar  
 48  23  27  ar  
 49  23  28  1   
 50  24  27  ar  
 51  24  51  1   
 52  25  29  ar  
 53  26  30  ar  
 54  26  52  1   
 55  28  53  1   
 56  28  54  1   
 57  28  55  1   
 58  29  31  ar  
 59  29  56  1   
 60  30  31  ar  
 61  30  57  1   
 62  31  58  1   
@<TRIPOS>SUBSTRUCTURE
  1 ****   3 GROUP 4 **** **** 0

# MOE 2024.06 (io_trps.svl 2023.06)
