@<TRIPOS>MOLECULE
NONAME
47 50 1 0 0 
SMALL
USER_CHARGES


@<TRIPOS>ATOM
  1 CL      -0.5460    -0.0820    -0.5980 Cl    1 <1>  -0.1770 
  2 C       -1.1020    -1.6220     0.0140 C.ar  1 <1>   0.1770 
  3 C       -0.5440    -2.7830    -0.4590 C.ar  1 <1>  -0.1500 
  4 C       -2.1130    -1.6250     0.9820 C.ar  1 <1>  -0.1500 
  5 C       -1.0070    -4.0040     0.0450 C.ar  1 <1>   0.0000 
  6 C       -2.5730    -2.8200     1.4840 C.ar  1 <1>  -0.1500 
  7 C       -2.0120    -4.0100     1.0080 C.ar  1 <1>  -0.1520 
  8 C       -0.6800    -5.3520    -0.1970 C.2   1 <1>  -0.1810 
  9 N       -2.2780    -5.3120     1.3320 N.pl3 1 <1>   0.0330 
 10 C       -1.4730    -6.1390     0.5880 C.2   1 <1>  -0.2370 
 11 C        0.3890    -5.8050    -1.1730 C.3   1 <1>  -0.0590 
 12 C       -1.5420    -7.5710     0.7130 C.2   1 <1>   0.7150 
 13 O       -0.5690    -8.2040     1.0730 O.2   1 <1>  -0.5700 
 14 N       -2.7110    -8.2340     0.4350 N.am  1 <1>  -0.6600 
 15 C       -3.8200    -7.6560    -0.3700 C.3   1 <1>   0.1400 
 16 C       -2.7990    -9.7190     0.4200 C.3   1 <1>   0.1400 
 17 C       -4.8540    -8.7760    -0.4530 C.3   1 <1>   0.2000 
 18 C       -3.9980   -10.0440    -0.4780 C.3   1 <1>  -0.0800 
 19 O       -5.6080    -8.7460     0.7110 O.3   1 <1>  -0.6800 
 20 C       -4.7250   -11.3490    -0.1010 C.3   1 <1>   0.0210 
 21 C       -3.7700   -12.5270    -0.1240 C.2   1 <1>   0.1080 
 22 N       -3.0660   -12.8440    -1.1660 N.2   1 <1>  -0.7070 
 23 C       -3.5320   -13.3780     0.9490 C.2   1 <1>  -0.1500 
 24 N       -2.3520   -13.9180    -0.7810 N.pl3 1 <1>   0.3000 
 25 C       -2.6160   -14.2610     0.4970 C.2   1 <1>  -0.3320 
 26 C       -1.9670   -15.4270     1.2190 C.3   1 <1>  -0.0600 
 27 H        0.2320    -2.7660    -1.2000 H     1 <1>   0.1500 
 28 H       -2.5140    -0.6860     1.3180 H     1 <1>   0.1500 
 29 H       -3.3480    -2.8480     2.2300 H     1 <1>   0.1500 
 30 H       -2.9420    -5.6240     2.0470 H     1 <1>   0.2700 
 31 H        1.3420    -5.4010    -0.8820 H     1 <1>   0.0800 
 32 H        0.1510    -5.4640    -2.1640 H     1 <1>   0.0800 
 33 H        0.4630    -6.8780    -1.1830 H     1 <1>   0.0800 
 34 H       -4.2330    -6.7710     0.0810 H     1 <1>   0.0800 
 35 H       -3.4510    -7.4210    -1.3530 H     1 <1>   0.0800 
 36 H       -1.8950   -10.1600     0.0310 H     1 <1>   0.0800 
 37 H       -2.9590   -10.0730     1.4240 H     1 <1>   0.0800 
 38 H       -5.5160    -8.6840    -1.2970 H     1 <1>   0.0800 
 39 H       -3.6180   -10.1590    -1.4790 H     1 <1>   0.0800 
 40 H       -4.9970    -8.7460     1.4750 H     1 <1>   0.4000 
 41 H       -5.5160   -11.5340    -0.8040 H     1 <1>   0.0800 
 42 H       -5.1610   -11.2730     0.8780 H     1 <1>   0.0800 
 43 H       -3.9920   -13.3230     1.9200 H     1 <1>   0.1500 
 44 H       -1.6950   -14.3920    -1.4120 H     1 <1>   0.2700 
 45 H       -2.3410   -15.4950     2.2240 H     1 <1>   0.0800 
 46 H       -0.9000   -15.2930     1.2590 H     1 <1>   0.0800 
 47 H       -2.1860   -16.3490     0.7090 H     1 <1>   0.0800 
@<TRIPOS>BOND
  1   1   2  1   
  2   2   3  ar  
  3   2   4  ar  
  4   3   5  ar  
  5   3  27  1   
  6   4   6  ar  
  7   4  28  1   
  8   5   7  ar  
  9   5   8  1   
 10   6   7  ar  
 11   6  29  1   
 12   7   9  1   
 13   8  10  2   
 14   8  11  1   
 15   9  10  1   
 16   9  30  1   
 17  10  12  1   
 18  11  31  1   
 19  11  32  1   
 20  11  33  1   
 21  12  13  2   
 22  12  14  am  
 23  14  15  1   
 24  14  16  1   
 25  15  17  1   
 26  15  34  1   
 27  15  35  1   
 28  16  18  1   
 29  16  36  1   
 30  16  37  1   
 31  17  18  1   
 32  17  19  1   
 33  17  38  1   
 34  18  20  1   
 35  18  39  1   
 36  19  40  1   
 37  20  21  1   
 38  20  41  1   
 39  20  42  1   
 40  21  22  2   
 41  21  23  1   
 42  22  24  1   
 43  23  25  2   
 44  23  43  1   
 45  24  25  1   
 46  24  44  1   
 47  25  26  1   
 48  26  45  1   
 49  26  46  1   
 50  26  47  1   
@<TRIPOS>SUBSTRUCTURE
  1 ****  14 GROUP 4 **** **** 0

# MOE 2024.06 (io_trps.svl 2023.06)
