@<TRIPOS>MOLECULE
NONAME
37 38 1 0 0 
SMALL
USER_CHARGES


@<TRIPOS>ATOM
  1 O        4.0950     1.3850    -1.7840 O.3   1 <1>  -0.0190 
  2 N        4.1140     2.5760    -1.2580 N.2   1 <1>  -0.4100 
  3 C        3.5590     0.5090    -0.9780 C.2   1 <1>  -0.0100 
  4 C        3.5790     2.4630    -0.0900 C.2   1 <1>   0.1080 
  5 C        3.1980     1.1420     0.1490 C.2   1 <1>  -0.1500 
  6 C        3.4000     3.6290     0.8780 C.3   1 <1>   0.5240 
  7 N        3.3670     4.9110     0.1220 N.4   1 <1>  -0.9590 
  8 C        3.7280     6.0770     0.9520 C.3   1 <1>   0.5230 
  9 C        2.1140     5.0930    -0.6770 C.3   1 <1>   0.2630 
 10 C        3.8100     7.3000     0.0690 C.2   1 <1>  -0.3320 
 11 N        4.5600     7.4730    -1.0520 N.pl3 1 <1>   0.0480 
 12 C        3.1410     8.4570     0.2690 C.2   1 <1>   0.0770 
 13 C        4.2710     8.7360    -1.4440 C.2   1 <1>   0.0360 
 14 C        5.4400     6.5660    -1.8390 C.3   1 <1>   0.0960 
 15 N        3.4290     9.3520    -0.6840 N.2   1 <1>  -0.5650 
 16 C        6.6270     6.0090    -1.0500 C.3   1 <1>   0.1200 
 17 O        6.1850     5.0450    -0.1420 O.3   1 <1>  -0.5600 
 18 C        7.2280     4.3160     0.4320 C.3   1 <1>   0.0400 
 19 H        3.4810    -0.5190    -1.2870 H     1 <1>   0.1500 
 20 H        2.7300     0.7380     1.0290 H     1 <1>   0.1500 
 21 H        4.2360     3.6320     1.5570 H     1 <1>   0.0800 
 22 H        2.4930     3.5040     1.4440 H     1 <1>   0.0800 
 23 H        4.1670     4.8070    -0.5290 H     1 <1>   0.4500 
 24 H        4.6840     5.9140     1.4230 H     1 <1>   0.0800 
 25 H        2.9880     6.2330     1.7190 H     1 <1>   0.0800 
 26 H        1.2600     5.1840    -0.0250 H     1 <1>   0.0800 
 27 H        1.9640     4.2500    -1.3330 H     1 <1>   0.0800 
 28 H        2.1800     5.9840    -1.2800 H     1 <1>   0.0800 
 29 H        2.4540     8.7100     1.0610 H     1 <1>   0.1500 
 30 H        4.7070     9.1780    -2.3240 H     1 <1>   0.1500 
 31 H        5.8290     7.1270    -2.6700 H     1 <1>   0.0800 
 32 H        4.8560     5.7600    -2.2440 H     1 <1>   0.0800 
 33 H        7.1390     6.7930    -0.5160 H     1 <1>   0.0800 
 34 H        7.3140     5.5400    -1.7350 H     1 <1>   0.0800 
 35 H        6.8120     3.6130     1.1320 H     1 <1>   0.0800 
 36 H        7.8960     4.9870     0.9460 H     1 <1>   0.0800 
 37 H        7.7560     3.7790    -0.3380 H     1 <1>   0.0800 
@<TRIPOS>BOND
  1   1   2  1   
  2   1   3  1   
  3   2   4  2   
  4   3   5  2   
  5   3  19  1   
  6   4   5  1   
  7   4   6  1   
  8   5  20  1   
  9   6   7  1   
 10   6  21  1   
 11   6  22  1   
 12   7   8  1   
 13   7   9  1   
 14   7  23  1   
 15   8  10  1   
 16   8  24  1   
 17   8  25  1   
 18   9  26  1   
 19   9  27  1   
 20   9  28  1   
 21  10  11  1   
 22  10  12  2   
 23  11  13  1   
 24  11  14  1   
 25  12  15  1   
 26  12  29  1   
 27  13  15  2   
 28  13  30  1   
 29  14  16  1   
 30  14  31  1   
 31  14  32  1   
 32  16  17  1   
 33  16  33  1   
 34  16  34  1   
 35  17  18  1   
 36  18  35  1   
 37  18  36  1   
 38  18  37  1   
@<TRIPOS>SUBSTRUCTURE
  1 ****   7 GROUP 4 **** **** 0

# MOE 2024.06 (io_trps.svl 2023.06)
