@<TRIPOS>MOLECULE
NONAME
41 43 1 0 0 
SMALL
USER_CHARGES


@<TRIPOS>ATOM
  1 CL       0.9120    -2.7920    -3.0510 Cl    1 <1>  -0.1770 
  2 C        1.8280    -2.6680    -1.5660 C.ar  1 <1>   0.1770 
  3 C        1.1990    -2.7930    -0.3310 C.ar  1 <1>  -0.1440 
  4 C        3.1870    -2.4510    -1.6750 C.ar  1 <1>  -0.1500 
  5 C        1.9720    -2.7070     0.8290 C.ar  1 <1>  -0.1440 
  6 C       -0.3070    -3.0220    -0.2730 C.3   1 <1>   0.2840 
  7 C        3.9300    -2.3610    -0.5170 C.ar  1 <1>   0.1770 
  8 C        3.3390    -2.4880     0.7250 C.ar  1 <1>  -0.1500 
  9 C        1.3610    -2.8540     2.2180 C.3   1 <1>  -0.0960 
 10 N       -0.5730    -4.4690    -0.3300 N.am  1 <1>  -0.7300 
 11 CL       5.6490    -2.0830    -0.6230 Cl    1 <1>  -0.1770 
 12 C       -1.2310    -5.2140     0.6030 C.2   1 <1>   0.7160 
 13 O       -1.6940    -4.6500     1.5800 O.2   1 <1>  -0.5700 
 14 C       -1.3520    -6.6510     0.4090 C.2   1 <1>   0.2030 
 15 N       -0.8570    -7.3290    -0.6140 N.2   1 <1>  -0.7070 
 16 C       -2.0080    -7.5200     1.2750 C.2   1 <1>  -0.1500 
 17 N       -1.1960    -8.6030    -0.3970 N.pl3 1 <1>   0.3140 
 18 C       -1.8970    -8.7680     0.7500 C.2   1 <1>  -0.2370 
 19 C       -0.7870    -9.6440    -1.3490 C.3   1 <1>   0.0960 
 20 C       -2.4240    -9.9970     1.2670 C.2   1 <1>   0.7150 
 21 C       -0.0270   -10.7420    -0.6080 C.3   1 <1>   0.2000 
 22 O       -3.2460    -9.9740     2.1560 O.2   1 <1>  -0.5700 
 23 N       -2.0840   -11.2400     0.8390 N.am  1 <1>  -0.7300 
 24 O        0.7890   -11.4050    -1.5160 O.3   1 <1>  -0.6800 
 25 C       -0.9420   -11.7840     0.0530 C.3   1 <1>   0.1400 
 26 H        3.6560    -2.3550    -2.6370 H     1 <1>   0.1500 
 27 H       -0.8000    -2.5400    -1.0980 H     1 <1>   0.0800 
 28 H       -0.7210    -2.6030     0.6270 H     1 <1>   0.0800 
 29 H        3.9560    -2.4170     1.6020 H     1 <1>   0.1500 
 30 H        0.8360    -3.7900     2.2960 H     1 <1>   0.0800 
 31 H        0.6730    -2.0510     2.4100 H     1 <1>   0.0800 
 32 H        2.1200    -2.8360     2.9790 H     1 <1>   0.0800 
 33 H       -0.1630    -4.9860    -1.1120 H     1 <1>   0.3700 
 34 H       -2.5060    -7.2320     2.1850 H     1 <1>   0.1500 
 35 H       -0.1440    -9.1850    -2.0790 H     1 <1>   0.0800 
 36 H       -1.6620   -10.0330    -1.8340 H     1 <1>   0.0800 
 37 H        0.6280   -10.3040     0.1270 H     1 <1>   0.0800 
 38 H       -2.6220   -11.9560     1.3340 H     1 <1>   0.3700 
 39 H        0.2780   -11.7910    -2.2540 H     1 <1>   0.4000 
 40 H       -0.3420   -12.3940     0.7060 H     1 <1>   0.0800 
 41 H       -1.3520   -12.4200    -0.7120 H     1 <1>   0.0800 
@<TRIPOS>BOND
  1   1   2  1   
  2   2   3  ar  
  3   2   4  ar  
  4   3   5  ar  
  5   3   6  1   
  6   4   7  ar  
  7   4  26  1   
  8   5   8  ar  
  9   5   9  1   
 10   6  10  1   
 11   6  27  1   
 12   6  28  1   
 13   7   8  ar  
 14   7  11  1   
 15   8  29  1   
 16   9  30  1   
 17   9  31  1   
 18   9  32  1   
 19  10  12  am  
 20  10  33  1   
 21  12  13  2   
 22  12  14  1   
 23  14  15  2   
 24  14  16  1   
 25  15  17  1   
 26  16  18  2   
 27  16  34  1   
 28  17  18  1   
 29  17  19  1   
 30  18  20  1   
 31  19  21  1   
 32  19  35  1   
 33  19  36  1   
 34  20  22  2   
 35  20  23  am  
 36  21  24  1   
 37  21  25  1   
 38  21  37  1   
 39  23  25  1   
 40  23  38  1   
 41  24  39  1   
 42  25  40  1   
 43  25  41  1   
@<TRIPOS>SUBSTRUCTURE
  1 ****  14 GROUP 4 **** **** 0

# MOE 2024.06 (io_trps.svl 2023.06)
