@<TRIPOS>MOLECULE
NONAME
48 50 1 0 0 
SMALL
USER_CHARGES


@<TRIPOS>ATOM
  1 CL       1.7060     1.9030     2.9620 Cl    1 <1>  -0.1770 
  2 C        2.8440     2.1990     1.6730 C.ar  1 <1>   0.1770 
  3 C        4.0700     1.5630     1.6930 C.ar  1 <1>  -0.1500 
  4 C        2.5020     3.0620     0.6510 C.ar  1 <1>  -0.1500 
  5 C        4.9740     1.8020     0.6710 C.ar  1 <1>  -0.1500 
  6 C        3.4090     3.2960    -0.3690 C.ar  1 <1>  -0.1500 
  7 C        4.6530     2.6750    -0.3620 C.ar  1 <1>  -0.1430 
  8 C        5.6630     2.9370    -1.4830 C.3   1 <1>   0.1250 
  9 C        5.7200     4.4250    -1.8950 C.2   1 <1>   0.5690 
 10 C        5.3460     1.9820    -2.6490 C.3   1 <1>  -0.2400 
 11 O        5.6110     4.7060    -3.0660 O.2   1 <1>  -0.5700 
 12 N        5.9350     5.4280    -0.9730 N.am  1 <1>  -0.6600 
 13 C        6.5980     5.2340     0.3480 C.3   1 <1>   0.1400 
 14 C        5.5920     6.8400    -1.3030 C.3   1 <1>   0.1400 
 15 C        8.1310     5.2110     0.1860 C.3   1 <1>   0.3430 
 16 C        6.8350     7.7340    -1.3690 C.3   1 <1>  -0.1600 
 17 N        8.7210     6.4730    -0.3760 N.4   1 <1>  -0.9590 
 18 C        8.1350     6.9810    -1.6540 C.3   1 <1>   0.3430 
 19 C       10.2040     6.4280    -0.4570 C.3   1 <1>   0.5230 
 20 C       10.7120     7.7980    -0.0260 C.2   1 <1>   0.0060 
 21 N        9.9620     8.6720     0.5770 N.2   1 <1>  -0.5650 
 22 N       11.9830     8.2250    -0.2230 N.pl3 1 <1>   0.0330 
 23 C       10.7840     9.7200     0.7810 C.2   1 <1>   0.0770 
 24 C       12.0180     9.4630     0.2980 C.2   1 <1>  -0.3020 
 25 H        4.3060     0.8890     2.4960 H     1 <1>   0.1500 
 26 H        1.5390     3.5390     0.6540 H     1 <1>   0.1500 
 27 H        5.9230     1.2950     0.6850 H     1 <1>   0.1500 
 28 H        3.1350     3.9640    -1.1690 H     1 <1>   0.1500 
 29 H        6.6420     2.6810    -1.1280 H     1 <1>   0.0800 
 30 H        4.3770     2.2070    -3.0590 H     1 <1>   0.0800 
 31 H        5.3460     0.9620    -2.3100 H     1 <1>   0.0800 
 32 H        6.0780     2.0870    -3.4300 H     1 <1>   0.0800 
 33 H        6.2760     4.3100     0.7920 H     1 <1>   0.0800 
 34 H        6.3120     6.0220     1.0230 H     1 <1>   0.0800 
 35 H        4.9030     7.2220    -0.5690 H     1 <1>   0.0800 
 36 H        5.0840     6.8770    -2.2540 H     1 <1>   0.0800 
 37 H        8.3870     4.3830    -0.4530 H     1 <1>   0.0800 
 38 H        8.5670     5.0220     1.1540 H     1 <1>   0.0800 
 39 H        6.9270     8.3130    -0.4680 H     1 <1>   0.0800 
 40 H        6.6750     8.4390    -2.1660 H     1 <1>   0.0800 
 41 H        8.5890     7.2480     0.3040 H     1 <1>   0.4500 
 42 H        8.8250     7.6750    -2.1060 H     1 <1>   0.0800 
 43 H        7.9580     6.1740    -2.3490 H     1 <1>   0.0800 
 44 H       10.5230     6.1970    -1.4590 H     1 <1>   0.0800 
 45 H       10.5940     5.6850     0.2200 H     1 <1>   0.0800 
 46 H       12.7700     7.7380    -0.6660 H     1 <1>   0.2700 
 47 H       10.4430    10.6190     1.2720 H     1 <1>   0.1500 
 48 H       12.8960    10.0850     0.3020 H     1 <1>   0.1500 
@<TRIPOS>BOND
  1   1   2  1   
  2   2   3  ar  
  3   2   4  ar  
  4   3   5  ar  
  5   3  25  1   
  6   4   6  ar  
  7   4  26  1   
  8   5   7  ar  
  9   5  27  1   
 10   6   7  ar  
 11   6  28  1   
 12   7   8  1   
 13   8   9  1   
 14   8  10  1   
 15   8  29  1   
 16   9  11  2   
 17   9  12  am  
 18  10  30  1   
 19  10  31  1   
 20  10  32  1   
 21  12  13  1   
 22  12  14  1   
 23  13  15  1   
 24  13  33  1   
 25  13  34  1   
 26  14  16  1   
 27  14  35  1   
 28  14  36  1   
 29  15  17  1   
 30  15  37  1   
 31  15  38  1   
 32  16  18  1   
 33  16  39  1   
 34  16  40  1   
 35  17  18  1   
 36  17  19  1   
 37  17  41  1   
 38  18  42  1   
 39  18  43  1   
 40  19  20  1   
 41  19  44  1   
 42  19  45  1   
 43  20  21  2   
 44  20  22  1   
 45  21  23  1   
 46  22  24  1   
 47  22  46  1   
 48  23  24  2   
 49  23  47  1   
 50  24  48  1   
@<TRIPOS>SUBSTRUCTURE
  1 ****  13 GROUP 4 **** **** 0

# MOE 2024.06 (io_trps.svl 2023.06)
