@<TRIPOS>MOLECULE
NONAME
48 50 1 0 0 
SMALL
USER_CHARGES


@<TRIPOS>ATOM
  1 O        1.0170     3.0410    -0.7950 O.3   1 <1>  -0.0190 
  2 N        2.1040     2.9800    -1.4990 N.2   1 <1>  -0.4100 
  3 C        1.1030     2.3310     0.2970 C.2   1 <1>  -0.0400 
  4 C        2.8780     2.1520    -0.8930 C.2   1 <1>   0.1080 
  5 C        2.2870     1.7010     0.2840 C.2   1 <1>  -0.1500 
  6 C       -0.0160     2.3760     1.3230 C.3   1 <1>   0.0200 
  7 C        4.2440     1.7340    -1.3940 C.3   1 <1>  -0.0590 
  8 C       -0.2360     3.7870     1.9280 C.3   1 <1>  -0.0800 
  9 C       -0.9470     4.7470     0.9650 C.3   1 <1>   0.2000 
 10 C        1.0770     4.5120     2.2430 C.3   1 <1>   0.3430 
 11 O       -1.8380     5.5300     1.6880 O.3   1 <1>  -0.6800 
 12 C        0.1410     5.6480     0.3580 C.3   1 <1>   0.3430 
 13 N        1.4340     5.2370     0.9940 N.4   1 <1>  -0.9590 
 14 C        2.4250     6.3410     1.1790 C.3   1 <1>   0.3430 
 15 C        2.9660     6.8550    -0.1600 C.3   1 <1>   0.1200 
 16 O        3.8890     7.8450     0.1330 O.3   1 <1>  -0.5600 
 17 C        4.5230     8.4090    -0.9760 C.3   1 <1>   0.2630 
 18 C        5.5120     9.4490    -0.4820 C.ar  1 <1>  -0.1430 
 19 C        6.8780     9.2110    -0.5430 C.ar  1 <1>  -0.1500 
 20 C        5.0570    10.6530     0.0350 C.ar  1 <1>  -0.1500 
 21 C        7.7750    10.1650    -0.0970 C.ar  1 <1>  -0.1500 
 22 C        5.9540    11.6090     0.4800 C.ar  1 <1>  -0.1500 
 23 C        7.3140    11.3660     0.4140 C.ar  1 <1>  -0.1500 
 24 H        2.7220     1.0180     0.9930 H     1 <1>   0.1500 
 25 H       -0.9280     2.0190     0.8740 H     1 <1>   0.0800 
 26 H        0.2330     1.6930     2.1170 H     1 <1>   0.0800 
 27 H        5.0010     2.0120    -0.6840 H     1 <1>   0.0800 
 28 H        4.4560     2.2110    -2.3340 H     1 <1>   0.0800 
 29 H        4.2700     0.6690    -1.5370 H     1 <1>   0.0800 
 30 H       -0.8150     3.6600     2.8280 H     1 <1>   0.0800 
 31 H       -1.5100     4.2390     0.2000 H     1 <1>   0.0800 
 32 H        1.8530     3.8220     2.5370 H     1 <1>   0.0800 
 33 H        0.9130     5.2210     3.0390 H     1 <1>   0.0800 
 34 H       -1.4480     5.9290     2.4900 H     1 <1>   0.4000 
 35 H       -0.0840     6.6810     0.5690 H     1 <1>   0.0800 
 36 H        0.1930     5.5030    -0.7090 H     1 <1>   0.0800 
 37 H        1.8490     4.5300     0.3550 H     1 <1>   0.4500 
 38 H        1.9680     7.1590     1.7100 H     1 <1>   0.0800 
 39 H        3.2590     5.9810     1.7590 H     1 <1>   0.0800 
 40 H        2.1830     7.2860    -0.7580 H     1 <1>   0.0800 
 41 H        3.4670     6.0660    -0.6960 H     1 <1>   0.0800 
 42 H        5.0300     7.6330    -1.5220 H     1 <1>   0.0800 
 43 H        3.7820     8.8720    -1.6050 H     1 <1>   0.0800 
 44 H        7.2510     8.2810    -0.9350 H     1 <1>   0.1500 
 45 H        4.0010    10.8480     0.0950 H     1 <1>   0.1500 
 46 H        8.8330     9.9740    -0.1470 H     1 <1>   0.1500 
 47 H        5.5930    12.5400     0.8800 H     1 <1>   0.1500 
 48 H        8.0120    12.1080     0.7600 H     1 <1>   0.1500 
@<TRIPOS>BOND
  1   1   2  1   
  2   1   3  1   
  3   2   4  2   
  4   3   5  2   
  5   3   6  1   
  6   4   5  1   
  7   4   7  1   
  8   5  24  1   
  9   6   8  1   
 10   6  25  1   
 11   6  26  1   
 12   7  27  1   
 13   7  28  1   
 14   7  29  1   
 15   8   9  1   
 16   8  10  1   
 17   8  30  1   
 18   9  11  1   
 19   9  12  1   
 20   9  31  1   
 21  10  13  1   
 22  10  32  1   
 23  10  33  1   
 24  11  34  1   
 25  12  13  1   
 26  12  35  1   
 27  12  36  1   
 28  13  14  1   
 29  13  37  1   
 30  14  15  1   
 31  14  38  1   
 32  14  39  1   
 33  15  16  1   
 34  15  40  1   
 35  15  41  1   
 36  16  17  1   
 37  17  18  1   
 38  17  42  1   
 39  17  43  1   
 40  18  19  ar  
 41  18  20  ar  
 42  19  21  ar  
 43  19  44  1   
 44  20  22  ar  
 45  20  45  1   
 46  21  23  ar  
 47  21  46  1   
 48  22  23  ar  
 49  22  47  1   
 50  23  48  1   
@<TRIPOS>SUBSTRUCTURE
  1 ****  15 GROUP 4 **** **** 0

# MOE 2024.06 (io_trps.svl 2023.06)
