@<TRIPOS>MOLECULE
NONAME
48 52 1 0 0 
SMALL
USER_CHARGES


@<TRIPOS>ATOM
  1 S       -0.2470     0.3850     1.2520 S.3   1 <1>  -0.0800 
  2 C       -1.7200     0.7120     0.3430 C.2   1 <1>   0.4620 
  3 C        0.6700     1.3070     0.0920 C.2   1 <1>  -0.1400 
  4 N       -1.5130     1.4270    -0.7050 N.2   1 <1>  -0.5650 
  5 N       -2.9310     0.2070     0.7770 N.pl3 1 <1>  -0.8220 
  6 C       -0.1800     1.7610    -0.8430 C.2   1 <1>   0.0460 
  7 C        2.1620     1.4210     0.3410 C.3   1 <1>  -0.0600 
  8 C       -3.1040    -0.7510     1.9000 C.3   1 <1>   0.2090 
  9 C       -4.1780     0.4630     0.0140 C.3   1 <1>   0.2090 
 10 C        0.1600     2.6110    -2.0480 C.3   1 <1>  -0.0590 
 11 C       -3.5560    -2.0900     1.3210 C.3   1 <1>  -0.1600 
 12 C       -4.6510    -0.8550    -0.5930 C.3   1 <1>  -0.1600 
 13 C       -4.8280    -1.9360     0.4810 C.3   1 <1>   0.4600 
 14 O       -5.8460    -1.5410     1.3770 O.3   1 <1>  -0.5600 
 15 C       -5.2050    -3.2720    -0.1480 C.2   1 <1>  -0.3320 
 16 C       -7.1850    -1.7650     1.0030 C.3   1 <1>   0.1200 
 17 N       -4.4140    -4.0350    -0.9630 N.pl3 1 <1>   0.0330 
 18 C       -6.3920    -3.8860     0.0210 C.2   1 <1>  -0.1810 
 19 C       -7.4790    -3.2680     0.8640 C.3   1 <1>   0.0210 
 20 C       -5.1220    -5.1610    -1.3070 C.ar  1 <1>  -0.1520 
 21 C       -6.3740    -5.0990    -0.6990 C.ar  1 <1>   0.0000 
 22 C       -4.7700    -6.2480    -2.1110 C.ar  1 <1>  -0.1500 
 23 C       -7.2900    -6.1370    -0.8930 C.ar  1 <1>  -0.1500 
 24 C       -5.6820    -7.2630    -2.2940 C.ar  1 <1>  -0.1500 
 25 C       -6.9420    -7.2070    -1.6850 C.ar  1 <1>  -0.1500 
 26 H        2.3370     1.8900     1.2920 H     1 <1>   0.0800 
 27 H        2.6340     2.0070    -0.4250 H     1 <1>   0.0800 
 28 H        2.6050     0.4420     0.3490 H     1 <1>   0.0800 
 29 H       -3.8510    -0.3710     2.5760 H     1 <1>   0.0800 
 30 H       -2.1940    -0.8820     2.4550 H     1 <1>   0.0800 
 31 H       -4.0100     1.1880    -0.7640 H     1 <1>   0.0800 
 32 H       -4.9280     0.8560     0.6810 H     1 <1>   0.0800 
 33 H        1.2100     2.8300    -2.0850 H     1 <1>   0.0800 
 34 H       -0.3870     3.5350    -2.0000 H     1 <1>   0.0800 
 35 H       -0.1190     2.0900    -2.9450 H     1 <1>   0.0800 
 36 H       -3.7390    -2.7910     2.1130 H     1 <1>   0.0800 
 37 H       -2.7620    -2.4790     0.7130 H     1 <1>   0.0800 
 38 H       -3.9120    -1.1760    -1.3030 H     1 <1>   0.0800 
 39 H       -5.5670    -0.7080    -1.1320 H     1 <1>   0.0800 
 40 H       -7.3680    -1.2620     0.0700 H     1 <1>   0.0800 
 41 H       -7.8140    -1.3320     1.7590 H     1 <1>   0.0800 
 42 H       -3.4610    -3.8180    -1.2680 H     1 <1>   0.2700 
 43 H       -8.4360    -3.4090     0.3980 H     1 <1>   0.0800 
 44 H       -7.4950    -3.7310     1.8340 H     1 <1>   0.0800 
 45 H       -3.8010    -6.2830    -2.5750 H     1 <1>   0.1500 
 46 H       -8.2520    -6.0810    -0.4190 H     1 <1>   0.1500 
 47 H       -5.4350    -8.1110    -2.9090 H     1 <1>   0.1500 
 48 H       -7.6360    -8.0130    -1.8440 H     1 <1>   0.1500 
@<TRIPOS>BOND
  1   1   2  1   
  2   1   3  1   
  3   2   4  2   
  4   2   5  1   
  5   3   6  2   
  6   3   7  1   
  7   4   6  1   
  8   5   8  1   
  9   5   9  1   
 10   6  10  1   
 11   7  26  1   
 12   7  27  1   
 13   7  28  1   
 14   8  11  1   
 15   8  29  1   
 16   8  30  1   
 17   9  12  1   
 18   9  31  1   
 19   9  32  1   
 20  10  33  1   
 21  10  34  1   
 22  10  35  1   
 23  11  13  1   
 24  11  36  1   
 25  11  37  1   
 26  12  13  1   
 27  12  38  1   
 28  12  39  1   
 29  13  14  1   
 30  13  15  1   
 31  14  16  1   
 32  15  17  1   
 33  15  18  2   
 34  16  19  1   
 35  16  40  1   
 36  16  41  1   
 37  17  20  1   
 38  17  42  1   
 39  18  19  1   
 40  18  21  1   
 41  19  43  1   
 42  19  44  1   
 43  20  21  ar  
 44  20  22  ar  
 45  21  23  ar  
 46  22  24  ar  
 47  22  45  1   
 48  23  25  ar  
 49  23  46  1   
 50  24  25  ar  
 51  24  47  1   
 52  25  48  1   
@<TRIPOS>SUBSTRUCTURE
  1 ****  13 GROUP 4 **** **** 0

# MOE 2024.06 (io_trps.svl 2023.06)
