@<TRIPOS>MOLECULE
NONAME
51 54 1 0 0 
SMALL
USER_CHARGES


@<TRIPOS>ATOM
  1 F       -0.1300    -0.8970    -1.1680 F     1 <1>  -0.1900 
  2 C        0.3990    -2.0230    -0.7740 C.ar  1 <1>   0.1900 
  3 C       -0.4360    -3.0440    -0.3670 C.ar  1 <1>  -0.1500 
  4 C        1.7740    -2.1490    -0.7810 C.ar  1 <1>  -0.1500 
  5 C        0.1160    -4.2530     0.0500 C.ar  1 <1>  -0.0230 
  6 C        2.3290    -3.3450    -0.3590 C.ar  1 <1>  -0.1500 
  7 N       -0.7270    -5.3260     0.4620 N.pl3 1 <1>   0.5930 
  8 C        1.5070    -4.3830     0.0530 C.ar  1 <1>  -0.1500 
  9 N       -1.9270    -5.1470     1.0690 N.2   1 <1>  -0.7070 
 10 C       -0.5060    -6.6570     0.2950 C.2   1 <1>  -0.3020 
 11 C       -2.4040    -6.3280     1.2870 C.2   1 <1>   0.1390 
 12 C       -1.5620    -7.3250     0.8120 C.2   1 <1>  -0.1810 
 13 C       -1.8510    -8.8070     0.8890 C.3   1 <1>   0.5240 
 14 N       -2.1690    -9.2980    -0.4800 N.4   1 <1>  -0.9590 
 15 C       -3.4220    -8.6600    -1.0040 C.3   1 <1>   0.3430 
 16 C       -2.4280   -10.7720    -0.4540 C.3   1 <1>   0.3430 
 17 C       -4.5510    -9.6230    -0.6390 C.3   1 <1>   0.2000 
 18 C       -3.8890   -10.9790    -0.8720 C.3   1 <1>  -0.0800 
 19 O       -4.8180    -9.4690     0.7280 O.3   1 <1>  -0.5600 
 20 C       -4.5520   -12.1840    -0.1760 C.3   1 <1>   0.0200 
 21 C       -6.1670    -9.3060     1.0520 C.3   1 <1>   0.0400 
 22 C       -3.6760   -13.4150    -0.3080 C.2   1 <1>  -0.0400 
 23 O       -3.1630   -13.7260    -1.4680 O.3   1 <1>  -0.0190 
 24 C       -3.2570   -14.3230     0.5860 C.2   1 <1>  -0.1500 
 25 N       -2.4100   -14.7810    -1.3960 N.2   1 <1>  -0.4100 
 26 C       -2.4550   -15.1720    -0.1730 C.2   1 <1>   0.1080 
 27 C       -1.7320   -16.3900     0.3590 C.3   1 <1>  -0.0590 
 28 H       -1.5020    -2.8960    -0.3730 H     1 <1>   0.1500 
 29 H        2.3900    -1.3290    -1.1050 H     1 <1>   0.1500 
 30 H        3.3990    -3.4650    -0.3500 H     1 <1>   0.1500 
 31 H        1.9630    -5.2990     0.3860 H     1 <1>   0.1500 
 32 H        0.3840    -7.0240    -0.1800 H     1 <1>   0.1500 
 33 H       -3.3520    -6.4950     1.7780 H     1 <1>   0.1500 
 34 H       -2.6800    -8.9870     1.5540 H     1 <1>   0.0800 
 35 H       -0.9850    -9.3210     1.2740 H     1 <1>   0.0800 
 36 H       -1.3750    -9.0630    -1.0880 H     1 <1>   0.4500 
 37 H       -3.5950    -7.6790    -0.5940 H     1 <1>   0.0800 
 38 H       -3.3630    -8.5840    -2.0780 H     1 <1>   0.0800 
 39 H       -1.7710   -11.3000    -1.1280 H     1 <1>   0.0800 
 40 H       -2.2820   -11.1580     0.5420 H     1 <1>   0.0800 
 41 H       -5.4400    -9.4650    -1.2280 H     1 <1>   0.0800 
 42 H       -3.8900   -11.1700    -1.9310 H     1 <1>   0.0800 
 43 H       -5.5080   -12.3820    -0.6280 H     1 <1>   0.0800 
 44 H       -4.7110   -11.9900     0.8700 H     1 <1>   0.0800 
 45 H       -6.2500    -9.2220     2.1220 H     1 <1>   0.0800 
 46 H       -6.7250   -10.1620     0.7150 H     1 <1>   0.0800 
 47 H       -6.5410    -8.4070     0.5920 H     1 <1>   0.0800 
 48 H       -3.4640   -14.4140     1.6370 H     1 <1>   0.1500 
 49 H       -1.0830   -16.1100     1.1680 H     1 <1>   0.0800 
 50 H       -1.1420   -16.8370    -0.4220 H     1 <1>   0.0800 
 51 H       -2.4450   -17.1130     0.7100 H     1 <1>   0.0800 
@<TRIPOS>BOND
  1   1   2  1   
  2   2   3  ar  
  3   2   4  ar  
  4   3   5  ar  
  5   3  28  1   
  6   4   6  ar  
  7   4  29  1   
  8   5   7  1   
  9   5   8  ar  
 10   6   8  ar  
 11   6  30  1   
 12   7   9  1   
 13   7  10  1   
 14   8  31  1   
 15   9  11  2   
 16  10  12  2   
 17  10  32  1   
 18  11  12  1   
 19  11  33  1   
 20  12  13  1   
 21  13  14  1   
 22  13  34  1   
 23  13  35  1   
 24  14  15  1   
 25  14  16  1   
 26  14  36  1   
 27  15  17  1   
 28  15  37  1   
 29  15  38  1   
 30  16  18  1   
 31  16  39  1   
 32  16  40  1   
 33  17  18  1   
 34  17  19  1   
 35  17  41  1   
 36  18  20  1   
 37  18  42  1   
 38  19  21  1   
 39  20  22  1   
 40  20  43  1   
 41  20  44  1   
 42  21  45  1   
 43  21  46  1   
 44  21  47  1   
 45  22  23  1   
 46  22  24  2   
 47  23  25  1   
 48  24  26  1   
 49  24  48  1   
 50  25  26  2   
 51  26  27  1   
 52  27  49  1   
 53  27  50  1   
 54  27  51  1   
@<TRIPOS>SUBSTRUCTURE
  1 ****  14 GROUP 4 **** **** 0

# MOE 2024.06 (io_trps.svl 2023.06)
