@<TRIPOS>MOLECULE
NONAME
50 52 1 0 0 
SMALL
USER_CHARGES


@<TRIPOS>ATOM
  1 O        0.3720     0.0450    -0.7120 O.3   1 <1>  -0.5600 
  2 C        1.5930    -0.5590    -1.0650 C.3   1 <1>   0.2000 
  3 C        0.3630     1.4410    -0.7480 C.3   1 <1>   0.1200 
  4 C        2.7580    -0.0380    -0.1790 C.3   1 <1>   0.5660 
  5 C        1.4470    -2.0820    -0.9170 C.3   1 <1>   0.1200 
  6 C        1.3890     1.9970     0.2530 C.3   1 <1>   0.3430 
  7 N        2.7620     1.4490     0.0010 N.4   1 <1>  -0.9590 
  8 C        4.1090    -0.4320    -0.7610 C.ar  1 <1>  -0.1440 
  9 O        1.4750    -2.4400     0.4300 O.3   1 <1>  -0.6800 
 10 C        3.7280     1.8590     1.0470 C.3   1 <1>   0.5240 
 11 C        4.9460    -1.2590    -0.0250 C.ar  1 <1>  -0.1500 
 12 C        4.5270     0.0250    -2.0060 C.ar  1 <1>  -0.1500 
 13 C        3.9810     3.3330     0.8510 C.2   1 <1>  -0.1810 
 14 C        6.1880    -1.6130    -0.5190 C.ar  1 <1>  -0.1500 
 15 C        5.7700    -0.3320    -2.4980 C.ar  1 <1>  -0.1500 
 16 C        4.8480     3.9580     0.0200 C.2   1 <1>  -0.3320 
 17 C        3.3230     4.3560     1.5210 C.2   1 <1>   0.1390 
 18 C        6.6020    -1.1480    -1.7540 C.ar  1 <1>  -0.1500 
 19 N        4.6780     5.2920     0.2130 N.pl3 1 <1>   0.3140 
 20 C        5.8550     3.3560    -0.9520 C.3   1 <1>  -0.0600 
 21 N        3.7150     5.5220     1.1280 N.2   1 <1>  -0.7070 
 22 C        5.3900     6.4150    -0.4490 C.3   1 <1>   0.2340 
 23 C        6.7520     6.6760     0.1870 C.2   1 <1>  -0.2880 
 24 C        7.1280     7.8300     0.7460 C.2   1 <1>  -0.3000 
 25 H        1.7730    -0.3310    -2.1000 H     1 <1>   0.0800 
 26 H        0.5730     1.7690    -1.7520 H     1 <1>   0.0800 
 27 H       -0.6280     1.7670    -0.4810 H     1 <1>   0.0800 
 28 H        2.6520    -0.5010     0.7880 H     1 <1>   0.0800 
 29 H        2.2590    -2.5900    -1.4090 H     1 <1>   0.0800 
 30 H        0.5140    -2.4100    -1.3450 H     1 <1>   0.0800 
 31 H        1.0650     1.7340     1.2460 H     1 <1>   0.0800 
 32 H        1.4040     3.0730     0.1830 H     1 <1>   0.0800 
 33 H        3.1250     1.8580    -0.8650 H     1 <1>   0.4500 
 34 H        1.1500    -3.3590     0.5480 H     1 <1>   0.4000 
 35 H        3.3380     1.6640     2.0330 H     1 <1>   0.0800 
 36 H        4.6590     1.3280     0.9290 H     1 <1>   0.0800 
 37 H        4.6410    -1.6430     0.9350 H     1 <1>   0.1500 
 38 H        3.9030     0.6570    -2.6130 H     1 <1>   0.1500 
 39 H        6.8360    -2.2560     0.0540 H     1 <1>   0.1500 
 40 H        6.0950     0.0190    -3.4640 H     1 <1>   0.1500 
 41 H        2.5670     4.2270     2.2790 H     1 <1>   0.1500 
 42 H        7.5690    -1.4270    -2.1370 H     1 <1>   0.1500 
 43 H        5.8540     2.2830    -0.8950 H     1 <1>   0.0800 
 44 H        6.8480     3.6930    -0.7150 H     1 <1>   0.0800 
 45 H        5.6250     3.6470    -1.9610 H     1 <1>   0.0800 
 46 H        5.5080     6.1820    -1.4900 H     1 <1>   0.0800 
 47 H        4.7750     7.2930    -0.3670 H     1 <1>   0.0800 
 48 H        7.4040     5.8210     0.1480 H     1 <1>   0.1500 
 49 H        8.0950     7.9930     1.1930 H     1 <1>   0.1500 
 50 H        6.5070     8.7070     0.8120 H     1 <1>   0.1500 
@<TRIPOS>BOND
  1   1   2  1   
  2   1   3  1   
  3   2   4  1   
  4   2   5  1   
  5   2  25  1   
  6   3   6  1   
  7   3  26  1   
  8   3  27  1   
  9   4   7  1   
 10   4   8  1   
 11   4  28  1   
 12   5   9  1   
 13   5  29  1   
 14   5  30  1   
 15   6   7  1   
 16   6  31  1   
 17   6  32  1   
 18   7  10  1   
 19   7  33  1   
 20   8  11  ar  
 21   8  12  ar  
 22   9  34  1   
 23  10  13  1   
 24  10  35  1   
 25  10  36  1   
 26  11  14  ar  
 27  11  37  1   
 28  12  15  ar  
 29  12  38  1   
 30  13  16  2   
 31  13  17  1   
 32  14  18  ar  
 33  14  39  1   
 34  15  18  ar  
 35  15  40  1   
 36  16  19  1   
 37  16  20  1   
 38  17  21  2   
 39  17  41  1   
 40  18  42  1   
 41  19  21  1   
 42  19  22  1   
 43  20  43  1   
 44  20  44  1   
 45  20  45  1   
 46  22  23  1   
 47  22  46  1   
 48  22  47  1   
 49  23  24  2   
 50  23  48  1   
 51  24  49  1   
 52  24  50  1   
@<TRIPOS>SUBSTRUCTURE
  1 ****   7 GROUP 4 **** **** 0

# MOE 2024.06 (io_trps.svl 2023.06)
