@<TRIPOS>MOLECULE
NONAME
44 46 1 0 0 
SMALL
USER_CHARGES


@<TRIPOS>ATOM
  1 O       -0.0380     1.6350     2.0110 O.2   1 <1>  -0.5700 
  2 C        0.0810     2.5040     1.1680 C.2   1 <1>   0.5440 
  3 N       -1.0370     3.1880     0.7360 N.am  1 <1>  -0.6600 
  4 C        1.3970     2.8070     0.6400 C.ar  1 <1>   0.0860 
  5 C       -2.3950     2.9180     1.2960 C.3   1 <1>   0.1400 
  6 C       -1.0370     4.1550    -0.3940 C.3   1 <1>   0.1400 
  7 C        1.9950     2.0430    -0.3700 C.ar  1 <1>  -0.1440 
  8 C        2.0950     3.9050     1.1390 C.ar  1 <1>  -0.1500 
  9 C       -3.3130     2.3180     0.2140 C.3   1 <1>   0.0000 
 10 C       -1.9320     3.6290    -1.5230 C.3   1 <1>  -0.1600 
 11 C        3.2440     2.3880    -0.8660 C.ar  1 <1>  -0.1500 
 12 C        1.2800     0.8220    -0.9340 C.3   1 <1>  -0.0970 
 13 C        3.3390     4.2400     0.6390 C.ar  1 <1>   0.0820 
 14 C       -4.7100     2.0310     0.7980 C.3   1 <1>   0.2000 
 15 C       -3.3420     3.2640    -1.0210 C.3   1 <1>  -0.1600 
 16 C       -2.8690     0.9000    -0.1910 C.3   1 <1>  -0.1600 
 17 C        3.9160     3.4870    -0.3650 C.ar  1 <1>  -0.1500 
 18 O        4.0010     5.3000     1.1250 O.3   1 <1>  -0.5320 
 19 O       -5.5360     3.1400     0.8010 O.3   1 <1>  -0.6800 
 20 C       -5.3180     0.9210    -0.0580 C.3   1 <1>  -0.1600 
 21 C       -4.1290     0.1970    -0.7050 C.3   1 <1>  -0.1600 
 22 H       -2.3330     2.2500     2.1370 H     1 <1>   0.0800 
 23 H       -2.8160     3.8440     1.6490 H     1 <1>   0.0800 
 24 H       -1.4160     5.0990    -0.0410 H     1 <1>   0.0800 
 25 H       -0.0420     4.3160    -0.7710 H     1 <1>   0.0800 
 26 H        1.6460     4.4890     1.9210 H     1 <1>   0.1500 
 27 H       -2.0100     4.3830    -2.2860 H     1 <1>   0.0800 
 28 H       -1.4600     2.7740    -1.9710 H     1 <1>   0.0800 
 29 H        3.7030     1.8030    -1.6430 H     1 <1>   0.1500 
 30 H        1.8990     0.3010    -1.6420 H     1 <1>   0.0800 
 31 H        0.3740     1.1210    -1.4280 H     1 <1>   0.0800 
 32 H        1.0320     0.1410    -0.1380 H     1 <1>   0.0800 
 33 H       -4.6180     1.6850     1.8150 H     1 <1>   0.0800 
 34 H       -3.9050     2.8220    -1.8240 H     1 <1>   0.0800 
 35 H       -3.8280     4.1850    -0.7510 H     1 <1>   0.0800 
 36 H       -2.0800     0.8900    -0.9180 H     1 <1>   0.0800 
 37 H       -2.5150     0.3780     0.6830 H     1 <1>   0.0800 
 38 H        4.8850     3.7610    -0.7440 H     1 <1>   0.1500 
 39 H        3.5440     5.7360     1.8650 H     1 <1>   0.4500 
 40 H       -5.6830     3.4360    -0.1160 H     1 <1>   0.4000 
 41 H       -5.8860     0.2480     0.5590 H     1 <1>   0.0800 
 42 H       -5.9540     1.3260    -0.8260 H     1 <1>   0.0800 
 43 H       -4.1160    -0.8490    -0.4490 H     1 <1>   0.0800 
 44 H       -4.1880     0.2890    -1.7760 H     1 <1>   0.0800 
@<TRIPOS>BOND
  1   1   2  2   
  2   2   3  am  
  3   2   4  1   
  4   3   5  1   
  5   3   6  1   
  6   4   7  ar  
  7   4   8  ar  
  8   5   9  1   
  9   5  22  1   
 10   5  23  1   
 11   6  10  1   
 12   6  24  1   
 13   6  25  1   
 14   7  11  ar  
 15   7  12  1   
 16   8  13  ar  
 17   8  26  1   
 18   9  14  1   
 19   9  15  1   
 20   9  16  1   
 21  10  15  1   
 22  10  27  1   
 23  10  28  1   
 24  11  17  ar  
 25  11  29  1   
 26  12  30  1   
 27  12  31  1   
 28  12  32  1   
 29  13  17  ar  
 30  13  18  1   
 31  14  19  1   
 32  14  20  1   
 33  14  33  1   
 34  15  34  1   
 35  15  35  1   
 36  16  21  1   
 37  16  36  1   
 38  16  37  1   
 39  17  38  1   
 40  18  39  1   
 41  19  40  1   
 42  20  21  1   
 43  20  41  1   
 44  20  42  1   
 45  21  43  1   
 46  21  44  1   
@<TRIPOS>SUBSTRUCTURE
  1 ****   3 GROUP 4 **** **** 0

# MOE 2024.06 (io_trps.svl 2023.06)
