@<TRIPOS>MOLECULE
NONAME
57 60 1 0 0 
SMALL
USER_CHARGES


@<TRIPOS>ATOM
  1 O        1.4300     0.1180     1.3030 O.3   1 <1>  -0.6800 
  2 C        1.5220    -0.0470    -0.0760 C.3   1 <1>   0.2000 
  3 C        2.2180    -1.3740    -0.3920 C.3   1 <1>  -0.0800 
  4 C        2.5470     0.9700    -0.5730 C.3   1 <1>   0.3430 
  5 C        3.7180    -1.0640    -0.2770 C.3   1 <1>   0.3430 
  6 C        1.7890    -2.5970     0.4430 C.3   1 <1>  -0.0160 
  7 N        3.8400     0.4170    -0.0640 N.4   1 <1>  -0.9590 
  8 C        2.6720    -3.7890     0.1110 C.ar  1 <1>  -0.1430 
  9 C        5.0920     1.0610    -0.5530 C.3   1 <1>   0.4230 
 10 C        2.5920    -4.4420    -1.1040 C.ar  1 <1>  -0.1500 
 11 C        3.6060    -4.2770     1.0050 C.ar  1 <1>  -0.1500 
 12 C        6.3090     0.4070     0.1170 C.3   1 <1>  -0.1600 
 13 C        5.0660     2.5630    -0.2420 C.3   1 <1>  -0.1600 
 14 C        3.4420    -5.5030    -1.3680 C.ar  1 <1>   0.1600 
 15 C        4.4080    -5.3460     0.6420 C.ar  1 <1>   0.1600 
 16 C        7.6130     1.1120    -0.2600 C.3   1 <1>   0.3430 
 17 C        6.3830     3.2420    -0.6150 C.3   1 <1>   0.3430 
 18 N        4.3560    -5.9590    -0.5280 N.ar  1 <1>  -0.6200 
 19 N        7.5180     2.5580     0.0680 N.4   1 <1>  -0.9590 
 20 C        8.8100     3.2600    -0.2080 C.3   1 <1>   0.4860 
 21 C        8.7200     4.6580     0.3690 C.ar  1 <1>  -0.1430 
 22 C        8.7700     4.8540     1.7430 C.ar  1 <1>  -0.1500 
 23 C        8.5760     5.7530    -0.4730 C.ar  1 <1>  -0.1500 
 24 C        8.6570     6.1290     2.2680 C.ar  1 <1>  -0.1500 
 25 C        8.4640     7.0260     0.0560 C.ar  1 <1>  -0.1500 
 26 C        8.5020     7.2140     1.4250 C.ar  1 <1>  -0.1500 
 27 H        0.6170    -0.3050     1.6580 H     1 <1>   0.4000 
 28 H        0.5480     0.0690    -0.5240 H     1 <1>   0.0800 
 29 H        2.0280    -1.6040    -1.4260 H     1 <1>   0.0800 
 30 H        2.3350     1.9500    -0.1780 H     1 <1>   0.0800 
 31 H        2.5450     0.9980    -1.6510 H     1 <1>   0.0800 
 32 H        4.2180    -1.3680    -1.1830 H     1 <1>   0.0800 
 33 H        4.1500    -1.5970     0.5550 H     1 <1>   0.0800 
 34 H        0.7620    -2.8450     0.2330 H     1 <1>   0.0800 
 35 H        1.8660    -2.3900     1.4960 H     1 <1>   0.0800 
 36 H        3.7510     0.5440     0.9590 H     1 <1>   0.4500 
 37 H        5.1660     0.9260    -1.6210 H     1 <1>   0.0800 
 38 H        1.8770    -4.1460    -1.8500 H     1 <1>   0.1500 
 39 H        3.7190    -3.8480     1.9840 H     1 <1>   0.1500 
 40 H        6.2030     0.4240     1.1870 H     1 <1>   0.0800 
 41 H        6.3950    -0.6190    -0.1950 H     1 <1>   0.0800 
 42 H        4.2860     3.0440    -0.8050 H     1 <1>   0.0800 
 43 H        4.8750     2.7290     0.8040 H     1 <1>   0.0800 
 44 H        3.3680    -6.0040    -2.3190 H     1 <1>   0.1500 
 45 H        5.1290    -5.7190     1.3500 H     1 <1>   0.1500 
 46 H        7.8030     0.9880    -1.3150 H     1 <1>   0.0800 
 47 H        8.4330     0.6630     0.2810 H     1 <1>   0.0800 
 48 H        6.3440     4.2800    -0.3170 H     1 <1>   0.0800 
 49 H        6.5250     3.2080    -1.6840 H     1 <1>   0.0800 
 50 H        7.3810     2.6760     1.0820 H     1 <1>   0.4500 
 51 H        9.6300     2.7380     0.2600 H     1 <1>   0.0800 
 52 H        8.9970     3.3100    -1.2690 H     1 <1>   0.0800 
 53 H        8.9020     4.0300     2.4230 H     1 <1>   0.1500 
 54 H        8.5520     5.6370    -1.5430 H     1 <1>   0.1500 
 55 H        8.6960     6.2830     3.3330 H     1 <1>   0.1500 
 56 H        8.3520     7.8770    -0.5960 H     1 <1>   0.1500 
 57 H        8.4160     8.2070     1.8360 H     1 <1>   0.1500 
@<TRIPOS>BOND
  1   1   2  1   
  2   1  27  1   
  3   2   3  1   
  4   2   4  1   
  5   2  28  1   
  6   3   5  1   
  7   3   6  1   
  8   3  29  1   
  9   4   7  1   
 10   4  30  1   
 11   4  31  1   
 12   5   7  1   
 13   5  32  1   
 14   5  33  1   
 15   6   8  1   
 16   6  34  1   
 17   6  35  1   
 18   7   9  1   
 19   7  36  1   
 20   8  10  ar  
 21   8  11  ar  
 22   9  12  1   
 23   9  13  1   
 24   9  37  1   
 25  10  14  ar  
 26  10  38  1   
 27  11  15  ar  
 28  11  39  1   
 29  12  16  1   
 30  12  40  1   
 31  12  41  1   
 32  13  17  1   
 33  13  42  1   
 34  13  43  1   
 35  14  18  ar  
 36  14  44  1   
 37  15  18  ar  
 38  15  45  1   
 39  16  19  1   
 40  16  46  1   
 41  16  47  1   
 42  17  19  1   
 43  17  48  1   
 44  17  49  1   
 45  19  20  1   
 46  19  50  1   
 47  20  21  1   
 48  20  51  1   
 49  20  52  1   
 50  21  22  ar  
 51  21  23  ar  
 52  22  24  ar  
 53  22  53  1   
 54  23  25  ar  
 55  23  54  1   
 56  24  26  ar  
 57  24  55  1   
 58  25  26  ar  
 59  25  56  1   
 60  26  57  1   
@<TRIPOS>SUBSTRUCTURE
  1 ****   9 GROUP 4 **** **** 0

# MOE 2024.06 (io_trps.svl 2023.06)
