@<TRIPOS>MOLECULE
NONAME
52 56 1 0 0 
SMALL
USER_CHARGES


@<TRIPOS>ATOM
  1 O       -0.4280    -0.4720     0.4370 O.2   1 <1>  -0.5700 
  2 C       -1.1830     0.2040    -0.2370 C.2   1 <1>   0.7160 
  3 N       -1.9560    -0.3910    -1.1870 N.am  1 <1>  -0.5790 
  4 C       -1.2970     1.6140    -0.0270 C.2   1 <1>  -0.0860 
  5 C       -2.2930    -1.8150    -1.2470 C.3   1 <1>   0.1810 
  6 C       -2.4420     2.3780    -0.2850 C.2   1 <1>   0.3720 
  7 C       -0.4110     2.5300     0.4550 C.2   1 <1>   0.0870 
  8 C       -3.4800    -2.1450    -0.3570 C.ar  1 <1>  -0.0320 
  9 C       -1.1960    -2.8100    -1.4510 C.3   1 <1>  -0.2000 
 10 C       -2.1260    -2.4830    -2.5750 C.3   1 <1>  -0.2000 
 11 N       -2.2510     3.6150     0.0070 N.2   1 <1>  -0.4100 
 12 N       -3.6580     1.8740    -0.7790 N.pl3 1 <1>  -0.8210 
 13 O       -1.0270     3.6850     0.4540 O.3   1 <1>  -0.0190 
 14 C        0.9570     2.4570     0.9050 C.ar  1 <1>   0.0530 
 15 C       -4.7620    -2.2260    -0.8790 C.ar  1 <1>  -0.1500 
 16 C       -3.2860    -2.3370     1.0020 C.ar  1 <1>  -0.1500 
 17 C       -4.4830     1.1430     0.2430 C.3   1 <1>   0.2090 
 18 C       -4.5030     2.8390    -1.5610 C.3   1 <1>   0.2090 
 19 C        1.4160     3.3020     1.9170 C.ar  1 <1>  -0.1500 
 20 C        1.8760     1.5660     0.3510 C.ar  1 <1>  -0.1500 
 21 C       -5.8390    -2.4960    -0.0510 C.ar  1 <1>  -0.1500 
 22 C       -4.3610    -2.6060     1.8320 C.ar  1 <1>  -0.1500 
 23 C       -5.3800     2.0960     1.0520 C.3   1 <1>   0.1200 
 24 C       -5.4260     3.6840    -0.6600 C.3   1 <1>   0.1200 
 25 C        2.7260     3.2580     2.3580 C.ar  1 <1>  -0.1500 
 26 C        3.1870     1.5150     0.7880 C.ar  1 <1>  -0.1500 
 27 C       -5.6380    -2.6840     1.3050 C.ar  1 <1>  -0.1500 
 28 O       -6.1740     2.8670     0.1960 O.3   1 <1>  -0.5600 
 29 C        3.6160     2.3620     1.7940 C.ar  1 <1>  -0.1500 
 30 H       -2.7030     0.2200    -1.5380 H     1 <1>   0.3700 
 31 H       -1.2830    -3.7700    -0.9740 H     1 <1>   0.1000 
 32 H       -0.1830    -2.4490    -1.4750 H     1 <1>   0.1000 
 33 H       -1.7470    -1.9110    -3.4030 H     1 <1>   0.1000 
 34 H       -2.8190    -3.2480    -2.8780 H     1 <1>   0.1000 
 35 H       -4.9240    -2.0770    -1.9320 H     1 <1>   0.1500 
 36 H       -2.2910    -2.2730     1.4100 H     1 <1>   0.1500 
 37 H       -3.8430     0.6040     0.9210 H     1 <1>   0.0800 
 38 H       -5.1070     0.4230    -0.2550 H     1 <1>   0.0800 
 39 H       -5.1100     2.2880    -2.2580 H     1 <1>   0.0800 
 40 H       -3.8700     3.4960    -2.1330 H     1 <1>   0.0800 
 41 H        0.7350     4.0030     2.3660 H     1 <1>   0.1500 
 42 H        1.5650     0.9020    -0.4350 H     1 <1>   0.1500 
 43 H       -6.8320    -2.5590    -0.4620 H     1 <1>   0.1500 
 44 H       -4.2000    -2.7560     2.8860 H     1 <1>   0.1500 
 45 H       -4.7830     2.7540     1.6590 H     1 <1>   0.0800 
 46 H       -6.0360     1.5330     1.6910 H     1 <1>   0.0800 
 47 H       -6.1160     4.2470    -1.2620 H     1 <1>   0.0800 
 48 H       -4.8500     4.3710    -0.0650 H     1 <1>   0.0800 
 49 H        3.0550     3.9200     3.1410 H     1 <1>   0.1500 
 50 H        3.8740     0.8140     0.3460 H     1 <1>   0.1500 
 51 H       -6.4740    -2.8960     1.9490 H     1 <1>   0.1500 
 52 H        4.6350     2.3230     2.1360 H     1 <1>   0.1500 
@<TRIPOS>BOND
  1   1   2  2   
  2   2   3  am  
  3   2   4  1   
  4   3   5  1   
  5   3  30  1   
  6   4   6  1   
  7   4   7  2   
  8   5   8  1   
  9   5   9  1   
 10   5  10  1   
 11   6  11  2   
 12   6  12  1   
 13   7  13  1   
 14   7  14  1   
 15   8  15  ar  
 16   8  16  ar  
 17   9  10  1   
 18   9  31  1   
 19   9  32  1   
 20  10  33  1   
 21  10  34  1   
 22  11  13  1   
 23  12  17  1   
 24  12  18  1   
 25  14  19  ar  
 26  14  20  ar  
 27  15  21  ar  
 28  15  35  1   
 29  16  22  ar  
 30  16  36  1   
 31  17  23  1   
 32  17  37  1   
 33  17  38  1   
 34  18  24  1   
 35  18  39  1   
 36  18  40  1   
 37  19  25  ar  
 38  19  41  1   
 39  20  26  ar  
 40  20  42  1   
 41  21  27  ar  
 42  21  43  1   
 43  22  27  ar  
 44  22  44  1   
 45  23  28  1   
 46  23  45  1   
 47  23  46  1   
 48  24  28  1   
 49  24  47  1   
 50  24  48  1   
 51  25  29  ar  
 52  25  49  1   
 53  26  29  ar  
 54  26  50  1   
 55  27  51  1   
 56  29  52  1   
@<TRIPOS>SUBSTRUCTURE
  1 ****   2 GROUP 4 **** **** 0

# MOE 2024.06 (io_trps.svl 2023.06)
