@<TRIPOS>MOLECULE
NONAME
47 49 1 0 0 
SMALL
USER_CHARGES


@<TRIPOS>ATOM
  1 CL      -0.8300    -0.3830     1.7710 Cl    1 <1>  -0.1770 
  2 C       -1.8880    -1.1910     0.6430 C.ar  1 <1>   0.1770 
  3 C       -1.9390    -2.5730     0.6360 C.ar  1 <1>  -0.1500 
  4 C       -2.6570    -0.4380    -0.2220 C.ar  1 <1>  -0.1500 
  5 C       -2.7790    -3.2220    -0.2570 C.ar  1 <1>  -0.1440 
  6 C       -3.4960    -1.0850    -1.1150 C.ar  1 <1>  -0.1500 
  7 C       -3.5540    -2.4690    -1.1290 C.ar  1 <1>  -0.1500 
  8 C       -2.8570    -4.7400    -0.2820 C.3   1 <1>  -0.0160 
  9 C       -4.0290    -5.2230     0.5710 C.3   1 <1>   0.1400 
 10 N       -4.0820    -6.7070     0.5720 N.am  1 <1>  -0.7300 
 11 C       -4.8370    -7.4460    -0.2880 C.2   1 <1>   0.5690 
 12 O       -5.5200    -6.9170    -1.1330 O.2   1 <1>  -0.5700 
 13 C       -4.8170    -8.9810    -0.1690 C.3   1 <1>   0.1710 
 14 N       -6.1490    -9.6520    -0.2330 N.3   1 <1>  -0.8100 
 15 C       -6.0830   -11.1220    -0.1250 C.3   1 <1>   0.1100 
 16 C       -7.1420    -9.0750     0.7050 C.3   1 <1>   0.1100 
 17 C       -7.4440   -11.7550    -0.5210 C.3   1 <1>   0.4230 
 18 C       -8.4410    -9.9120     0.8040 C.3   1 <1>   0.3430 
 19 N       -8.6060   -10.8260    -0.3750 N.4   1 <1>  -0.9590 
 20 C       -7.8510   -12.9710     0.3010 C.3   1 <1>  -0.1600 
 21 C       -9.8340   -11.6570    -0.3020 C.3   1 <1>   0.3430 
 22 C       -9.3710   -13.0470     0.1390 C.3   1 <1>  -0.1600 
 23 H       -1.3250    -3.1240     1.3250 H     1 <1>   0.1500 
 24 H       -2.5990     0.6350    -0.1960 H     1 <1>   0.1500 
 25 H       -4.1020    -0.5130    -1.7960 H     1 <1>   0.1500 
 26 H       -4.2100    -2.9620    -1.8280 H     1 <1>   0.1500 
 27 H       -1.9380    -5.1560     0.0900 H     1 <1>   0.0800 
 28 H       -2.9930    -5.0730    -1.2960 H     1 <1>   0.0800 
 29 H       -4.9490    -4.8270     0.1710 H     1 <1>   0.0800 
 30 H       -3.9230    -4.8660     1.5810 H     1 <1>   0.0800 
 31 H       -3.4690    -7.1640     1.2490 H     1 <1>   0.3700 
 32 H       -4.3350    -9.2460     0.7550 H     1 <1>   0.0800 
 33 H       -4.2090    -9.3520    -0.9750 H     1 <1>   0.0800 
 34 H       -5.8170   -11.3980     0.8810 H     1 <1>   0.0800 
 35 H       -5.3210   -11.5050    -0.7820 H     1 <1>   0.0800 
 36 H       -7.4000    -8.0840     0.3690 H     1 <1>   0.0800 
 37 H       -6.7130    -8.9790     1.6890 H     1 <1>   0.0800 
 38 H       -7.3840   -12.0560    -1.5540 H     1 <1>   0.0800 
 39 H       -9.2840    -9.2460     0.8830 H     1 <1>   0.0800 
 40 H       -8.4030   -10.5000     1.7060 H     1 <1>   0.0800 
 41 H       -8.5870   -10.2180    -1.2070 H     1 <1>   0.4500 
 42 H       -7.6000   -12.8180     1.3360 H     1 <1>   0.0800 
 43 H       -7.3600   -13.8630    -0.0480 H     1 <1>   0.0800 
 44 H      -10.2950   -11.7210    -1.2740 H     1 <1>   0.0800 
 45 H      -10.5420   -11.2410     0.3970 H     1 <1>   0.0800 
 46 H       -9.8510   -13.3400     1.0570 H     1 <1>   0.0800 
 47 H       -9.6350   -13.7610    -0.6230 H     1 <1>   0.0800 
@<TRIPOS>BOND
  1   1   2  1   
  2   2   3  ar  
  3   2   4  ar  
  4   3   5  ar  
  5   3  23  1   
  6   4   6  ar  
  7   4  24  1   
  8   5   7  ar  
  9   5   8  1   
 10   6   7  ar  
 11   6  25  1   
 12   7  26  1   
 13   8   9  1   
 14   8  27  1   
 15   8  28  1   
 16   9  10  1   
 17   9  29  1   
 18   9  30  1   
 19  10  11  am  
 20  10  31  1   
 21  11  12  2   
 22  11  13  1   
 23  13  14  1   
 24  13  32  1   
 25  13  33  1   
 26  14  15  1   
 27  14  16  1   
 28  15  17  1   
 29  15  34  1   
 30  15  35  1   
 31  16  18  1   
 32  16  36  1   
 33  16  37  1   
 34  17  19  1   
 35  17  20  1   
 36  17  38  1   
 37  18  19  1   
 38  18  39  1   
 39  18  40  1   
 40  19  21  1   
 41  19  41  1   
 42  20  22  1   
 43  20  42  1   
 44  20  43  1   
 45  21  22  1   
 46  21  44  1   
 47  21  45  1   
 48  22  46  1   
 49  22  47  1   
@<TRIPOS>SUBSTRUCTURE
  1 ****  11 GROUP 4 **** **** 0

# MOE 2024.06 (io_trps.svl 2023.06)
