@<TRIPOS>MOLECULE
NONAME
46 49 1 0 0 
SMALL
USER_CHARGES


@<TRIPOS>ATOM
  1 O       -0.5010    -0.0630     2.2680 O.2   1 <1>  -0.5700 
  2 C       -1.2270     0.6420     1.5920 C.2   1 <1>   0.5440 
  3 N       -2.1310     0.0370     0.7500 N.am  1 <1>  -0.6600 
  4 C       -1.1660     2.0790     1.7360 C.ar  1 <1>   0.0860 
  5 C       -3.1130     0.7360    -0.1120 C.3   1 <1>   0.1400 
  6 C       -2.2410    -1.4330     0.5990 C.3   1 <1>   0.1400 
  7 C       -0.6700     2.9140     0.7310 C.ar  1 <1>   0.0830 
  8 C       -1.6170     2.6740     2.9160 C.ar  1 <1>  -0.1500 
  9 C       -3.7060    -0.3640    -0.9900 C.3   1 <1>   0.2000 
 10 C       -3.5300    -1.6550    -0.1940 C.3   1 <1>  -0.0800 
 11 O       -0.2260     2.3730    -0.4330 O.3   1 <1>  -0.3630 
 12 C       -0.6310     4.2990     0.9190 C.ar  1 <1>   0.0830 
 13 C       -1.5920     4.0440     3.0950 C.ar  1 <1>  -0.1500 
 14 O       -5.0480    -0.1410    -1.2550 O.3   1 <1>  -0.6800 
 15 C       -3.5010    -2.9120    -1.0760 C.3   1 <1>   0.0210 
 16 C        0.0350     3.2360    -1.5230 C.3   1 <1>   0.1200 
 17 O       -0.1270     5.1250    -0.0320 O.3   1 <1>  -0.3630 
 18 C       -1.1000     4.8610     2.0910 C.ar  1 <1>  -0.1500 
 19 C       -3.2650    -4.1550    -0.2410 C.2   1 <1>   0.1080 
 20 C        0.6830     4.5340    -1.0280 C.3   1 <1>   0.1200 
 21 N       -4.1230    -4.5900     0.6280 N.2   1 <1>  -0.7070 
 22 C       -2.1240    -4.9490    -0.2970 C.2   1 <1>  -0.1500 
 23 N       -3.5470    -5.6870     1.1540 N.pl3 1 <1>   0.3000 
 24 C       -2.3350    -5.9250     0.6110 C.2   1 <1>  -0.3320 
 25 C       -1.4380    -7.0860     1.0000 C.3   1 <1>  -0.0600 
 26 H       -3.8690     1.1860     0.5080 H     1 <1>   0.0800 
 27 H       -2.6310     1.4830    -0.7160 H     1 <1>   0.0800 
 28 H       -1.3820    -1.7910     0.0570 H     1 <1>   0.0800 
 29 H       -2.2810    -1.9180     1.5600 H     1 <1>   0.0800 
 30 H       -1.9890     2.0370     3.7010 H     1 <1>   0.1500 
 31 H       -3.1760    -0.4030    -1.9260 H     1 <1>   0.0800 
 32 H       -4.3270    -1.7490     0.5240 H     1 <1>   0.0800 
 33 H       -1.9500     4.4780     4.0130 H     1 <1>   0.1500 
 34 H       -5.5760    -0.2710    -0.4440 H     1 <1>   0.4000 
 35 H       -2.7290    -2.8270    -1.8180 H     1 <1>   0.0800 
 36 H       -4.4440    -3.0150    -1.5840 H     1 <1>   0.0800 
 37 H        0.6850     2.7210    -2.2070 H     1 <1>   0.0800 
 38 H       -0.8990     3.4490    -2.0130 H     1 <1>   0.0800 
 39 H       -1.0700     5.9280     2.2170 H     1 <1>   0.1500 
 40 H        0.7920     5.2400    -1.8310 H     1 <1>   0.0800 
 41 H        1.6480     4.3320    -0.5990 H     1 <1>   0.0800 
 42 H       -1.2720    -4.7940    -0.9340 H     1 <1>   0.1500 
 43 H       -4.0060    -6.2500     1.8810 H     1 <1>   0.2700 
 44 H       -0.5280    -7.0570     0.4280 H     1 <1>   0.0800 
 45 H       -1.9350    -8.0200     0.8070 H     1 <1>   0.0800 
 46 H       -1.1880    -7.0280     2.0440 H     1 <1>   0.0800 
@<TRIPOS>BOND
  1   1   2  2   
  2   2   3  am  
  3   2   4  1   
  4   3   5  1   
  5   3   6  1   
  6   4   7  ar  
  7   4   8  ar  
  8   5   9  1   
  9   5  26  1   
 10   5  27  1   
 11   6  10  1   
 12   6  28  1   
 13   6  29  1   
 14   7  11  1   
 15   7  12  ar  
 16   8  13  ar  
 17   8  30  1   
 18   9  10  1   
 19   9  14  1   
 20   9  31  1   
 21  10  15  1   
 22  10  32  1   
 23  11  16  1   
 24  12  17  1   
 25  12  18  ar  
 26  13  18  ar  
 27  13  33  1   
 28  14  34  1   
 29  15  19  1   
 30  15  35  1   
 31  15  36  1   
 32  16  20  1   
 33  16  37  1   
 34  16  38  1   
 35  17  20  1   
 36  18  39  1   
 37  19  21  2   
 38  19  22  1   
 39  20  40  1   
 40  20  41  1   
 41  21  23  1   
 42  22  24  2   
 43  22  42  1   
 44  23  24  1   
 45  23  43  1   
 46  24  25  1   
 47  25  44  1   
 48  25  45  1   
 49  25  46  1   
@<TRIPOS>SUBSTRUCTURE
  1 ****   3 GROUP 4 **** **** 0

# MOE 2024.06 (io_trps.svl 2023.06)
