@<TRIPOS>MOLECULE
NONAME
46 48 1 0 0 
SMALL
USER_CHARGES


@<TRIPOS>ATOM
  1 O       -0.5280    -0.3380    -0.7160 O.2   1 <1>  -0.5700 
  2 C       -1.4020     0.4360    -0.3620 C.2   1 <1>   0.7150 
  3 N       -2.6400    -0.0660    -0.0290 N.am  1 <1>  -0.6600 
  4 C       -1.1130     1.8480    -0.3030 C.2   1 <1>  -0.2370 
  5 C       -3.0660    -1.4520    -0.3940 C.3   1 <1>   0.1400 
  6 C       -3.6350     0.6480     0.8180 C.3   1 <1>   0.1400 
  7 N        0.0650     2.3670     0.1770 N.pl3 1 <1>   0.0480 
  8 C       -1.8910     2.9060    -0.7040 C.2   1 <1>  -0.1500 
  9 C       -4.4050    -1.3880    -1.1440 C.3   1 <1>   0.2000 
 10 C       -4.9860     0.7100     0.0890 C.3   1 <1>  -0.1600 
 11 C        0.0040     3.7170     0.0800 C.2   1 <1>  -0.3020 
 12 C        1.2080     1.6050     0.7140 C.3   1 <1>   0.0160 
 13 C       -1.1880     4.0810    -0.4590 C.2   1 <1>  -0.1500 
 14 O       -4.7930    -2.6690    -1.4990 O.3   1 <1>  -0.6800 
 15 C       -5.5170    -0.7000    -0.3080 C.3   1 <1>  -0.1060 
 16 C       -5.8230    -1.5690     0.9300 C.2   1 <1>   0.9060 
 17 C       -6.7980    -0.5750    -1.1780 C.3   1 <1>  -0.0170 
 18 O       -6.0100    -2.7850     0.7680 O.co2 1 <1>  -0.9000 
 19 O       -5.8690    -1.0680     2.0590 O.co2 1 <1>  -0.9000 
 20 C       -7.8260     0.4420    -0.6860 C.ar  1 <1>  -0.1440 
 21 C       -8.0640     1.6030    -1.4080 C.ar  1 <1>  -0.1500 
 22 C       -8.5360     0.2180     0.4830 C.ar  1 <1>  -0.1500 
 23 C       -8.9980     2.5260    -0.9680 C.ar  1 <1>  -0.1500 
 24 C       -9.4690     1.1400     0.9270 C.ar  1 <1>  -0.1500 
 25 C       -9.7010     2.2950     0.2010 C.ar  1 <1>  -0.1500 
 26 H       -2.3320    -1.9180    -1.0270 H     1 <1>   0.0800 
 27 H       -3.1730    -2.0370     0.5040 H     1 <1>   0.0800 
 28 H       -3.7450     0.1150     1.7470 H     1 <1>   0.0800 
 29 H       -3.3030     1.6400     1.0600 H     1 <1>   0.0800 
 30 H       -2.8740     2.8520    -1.1380 H     1 <1>   0.1500 
 31 H       -4.2440    -0.8490    -2.0610 H     1 <1>   0.0800 
 32 H       -5.6930     1.1890     0.7440 H     1 <1>   0.0800 
 33 H       -4.8840     1.3260    -0.7850 H     1 <1>   0.0800 
 34 H        0.8090     4.3570     0.3960 H     1 <1>   0.1500 
 35 H        1.9240     2.2790     1.1460 H     1 <1>   0.0800 
 36 H        1.6680     1.0520    -0.0850 H     1 <1>   0.0800 
 37 H        0.8570     0.9200     1.4640 H     1 <1>   0.0800 
 38 H       -1.5420     5.0770    -0.6670 H     1 <1>   0.1500 
 39 H       -5.2820    -3.0330    -0.6970 H     1 <1>   0.4000 
 40 H       -6.5120    -0.3090    -2.1800 H     1 <1>   0.0800 
 41 H       -7.2750    -1.5380    -1.2450 H     1 <1>   0.0800 
 42 H       -7.5210     1.7930    -2.3160 H     1 <1>   0.1500 
 43 H       -8.3580    -0.6750     1.0600 H     1 <1>   0.1500 
 44 H       -9.1760     3.4230    -1.5340 H     1 <1>   0.1500 
 45 H      -10.0050     0.9510     1.8390 H     1 <1>   0.1500 
 46 H      -10.4260     3.0090     0.5480 H     1 <1>   0.1500 
@<TRIPOS>BOND
  1   1   2  2   
  2   2   3  am  
  3   2   4  1   
  4   3   5  1   
  5   3   6  1   
  6   4   7  1   
  7   4   8  2   
  8   5   9  1   
  9   5  26  1   
 10   5  27  1   
 11   6  10  1   
 12   6  28  1   
 13   6  29  1   
 14   7  11  1   
 15   7  12  1   
 16   8  13  1   
 17   8  30  1   
 18   9  14  1   
 19   9  15  1   
 20   9  31  1   
 21  10  15  1   
 22  10  32  1   
 23  10  33  1   
 24  11  13  2   
 25  11  34  1   
 26  12  35  1   
 27  12  36  1   
 28  12  37  1   
 29  13  38  1   
 30  14  39  1   
 31  15  16  1   
 32  15  17  1   
 33  16  18  ar  
 34  16  19  ar  
 35  17  20  1   
 36  17  40  1   
 37  17  41  1   
 38  20  21  ar  
 39  20  22  ar  
 40  21  23  ar  
 41  21  42  1   
 42  22  24  ar  
 43  22  43  1   
 44  23  25  ar  
 45  23  44  1   
 46  24  25  ar  
 47  24  45  1   
 48  25  46  1   
@<TRIPOS>SUBSTRUCTURE
  1 ****  10 GROUP 4 **** **** 0

# MOE 2024.06 (io_trps.svl 2023.06)
