@<TRIPOS>MOLECULE
NONAME
57 60 1 0 0 
SMALL
USER_CHARGES


@<TRIPOS>ATOM
  1 O        1.0940     0.3360     3.4050 O.2   1 <1>  -0.5700 
  2 C        1.2990    -0.3670     2.4360 C.2   1 <1>   0.5440 
  3 N        1.8460     0.1610     1.2900 N.am  1 <1>  -0.4940 
  4 C        1.0250    -1.7910     2.4910 C.ar  1 <1>   0.0860 
  5 C        2.2560     1.4610     0.9170 C.2   1 <1>  -0.0880 
  6 C        0.2440    -2.4720     1.5450 C.ar  1 <1>  -0.1430 
  7 C        1.5870    -2.5240     3.5360 C.ar  1 <1>  -0.1500 
  8 N        1.8100     2.6690     1.3600 N.pl3 1 <1>   0.3140 
  9 C        3.1970     1.7200    -0.0350 C.2   1 <1>  -0.0540 
 10 C        0.1060    -3.8620     1.6180 C.ar  1 <1>   0.1170 
 11 C       -0.4830    -1.6880     0.4460 C.3   1 <1>  -0.0960 
 12 C        1.4220    -3.8900     3.6320 C.ar  1 <1>  -0.1500 
 13 N        2.4340     3.6880     0.7270 N.2   1 <1>  -0.7070 
 14 C        0.7400     2.9710     2.3190 C.3   1 <1>   0.0160 
 15 C        3.9540     0.7680    -0.8060 C.ar  1 <1>   0.0540 
 16 C        3.2550     3.1160    -0.0900 C.2   1 <1>   0.1080 
 17 N       -0.6050    -4.6170     0.6770 N.am  1 <1>  -0.5470 
 18 C        0.6900    -4.5530     2.6710 C.ar  1 <1>  -0.1500 
 19 C        4.8010    -0.1410    -0.1800 C.ar  1 <1>  -0.1500 
 20 C        3.8480     0.7180    -2.1930 C.ar  1 <1>  -0.1500 
 21 C        4.1700     3.9130    -0.9920 C.3   1 <1>  -0.0590 
 22 C       -0.3850    -4.7600    -0.6640 C.2   1 <1>   0.5690 
 23 C        5.5180    -1.0700    -0.9110 C.ar  1 <1>  -0.1500 
 24 C        4.5620    -0.2090    -2.9300 C.ar  1 <1>  -0.1500 
 25 O        0.4470    -4.1240    -1.2680 O.2   1 <1>  -0.5700 
 26 C       -1.2400    -5.7900    -1.4160 C.3   1 <1>   0.2610 
 27 C        5.3990    -1.1060    -2.2890 C.ar  1 <1>  -0.1500 
 28 O       -2.1600    -6.4310    -0.5690 O.3   1 <1>  -0.5600 
 29 C       -0.4400    -6.9390    -2.0190 C.3   1 <1>  -0.1600 
 30 C       -2.5790    -7.6260    -1.1470 C.3   1 <1>   0.1200 
 31 C       -1.4340    -8.0910    -2.0440 C.3   1 <1>  -0.1600 
 32 H        2.1040    -0.5550     0.6060 H     1 <1>   0.3700 
 33 H        2.1650    -2.0050     4.2830 H     1 <1>   0.1500 
 34 H       -0.7620    -0.7060     0.7840 H     1 <1>   0.0800 
 35 H       -1.3890    -2.1840     0.1510 H     1 <1>   0.0800 
 36 H        0.1500    -1.5930    -0.4190 H     1 <1>   0.0800 
 37 H        1.8670    -4.4340     4.4480 H     1 <1>   0.1500 
 38 H       -0.0680     2.2780     2.1820 H     1 <1>   0.0800 
 39 H        0.3880     3.9710     2.1540 H     1 <1>   0.0800 
 40 H        1.1300     2.8860     3.3160 H     1 <1>   0.0800 
 41 H       -1.3000    -5.2790     1.0350 H     1 <1>   0.3700 
 42 H        0.5740    -5.6200     2.7340 H     1 <1>   0.1500 
 43 H        4.8960    -0.1100     0.8920 H     1 <1>   0.1500 
 44 H        3.1930     1.4100    -2.6920 H     1 <1>   0.1500 
 45 H        5.0870     3.3790    -1.1600 H     1 <1>   0.0800 
 46 H        4.3970     4.8580    -0.5320 H     1 <1>   0.0800 
 47 H        3.6830     4.0910    -1.9320 H     1 <1>   0.0800 
 48 H        6.1690    -1.7660    -0.4100 H     1 <1>   0.1500 
 49 H        4.4660    -0.2360    -4.0020 H     1 <1>   0.1500 
 50 H       -1.8030    -5.2880    -2.1830 H     1 <1>   0.0800 
 51 H        5.9540    -1.8290    -2.8610 H     1 <1>   0.1500 
 52 H        0.3910    -7.1760    -1.3760 H     1 <1>   0.0800 
 53 H       -0.0660    -6.6870    -2.9960 H     1 <1>   0.0800 
 54 H       -3.4680    -7.4270    -1.7220 H     1 <1>   0.0800 
 55 H       -2.7980    -8.3320    -0.3640 H     1 <1>   0.0800 
 56 H       -0.9930    -8.9970    -1.6660 H     1 <1>   0.0800 
 57 H       -1.8000    -8.2710    -3.0400 H     1 <1>   0.0800 
@<TRIPOS>BOND
  1   1   2  2   
  2   2   3  am  
  3   2   4  1   
  4   3   5  1   
  5   3  32  1   
  6   4   6  ar  
  7   4   7  ar  
  8   5   8  1   
  9   5   9  2   
 10   6  10  ar  
 11   6  11  1   
 12   7  12  ar  
 13   7  33  1   
 14   8  13  1   
 15   8  14  1   
 16   9  15  1   
 17   9  16  1   
 18  10  17  1   
 19  10  18  ar  
 20  11  34  1   
 21  11  35  1   
 22  11  36  1   
 23  12  18  ar  
 24  12  37  1   
 25  13  16  2   
 26  14  38  1   
 27  14  39  1   
 28  14  40  1   
 29  15  19  ar  
 30  15  20  ar  
 31  16  21  1   
 32  17  22  am  
 33  17  41  1   
 34  18  42  1   
 35  19  23  ar  
 36  19  43  1   
 37  20  24  ar  
 38  20  44  1   
 39  21  45  1   
 40  21  46  1   
 41  21  47  1   
 42  22  25  2   
 43  22  26  1   
 44  23  27  ar  
 45  23  48  1   
 46  24  27  ar  
 47  24  49  1   
 48  26  28  1   
 49  26  29  1   
 50  26  50  1   
 51  27  51  1   
 52  28  30  1   
 53  29  31  1   
 54  29  52  1   
 55  29  53  1   
 56  30  31  1   
 57  30  54  1   
 58  30  55  1   
 59  31  56  1   
 60  31  57  1   
@<TRIPOS>SUBSTRUCTURE
  1 ****   6 GROUP 4 **** **** 0

# MOE 2024.06 (io_trps.svl 2023.06)
