@<TRIPOS>MOLECULE
NONAME
46 48 1 0 0 
SMALL
USER_CHARGES


@<TRIPOS>ATOM
  1 O       -0.8430    -0.0130    -0.9290 O.2   1 <1>  -0.5700 
  2 C       -1.7430     0.7500    -0.6310 C.2   1 <1>   0.5440 
  3 N       -2.9810     0.2400    -0.3080 N.am  1 <1>  -0.6600 
  4 C       -1.4780     2.1760    -0.6230 C.ar  1 <1>   0.0860 
  5 C       -3.2910    -1.2150    -0.5280 C.3   1 <1>   0.1400 
  6 C       -4.0490     1.0490     0.3600 C.3   1 <1>   0.1400 
  7 C       -0.4310     2.7090     0.0980 C.ar  1 <1>  -0.1500 
  8 C       -2.2800     3.0660    -1.3650 C.ar  1 <1>  -0.1500 
  9 C       -4.8060    -1.4120    -0.6590 C.3   1 <1>   0.2000 
 10 C       -4.8670     0.1820     1.3250 C.3   1 <1>  -0.1600 
 11 C       -0.1640     4.0900     0.1290 C.ar  1 <1>   0.0000 
 12 C       -2.0420     4.4140    -1.3530 C.ar  1 <1>  -0.1500 
 13 O       -5.0800    -2.7020    -1.0730 O.3   1 <1>  -0.6800 
 14 C       -5.5420    -1.0690     0.6730 C.3   1 <1>  -0.1060 
 15 C       -0.9900     4.9680    -0.6070 C.ar  1 <1>   0.3100 
 16 C        0.8950     4.6490     0.8650 C.ar  1 <1>  -0.1500 
 17 C       -5.4450    -2.2230     1.7040 C.2   1 <1>   0.9060 
 18 C       -7.0530    -0.8060     0.3950 C.3   1 <1>  -0.1600 
 19 N       -0.8100     6.3110    -0.6210 N.ar  1 <1>  -0.6200 
 20 C        1.0590     6.0000     0.8320 C.ar  1 <1>  -0.1500 
 21 O       -4.9620    -3.3220     1.3870 O.co2 1 <1>  -0.9000 
 22 O       -5.8590    -2.0240     2.8520 O.co2 1 <1>  -0.9000 
 23 C       -7.4000     0.4120    -0.4840 C.3   1 <1>  -0.1600 
 24 C        0.1790     6.7850     0.0740 C.ar  1 <1>   0.1600 
 25 C       -8.9160     0.5440    -0.6480 C.3   1 <1>  -0.2400 
 26 H       -2.8080    -1.5520    -1.4280 H     1 <1>   0.0800 
 27 H       -2.9190    -1.7870     0.3040 H     1 <1>   0.0800 
 28 H       -3.6050     1.8580     0.9130 H     1 <1>   0.0800 
 29 H       -4.6960     1.4650    -0.3920 H     1 <1>   0.0800 
 30 H        0.2060     2.0460     0.6560 H     1 <1>   0.1500 
 31 H       -3.0850     2.6570    -1.9510 H     1 <1>   0.1500 
 32 H       -5.1340    -0.7730    -1.4550 H     1 <1>   0.0800 
 33 H       -4.1860    -0.1460     2.0930 H     1 <1>   0.0800 
 34 H       -5.6060     0.7800     1.8270 H     1 <1>   0.0800 
 35 H       -2.6530     5.0930    -1.9190 H     1 <1>   0.1500 
 36 H       -5.0280    -3.2560    -0.2320 H     1 <1>   0.4000 
 37 H        1.5480     4.0100     1.4330 H     1 <1>   0.1500 
 38 H       -7.4660    -1.6920    -0.0570 H     1 <1>   0.0800 
 39 H       -7.5490    -0.6890     1.3450 H     1 <1>   0.0800 
 40 H        1.8520     6.4830     1.3750 H     1 <1>   0.1500 
 41 H       -7.0250     1.3130    -0.0320 H     1 <1>   0.0800 
 42 H       -6.9600     0.3100    -1.4590 H     1 <1>   0.0800 
 43 H        0.3340     7.8510     0.0690 H     1 <1>   0.1500 
 44 H       -9.3860     0.6700     0.3120 H     1 <1>   0.0800 
 45 H       -9.3180    -0.3380    -1.1160 H     1 <1>   0.0800 
 46 H       -9.1490     1.3960    -1.2610 H     1 <1>   0.0800 
@<TRIPOS>BOND
  1   1   2  2   
  2   2   3  am  
  3   2   4  1   
  4   3   5  1   
  5   3   6  1   
  6   4   7  ar  
  7   4   8  ar  
  8   5   9  1   
  9   5  26  1   
 10   5  27  1   
 11   6  10  1   
 12   6  28  1   
 13   6  29  1   
 14   7  11  ar  
 15   7  30  1   
 16   8  12  ar  
 17   8  31  1   
 18   9  13  1   
 19   9  14  1   
 20   9  32  1   
 21  10  14  1   
 22  10  33  1   
 23  10  34  1   
 24  11  15  ar  
 25  11  16  ar  
 26  12  15  ar  
 27  12  35  1   
 28  13  36  1   
 29  14  17  1   
 30  14  18  1   
 31  15  19  ar  
 32  16  20  ar  
 33  16  37  1   
 34  17  21  ar  
 35  17  22  ar  
 36  18  23  1   
 37  18  38  1   
 38  18  39  1   
 39  19  24  ar  
 40  20  24  ar  
 41  20  40  1   
 42  23  25  1   
 43  23  41  1   
 44  23  42  1   
 45  24  43  1   
 46  25  44  1   
 47  25  45  1   
 48  25  46  1   
@<TRIPOS>SUBSTRUCTURE
  1 ****   6 GROUP 4 **** **** 0

# MOE 2024.06 (io_trps.svl 2023.06)
