@<TRIPOS>MOLECULE
NONAME
42 43 1 0 0 
SMALL
USER_CHARGES


@<TRIPOS>ATOM
  1 O       -1.4550     6.6330    -1.6240 O.co2 1 <1>  -0.9000 
  2 C       -1.9320     5.6060    -1.0930 C.2   1 <1>   0.9790 
  3 O       -3.1220     5.3320    -1.3350 O.co2 1 <1>  -0.9000 
  4 C       -1.1320     4.7630    -0.1970 C.ar  1 <1>   0.1310 
  5 N        0.1810     4.9960     0.0000 N.ar  1 <1>  -0.6200 
  6 C       -1.7770     3.7120     0.4580 C.ar  1 <1>   0.1600 
  7 C        0.7790     4.1810     0.8490 C.ar  1 <1>   0.4100 
  8 N       -1.2070     2.8770     1.3180 N.ar  1 <1>  -0.6200 
  9 N        2.1460     4.4230     1.0680 N.pl3 1 <1>  -0.8380 
 10 C        0.0700     3.1500     1.4900 C.ar  1 <1>   0.1600 
 11 C        2.8030     5.5500     0.3210 C.3   1 <1>   0.2090 
 12 C        3.0310     3.2510     1.3360 C.3   1 <1>   0.1290 
 13 C        2.2630     6.9180     0.7960 C.3   1 <1>   0.3430 
 14 N        2.2570     7.9770    -0.2780 N.4   1 <1>  -0.9590 
 15 C        2.1110     9.3600     0.2530 C.3   1 <1>   0.4230 
 16 C        1.1200     7.6730    -1.2110 C.3   1 <1>   0.3430 
 17 C        2.1580    10.3610    -0.9120 C.3   1 <1>  -0.1600 
 18 C        3.2350     9.6800     1.2400 C.3   1 <1>  -0.2400 
 19 C        1.1500     8.6160    -2.4110 C.3   1 <1>  -0.1600 
 20 C        1.0790    10.0780    -1.9630 C.3   1 <1>  -0.1600 
 21 H       -2.8260     3.5620     0.2580 H     1 <1>   0.1500 
 22 H        0.6020     2.5310     2.1840 H     1 <1>   0.1500 
 23 H        2.6130     5.4130    -0.7290 H     1 <1>   0.0800 
 24 H        3.8660     5.5270     0.4770 H     1 <1>   0.0800 
 25 H        2.8540     2.8800     2.3310 H     1 <1>   0.0800 
 26 H        4.0690     3.5220     1.2590 H     1 <1>   0.0800 
 27 H        2.8250     2.4670     0.6260 H     1 <1>   0.0800 
 28 H        2.8640     7.2290     1.6300 H     1 <1>   0.0800 
 29 H        1.2540     6.7840     1.1510 H     1 <1>   0.0800 
 30 H        3.1210     7.9370    -0.8220 H     1 <1>   0.4500 
 31 H        1.1580     9.4510     0.7520 H     1 <1>   0.0800 
 32 H        0.1830     7.7920    -0.6910 H     1 <1>   0.0800 
 33 H        1.1620     6.6530    -1.5580 H     1 <1>   0.0800 
 34 H        3.1280    10.3340    -1.3760 H     1 <1>   0.0800 
 35 H        2.0100    11.3570    -0.5310 H     1 <1>   0.0800 
 36 H        4.1990     9.4760     0.8080 H     1 <1>   0.0800 
 37 H        3.1210     9.1320     2.1560 H     1 <1>   0.0800 
 38 H        3.1990    10.7240     1.4980 H     1 <1>   0.0800 
 39 H        0.2970     8.3920    -3.0320 H     1 <1>   0.0800 
 40 H        2.0350     8.4360    -2.9940 H     1 <1>   0.0800 
 41 H        1.2020    10.7300    -2.8120 H     1 <1>   0.0800 
 42 H        0.1050    10.2660    -1.5410 H     1 <1>   0.0800 
@<TRIPOS>BOND
  1   1   2  ar  
  2   2   3  ar  
  3   2   4  1   
  4   4   5  ar  
  5   4   6  ar  
  6   5   7  ar  
  7   6   8  ar  
  8   6  21  1   
  9   7   9  1   
 10   7  10  ar  
 11   8  10  ar  
 12   9  11  1   
 13   9  12  1   
 14  10  22  1   
 15  11  13  1   
 16  11  23  1   
 17  11  24  1   
 18  12  25  1   
 19  12  26  1   
 20  12  27  1   
 21  13  14  1   
 22  13  28  1   
 23  13  29  1   
 24  14  15  1   
 25  14  16  1   
 26  14  30  1   
 27  15  17  1   
 28  15  18  1   
 29  15  31  1   
 30  16  19  1   
 31  16  32  1   
 32  16  33  1   
 33  17  20  1   
 34  17  34  1   
 35  17  35  1   
 36  18  36  1   
 37  18  37  1   
 38  18  38  1   
 39  19  20  1   
 40  19  39  1   
 41  19  40  1   
 42  20  41  1   
 43  20  42  1   
@<TRIPOS>SUBSTRUCTURE
  1 ****   5 GROUP 4 **** **** 0

# MOE 2024.06 (io_trps.svl 2023.06)
