@<TRIPOS>MOLECULE
NONAME
50 52 1 0 0 
SMALL
USER_CHARGES


@<TRIPOS>ATOM
  1 CL      -0.9830    -1.0050     2.2200 Cl    1 <1>  -0.1770 
  2 C        0.2210    -0.8650     0.9590 C.ar  1 <1>   0.1770 
  3 C        1.0810    -1.9230     0.6670 C.ar  1 <1>  -0.1440 
  4 C        0.2800     0.3300     0.2680 C.ar  1 <1>  -0.1500 
  5 C        2.0240    -1.7570    -0.3420 C.ar  1 <1>  -0.1500 
  6 C        1.0330    -3.2580     1.4160 C.3   1 <1>   0.0450 
  7 C        1.2250     0.4530    -0.7290 C.ar  1 <1>   0.1900 
  8 C        2.1000    -0.5670    -1.0480 C.ar  1 <1>  -0.1500 
  9 C        0.9680    -4.4560     0.4770 C.2   1 <1>   0.5690 
 10 F        1.2930     1.5740    -1.3960 F     1 <1>  -0.1900 
 11 O        1.9750    -5.1160     0.3770 O.2   1 <1>  -0.5700 
 12 N       -0.1750    -4.7700    -0.2250 N.am  1 <1>  -0.6600 
 13 C       -0.1970    -5.9260    -1.1860 C.3   1 <1>   0.1400 
 14 C       -1.4040    -3.9300    -0.2520 C.3   1 <1>   0.1400 
 15 C       -1.4100    -6.8590    -0.9490 C.3   1 <1>   0.0000 
 16 C       -2.6320    -4.7970     0.0170 C.3   1 <1>  -0.1600 
 17 C       -2.6760    -5.9610    -0.9740 C.3   1 <1>   0.2000 
 18 C       -1.5390    -7.8470    -2.1360 C.3   1 <1>   0.1200 
 19 C       -1.2690    -7.6130     0.4130 C.3   1 <1>  -0.0160 
 20 O       -3.8240    -6.6930    -0.7240 O.3   1 <1>  -0.6800 
 21 O       -0.3260    -8.4480    -2.4420 O.3   1 <1>  -0.6800 
 22 C       -0.2510    -8.7490     0.4320 C.ar  1 <1>  -0.1430 
 23 C        1.0860    -8.4990     0.6930 C.ar  1 <1>  -0.1500 
 24 C       -0.6590   -10.0530     0.1870 C.ar  1 <1>  -0.1500 
 25 C        2.0080    -9.5310     0.6900 C.ar  1 <1>  -0.1500 
 26 C        0.2610   -11.0870     0.1840 C.ar  1 <1>  -0.1500 
 27 C        1.5960   -10.8270     0.4340 C.ar  1 <1>  -0.1500 
 28 H       -0.3870     1.1390     0.4990 H     1 <1>   0.1500 
 29 H        2.7070    -2.5570    -0.5850 H     1 <1>   0.1500 
 30 H        0.2070    -3.3180     2.0960 H     1 <1>   0.0800 
 31 H        1.9260    -3.3420     2.0090 H     1 <1>   0.0800 
 32 H        2.8250    -0.4310    -1.8310 H     1 <1>   0.1500 
 33 H       -0.2410    -5.5330    -2.1860 H     1 <1>   0.0800 
 34 H        0.7160    -6.4920    -1.1170 H     1 <1>   0.0800 
 35 H       -1.3660    -3.1490     0.4830 H     1 <1>   0.0800 
 36 H       -1.4870    -3.4670    -1.2210 H     1 <1>   0.0800 
 37 H       -3.5130    -4.1920    -0.1030 H     1 <1>   0.0800 
 38 H       -2.5980    -5.1510     1.0310 H     1 <1>   0.0800 
 39 H       -2.7880    -5.5520    -1.9650 H     1 <1>   0.0800 
 40 H       -1.8640    -7.3330    -3.0240 H     1 <1>   0.0800 
 41 H       -2.2550    -8.6210    -1.9140 H     1 <1>   0.0800 
 42 H       -1.0090    -6.9160     1.1900 H     1 <1>   0.0800 
 43 H       -2.2160    -8.0370     0.6910 H     1 <1>   0.0800 
 44 H       -3.8810    -6.9270     0.2210 H     1 <1>   0.4000 
 45 H        0.0300    -8.9040    -1.6430 H     1 <1>   0.4000 
 46 H        1.4240    -7.4990     0.8990 H     1 <1>   0.1500 
 47 H       -1.6940   -10.2730    -0.0090 H     1 <1>   0.1500 
 48 H        3.0450    -9.3220     0.8880 H     1 <1>   0.1500 
 49 H       -0.0620   -12.0950    -0.0120 H     1 <1>   0.1500 
 50 H        2.3130   -11.6290     0.4300 H     1 <1>   0.1500 
@<TRIPOS>BOND
  1   1   2  1   
  2   2   3  ar  
  3   2   4  ar  
  4   3   5  ar  
  5   3   6  1   
  6   4   7  ar  
  7   4  28  1   
  8   5   8  ar  
  9   5  29  1   
 10   6   9  1   
 11   6  30  1   
 12   6  31  1   
 13   7   8  ar  
 14   7  10  1   
 15   8  32  1   
 16   9  11  2   
 17   9  12  am  
 18  12  13  1   
 19  12  14  1   
 20  13  15  1   
 21  13  33  1   
 22  13  34  1   
 23  14  16  1   
 24  14  35  1   
 25  14  36  1   
 26  15  17  1   
 27  15  18  1   
 28  15  19  1   
 29  16  17  1   
 30  16  37  1   
 31  16  38  1   
 32  17  20  1   
 33  17  39  1   
 34  18  21  1   
 35  18  40  1   
 36  18  41  1   
 37  19  22  1   
 38  19  42  1   
 39  19  43  1   
 40  20  44  1   
 41  21  45  1   
 42  22  23  ar  
 43  22  24  ar  
 44  23  25  ar  
 45  23  46  1   
 46  24  26  ar  
 47  24  47  1   
 48  25  27  ar  
 49  25  48  1   
 50  26  27  ar  
 51  26  49  1   
 52  27  50  1   
@<TRIPOS>SUBSTRUCTURE
  1 ****  12 GROUP 4 **** **** 0

# MOE 2024.06 (io_trps.svl 2023.06)
