@<TRIPOS>MOLECULE
NONAME
48 50 1 0 0 
SMALL
USER_CHARGES


@<TRIPOS>ATOM
  1 S        0.3050     0.4450     1.0980 S.3   1 <1>  -0.0800 
  2 C        1.4680     1.4420     1.9300 C.2   1 <1>   0.2280 
  3 C        0.4590     1.4770    -0.2850 C.2   1 <1>  -0.1100 
  4 N        1.9150     2.4170     1.2430 N.2   1 <1>  -0.5650 
  5 C        1.3470     2.4690    -0.0470 C.2   1 <1>   0.1410 
  6 C        1.6760     3.5160    -1.0200 C.2   1 <1>   0.7160 
  7 O        0.9730     3.6280    -2.0090 O.2   1 <1>  -0.5700 
  8 N        2.7500     4.3910    -0.9050 N.am  1 <1>  -0.6600 
  9 C        3.9740     4.0030    -0.1340 C.3   1 <1>   0.1400 
 10 C        2.7040     5.6810    -1.6540 C.3   1 <1>   0.1400 
 11 C        5.3010     4.5300    -0.7020 C.3   1 <1>   0.3430 
 12 C        3.3030     6.8490    -0.8700 C.3   1 <1>  -0.1600 
 13 N        5.5660     5.9510    -0.3280 N.4   1 <1>  -0.9590 
 14 C        4.8080     6.9870    -1.0690 C.3   1 <1>   0.3430 
 15 C        7.0190     6.2660    -0.3330 C.3   1 <1>   0.5230 
 16 C        7.2690     7.2890     0.7650 C.2   1 <1>   0.0070 
 17 N        6.4330     7.4840     1.7420 N.2   1 <1>  -0.5650 
 18 N        8.3760     8.0740     0.8260 N.pl3 1 <1>   0.0480 
 19 C        7.0220     8.4400     2.4820 C.2   1 <1>   0.0770 
 20 C        8.2000     8.8110     1.9380 C.2   1 <1>  -0.3020 
 21 C        9.5330     8.1970    -0.0960 C.3   1 <1>   0.0960 
 22 C       10.4550     6.9760    -0.0420 C.3   1 <1>   0.1200 
 23 O        9.7920     5.8620    -0.5620 O.3   1 <1>  -0.5600 
 24 C       10.5860     4.7150    -0.5880 C.3   1 <1>   0.0400 
 25 H        1.7160     1.1620     2.9390 H     1 <1>   0.1500 
 26 H       -0.1340     1.2560    -1.1550 H     1 <1>   0.1500 
 27 H        4.0420     2.9280    -0.1350 H     1 <1>   0.0800 
 28 H        3.8650     4.3150     0.8910 H     1 <1>   0.0800 
 29 H        1.6730     5.9240    -1.8580 H     1 <1>   0.0800 
 30 H        3.1930     5.5630    -2.6060 H     1 <1>   0.0800 
 31 H        5.3120     4.4070    -1.7720 H     1 <1>   0.0800 
 32 H        6.0870     3.9170    -0.2920 H     1 <1>   0.0800 
 33 H        3.0410     6.7990     0.1720 H     1 <1>   0.0800 
 34 H        2.8590     7.7480    -1.2590 H     1 <1>   0.0800 
 35 H        5.3380     6.1020     0.6750 H     1 <1>   0.4500 
 36 H        5.1070     7.9590    -0.7070 H     1 <1>   0.0800 
 37 H        5.0410     6.9360    -2.1200 H     1 <1>   0.0800 
 38 H        7.3320     6.6450    -1.2910 H     1 <1>   0.0800 
 39 H        7.5910     5.3820    -0.1060 H     1 <1>   0.0800 
 40 H        6.5630     8.8210     3.3810 H     1 <1>   0.1500 
 41 H        8.9030     9.5470     2.2850 H     1 <1>   0.1500 
 42 H       10.0960     9.0680     0.1870 H     1 <1>   0.0800 
 43 H        9.1800     8.3460    -1.1000 H     1 <1>   0.0800 
 44 H       10.7510     6.7710     0.9740 H     1 <1>   0.0800 
 45 H       11.3330     7.1580    -0.6400 H     1 <1>   0.0800 
 46 H       10.0070     3.9080    -1.0020 H     1 <1>   0.0800 
 47 H       10.8880     4.4650     0.4150 H     1 <1>   0.0800 
 48 H       11.4490     4.8910    -1.2080 H     1 <1>   0.0800 
@<TRIPOS>BOND
  1   1   2  1   
  2   1   3  1   
  3   2   4  2   
  4   2  25  1   
  5   3   5  2   
  6   3  26  1   
  7   4   5  1   
  8   5   6  1   
  9   6   7  2   
 10   6   8  am  
 11   8   9  1   
 12   8  10  1   
 13   9  11  1   
 14   9  27  1   
 15   9  28  1   
 16  10  12  1   
 17  10  29  1   
 18  10  30  1   
 19  11  13  1   
 20  11  31  1   
 21  11  32  1   
 22  12  14  1   
 23  12  33  1   
 24  12  34  1   
 25  13  14  1   
 26  13  15  1   
 27  13  35  1   
 28  14  36  1   
 29  14  37  1   
 30  15  16  1   
 31  15  38  1   
 32  15  39  1   
 33  16  17  2   
 34  16  18  1   
 35  17  19  1   
 36  18  20  1   
 37  18  21  1   
 38  19  20  2   
 39  19  40  1   
 40  20  41  1   
 41  21  22  1   
 42  21  42  1   
 43  21  43  1   
 44  22  23  1   
 45  22  44  1   
 46  22  45  1   
 47  23  24  1   
 48  24  46  1   
 49  24  47  1   
 50  24  48  1   
@<TRIPOS>SUBSTRUCTURE
  1 ****  13 GROUP 4 **** **** 0

# MOE 2024.06 (io_trps.svl 2023.06)
