@<TRIPOS>MOLECULE
NONAME
51 53 1 0 0 
SMALL
USER_CHARGES


@<TRIPOS>ATOM
  1 O        4.0740    -1.4570    -3.3280 O.2   1 <1>  -0.5700 
  2 C        3.5950    -1.6890    -2.2440 C.2   1 <1>   0.5690 
  3 N        3.6540    -0.7360    -1.2470 N.am  1 <1>  -0.6600 
  4 C        2.9660    -3.0690    -2.0450 C.3   1 <1>   0.1810 
  5 C        3.3310    -1.0350     0.2020 C.3   1 <1>   0.2200 
  6 C        3.8580     0.6860    -1.6850 C.3   1 <1>   0.1400 
  7 O        1.6950    -2.9650    -1.4180 O.3   1 <1>  -0.3630 
  8 C        2.0820    -0.2830     0.6850 C.3   1 <1>   0.1200 
  9 C        4.5360    -0.7750     1.1380 C.3   1 <1>   0.3430 
 10 C        3.9510     1.7350    -0.5630 C.3   1 <1>  -0.0800 
 11 C        1.0910    -4.0560    -0.8840 C.ar  1 <1>   0.0820 
 12 O        2.4200     0.9910     1.1440 O.3   1 <1>  -0.5600 
 13 N        5.5790     0.1130     0.5220 N.4   1 <1>  -0.9590 
 14 C        2.6110     1.9500     0.1580 C.3   1 <1>   0.1200 
 15 C        5.1230     1.5350     0.4150 C.3   1 <1>   0.3430 
 16 C       -0.0160    -3.8260    -0.0840 C.ar  1 <1>  -0.1500 
 17 C        1.5300    -5.3610    -1.0920 C.ar  1 <1>  -0.1500 
 18 C        6.8810     0.0130     1.2440 C.3   1 <1>   0.2630 
 19 C       -0.6770    -4.8800     0.5250 C.ar  1 <1>  -0.1500 
 20 C        0.8690    -6.4130    -0.4820 C.ar  1 <1>  -0.1500 
 21 C       -0.2300    -6.1840     0.3290 C.ar  1 <1>   0.0820 
 22 O       -0.8110    -7.2760     0.8890 O.3   1 <1>  -0.3620 
 23 C       -1.9710    -7.1620     1.6800 C.3   1 <1>   0.1200 
 24 C       -2.3770    -8.5630     2.1260 C.3   1 <1>  -0.2400 
 25 H        3.6120    -3.6660    -1.4300 H     1 <1>   0.0800 
 26 H        2.8280    -3.5460    -2.9980 H     1 <1>   0.0800 
 27 H        3.1010    -2.0780     0.3080 H     1 <1>   0.0800 
 28 H        4.7570     0.7350    -2.2780 H     1 <1>   0.0800 
 29 H        3.0450     0.9510    -2.3410 H     1 <1>   0.0800 
 30 H        1.6560    -0.8070     1.5240 H     1 <1>   0.0800 
 31 H        1.3320    -0.2190    -0.0860 H     1 <1>   0.0800 
 32 H        4.9800    -1.7290     1.3700 H     1 <1>   0.0800 
 33 H        4.1850    -0.3510     2.0650 H     1 <1>   0.0800 
 34 H        4.1400     2.6700    -1.0610 H     1 <1>   0.0800 
 35 H        5.6820    -0.2350    -0.4460 H     1 <1>   0.4500 
 36 H        1.7780     1.9330    -0.5250 H     1 <1>   0.0800 
 37 H        2.6150     2.9050     0.6550 H     1 <1>   0.0800 
 38 H        4.8400     1.9030     1.3880 H     1 <1>   0.0800 
 39 H        5.9500     2.1330     0.0680 H     1 <1>   0.0800 
 40 H       -0.3630    -2.8190     0.0600 H     1 <1>   0.1500 
 41 H        2.3690    -5.5840    -1.7230 H     1 <1>   0.1500 
 42 H        6.7740     0.3630     2.2590 H     1 <1>   0.0800 
 43 H        7.6300     0.6110     0.7500 H     1 <1>   0.0800 
 44 H        7.2200    -1.0100     1.2650 H     1 <1>   0.0800 
 45 H       -1.5300    -4.6670     1.1410 H     1 <1>   0.1500 
 46 H        1.2000    -7.4250    -0.6330 H     1 <1>   0.1500 
 47 H       -1.7450    -6.5430     2.5310 H     1 <1>   0.0800 
 48 H       -2.7480    -6.7130     1.0850 H     1 <1>   0.0800 
 49 H       -1.5880    -9.0090     2.7050 H     1 <1>   0.0800 
 50 H       -2.5840    -9.1780     1.2690 H     1 <1>   0.0800 
 51 H       -3.2620    -8.5100     2.7340 H     1 <1>   0.0800 
@<TRIPOS>BOND
  1   1   2  2   
  2   2   3  am  
  3   2   4  1   
  4   3   5  1   
  5   3   6  1   
  6   4   7  1   
  7   4  25  1   
  8   4  26  1   
  9   5   8  1   
 10   5   9  1   
 11   5  27  1   
 12   6  10  1   
 13   6  28  1   
 14   6  29  1   
 15   7  11  1   
 16   8  12  1   
 17   8  30  1   
 18   8  31  1   
 19   9  13  1   
 20   9  32  1   
 21   9  33  1   
 22  10  14  1   
 23  10  15  1   
 24  10  34  1   
 25  11  16  ar  
 26  11  17  ar  
 27  12  14  1   
 28  13  15  1   
 29  13  18  1   
 30  13  35  1   
 31  14  36  1   
 32  14  37  1   
 33  15  38  1   
 34  15  39  1   
 35  16  19  ar  
 36  16  40  1   
 37  17  20  ar  
 38  17  41  1   
 39  18  42  1   
 40  18  43  1   
 41  18  44  1   
 42  19  21  ar  
 43  19  45  1   
 44  20  21  ar  
 45  20  46  1   
 46  21  22  1   
 47  22  23  1   
 48  23  24  1   
 49  23  47  1   
 50  23  48  1   
 51  24  49  1   
 52  24  50  1   
 53  24  51  1   
@<TRIPOS>SUBSTRUCTURE
  1 ****   7 GROUP 4 **** **** 0

# MOE 2024.06 (io_trps.svl 2023.06)
