@<TRIPOS>MOLECULE
NONAME
39 41 1 0 0 
SMALL
USER_CHARGES


@<TRIPOS>ATOM
  1 F       -2.4490     0.0200    -1.8050 F     1 <1>  -0.1900 
  2 C       -2.3910    -0.7760    -0.7720 C.ar  1 <1>   0.1900 
  3 C       -2.0780    -0.2570     0.4730 C.ar  1 <1>   0.1600 
  4 C       -2.6480    -2.1140    -0.9450 C.ar  1 <1>  -0.1500 
  5 N       -2.0000    -1.0000     1.5700 N.ar  1 <1>  -0.6200 
  6 C       -2.5850    -2.9110     0.1900 C.ar  1 <1>   0.0860 
  7 C       -2.2430    -2.2950     1.3960 C.ar  1 <1>   0.1600 
  8 C       -2.8560    -4.3310     0.1560 C.2   1 <1>   0.5440 
  9 O       -2.0170    -5.0930     0.5940 O.2   1 <1>  -0.5700 
 10 N       -4.0370    -4.8430    -0.3430 N.am  1 <1>  -0.6600 
 11 C       -5.2730    -4.0100    -0.4660 C.3   1 <1>   0.2200 
 12 C       -4.1530    -6.3150    -0.5860 C.3   1 <1>   0.0600 
 13 C       -6.4870    -4.5740     0.2690 C.3   1 <1>  -0.1600 
 14 C       -5.7460    -3.8440    -1.9070 C.3   1 <1>  -0.1600 
 15 C       -7.6860    -3.8800    -0.3890 C.3   1 <1>  -0.0800 
 16 C       -7.2150    -3.4200    -1.7800 C.3   1 <1>  -0.0800 
 17 C       -8.1470    -2.6170     0.3540 C.3   1 <1>  -0.1600 
 18 C       -7.4160    -1.8970    -1.8240 C.3   1 <1>  -0.1600 
 19 C       -8.4550    -1.6180    -0.7490 C.3   1 <1>   0.2000 
 20 O       -8.3190    -0.3310    -0.2780 O.3   1 <1>  -0.6800 
 21 H       -1.8850     0.7970     0.5640 H     1 <1>   0.1500 
 22 H       -2.8820    -2.5230    -1.9110 H     1 <1>   0.1500 
 23 H       -2.1700    -2.9230     2.2690 H     1 <1>   0.1500 
 24 H       -5.0950    -3.0280    -0.0620 H     1 <1>   0.0800 
 25 H       -4.8450    -6.5220    -1.3810 H     1 <1>   0.0800 
 26 H       -4.4860    -6.8030     0.3130 H     1 <1>   0.0800 
 27 H       -3.1940    -6.7220    -0.8590 H     1 <1>   0.0800 
 28 H       -6.5820    -5.6300     0.0980 H     1 <1>   0.0800 
 29 H       -6.4340    -4.3920     1.3280 H     1 <1>   0.0800 
 30 H       -5.1590    -3.1230    -2.4460 H     1 <1>   0.0800 
 31 H       -5.7040    -4.7850    -2.4230 H     1 <1>   0.0800 
 32 H       -8.5140    -4.5640    -0.4850 H     1 <1>   0.0800 
 33 H       -7.8120    -3.8860    -2.5470 H     1 <1>   0.0800 
 34 H       -7.3540    -2.2400     0.9760 H     1 <1>   0.0800 
 35 H       -9.0160    -2.8120     0.9560 H     1 <1>   0.0800 
 36 H       -7.7610    -1.5750    -2.7900 H     1 <1>   0.0800 
 37 H       -6.4980    -1.3920    -1.5810 H     1 <1>   0.0800 
 38 H       -9.4540    -1.7510    -1.1290 H     1 <1>   0.0800 
 39 H       -7.4240    -0.2010     0.0860 H     1 <1>   0.4000 
@<TRIPOS>BOND
  1   1   2  1   
  2   2   3  ar  
  3   2   4  ar  
  4   3   5  ar  
  5   3  21  1   
  6   4   6  ar  
  7   4  22  1   
  8   5   7  ar  
  9   6   7  ar  
 10   6   8  1   
 11   7  23  1   
 12   8   9  2   
 13   8  10  am  
 14  10  11  1   
 15  10  12  1   
 16  11  13  1   
 17  11  14  1   
 18  11  24  1   
 19  12  25  1   
 20  12  26  1   
 21  12  27  1   
 22  13  15  1   
 23  13  28  1   
 24  13  29  1   
 25  14  16  1   
 26  14  30  1   
 27  14  31  1   
 28  15  16  1   
 29  15  17  1   
 30  15  32  1   
 31  16  18  1   
 32  16  33  1   
 33  17  19  1   
 34  17  34  1   
 35  17  35  1   
 36  18  19  1   
 37  18  36  1   
 38  18  37  1   
 39  19  20  1   
 40  19  38  1   
 41  20  39  1   
@<TRIPOS>SUBSTRUCTURE
  1 ****  11 GROUP 4 **** **** 0

# MOE 2024.06 (io_trps.svl 2023.06)
