@<TRIPOS>MOLECULE
NONAME
43 44 1 0 0 
SMALL
USER_CHARGES


@<TRIPOS>ATOM
  1 O       -1.1950     0.1990    -2.4100 O.2   1 <1>  -0.5700 
  2 C       -1.9860     0.8230    -1.7250 C.2   1 <1>   0.5440 
  3 N       -3.1770     0.2280    -1.3670 N.am  1 <1>  -0.6600 
  4 C       -1.6500     2.1700    -1.3290 C.ar  1 <1>   0.0860 
  5 C       -3.4870    -1.1750    -1.7980 C.3   1 <1>   0.3210 
  6 C       -4.3310     0.9710    -0.7580 C.3   1 <1>   0.1400 
  7 C       -0.9720     2.4290    -0.1340 C.ar  1 <1>   0.0820 
  8 C       -1.9960     3.2530    -2.1340 C.ar  1 <1>  -0.1500 
  9 C       -3.8690    -2.0570    -0.6170 C.2   1 <1>   0.0460 
 10 C       -4.4380     0.8190     0.7700 C.3   1 <1>   0.1200 
 11 O       -0.6050     1.3990     0.6600 O.3   1 <1>  -0.3630 
 12 C       -0.6940     3.7330     0.2690 C.ar  1 <1>  -0.1440 
 13 C       -1.7040     4.5480    -1.7520 C.ar  1 <1>  -0.1500 
 14 N       -5.1460    -2.4530    -0.4230 N.2   1 <1>  -0.5650 
 15 C       -3.0630    -2.5350     0.3600 C.2   1 <1>  -0.3320 
 16 O       -3.4070     1.4830     1.4140 O.3   1 <1>  -0.6800 
 17 C        0.6320     0.7880     0.3690 C.3   1 <1>   0.0400 
 18 C       -1.0590     4.7870    -0.5510 C.ar  1 <1>  -0.1500 
 19 C       -0.0080     4.0130     1.5980 C.3   1 <1>  -0.0970 
 20 C       -5.0880    -3.1620     0.6570 C.2   1 <1>   0.0360 
 21 N       -3.8500    -3.2510     1.1830 N.pl3 1 <1>   0.0330 
 22 C       -1.5730    -2.3400     0.5810 C.3   1 <1>  -0.0600 
 23 H       -2.6420    -1.6250    -2.2870 H     1 <1>   0.0800 
 24 H       -4.2970    -1.1600    -2.5050 H     1 <1>   0.0800 
 25 H       -5.2420     0.5960    -1.1920 H     1 <1>   0.0800 
 26 H       -4.2740     2.0170    -1.0000 H     1 <1>   0.0800 
 27 H       -2.4980     3.0680    -3.0670 H     1 <1>   0.1500 
 28 H       -4.4190    -0.2120     1.0690 H     1 <1>   0.0800 
 29 H       -5.3590     1.2540     1.1140 H     1 <1>   0.0800 
 30 H       -1.9790     5.3740    -2.3860 H     1 <1>   0.1500 
 31 H       -2.5350     1.2000     1.0530 H     1 <1>   0.4000 
 32 H        0.8150     0.0280     1.1080 H     1 <1>   0.0800 
 33 H        1.4070     1.5330     0.4050 H     1 <1>   0.0800 
 34 H        0.5890     0.3450    -0.6100 H     1 <1>   0.0800 
 35 H       -0.8470     5.8010    -0.2590 H     1 <1>   0.1500 
 36 H       -0.4950     3.4610     2.3830 H     1 <1>   0.0800 
 37 H       -0.0530     5.0580     1.8430 H     1 <1>   0.0800 
 38 H        1.0230     3.7130     1.5500 H     1 <1>   0.0800 
 39 H       -5.9370    -3.6430     1.1100 H     1 <1>   0.1500 
 40 H       -3.5730    -3.7520     2.0320 H     1 <1>   0.2700 
 41 H       -1.1510    -1.7530    -0.2160 H     1 <1>   0.0800 
 42 H       -1.0710    -3.2910     0.6060 H     1 <1>   0.0800 
 43 H       -1.4020    -1.8230     1.5080 H     1 <1>   0.0800 
@<TRIPOS>BOND
  1   1   2  2   
  2   2   3  am  
  3   2   4  1   
  4   3   5  1   
  5   3   6  1   
  6   4   7  ar  
  7   4   8  ar  
  8   5   9  1   
  9   5  23  1   
 10   5  24  1   
 11   6  10  1   
 12   6  25  1   
 13   6  26  1   
 14   7  11  1   
 15   7  12  ar  
 16   8  13  ar  
 17   8  27  1   
 18   9  14  1   
 19   9  15  2   
 20  10  16  1   
 21  10  28  1   
 22  10  29  1   
 23  11  17  1   
 24  12  18  ar  
 25  12  19  1   
 26  13  18  ar  
 27  13  30  1   
 28  14  20  2   
 29  15  21  1   
 30  15  22  1   
 31  16  31  1   
 32  17  32  1   
 33  17  33  1   
 34  17  34  1   
 35  18  35  1   
 36  19  36  1   
 37  19  37  1   
 38  19  38  1   
 39  20  21  1   
 40  20  39  1   
 41  21  40  1   
 42  22  41  1   
 43  22  42  1   
 44  22  43  1   
@<TRIPOS>SUBSTRUCTURE
  1 ****   3 GROUP 4 **** **** 0

# MOE 2024.06 (io_trps.svl 2023.06)
