@<TRIPOS>MOLECULE
NONAME
51 53 1 0 0 
SMALL
USER_CHARGES


@<TRIPOS>ATOM
  1 CL       3.0530    -1.2530     2.5850 Cl    1 <1>  -0.1770 
  2 C        1.9020    -2.2070     1.6820 C.ar  1 <1>   0.1770 
  3 C        2.3010    -2.9070     0.5530 C.ar  1 <1>  -0.1440 
  4 C        0.5930    -2.2440     2.1210 C.ar  1 <1>  -0.1500 
  5 C        1.3530    -3.6540    -0.1300 C.ar  1 <1>  -0.1500 
  6 C        3.7410    -2.8610     0.0650 C.3   1 <1>  -0.0960 
  7 C       -0.3370    -2.9950     1.4250 C.ar  1 <1>  -0.1500 
  8 C        0.0220    -3.7230     0.2880 C.ar  1 <1>   0.0860 
  9 C       -0.9470    -4.5220    -0.4460 C.2   1 <1>   0.5440 
 10 O       -0.8750    -4.5760    -1.6590 O.2   1 <1>  -0.5700 
 11 N       -1.9380    -5.2400     0.2000 N.am  1 <1>  -0.6600 
 12 C       -3.1230    -5.7410    -0.5680 C.3   1 <1>   0.2200 
 13 C       -1.6030    -5.9660     1.4630 C.3   1 <1>   0.0600 
 14 C       -3.8420    -4.6190    -1.3160 C.3   1 <1>  -0.1600 
 15 C       -4.2370    -6.3060     0.3160 C.3   1 <1>  -0.1600 
 16 C       -5.2510    -5.1570    -1.5980 C.3   1 <1>  -0.0800 
 17 C       -5.5110    -6.2370    -0.5390 C.3   1 <1>  -0.0800 
 18 C       -6.3510    -4.1020    -1.4340 C.3   1 <1>  -0.1600 
 19 C       -6.7540    -5.7910     0.2420 C.3   1 <1>  -0.1600 
 20 C       -6.8330    -4.2860     0.0030 C.3   1 <1>   0.4230 
 21 N       -8.1860    -3.7160     0.2880 N.4   1 <1>  -0.9590 
 22 C       -9.2920    -4.2210    -0.5920 C.3   1 <1>   0.2630 
 23 C       -8.1420    -2.2210     0.2470 C.3   1 <1>   0.2630 
 24 H        0.3110    -1.6870     2.9960 H     1 <1>   0.1500 
 25 H        1.6350    -4.2020    -1.0130 H     1 <1>   0.1500 
 26 H        3.8680    -3.4550    -0.8220 H     1 <1>   0.0800 
 27 H        4.4000    -3.2380     0.8260 H     1 <1>   0.0800 
 28 H        4.0190    -1.8470    -0.1620 H     1 <1>   0.0800 
 29 H       -1.3590    -3.0180     1.7600 H     1 <1>   0.1500 
 30 H       -2.8010    -6.4910    -1.2720 H     1 <1>   0.0800 
 31 H       -2.2370    -5.6270     2.2630 H     1 <1>   0.0800 
 32 H       -0.5770    -5.8000     1.7430 H     1 <1>   0.0800 
 33 H       -1.7380    -7.0250     1.3250 H     1 <1>   0.0800 
 34 H       -3.8800    -3.7480    -0.6860 H     1 <1>   0.0800 
 35 H       -3.3400    -4.3720    -2.2350 H     1 <1>   0.0800 
 36 H       -4.0280    -7.3190     0.6140 H     1 <1>   0.0800 
 37 H       -4.3450    -5.6850     1.1870 H     1 <1>   0.0800 
 38 H       -5.2750    -5.5890    -2.5860 H     1 <1>   0.0800 
 39 H       -5.6760    -7.1900    -1.0150 H     1 <1>   0.0800 
 40 H       -7.1290    -4.3280    -2.1390 H     1 <1>   0.0800 
 41 H       -5.9800    -3.1090    -1.6170 H     1 <1>   0.0800 
 42 H       -6.6810    -6.0310     1.2880 H     1 <1>   0.0800 
 43 H       -7.6040    -6.2960    -0.1790 H     1 <1>   0.0800 
 44 H       -6.1070    -3.8200     0.6520 H     1 <1>   0.0800 
 45 H       -8.4120    -3.9940     1.2540 H     1 <1>   0.4500 
 46 H       -9.1190    -3.9380    -1.6170 H     1 <1>   0.0800 
 47 H      -10.2360    -3.8050    -0.2790 H     1 <1>   0.0800 
 48 H       -9.3620    -5.2950    -0.5370 H     1 <1>   0.0800 
 49 H       -7.9100    -1.8810    -0.7490 H     1 <1>   0.0800 
 50 H       -7.3880    -1.8500     0.9220 H     1 <1>   0.0800 
 51 H       -9.0960    -1.8100     0.5380 H     1 <1>   0.0800 
@<TRIPOS>BOND
  1   1   2  1   
  2   2   3  ar  
  3   2   4  ar  
  4   3   5  ar  
  5   3   6  1   
  6   4   7  ar  
  7   4  24  1   
  8   5   8  ar  
  9   5  25  1   
 10   6  26  1   
 11   6  27  1   
 12   6  28  1   
 13   7   8  ar  
 14   7  29  1   
 15   8   9  1   
 16   9  10  2   
 17   9  11  am  
 18  11  12  1   
 19  11  13  1   
 20  12  14  1   
 21  12  15  1   
 22  12  30  1   
 23  13  31  1   
 24  13  32  1   
 25  13  33  1   
 26  14  16  1   
 27  14  34  1   
 28  14  35  1   
 29  15  17  1   
 30  15  36  1   
 31  15  37  1   
 32  16  17  1   
 33  16  18  1   
 34  16  38  1   
 35  17  19  1   
 36  17  39  1   
 37  18  20  1   
 38  18  40  1   
 39  18  41  1   
 40  19  20  1   
 41  19  42  1   
 42  19  43  1   
 43  20  21  1   
 44  20  44  1   
 45  21  22  1   
 46  21  23  1   
 47  21  45  1   
 48  22  46  1   
 49  22  47  1   
 50  22  48  1   
 51  23  49  1   
 52  23  50  1   
 53  23  51  1   
@<TRIPOS>SUBSTRUCTURE
  1 ****  11 GROUP 4 **** **** 0

# MOE 2024.06 (io_trps.svl 2023.06)
