@<TRIPOS>MOLECULE
NONAME
46 48 1 0 0 
SMALL
USER_CHARGES


@<TRIPOS>ATOM
  1 F       -0.5620    -1.6400    -2.1480 F     1 <1>  -0.1900 
  2 C       -1.1270    -2.6130    -1.4780 C.ar  1 <1>   0.1900 
  3 C       -0.4650    -3.2860    -0.4450 C.ar  1 <1>   0.0820 
  4 C       -2.4160    -2.9450    -1.8470 C.ar  1 <1>  -0.1500 
  5 O        0.8010    -3.0520     0.0090 O.3   1 <1>  -0.3630 
  6 C       -1.1500    -4.3030     0.2000 C.ar  1 <1>  -0.1500 
  7 C       -3.0680    -3.9670    -1.1830 C.ar  1 <1>  -0.1500 
  8 C        1.6190    -2.0200    -0.4960 C.3   1 <1>   0.0400 
  9 C       -2.4550    -4.6700    -0.1420 C.ar  1 <1>   0.0530 
 10 C       -3.1270    -5.7390     0.5610 C.2   1 <1>   0.0870 
 11 O       -2.4240    -6.6670     1.1680 O.3   1 <1>  -0.0190 
 12 C       -4.4330    -6.0510     0.7600 C.2   1 <1>  -0.2330 
 13 N       -3.1680    -7.5690     1.7520 N.2   1 <1>  -0.4100 
 14 C       -4.3850    -7.2110     1.5330 C.2   1 <1>   0.3720 
 15 C       -5.6140    -5.4160     0.2780 C.2   1 <1>   1.0330 
 16 N       -5.4680    -7.9590     2.0130 N.pl3 1 <1>  -0.8210 
 17 O       -6.2750    -4.6480     0.9970 O.co2 1 <1>  -0.9000 
 18 O       -5.9980    -5.6210    -0.8870 O.co2 1 <1>  -0.9000 
 19 C       -5.6980    -9.3190     1.4550 C.3   1 <1>   0.2090 
 20 C       -6.6500    -7.2330     2.5580 C.3   1 <1>   0.1290 
 21 C       -5.5550    -9.3870    -0.0800 C.3   1 <1>  -0.0800 
 22 C       -6.6610    -8.5880    -0.7920 C.3   1 <1>   0.1400 
 23 C       -5.7430   -10.8380    -0.5690 C.3   1 <1>  -0.0990 
 24 N       -7.6500    -9.6140    -1.1730 N.am  1 <1>  -0.6600 
 25 C       -7.1630   -10.8670    -1.0600 C.2   1 <1>   0.5690 
 26 C       -8.9770    -9.2110    -1.6890 C.3   1 <1>   0.0600 
 27 O       -7.7550   -11.8900    -1.3080 O.2   1 <1>  -0.5700 
 28 H       -2.9050    -2.4150    -2.6430 H     1 <1>   0.1500 
 29 H       -0.6540    -4.8250     0.9980 H     1 <1>   0.1500 
 30 H       -4.0690    -4.2210    -1.4840 H     1 <1>   0.1500 
 31 H        2.5460    -2.0330     0.0480 H     1 <1>   0.0800 
 32 H        1.1230    -1.0770    -0.3490 H     1 <1>   0.0800 
 33 H        1.8060    -2.2010    -1.5400 H     1 <1>   0.0800 
 34 H       -6.6780    -9.6620     1.7380 H     1 <1>   0.0800 
 35 H       -4.9750    -9.9800     1.9030 H     1 <1>   0.0800 
 36 H       -6.3360    -6.2960     2.9860 H     1 <1>   0.0800 
 37 H       -7.1180    -7.8210     3.3260 H     1 <1>   0.0800 
 38 H       -7.3640    -7.0280     1.7810 H     1 <1>   0.0800 
 39 H       -4.5830    -9.0260    -0.3650 H     1 <1>   0.0800 
 40 H       -6.2750    -8.1090    -1.6770 H     1 <1>   0.0800 
 41 H       -7.1060    -7.8410    -0.1620 H     1 <1>   0.0800 
 42 H       -5.5890   -11.5690     0.2030 H     1 <1>   0.0800 
 43 H       -5.0930   -11.0440    -1.3990 H     1 <1>   0.0800 
 44 H       -9.5030    -8.6550    -0.9340 H     1 <1>   0.0800 
 45 H       -9.5490   -10.0830    -1.9510 H     1 <1>   0.0800 
 46 H       -8.8520    -8.5930    -2.5610 H     1 <1>   0.0800 
@<TRIPOS>BOND
  1   1   2  1   
  2   2   3  ar  
  3   2   4  ar  
  4   3   5  1   
  5   3   6  ar  
  6   4   7  ar  
  7   4  28  1   
  8   5   8  1   
  9   6   9  ar  
 10   6  29  1   
 11   7   9  ar  
 12   7  30  1   
 13   8  31  1   
 14   8  32  1   
 15   8  33  1   
 16   9  10  1   
 17  10  11  1   
 18  10  12  2   
 19  11  13  1   
 20  12  14  1   
 21  12  15  1   
 22  13  14  2   
 23  14  16  1   
 24  15  17  ar  
 25  15  18  ar  
 26  16  19  1   
 27  16  20  1   
 28  19  21  1   
 29  19  34  1   
 30  19  35  1   
 31  20  36  1   
 32  20  37  1   
 33  20  38  1   
 34  21  22  1   
 35  21  23  1   
 36  21  39  1   
 37  22  24  1   
 38  22  40  1   
 39  22  41  1   
 40  23  25  1   
 41  23  42  1   
 42  23  43  1   
 43  24  25  am  
 44  24  26  1   
 45  25  27  2   
 46  26  44  1   
 47  26  45  1   
 48  26  46  1   
@<TRIPOS>SUBSTRUCTURE
  1 ****  12 GROUP 4 **** **** 0

# MOE 2024.06 (io_trps.svl 2023.06)
