@<TRIPOS>MOLECULE
NONAME
35 36 1 0 0 
SMALL
USER_CHARGES


@<TRIPOS>ATOM
  1 O        1.6980     0.5330    -2.2560 O.2   1 <1>  -0.5700 
  2 C        2.2740     0.8880    -1.2550 C.2   1 <1>   0.5690 
  3 N        3.5320     0.4990    -0.9660 N.am  1 <1>  -0.4300 
  4 C        1.6390     1.8730    -0.2930 C.3   1 <1>  -0.0990 
  5 N        4.1890     0.8750     0.2940 N.am  1 <1>  -0.3600 
  6 C        2.6890     2.9310     0.1290 C.3   1 <1>  -0.0800 
  7 C        4.6300    -0.0410     1.2100 C.2   1 <1>   0.5690 
  8 C        4.0000     2.3060     0.7060 C.3   1 <1>   0.3640 
  9 C        2.0690     3.9340     1.1160 C.3   1 <1>  -0.2400 
 10 O        4.9680     0.2580     2.3340 O.2   1 <1>  -0.5700 
 11 C        4.6980    -1.5030     0.8270 C.3   1 <1>  -0.1790 
 12 C        5.2410     3.1200     0.3360 C.ar  1 <1>  -0.1440 
 13 C        5.6340     3.2850    -0.9870 C.ar  1 <1>  -0.1500 
 14 C        6.0010     3.7070     1.3370 C.ar  1 <1>  -0.1500 
 15 C        6.7570     4.0290    -1.2990 C.ar  1 <1>  -0.1500 
 16 C        7.1240     4.4500     1.0240 C.ar  1 <1>  -0.1500 
 17 C        7.5160     4.6180    -0.2970 C.ar  1 <1>   0.1000 
 18 N        8.6440     5.3530    -0.6080 N.pl3 1 <1>  -0.9000 
 19 H        4.0910     0.0730    -1.7110 H     1 <1>   0.3700 
 20 H        0.8040     2.3480    -0.7750 H     1 <1>   0.0800 
 21 H        1.2790     1.3340     0.5640 H     1 <1>   0.0800 
 22 H        2.9480     3.4840    -0.7570 H     1 <1>   0.0800 
 23 H        3.9040     2.3200     1.7780 H     1 <1>   0.0800 
 24 H        1.7660     3.4420     2.0230 H     1 <1>   0.0800 
 25 H        1.2080     4.4080     0.6780 H     1 <1>   0.0800 
 26 H        2.7830     4.7010     1.3630 H     1 <1>   0.0800 
 27 H        5.3250    -1.6240    -0.0350 H     1 <1>   0.0800 
 28 H        3.7120    -1.8680     0.6110 H     1 <1>   0.0800 
 29 H        5.1100    -2.0730     1.6390 H     1 <1>   0.0800 
 30 H        5.0660     2.8350    -1.7810 H     1 <1>   0.1500 
 31 H        5.7250     3.5840     2.3710 H     1 <1>   0.1500 
 32 H        7.0490     4.1580    -2.3240 H     1 <1>   0.1500 
 33 H        7.7020     4.9040     1.8070 H     1 <1>   0.1500 
 34 H        9.3350     5.4550     0.1400 H     1 <1>   0.4000 
 35 H        9.0840     5.1430    -1.5080 H     1 <1>   0.4000 
@<TRIPOS>BOND
  1   1   2  2   
  2   2   3  am  
  3   2   4  1   
  4   3   5  1   
  5   3  19  1   
  6   4   6  1   
  7   4  20  1   
  8   4  21  1   
  9   5   7  am  
 10   5   8  1   
 11   6   8  1   
 12   6   9  1   
 13   6  22  1   
 14   7  10  2   
 15   7  11  1   
 16   8  12  1   
 17   8  23  1   
 18   9  24  1   
 19   9  25  1   
 20   9  26  1   
 21  11  27  1   
 22  11  28  1   
 23  11  29  1   
 24  12  13  ar  
 25  12  14  ar  
 26  13  15  ar  
 27  13  30  1   
 28  14  16  ar  
 29  14  31  1   
 30  15  17  ar  
 31  15  32  1   
 32  16  17  ar  
 33  16  33  1   
 34  17  18  1   
 35  18  34  1   
 36  18  35  1   
@<TRIPOS>SUBSTRUCTURE
  1 ****   8 GROUP 4 **** **** 0

# MOE 2024.06 (io_trps.svl 2023.06)
