@<TRIPOS>MOLECULE
NONAME
44 48 1 0 0 
SMALL
USER_CHARGES


@<TRIPOS>ATOM
  1 S       -0.4550     0.8720    -2.1900 S.3   1 <1>  -0.0800 
  2 C       -0.2440     1.9890    -0.8590 C.2   1 <1>  -0.1400 
  3 C        1.1470     1.2660    -2.7980 C.2   1 <1>  -0.1100 
  4 C        0.9540     2.5860    -0.8910 C.2   1 <1>  -0.1810 
  5 C       -1.3090     2.2270     0.1770 C.3   1 <1>   0.0200 
  6 C        1.7530     2.1760    -2.0100 C.2   1 <1>  -0.1500 
  7 C        1.3630     3.5930     0.1880 C.3   1 <1>   0.4610 
  8 C       -0.9660     3.5480     0.8850 C.3   1 <1>   0.1200 
  9 O        0.4000     3.6040     1.2280 O.3   1 <1>  -0.5600 
 10 C        1.4860     5.0080    -0.3940 C.3   1 <1>  -0.1600 
 11 C        2.6830     3.1680     0.8400 C.3   1 <1>  -0.1600 
 12 C        1.9690     6.0120     0.6540 C.3   1 <1>   0.1400 
 13 C        3.1570     4.1900     1.8730 C.3   1 <1>   0.1400 
 14 N        3.2540     5.5300     1.2290 N.am  1 <1>  -0.6600 
 15 C        4.4690     6.1550     1.0290 C.2   1 <1>   0.5440 
 16 O        5.4930     5.5140     1.1780 O.2   1 <1>  -0.5700 
 17 C        4.5590     7.5460     0.6340 C.ar  1 <1>   0.0860 
 18 C        5.3070     7.9180    -0.4880 C.ar  1 <1>  -0.1500 
 19 C        3.9070     8.5540     1.3630 C.ar  1 <1>  -0.1500 
 20 C        5.3610     9.2480    -0.8470 C.ar  1 <1>   0.0820 
 21 C        3.9720     9.8890     0.9910 C.ar  1 <1>  -0.1500 
 22 O        6.0070     9.8040    -1.8780 O.3   1 <1>  -0.3630 
 23 C        4.7110    10.2090    -0.1300 C.ar  1 <1>   0.0820 
 24 C        5.7620    11.2070    -1.8060 C.3   1 <1>   0.4000 
 25 O        4.9170    11.4080    -0.6760 O.3   1 <1>  -0.3630 
 26 H        1.4700     0.7660    -3.6940 H     1 <1>   0.1500 
 27 H       -1.3220     1.4170     0.8840 H     1 <1>   0.0800 
 28 H       -2.2760     2.3010    -0.2860 H     1 <1>   0.0800 
 29 H        2.7380     2.5770    -2.1720 H     1 <1>   0.1500 
 30 H       -1.5370     3.6410     1.7920 H     1 <1>   0.0800 
 31 H       -1.1930     4.3830     0.2480 H     1 <1>   0.0800 
 32 H        0.5460     5.3230    -0.8050 H     1 <1>   0.0800 
 33 H        2.1950     4.9940    -1.2020 H     1 <1>   0.0800 
 34 H        3.4470     3.0690     0.0910 H     1 <1>   0.0800 
 35 H        2.5560     2.2080     1.3040 H     1 <1>   0.0800 
 36 H        1.2410     6.1020     1.4430 H     1 <1>   0.0800 
 37 H        2.0880     6.9760     0.1910 H     1 <1>   0.0800 
 38 H        4.1100     3.8890     2.2740 H     1 <1>   0.0800 
 39 H        2.4570     4.2410     2.6890 H     1 <1>   0.0800 
 40 H        5.8340     7.1760    -1.0610 H     1 <1>   0.1500 
 41 H        3.3450     8.2740     2.2370 H     1 <1>   0.1500 
 42 H        3.4720    10.6610     1.5490 H     1 <1>   0.1500 
 43 H        5.2580    11.5330    -2.6980 H     1 <1>   0.0800 
 44 H        6.6920    11.7280    -1.6590 H     1 <1>   0.0800 
@<TRIPOS>BOND
  1   1   2  1   
  2   1   3  1   
  3   2   4  2   
  4   2   5  1   
  5   3   6  2   
  6   3  26  1   
  7   4   6  1   
  8   4   7  1   
  9   5   8  1   
 10   5  27  1   
 11   5  28  1   
 12   6  29  1   
 13   7   9  1   
 14   7  10  1   
 15   7  11  1   
 16   8   9  1   
 17   8  30  1   
 18   8  31  1   
 19  10  12  1   
 20  10  32  1   
 21  10  33  1   
 22  11  13  1   
 23  11  34  1   
 24  11  35  1   
 25  12  14  1   
 26  12  36  1   
 27  12  37  1   
 28  13  14  1   
 29  13  38  1   
 30  13  39  1   
 31  14  15  am  
 32  15  16  2   
 33  15  17  1   
 34  17  18  ar  
 35  17  19  ar  
 36  18  20  ar  
 37  18  40  1   
 38  19  21  ar  
 39  19  41  1   
 40  20  22  1   
 41  20  23  ar  
 42  21  23  ar  
 43  21  42  1   
 44  22  24  1   
 45  23  25  1   
 46  24  25  1   
 47  24  43  1   
 48  24  44  1   
@<TRIPOS>SUBSTRUCTURE
  1 ****  12 GROUP 4 **** **** 0

# MOE 2024.06 (io_trps.svl 2023.06)
