@<TRIPOS>MOLECULE
NONAME
43 44 1 0 0 
SMALL
USER_CHARGES


@<TRIPOS>ATOM
  1 F       -0.1960     0.5350     0.9610 F     1 <1>  -0.1900 
  2 C       -1.4710     0.7740     0.7950 C.ar  1 <1>   0.1900 
  3 C       -1.9330     1.9330     0.1610 C.ar  1 <1>   0.0830 
  4 C       -2.3430    -0.1800     1.2840 C.ar  1 <1>  -0.1500 
  5 O       -1.1770     2.9430    -0.3590 O.3   1 <1>  -0.3630 
  6 C       -3.3040     2.0950     0.0380 C.ar  1 <1>  -0.1500 
  7 C       -3.7050     0.0140     1.1440 C.ar  1 <1>  -0.1500 
  8 C        0.2330     2.9230    -0.3620 C.3   1 <1>   0.0400 
  9 C       -4.2150     1.1510     0.5140 C.ar  1 <1>   0.0530 
 10 C       -5.6330     1.3670     0.3690 C.2   1 <1>   0.0870 
 11 O       -6.1200     2.5640     0.5760 O.3   1 <1>  -0.0190 
 12 C       -6.6830     0.5590     0.0510 C.2   1 <1>  -0.0860 
 13 N       -7.4160     2.6210     0.4320 N.2   1 <1>  -0.4100 
 14 C       -7.7820     1.4290     0.1180 C.2   1 <1>   0.3720 
 15 C       -6.7260    -0.8310    -0.2930 C.2   1 <1>   0.7160 
 16 N       -9.1200     1.0880    -0.1420 N.pl3 1 <1>  -0.8210 
 17 O       -5.7140    -1.4550    -0.5500 O.2   1 <1>  -0.5700 
 18 N       -7.9190    -1.4820    -0.3400 N.am  1 <1>  -0.7300 
 19 C       -9.5050     1.3430    -1.5560 C.3   1 <1>   0.1290 
 20 C      -10.0960     1.6980     0.8060 C.3   1 <1>   0.1290 
 21 C       -8.1640    -2.8730    -0.7200 C.3   1 <1>   0.2200 
 22 C       -8.9930    -2.8730    -2.0000 C.3   1 <1>  -0.2400 
 23 C       -8.9080    -3.5520     0.4240 C.3   1 <1>  -0.2400 
 24 H       -1.9600    -1.0610     1.7650 H     1 <1>   0.1500 
 25 H       -3.6720     2.9810    -0.4470 H     1 <1>   0.1500 
 26 H       -4.3840    -0.7280     1.5260 H     1 <1>   0.1500 
 27 H        0.5780     3.8170    -0.8500 H     1 <1>   0.0800 
 28 H        0.5710     2.0590    -0.9060 H     1 <1>   0.0800 
 29 H        0.5860     2.9040     0.6530 H     1 <1>   0.0800 
 30 H       -8.7440    -0.8840    -0.1920 H     1 <1>   0.3700 
 31 H       -8.8090     0.8580    -2.2190 H     1 <1>   0.0800 
 32 H       -9.4940     2.4020    -1.7570 H     1 <1>   0.0800 
 33 H      -10.4910     0.9560    -1.7470 H     1 <1>   0.0800 
 34 H       -9.7520     1.5670     1.8180 H     1 <1>   0.0800 
 35 H      -11.0560     1.2240     0.7030 H     1 <1>   0.0800 
 36 H      -10.1970     2.7530     0.6110 H     1 <1>   0.0800 
 37 H       -7.2270    -3.3780    -0.8930 H     1 <1>   0.0800 
 38 H       -9.9310    -2.3710    -1.8480 H     1 <1>   0.0800 
 39 H       -9.1900    -3.8850    -2.3050 H     1 <1>   0.0800 
 40 H       -8.4480    -2.3850    -2.7870 H     1 <1>   0.0800 
 41 H       -9.8450    -3.0610     0.6150 H     1 <1>   0.0800 
 42 H       -8.3060    -3.5300     1.3150 H     1 <1>   0.0800 
 43 H       -9.1030    -4.5790     0.1740 H     1 <1>   0.0800 
@<TRIPOS>BOND
  1   1   2  1   
  2   2   3  ar  
  3   2   4  ar  
  4   3   5  1   
  5   3   6  ar  
  6   4   7  ar  
  7   4  24  1   
  8   5   8  1   
  9   6   9  ar  
 10   6  25  1   
 11   7   9  ar  
 12   7  26  1   
 13   8  27  1   
 14   8  28  1   
 15   8  29  1   
 16   9  10  1   
 17  10  11  1   
 18  10  12  2   
 19  11  13  1   
 20  12  14  1   
 21  12  15  1   
 22  13  14  2   
 23  14  16  1   
 24  15  17  2   
 25  15  18  am  
 26  16  19  1   
 27  16  20  1   
 28  18  21  1   
 29  18  30  1   
 30  19  31  1   
 31  19  32  1   
 32  19  33  1   
 33  20  34  1   
 34  20  35  1   
 35  20  36  1   
 36  21  22  1   
 37  21  23  1   
 38  21  37  1   
 39  22  38  1   
 40  22  39  1   
 41  22  40  1   
 42  23  41  1   
 43  23  42  1   
 44  23  43  1   
@<TRIPOS>SUBSTRUCTURE
  1 ****  10 GROUP 4 **** **** 0

# MOE 2024.06 (io_trps.svl 2023.06)
