@<TRIPOS>MOLECULE
NONAME
41 42 1 0 0 
SMALL
USER_CHARGES


@<TRIPOS>ATOM
  1 O        0.9970     1.8550     0.2590 O.co2 1 <1>  -0.9000 
  2 C        0.4410     2.7700     0.8990 C.2   1 <1>   0.9790 
  3 O        1.1070     3.3750     1.7610 O.co2 1 <1>  -0.9000 
  4 C       -0.9580     3.0520     0.7220 C.ar  1 <1>  -0.1790 
  5 C       -1.4320     3.9440    -0.2540 C.ar  1 <1>   0.4100 
  6 C       -1.8830     2.4460     1.5580 C.ar  1 <1>  -0.1500 
  7 N       -2.7200     4.2580    -0.3940 N.ar  1 <1>  -0.6200 
  8 N       -0.6030     4.5930    -1.1500 N.pl3 1 <1>  -0.8380 
  9 C       -3.2110     2.7610     1.3970 C.ar  1 <1>  -0.1500 
 10 C       -3.5720     3.6670     0.4160 C.ar  1 <1>   0.1670 
 11 C       -0.4160     6.0570    -1.0140 C.3   1 <1>   0.2090 
 12 C        0.4070     3.8420    -1.9400 C.3   1 <1>   0.1290 
 13 C       -5.0260     4.0380     0.2210 C.3   1 <1>  -0.0970 
 14 C        0.7710     6.3510    -0.0970 C.3   1 <1>  -0.1600 
 15 C        0.8110     7.8170     0.3280 C.3   1 <1>   0.2000 
 16 O        0.8630     8.6190    -0.8170 O.3   1 <1>  -0.5600 
 17 C        2.0320     8.1190     1.2090 C.3   1 <1>  -0.1600 
 18 C        0.7820     9.9890    -0.5720 C.3   1 <1>   0.1200 
 19 C        2.1110     9.6140     1.5430 C.3   1 <1>  -0.1600 
 20 C        1.9960    10.4340     0.2530 C.3   1 <1>  -0.1600 
 21 H       -1.5490     1.7550     2.3120 H     1 <1>   0.1500 
 22 H       -3.9500     2.3080     2.0290 H     1 <1>   0.1500 
 23 H       -1.3100     6.4850    -0.5940 H     1 <1>   0.0800 
 24 H       -0.2590     6.4960    -1.9840 H     1 <1>   0.0800 
 25 H        0.1180     2.8070    -2.0110 H     1 <1>   0.0800 
 26 H        1.3690     3.8930    -1.4580 H     1 <1>   0.0800 
 27 H        0.4790     4.2540    -2.9300 H     1 <1>   0.0800 
 28 H       -5.3240     3.7850    -0.7800 H     1 <1>   0.0800 
 29 H       -5.1430     5.0970     0.3600 H     1 <1>   0.0800 
 30 H       -5.6560     3.5200     0.9180 H     1 <1>   0.0800 
 31 H        1.6890     6.0880    -0.5880 H     1 <1>   0.0800 
 32 H        0.6810     5.7490     0.7890 H     1 <1>   0.0800 
 33 H       -0.0960     8.0530     0.8610 H     1 <1>   0.0800 
 34 H        2.9220     7.8130     0.6890 H     1 <1>   0.0800 
 35 H        1.9690     7.5430     2.1160 H     1 <1>   0.0800 
 36 H       -0.1390    10.1900    -0.0520 H     1 <1>   0.0800 
 37 H        0.7670    10.4910    -1.5230 H     1 <1>   0.0800 
 38 H        3.0380     9.8320     2.0440 H     1 <1>   0.0800 
 39 H        1.3010     9.8710     2.2040 H     1 <1>   0.0800 
 40 H        1.9090    11.4800     0.4890 H     1 <1>   0.0800 
 41 H        2.8820    10.3010    -0.3430 H     1 <1>   0.0800 
@<TRIPOS>BOND
  1   1   2  ar  
  2   2   3  ar  
  3   2   4  1   
  4   4   5  ar  
  5   4   6  ar  
  6   5   7  ar  
  7   5   8  1   
  8   6   9  ar  
  9   6  21  1   
 10   7  10  ar  
 11   8  11  1   
 12   8  12  1   
 13   9  10  ar  
 14   9  22  1   
 15  10  13  1   
 16  11  14  1   
 17  11  23  1   
 18  11  24  1   
 19  12  25  1   
 20  12  26  1   
 21  12  27  1   
 22  13  28  1   
 23  13  29  1   
 24  13  30  1   
 25  14  15  1   
 26  14  31  1   
 27  14  32  1   
 28  15  16  1   
 29  15  17  1   
 30  15  33  1   
 31  16  18  1   
 32  17  19  1   
 33  17  34  1   
 34  17  35  1   
 35  18  20  1   
 36  18  36  1   
 37  18  37  1   
 38  19  20  1   
 39  19  38  1   
 40  19  39  1   
 41  20  40  1   
 42  20  41  1   
@<TRIPOS>SUBSTRUCTURE
  1 ****  11 GROUP 4 **** **** 0

# MOE 2024.06 (io_trps.svl 2023.06)
