@<TRIPOS>MOLECULE
NONAME
43 45 1 0 0 
SMALL
USER_CHARGES


@<TRIPOS>ATOM
  1 O        3.5620    -1.8740    -1.3350 O.2   1 <1>  -0.5700 
  2 C        2.8780    -1.4940    -0.4150 C.2   1 <1>   0.5690 
  3 N        2.9400    -0.1920    -0.0240 N.am  1 <1>  -0.6600 
  4 C        2.0250    -2.4820     0.3510 C.3   1 <1>  -0.0990 
  5 C        3.7390     0.1120     1.2150 C.3   1 <1>   0.2200 
  6 C        2.8220     0.8670    -1.0780 C.3   1 <1>   0.1400 
  7 C        0.9220    -3.0680    -0.5350 C.3   1 <1>   0.0210 
  8 C        3.4120     1.4850     1.8260 C.3   1 <1>   0.1200 
  9 C        5.2610    -0.0190     0.9320 C.3   1 <1>   0.3430 
 10 C        3.9470     1.9200    -1.0850 C.3   1 <1>  -0.0800 
 11 C        0.0320    -3.9870     0.2780 C.2   1 <1>  -0.1810 
 12 O        4.2060     2.4790     1.2510 O.3   1 <1>  -0.5600 
 13 N        5.5970     0.0300    -0.5370 N.4   1 <1>  -0.9590 
 14 C        3.7710     2.9660     0.0270 C.3   1 <1>   0.1200 
 15 C        5.3900     1.3760    -1.1580 C.3   1 <1>   0.3430 
 16 C        0.3390    -5.2710     0.7190 C.2   1 <1>   0.1390 
 17 C       -1.2170    -3.7580     0.7370 C.2   1 <1>  -0.3020 
 18 C        6.9640    -0.4950    -0.8090 C.3   1 <1>   0.2630 
 19 N       -0.6290    -5.8010     1.4020 N.2   1 <1>  -0.7070 
 20 N       -1.5950    -4.8640     1.4080 N.pl3 1 <1>   0.3000 
 21 H        2.6510    -3.2750     0.7170 H     1 <1>   0.0800 
 22 H        1.5710    -1.9930     1.1940 H     1 <1>   0.0800 
 23 H        3.4800    -0.6170     1.9620 H     1 <1>   0.0800 
 24 H        2.7900     0.3960    -2.0470 H     1 <1>   0.0800 
 25 H        1.8750     1.3650    -0.9490 H     1 <1>   0.0800 
 26 H        1.3550    -3.6180    -1.3530 H     1 <1>   0.0800 
 27 H        0.3260    -2.2720    -0.9480 H     1 <1>   0.0800 
 28 H        3.6560     1.4710     2.8740 H     1 <1>   0.0800 
 29 H        2.3690     1.7330     1.7280 H     1 <1>   0.0800 
 30 H        5.5870    -0.9650     1.3320 H     1 <1>   0.0800 
 31 H        5.7950     0.7540     1.4610 H     1 <1>   0.0800 
 32 H        3.8040     2.4800    -1.9920 H     1 <1>   0.0800 
 33 H        4.9050    -0.6120    -0.9880 H     1 <1>   0.4500 
 34 H        2.7460     3.2860     0.1190 H     1 <1>   0.0800 
 35 H        4.3700     3.8350    -0.1900 H     1 <1>   0.0800 
 36 H        6.0540     2.0900    -0.6980 H     1 <1>   0.0800 
 37 H        5.6610     1.3070    -2.1990 H     1 <1>   0.0800 
 38 H        1.2680    -5.7790     0.5250 H     1 <1>   0.1500 
 39 H       -1.8470    -2.8940     0.6270 H     1 <1>   0.1500 
 40 H        7.7060     0.1330    -0.3420 H     1 <1>   0.0800 
 41 H        7.1480    -0.5200    -1.8710 H     1 <1>   0.0800 
 42 H        7.0620    -1.4960    -0.4230 H     1 <1>   0.0800 
 43 H       -2.4970    -5.0130     1.8770 H     1 <1>   0.2700 
@<TRIPOS>BOND
  1   1   2  2   
  2   2   3  am  
  3   2   4  1   
  4   3   5  1   
  5   3   6  1   
  6   4   7  1   
  7   4  21  1   
  8   4  22  1   
  9   5   8  1   
 10   5   9  1   
 11   5  23  1   
 12   6  10  1   
 13   6  24  1   
 14   6  25  1   
 15   7  11  1   
 16   7  26  1   
 17   7  27  1   
 18   8  12  1   
 19   8  28  1   
 20   8  29  1   
 21   9  13  1   
 22   9  30  1   
 23   9  31  1   
 24  10  14  1   
 25  10  15  1   
 26  10  32  1   
 27  11  16  1   
 28  11  17  2   
 29  12  14  1   
 30  13  15  1   
 31  13  18  1   
 32  13  33  1   
 33  14  34  1   
 34  14  35  1   
 35  15  36  1   
 36  15  37  1   
 37  16  19  2   
 38  16  38  1   
 39  17  20  1   
 40  17  39  1   
 41  18  40  1   
 42  18  41  1   
 43  18  42  1   
 44  19  20  1   
 45  20  43  1   
@<TRIPOS>SUBSTRUCTURE
  1 ****   2 GROUP 4 **** **** 0

# MOE 2024.06 (io_trps.svl 2023.06)
