@<TRIPOS>MOLECULE
NONAME
53 54 1 0 0 
SMALL
USER_CHARGES


@<TRIPOS>ATOM
  1 O       -0.1930    -0.0760     0.6440 O.2   1 <1>  -0.5700 
  2 C        0.8520    -0.6960     0.5990 C.2   1 <1>   0.7150 
  3 N        2.0510    -0.0370     0.5750 N.am  1 <1>  -0.4940 
  4 C        0.8750    -2.1290     0.5550 C.2   1 <1>  -0.2370 
  5 C        2.3810     1.3400     0.5910 C.2   1 <1>  -0.0880 
  6 N       -0.1620    -2.9250     0.1720 N.pl3 1 <1>   0.3140 
  7 C        1.8900    -2.9840     0.8680 C.2   1 <1>  -0.1500 
  8 N        1.7550     2.3440     1.2670 N.pl3 1 <1>   0.3140 
  9 C        3.4280     1.9110    -0.0530 C.2   1 <1>  -0.1810 
 10 N        0.1690    -4.2290     0.2300 N.2   1 <1>  -0.7070 
 11 C       -1.5120    -2.4700    -0.2750 C.3   1 <1>   0.0960 
 12 C        1.3960    -4.2540     0.6440 C.2   1 <1>   0.1080 
 13 N        2.3770     3.5270     1.0740 N.2   1 <1>  -0.7070 
 14 C        0.6180     2.2660     2.1920 C.3   1 <1>   0.0160 
 15 C        3.3680     3.2620     0.2850 C.2   1 <1>   0.1080 
 16 C        4.4460     1.2350    -0.9560 C.3   1 <1>   0.0210 
 17 C       -2.3670    -3.5790    -0.9080 C.3   1 <1>  -0.2400 
 18 C        2.1650    -5.5470     0.8490 C.3   1 <1>   0.0210 
 19 C        4.3240     4.3450    -0.1850 C.3   1 <1>   0.0210 
 20 C        5.6480     0.7520    -0.1430 C.3   1 <1>  -0.2400 
 21 C        3.4200    -5.6460    -0.0410 C.3   1 <1>  -0.0800 
 22 C        3.8430     4.9760    -1.4960 C.3   1 <1>  -0.2400 
 23 C        3.0600    -5.6060    -1.5330 C.3   1 <1>  -0.2400 
 24 C        4.1940    -6.9340     0.2690 C.3   1 <1>  -0.2400 
 25 H        2.8330    -0.6520     0.3660 H     1 <1>   0.3700 
 26 H        2.8780    -2.7570     1.2230 H     1 <1>   0.1500 
 27 H       -1.3770    -1.6810    -0.9920 H     1 <1>   0.0800 
 28 H       -2.0230    -2.0650     0.5790 H     1 <1>   0.0800 
 29 H        0.6620     1.3430     2.7370 H     1 <1>   0.0800 
 30 H       -0.2940     2.3160     1.6270 H     1 <1>   0.0800 
 31 H        0.6630     3.0920     2.8760 H     1 <1>   0.0800 
 32 H        4.7710     1.9230    -1.7160 H     1 <1>   0.0800 
 33 H        3.9850     0.3990    -1.4530 H     1 <1>   0.0800 
 34 H       -1.8630    -3.9950    -1.7630 H     1 <1>   0.0800 
 35 H       -3.3110    -3.1770    -1.2270 H     1 <1>   0.0800 
 36 H       -2.5530    -4.3610    -0.1930 H     1 <1>   0.0800 
 37 H        1.5100    -6.3740     0.6410 H     1 <1>   0.0800 
 38 H        2.4480    -5.6090     1.8840 H     1 <1>   0.0800 
 39 H        5.3070     3.9320    -0.3140 H     1 <1>   0.0800 
 40 H        4.3820     5.1030     0.5760 H     1 <1>   0.0800 
 41 H        6.1240     1.5840     0.3440 H     1 <1>   0.0800 
 42 H        6.3630     0.2720    -0.7860 H     1 <1>   0.0800 
 43 H        5.3310     0.0520     0.6100 H     1 <1>   0.0800 
 44 H        4.0620    -4.8090     0.1770 H     1 <1>   0.0800 
 45 H        3.7830     4.2320    -2.2690 H     1 <1>   0.0800 
 46 H        4.5200     5.7510    -1.8050 H     1 <1>   0.0800 
 47 H        2.8660     5.4030    -1.3530 H     1 <1>   0.0800 
 48 H        2.4010    -6.4180    -1.7830 H     1 <1>   0.0800 
 49 H        3.9470    -5.6830    -2.1370 H     1 <1>   0.0800 
 50 H        2.5660    -4.6820    -1.7790 H     1 <1>   0.0800 
 51 H        3.5890    -7.7990     0.0590 H     1 <1>   0.0800 
 52 H        4.4830    -6.9590     1.3050 H     1 <1>   0.0800 
 53 H        5.0860    -6.9870    -0.3310 H     1 <1>   0.0800 
@<TRIPOS>BOND
  1   1   2  2   
  2   2   3  am  
  3   2   4  1   
  4   3   5  1   
  5   3  25  1   
  6   4   6  1   
  7   4   7  2   
  8   5   8  1   
  9   5   9  2   
 10   6  10  1   
 11   6  11  1   
 12   7  12  1   
 13   7  26  1   
 14   8  13  1   
 15   8  14  1   
 16   9  15  1   
 17   9  16  1   
 18  10  12  2   
 19  11  17  1   
 20  11  27  1   
 21  11  28  1   
 22  12  18  1   
 23  13  15  2   
 24  14  29  1   
 25  14  30  1   
 26  14  31  1   
 27  15  19  1   
 28  16  20  1   
 29  16  32  1   
 30  16  33  1   
 31  17  34  1   
 32  17  35  1   
 33  17  36  1   
 34  18  21  1   
 35  18  37  1   
 36  18  38  1   
 37  19  22  1   
 38  19  39  1   
 39  19  40  1   
 40  20  41  1   
 41  20  42  1   
 42  20  43  1   
 43  21  23  1   
 44  21  24  1   
 45  21  44  1   
 46  22  45  1   
 47  22  46  1   
 48  22  47  1   
 49  23  48  1   
 50  23  49  1   
 51  23  50  1   
 52  24  51  1   
 53  24  52  1   
 54  24  53  1   
@<TRIPOS>SUBSTRUCTURE
  1 ****   3 GROUP 4 **** **** 0

# MOE 2024.06 (io_trps.svl 2023.06)
