@<TRIPOS>MOLECULE
NONAME
49 51 1 0 0 
SMALL
USER_CHARGES


@<TRIPOS>ATOM
  1 S        0.1420    -0.1350     2.1640 S.o2  1 <1>   1.4470 
  2 O       -0.4180    -1.2660     2.8700 O.2   1 <1>  -0.6500 
  3 O        0.4000     1.0970     2.8800 O.2   1 <1>  -0.6500 
  4 N       -0.9130     0.2440     0.8930 N.am  1 <1>  -0.8490 
  5 C        1.6440    -0.6710     1.3030 C.ar  1 <1>  -0.0090 
  6 C       -2.3020     0.3480     1.3670 C.3   1 <1>   0.1960 
  7 C       -0.5200     1.4730     0.1970 C.3   1 <1>   0.1960 
  8 C        2.8920    -0.1590     1.6410 C.ar  1 <1>  -0.1500 
  9 C        1.5820    -1.6150     0.2850 C.ar  1 <1>  -0.1500 
 10 C       -3.2890     0.4850     0.1900 C.3   1 <1>   0.0000 
 11 C       -1.3970     1.6860    -1.0410 C.3   1 <1>  -0.1600 
 12 C        4.0410    -0.5660     0.9860 C.ar  1 <1>  -0.1500 
 13 C        2.7230    -2.0300    -0.3760 C.ar  1 <1>  -0.1500 
 14 C       -4.7390     0.5460     0.7090 C.3   1 <1>   0.2000 
 15 C       -2.8900     1.7130    -0.6750 C.3   1 <1>  -0.1600 
 16 C       -3.3400    -0.7930    -0.6680 C.3   1 <1>  -0.1600 
 17 C        3.9590    -1.5100    -0.0320 C.ar  1 <1>   0.0830 
 18 O       -5.1200     1.8130     1.1100 O.3   1 <1>  -0.6800 
 19 C       -5.6270     0.0630    -0.4370 C.3   1 <1>  -0.1600 
 20 C       -4.7230    -0.7980    -1.3290 C.3   1 <1>  -0.1600 
 21 O        5.0270    -1.9680    -0.7240 O.3   1 <1>  -0.3620 
 22 C        6.3470    -1.5360    -0.4200 C.3   1 <1>   0.1810 
 23 C        7.3720    -2.2230    -1.3150 C.2   1 <1>   0.5690 
 24 O        8.5370    -1.9400    -1.2020 O.2   1 <1>  -0.5700 
 25 N        6.9810    -3.1390    -2.2230 N.am  1 <1>  -0.8000 
 26 H       -2.5600    -0.5330     1.9310 H     1 <1>   0.0800 
 27 H       -2.4000     1.1970     2.0250 H     1 <1>   0.0800 
 28 H       -0.6160     2.3180     0.8610 H     1 <1>   0.0800 
 29 H        0.5090     1.4050    -0.1120 H     1 <1>   0.0800 
 30 H        2.9630     0.5720     2.4310 H     1 <1>   0.1500 
 31 H        0.6250    -2.0280     0.0110 H     1 <1>   0.1500 
 32 H       -1.1270     2.6180    -1.5050 H     1 <1>   0.0800 
 33 H       -1.1940     0.9050    -1.7500 H     1 <1>   0.0800 
 34 H        4.9800    -0.1390     1.2850 H     1 <1>   0.1500 
 35 H        2.6590    -2.7610    -1.1620 H     1 <1>   0.1500 
 36 H       -4.8550    -0.1150     1.5510 H     1 <1>   0.0800 
 37 H       -3.4830     1.7610    -1.5710 H     1 <1>   0.0800 
 38 H       -3.0630     2.6160    -0.1170 H     1 <1>   0.0800 
 39 H       -2.5490    -0.8540    -1.3920 H     1 <1>   0.0800 
 40 H       -3.2640    -1.6550    -0.0260 H     1 <1>   0.0800 
 41 H       -5.1020     2.4160     0.3440 H     1 <1>   0.4000 
 42 H       -6.4470    -0.5160    -0.0500 H     1 <1>   0.0800 
 43 H       -6.0110     0.8900    -1.0070 H     1 <1>   0.0800 
 44 H       -5.1000    -1.8030    -1.4220 H     1 <1>   0.0800 
 45 H       -4.6610    -0.3610    -2.3110 H     1 <1>   0.0800 
 46 H        6.4020    -0.4740    -0.5700 H     1 <1>   0.0800 
 47 H        6.5570    -1.7760     0.6060 H     1 <1>   0.0800 
 48 H        7.6660    -3.5980    -2.8230 H     1 <1>   0.3700 
 49 H        5.9990    -3.3930    -2.3400 H     1 <1>   0.3700 
@<TRIPOS>BOND
  1   1   2  2   
  2   1   3  2   
  3   1   4  am  
  4   1   5  1   
  5   4   6  1   
  6   4   7  1   
  7   5   8  ar  
  8   5   9  ar  
  9   6  10  1   
 10   6  26  1   
 11   6  27  1   
 12   7  11  1   
 13   7  28  1   
 14   7  29  1   
 15   8  12  ar  
 16   8  30  1   
 17   9  13  ar  
 18   9  31  1   
 19  10  14  1   
 20  10  15  1   
 21  10  16  1   
 22  11  15  1   
 23  11  32  1   
 24  11  33  1   
 25  12  17  ar  
 26  12  34  1   
 27  13  17  ar  
 28  13  35  1   
 29  14  18  1   
 30  14  19  1   
 31  14  36  1   
 32  15  37  1   
 33  15  38  1   
 34  16  20  1   
 35  16  39  1   
 36  16  40  1   
 37  17  21  1   
 38  18  41  1   
 39  19  20  1   
 40  19  42  1   
 41  19  43  1   
 42  20  44  1   
 43  20  45  1   
 44  21  22  1   
 45  22  23  1   
 46  22  46  1   
 47  22  47  1   
 48  23  24  2   
 49  23  25  am  
 50  25  48  1   
 51  25  49  1   
@<TRIPOS>SUBSTRUCTURE
  1 ****   5 GROUP 4 **** **** 0

# MOE 2024.06 (io_trps.svl 2023.06)
