@<TRIPOS>MOLECULE
NONAME
51 53 1 0 0 
SMALL
USER_CHARGES


@<TRIPOS>ATOM
  1 O       -0.5560    -0.8380     0.7690 O.2   1 <1>  -0.5700 
  2 C        0.4190    -1.5400     0.8160 C.2   1 <1>   0.5690 
  3 N        0.5630    -2.4920     1.7600 N.am  1 <1>  -0.7300 
  4 C        1.5410    -1.3770    -0.1860 C.3   1 <1>  -0.0990 
  5 C        1.7530    -3.3570     1.8710 C.3   1 <1>   0.1400 
  6 C        2.0370    -2.7560    -0.6670 C.3   1 <1>  -0.0800 
  7 C        2.2060    -3.8030     0.4640 C.3   1 <1>  -0.0800 
  8 C        3.3800    -2.6890    -1.4110 C.3   1 <1>  -0.1600 
  9 C        3.6760    -4.2430     0.4110 C.3   1 <1>  -0.1600 
 10 C        4.0880    -3.9870    -1.0390 C.3   1 <1>   0.4230 
 11 N        5.5630    -3.9340    -1.2730 N.4   1 <1>  -0.9590 
 12 C        6.3090    -2.9870    -0.3880 C.3   1 <1>   0.3430 
 13 C        6.1420    -5.3140    -1.2020 C.3   1 <1>   0.2630 
 14 C        7.6680    -2.6390    -0.9990 C.3   1 <1>  -0.1600 
 15 C        8.3870    -1.5900    -0.1390 C.3   1 <1>  -0.1600 
 16 C        9.7530    -1.2090    -0.7230 C.3   1 <1>  -0.0170 
 17 C       10.4210    -0.1700     0.1600 C.ar  1 <1>  -0.1440 
 18 C       11.2360    -0.5640     1.2110 C.ar  1 <1>  -0.1500 
 19 C       10.2190     1.1820    -0.0720 C.ar  1 <1>  -0.1500 
 20 C       11.8410     0.3820     2.0200 C.ar  1 <1>  -0.1500 
 21 C       10.8230     2.1290     0.7370 C.ar  1 <1>  -0.1500 
 22 C       11.6340     1.7300     1.7840 C.ar  1 <1>  -0.1500 
 23 H       -0.1790    -2.5740     2.4600 H     1 <1>   0.3700 
 24 H        1.1900    -0.7950    -1.0190 H     1 <1>   0.0800 
 25 H        2.3280    -0.8320     0.3000 H     1 <1>   0.0800 
 26 H        2.5300    -2.7950     2.3610 H     1 <1>   0.0800 
 27 H        1.5220    -4.2180     2.4770 H     1 <1>   0.0800 
 28 H        1.2900    -3.1410    -1.3440 H     1 <1>   0.0800 
 29 H        1.5990    -4.6540     0.1980 H     1 <1>   0.0800 
 30 H        3.9330    -1.8330    -1.0720 H     1 <1>   0.0800 
 31 H        3.2240    -2.6150    -2.4730 H     1 <1>   0.0800 
 32 H        3.7770    -5.2790     0.6800 H     1 <1>   0.0800 
 33 H        4.2470    -3.6340     1.0880 H     1 <1>   0.0800 
 34 H        3.6610    -4.7710    -1.6460 H     1 <1>   0.0800 
 35 H        5.6830    -3.5940    -2.2370 H     1 <1>   0.4500 
 36 H        5.7490    -2.0750    -0.2670 H     1 <1>   0.0800 
 37 H        6.4470    -3.4220     0.5890 H     1 <1>   0.0800 
 38 H        6.0630    -5.7020    -0.1990 H     1 <1>   0.0800 
 39 H        7.1820    -5.3030    -1.4850 H     1 <1>   0.0800 
 40 H        5.6160    -5.9770    -1.8700 H     1 <1>   0.0800 
 41 H        8.2870    -3.5170    -1.0580 H     1 <1>   0.0800 
 42 H        7.5290    -2.2400    -1.9890 H     1 <1>   0.0800 
 43 H        7.7850    -0.6990    -0.0660 H     1 <1>   0.0800 
 44 H        8.5340    -1.9700     0.8580 H     1 <1>   0.0800 
 45 H        9.6360    -0.8110    -1.7160 H     1 <1>   0.0800 
 46 H       10.3840    -2.0780    -0.7920 H     1 <1>   0.0800 
 47 H       11.4060    -1.6080     1.4050 H     1 <1>   0.1500 
 48 H        9.5910     1.5060    -0.8830 H     1 <1>   0.1500 
 49 H       12.4720     0.0700     2.8340 H     1 <1>   0.1500 
 50 H       10.6620     3.1770     0.5520 H     1 <1>   0.1500 
 51 H       12.1040     2.4650     2.4130 H     1 <1>   0.1500 
@<TRIPOS>BOND
  1   1   2  2   
  2   2   3  am  
  3   2   4  1   
  4   3   5  1   
  5   3  23  1   
  6   4   6  1   
  7   4  24  1   
  8   4  25  1   
  9   5   7  1   
 10   5  26  1   
 11   5  27  1   
 12   6   7  1   
 13   6   8  1   
 14   6  28  1   
 15   7   9  1   
 16   7  29  1   
 17   8  10  1   
 18   8  30  1   
 19   8  31  1   
 20   9  10  1   
 21   9  32  1   
 22   9  33  1   
 23  10  11  1   
 24  10  34  1   
 25  11  12  1   
 26  11  13  1   
 27  11  35  1   
 28  12  14  1   
 29  12  36  1   
 30  12  37  1   
 31  13  38  1   
 32  13  39  1   
 33  13  40  1   
 34  14  15  1   
 35  14  41  1   
 36  14  42  1   
 37  15  16  1   
 38  15  43  1   
 39  15  44  1   
 40  16  17  1   
 41  16  45  1   
 42  16  46  1   
 43  17  18  ar  
 44  17  19  ar  
 45  18  20  ar  
 46  18  47  1   
 47  19  21  ar  
 48  19  48  1   
 49  20  22  ar  
 50  20  49  1   
 51  21  22  ar  
 52  21  50  1   
 53  22  51  1   
@<TRIPOS>SUBSTRUCTURE
  1 ****  12 GROUP 4 **** **** 0

# MOE 2024.06 (io_trps.svl 2023.06)
