@<TRIPOS>MOLECULE
NONAME
49 52 1 0 0 
SMALL
USER_CHARGES


@<TRIPOS>ATOM
  1 O       -0.1620     2.9580     3.1260 O.2   1 <1>  -0.5700 
  2 C        0.1900     3.0810     1.9660 C.2   1 <1>   0.5440 
  3 N       -0.7700     3.3070     1.0030 N.am  1 <1>  -0.6600 
  4 C        1.6000     3.0270     1.6520 C.ar  1 <1>   0.0860 
  5 C       -2.2140     3.0400     1.2990 C.3   1 <1>   0.1400 
  6 C       -0.4350     3.7910    -0.3690 C.3   1 <1>   0.1400 
  7 C        2.1170     2.1350     0.7070 C.ar  1 <1>   0.1400 
  8 C        2.5220     3.8570     2.2830 C.ar  1 <1>  -0.1500 
  9 C       -2.9970     2.5840     0.0440 C.3   1 <1>   0.0000 
 10 C       -1.6210     4.5410    -0.9780 C.3   1 <1>  -0.1600 
 11 O        1.4480     1.2300    -0.0110 O.3   1 <1>  -0.2800 
 12 C        3.4630     2.0840     0.3880 C.ar  1 <1>   0.0000 
 13 C        3.8810     3.8170     1.9750 C.ar  1 <1>  -0.1500 
 14 C       -4.4540     2.2750     0.4450 C.3   1 <1>   0.2000 
 15 C       -2.8940     3.6760    -1.0580 C.3   1 <1>  -0.1600 
 16 C       -2.4930     1.2040    -0.4280 C.3   1 <1>  -0.1600 
 17 C        2.3240     0.6040    -0.7860 C.2   1 <1>  -0.0400 
 18 C        4.3610     2.9360     1.0270 C.ar  1 <1>  -0.1500 
 19 C        3.5680     1.0770    -0.5930 C.2   1 <1>  -0.1500 
 20 O       -5.2560     2.2310    -0.7030 O.3   1 <1>  -0.5600 
 21 C       -4.4150     0.8710     1.0600 C.3   1 <1>  -0.1600 
 22 C       -3.1880     0.1690     0.4620 C.3   1 <1>  -0.1600 
 23 C        1.8010    -0.4770    -1.7060 C.3   1 <1>  -0.0600 
 24 C       -6.6090     2.4780    -0.4880 C.3   1 <1>   0.0400 
 25 H       -2.2810     2.2900     2.0670 H     1 <1>   0.0800 
 26 H       -2.6510     3.9440     1.6860 H     1 <1>   0.0800 
 27 H        0.4190     4.4450    -0.3250 H     1 <1>   0.0800 
 28 H       -0.1860     2.9510    -0.9930 H     1 <1>   0.0800 
 29 H        2.1680     4.5460     3.0310 H     1 <1>   0.1500 
 30 H       -1.8140     5.4080    -0.3700 H     1 <1>   0.0800 
 31 H       -1.3610     4.8890    -1.9610 H     1 <1>   0.0800 
 32 H        4.5580     4.4800     2.4870 H     1 <1>   0.1500 
 33 H       -4.8450     3.0170     1.1210 H     1 <1>   0.0800 
 34 H       -2.9550     3.2130    -2.0270 H     1 <1>   0.0800 
 35 H       -3.7390     4.3390    -0.9830 H     1 <1>   0.0800 
 36 H       -2.8080     1.0360    -1.4430 H     1 <1>   0.0800 
 37 H       -1.4230     1.1010    -0.3830 H     1 <1>   0.0800 
 38 H        5.4070     2.8950     0.7790 H     1 <1>   0.1500 
 39 H        4.4880     0.7800    -1.0630 H     1 <1>   0.1500 
 40 H       -4.2850     0.9550     2.1240 H     1 <1>   0.0800 
 41 H       -5.3180     0.3200     0.8680 H     1 <1>   0.0800 
 42 H       -2.5250    -0.1450     1.2500 H     1 <1>   0.0800 
 43 H       -3.4760    -0.6920    -0.1160 H     1 <1>   0.0800 
 44 H        2.6060    -0.9030    -2.2760 H     1 <1>   0.0800 
 45 H        1.0740    -0.0610    -2.3790 H     1 <1>   0.0800 
 46 H        1.3340    -1.2510    -1.1250 H     1 <1>   0.0800 
 47 H       -7.1180     2.3850    -1.4310 H     1 <1>   0.0800 
 48 H       -6.7300     3.4780    -0.1090 H     1 <1>   0.0800 
 49 H       -7.0020     1.7580     0.2080 H     1 <1>   0.0800 
@<TRIPOS>BOND
  1   1   2  2   
  2   2   3  am  
  3   2   4  1   
  4   3   5  1   
  5   3   6  1   
  6   4   7  ar  
  7   4   8  ar  
  8   5   9  1   
  9   5  25  1   
 10   5  26  1   
 11   6  10  1   
 12   6  27  1   
 13   6  28  1   
 14   7  11  1   
 15   7  12  ar  
 16   8  13  ar  
 17   8  29  1   
 18   9  14  1   
 19   9  15  1   
 20   9  16  1   
 21  10  15  1   
 22  10  30  1   
 23  10  31  1   
 24  11  17  1   
 25  12  18  ar  
 26  12  19  1   
 27  13  18  ar  
 28  13  32  1   
 29  14  20  1   
 30  14  21  1   
 31  14  33  1   
 32  15  34  1   
 33  15  35  1   
 34  16  22  1   
 35  16  36  1   
 36  16  37  1   
 37  17  19  2   
 38  17  23  1   
 39  18  38  1   
 40  19  39  1   
 41  20  24  1   
 42  21  22  1   
 43  21  40  1   
 44  21  41  1   
 45  22  42  1   
 46  22  43  1   
 47  23  44  1   
 48  23  45  1   
 49  23  46  1   
 50  24  47  1   
 51  24  48  1   
 52  24  49  1   
@<TRIPOS>SUBSTRUCTURE
  1 ****   3 GROUP 4 **** **** 0

# MOE 2024.06 (io_trps.svl 2023.06)
