@<TRIPOS>MOLECULE
NONAME
43 43 1 0 0 
SMALL
USER_CHARGES


@<TRIPOS>ATOM
  1 O        0.5200    -0.3800     1.2350 O.2   1 <1>  -0.5700 
  2 C        1.3550    -0.7480     0.4390 C.2   1 <1>   0.5690 
  3 N        2.3160     0.0800    -0.0750 N.am  1 <1>  -0.4930 
  4 C        1.2820    -2.2270    -0.0180 C.3   1 <1>   0.4840 
  5 C        2.5150     1.4600     0.1820 C.2   1 <1>   0.0630 
  6 N       -0.1430    -2.7600     0.0720 N.4   1 <1>  -0.9590 
  7 C        2.2780    -3.0690     0.8140 C.3   1 <1>  -0.1600 
  8 C        3.4560     2.2470    -0.3850 C.2   1 <1>  -0.3320 
  9 C        1.8180     2.3060     1.0470 C.2   1 <1>   0.1390 
 10 C       -0.3090    -4.2380    -0.0230 C.3   1 <1>   0.3430 
 11 C       -1.0340    -2.0260    -0.8880 C.3   1 <1>   0.2630 
 12 C        2.9390    -4.2180     0.0300 C.3   1 <1>  -0.2400 
 13 N        3.2910     3.4890     0.1440 N.pl3 1 <1>   0.3140 
 14 C        4.5250     1.9050    -1.4150 C.3   1 <1>  -0.0600 
 15 N        2.2760     3.5190     1.0240 N.2   1 <1>  -0.7070 
 16 C       -1.7130    -4.6430     0.4100 C.3   1 <1>  -0.2400 
 17 C        4.0710     4.7130    -0.1460 C.3   1 <1>   0.0960 
 18 C        5.3030     4.8150     0.7630 C.3   1 <1>  -0.2400 
 19 H        3.0140    -0.3010    -0.7120 H     1 <1>   0.3700 
 20 H        1.5980    -2.2590    -1.0460 H     1 <1>   0.0800 
 21 H       -0.4480    -2.4660     1.0170 H     1 <1>   0.4500 
 22 H        1.8060    -3.4340     1.7100 H     1 <1>   0.0800 
 23 H        3.0790    -2.4270     1.1390 H     1 <1>   0.0800 
 24 H        0.9930     2.0040     1.6680 H     1 <1>   0.1500 
 25 H        0.3930    -4.7260     0.6330 H     1 <1>   0.0800 
 26 H       -0.1190    -4.5720    -1.0310 H     1 <1>   0.0800 
 27 H       -0.7730    -2.2670    -1.9060 H     1 <1>   0.0800 
 28 H       -0.9420    -0.9600    -0.7480 H     1 <1>   0.0800 
 29 H       -2.0650    -2.2920    -0.7250 H     1 <1>   0.0800 
 30 H        2.2340    -4.9520    -0.3120 H     1 <1>   0.0800 
 31 H        3.6510    -4.7210     0.6630 H     1 <1>   0.0800 
 32 H        3.4730    -3.8370    -0.8240 H     1 <1>   0.0800 
 33 H        4.4800     0.8690    -1.6910 H     1 <1>   0.0800 
 34 H        5.5030     2.1050    -1.0130 H     1 <1>   0.0800 
 35 H        4.3870     2.4980    -2.3020 H     1 <1>   0.0800 
 36 H       -1.9360    -4.2650     1.3930 H     1 <1>   0.0800 
 37 H       -1.7710    -5.7170     0.4500 H     1 <1>   0.0800 
 38 H       -2.4580    -4.3070    -0.2880 H     1 <1>   0.0800 
 39 H        3.4300     5.5610     0.0160 H     1 <1>   0.0800 
 40 H        4.3650     4.7030    -1.1780 H     1 <1>   0.0800 
 41 H        4.9950     4.8410     1.7940 H     1 <1>   0.0800 
 42 H        5.8430     5.7190     0.5460 H     1 <1>   0.0800 
 43 H        5.9580     3.9770     0.6100 H     1 <1>   0.0800 
@<TRIPOS>BOND
  1   1   2  2   
  2   2   3  am  
  3   2   4  1   
  4   3   5  1   
  5   3  19  1   
  6   4   6  1   
  7   4   7  1   
  8   4  20  1   
  9   5   8  2   
 10   5   9  1   
 11   6  10  1   
 12   6  11  1   
 13   6  21  1   
 14   7  12  1   
 15   7  22  1   
 16   7  23  1   
 17   8  13  1   
 18   8  14  1   
 19   9  15  2   
 20   9  24  1   
 21  10  16  1   
 22  10  25  1   
 23  10  26  1   
 24  11  27  1   
 25  11  28  1   
 26  11  29  1   
 27  12  30  1   
 28  12  31  1   
 29  12  32  1   
 30  13  15  1   
 31  13  17  1   
 32  14  33  1   
 33  14  34  1   
 34  14  35  1   
 35  16  36  1   
 36  16  37  1   
 37  16  38  1   
 38  17  18  1   
 39  17  39  1   
 40  17  40  1   
 41  18  41  1   
 42  18  42  1   
 43  18  43  1   
@<TRIPOS>SUBSTRUCTURE
  1 ****   3 GROUP 4 **** **** 0

# MOE 2024.06 (io_trps.svl 2023.06)
