@<TRIPOS>MOLECULE
NONAME
51 53 1 0 0 
SMALL
USER_CHARGES


@<TRIPOS>ATOM
  1 S       -0.2730    -0.3020     0.1650 S.3   1 <1>  -0.4600 
  2 C       -0.3340     1.4900     0.4520 C.3   1 <1>   0.2140 
  3 C       -2.0180    -0.7770     0.0990 C.3   1 <1>   0.0700 
  4 C        1.0860     2.0250     0.4940 C.ar  1 <1>  -0.1440 
  5 C       -2.0790    -2.2930    -0.0840 C.3   1 <1>  -0.1600 
  6 C        1.5930     2.7590    -0.5690 C.ar  1 <1>  -0.1500 
  7 C        1.8880     1.7900     1.6000 C.ar  1 <1>  -0.1500 
  8 C       -3.5270    -2.7660    -0.1880 C.3   1 <1>   0.1400 
  9 C        2.8830     3.2630    -0.5290 C.ar  1 <1>  -0.1430 
 10 C        3.1770     2.2890     1.6450 C.ar  1 <1>  -0.1500 
 11 N       -3.5480    -4.2360    -0.2980 N.am  1 <1>  -0.7300 
 12 C        3.6730     3.0240     0.5830 C.ar  1 <1>  -0.1500 
 13 C        3.4260     4.0620    -1.6990 C.3   1 <1>  -0.0970 
 14 C       -4.2330    -5.1100     0.5000 C.2   1 <1>   0.7160 
 15 O       -4.9250    -4.6640     1.4000 O.2   1 <1>  -0.5700 
 16 C       -4.1130    -6.5400     0.2540 C.2   1 <1>   0.2030 
 17 N       -3.3870    -7.0940    -0.7040 N.2   1 <1>  -0.7070 
 18 C       -4.7470    -7.5310     0.9950 C.2   1 <1>  -0.1500 
 19 N       -3.5600    -8.4120    -0.5680 N.pl3 1 <1>   0.3140 
 20 C       -4.3810    -8.7260     0.4620 C.2   1 <1>  -0.2370 
 21 C       -2.8740    -9.3410    -1.4750 C.3   1 <1>   0.0960 
 22 C       -4.7860   -10.0400     0.8680 C.2   1 <1>   0.7150 
 23 C       -2.0660   -10.3450    -0.6570 C.3   1 <1>   0.2000 
 24 O       -5.7200   -10.1760     1.6260 O.2   1 <1>  -0.5700 
 25 N       -4.2060   -11.2010     0.4670 N.am  1 <1>  -0.7300 
 26 O       -1.0430   -10.8430    -1.4550 O.3   1 <1>  -0.6800 
 27 C       -2.8940   -11.5370    -0.1520 C.3   1 <1>   0.1400 
 28 H       -0.8380     1.6500     1.3880 H     1 <1>   0.0800 
 29 H       -0.8990     1.9250    -0.3520 H     1 <1>   0.0800 
 30 H       -2.4620    -0.2560    -0.7320 H     1 <1>   0.0800 
 31 H       -2.4730    -0.4700     1.0240 H     1 <1>   0.0800 
 32 H       -1.6090    -2.7660     0.7600 H     1 <1>   0.0800 
 33 H       -1.5460    -2.5630    -0.9790 H     1 <1>   0.0800 
 34 H        0.9810     2.9370    -1.4350 H     1 <1>   0.1500 
 35 H        1.5100     1.2130     2.4260 H     1 <1>   0.1500 
 36 H       -3.9990    -2.3410    -1.0570 H     1 <1>   0.0800 
 37 H       -4.0790    -2.4580     0.6850 H     1 <1>   0.0800 
 38 H        3.7960     2.1020     2.5050 H     1 <1>   0.1500 
 39 H       -2.9770    -4.6700    -1.0290 H     1 <1>   0.3700 
 40 H        4.6780     3.4060     0.6260 H     1 <1>   0.1500 
 41 H        2.6440     4.6500    -2.1460 H     1 <1>   0.0800 
 42 H        3.8250     3.3930    -2.4400 H     1 <1>   0.0800 
 43 H        4.2060     4.7260    -1.3740 H     1 <1>   0.0800 
 44 H       -5.4040    -7.3570     1.8310 H     1 <1>   0.1500 
 45 H       -2.2150    -8.7630    -2.0980 H     1 <1>   0.0800 
 46 H       -3.6070    -9.8340    -2.0860 H     1 <1>   0.0800 
 47 H       -1.5910    -9.8470     0.1720 H     1 <1>   0.0800 
 48 H       -4.6950   -12.0080     0.8630 H     1 <1>   0.3700 
 49 H       -1.3850   -11.2750    -2.2630 H     1 <1>   0.4000 
 50 H       -2.3060   -12.0750     0.5710 H     1 <1>   0.0800 
 51 H       -3.0890   -12.1980    -0.9790 H     1 <1>   0.0800 
@<TRIPOS>BOND
  1   1   2  1   
  2   1   3  1   
  3   2   4  1   
  4   2  28  1   
  5   2  29  1   
  6   3   5  1   
  7   3  30  1   
  8   3  31  1   
  9   4   6  ar  
 10   4   7  ar  
 11   5   8  1   
 12   5  32  1   
 13   5  33  1   
 14   6   9  ar  
 15   6  34  1   
 16   7  10  ar  
 17   7  35  1   
 18   8  11  1   
 19   8  36  1   
 20   8  37  1   
 21   9  12  ar  
 22   9  13  1   
 23  10  12  ar  
 24  10  38  1   
 25  11  14  am  
 26  11  39  1   
 27  12  40  1   
 28  13  41  1   
 29  13  42  1   
 30  13  43  1   
 31  14  15  2   
 32  14  16  1   
 33  16  17  2   
 34  16  18  1   
 35  17  19  1   
 36  18  20  2   
 37  18  44  1   
 38  19  20  1   
 39  19  21  1   
 40  20  22  1   
 41  21  23  1   
 42  21  45  1   
 43  21  46  1   
 44  22  24  2   
 45  22  25  am  
 46  23  26  1   
 47  23  27  1   
 48  23  47  1   
 49  25  27  1   
 50  25  48  1   
 51  26  49  1   
 52  27  50  1   
 53  27  51  1   
@<TRIPOS>SUBSTRUCTURE
  1 ****  11 GROUP 4 **** **** 0

# MOE 2024.06 (io_trps.svl 2023.06)
