@<TRIPOS>MOLECULE
NONAME
54 56 1 0 0 
SMALL
USER_CHARGES


@<TRIPOS>ATOM
  1 O       -1.0600    -2.0860    -0.4780 O.2   1 <1>  -0.5700 
  2 C        0.1540    -2.1510    -0.3590 C.2   1 <1>   0.7670 
  3 N        0.9070    -1.7110    -1.4130 N.2   1 <1>  -0.6610 
  4 C        0.7640    -2.6550     0.8330 C.2   1 <1>  -0.1240 
  5 C        2.1770    -1.7550    -1.2920 C.2   1 <1>   0.4390 
  6 C        2.1220    -2.6860     0.9020 C.2   1 <1>  -0.0380 
  7 C       -0.1550    -3.1470     1.9570 C.3   1 <1>   0.0390 
  8 N        2.8120    -2.2170    -0.1800 N.pl3 1 <1>  -0.5500 
  9 C        3.0550    -1.2800    -2.4230 C.3   1 <1>  -0.1790 
 10 C        2.9840    -3.2000     2.0460 C.3   1 <1>  -0.1020 
 11 C       -0.4180    -4.6420     1.8310 C.2   1 <1>   0.5690 
 12 O        0.4590    -5.3690     2.2360 O.2   1 <1>  -0.5700 
 13 N       -1.5710    -5.1640     1.2940 N.am  1 <1>  -0.6600 
 14 C       -1.7030    -6.6340     1.0380 C.3   1 <1>   0.1400 
 15 C       -2.7620    -4.4140     0.7760 C.3   1 <1>   0.1400 
 16 C       -2.0280    -6.9040    -0.4420 C.3   1 <1>   0.3430 
 17 C       -3.0500    -4.7860    -0.6980 C.3   1 <1>   0.2000 
 18 O       -3.1680    -6.1790    -0.8230 O.3   1 <1>  -0.5600 
 19 C       -2.2680    -8.3930    -0.6770 C.ar  1 <1>  -0.1430 
 20 C       -4.3390    -4.1560    -1.2760 C.3   1 <1>  -0.0800 
 21 C       -1.2090    -9.2060    -1.0570 C.ar  1 <1>  -0.1500 
 22 C       -3.5230    -8.9600    -0.5030 C.ar  1 <1>  -0.1500 
 23 C       -4.2520    -2.6230    -1.3450 C.3   1 <1>  -0.2400 
 24 C       -5.6200    -4.5670    -0.5300 C.3   1 <1>  -0.2400 
 25 C       -1.4020   -10.5620    -1.2600 C.ar  1 <1>  -0.1500 
 26 C       -3.7180   -10.3150    -0.7050 C.ar  1 <1>  -0.1500 
 27 C       -2.6570   -11.1180    -1.0830 C.ar  1 <1>  -0.1500 
 28 H       -1.0670    -2.5870     1.9850 H     1 <1>   0.0800 
 29 H        0.3100    -2.9750     2.9070 H     1 <1>   0.0800 
 30 H        3.8330    -2.2230    -0.1770 H     1 <1>   0.4000 
 31 H        3.6740    -0.4680    -2.0910 H     1 <1>   0.0800 
 32 H        2.4460    -0.9370    -3.2410 H     1 <1>   0.0800 
 33 H        3.6730    -2.0860    -2.7710 H     1 <1>   0.0800 
 34 H        3.5630    -2.3950     2.4600 H     1 <1>   0.0800 
 35 H        3.6530    -3.9590     1.6820 H     1 <1>   0.0800 
 36 H        2.4020    -3.6380     2.8340 H     1 <1>   0.0800 
 37 H       -0.7950    -7.1530     1.2920 H     1 <1>   0.0800 
 38 H       -2.4900    -7.0350     1.6500 H     1 <1>   0.0800 
 39 H       -3.6140    -4.6730     1.3780 H     1 <1>   0.0800 
 40 H       -2.6270    -3.3560     0.8540 H     1 <1>   0.0800 
 41 H       -1.2080    -6.5740    -1.0570 H     1 <1>   0.0800 
 42 H       -2.2180    -4.4710    -1.3040 H     1 <1>   0.0800 
 43 H       -4.4220    -4.5100    -2.2900 H     1 <1>   0.0800 
 44 H       -0.2280    -8.7890    -1.1970 H     1 <1>   0.1500 
 45 H       -4.3550    -8.3410    -0.2130 H     1 <1>   0.1500 
 46 H       -4.2090    -2.1880    -0.3630 H     1 <1>   0.0800 
 47 H       -5.1110    -2.2250    -1.8550 H     1 <1>   0.0800 
 48 H       -3.3720    -2.3240    -1.8890 H     1 <1>   0.0800 
 49 H       -5.6330    -4.1730     0.4700 H     1 <1>   0.0800 
 50 H       -5.6950    -5.6390    -0.4810 H     1 <1>   0.0800 
 51 H       -6.4850    -4.1960    -1.0510 H     1 <1>   0.0800 
 52 H       -0.5760   -11.1850    -1.5550 H     1 <1>   0.1500 
 53 H       -4.6960   -10.7420    -0.5690 H     1 <1>   0.1500 
 54 H       -2.8080   -12.1710    -1.2410 H     1 <1>   0.1500 
@<TRIPOS>BOND
  1   1   2  2   
  2   2   3  1   
  3   2   4  1   
  4   3   5  2   
  5   4   6  2   
  6   4   7  1   
  7   5   8  1   
  8   5   9  1   
  9   6   8  1   
 10   6  10  1   
 11   7  11  1   
 12   7  28  1   
 13   7  29  1   
 14   8  30  1   
 15   9  31  1   
 16   9  32  1   
 17   9  33  1   
 18  10  34  1   
 19  10  35  1   
 20  10  36  1   
 21  11  12  2   
 22  11  13  am  
 23  13  14  1   
 24  13  15  1   
 25  14  16  1   
 26  14  37  1   
 27  14  38  1   
 28  15  17  1   
 29  15  39  1   
 30  15  40  1   
 31  16  18  1   
 32  16  19  1   
 33  16  41  1   
 34  17  18  1   
 35  17  20  1   
 36  17  42  1   
 37  19  21  ar  
 38  19  22  ar  
 39  20  23  1   
 40  20  24  1   
 41  20  43  1   
 42  21  25  ar  
 43  21  44  1   
 44  22  26  ar  
 45  22  45  1   
 46  23  46  1   
 47  23  47  1   
 48  23  48  1   
 49  24  49  1   
 50  24  50  1   
 51  24  51  1   
 52  25  27  ar  
 53  25  52  1   
 54  26  27  ar  
 55  26  53  1   
 56  27  54  1   
@<TRIPOS>SUBSTRUCTURE
  1 ****  13 GROUP 4 **** **** 0

# MOE 2024.06 (io_trps.svl 2023.06)
