@<TRIPOS>MOLECULE
NONAME
45 46 1 0 0 
SMALL
USER_CHARGES


@<TRIPOS>ATOM
  1 S        0.5070     0.2320    -1.2490 S.o2  1 <1>   1.3330 
  2 O       -0.2880     1.1060    -2.0800 O.2   1 <1>  -0.6500 
  3 O        0.8990    -1.0680    -1.7470 O.2   1 <1>  -0.6500 
  4 N       -0.3550    -0.0060     0.1970 N.am  1 <1>  -0.8490 
  5 C        1.9910     1.0960    -0.7270 C.3   1 <1>  -0.0550 
  6 C       -1.2080    -1.1970     0.1440 C.3   1 <1>   0.1160 
  7 C       -1.1570     1.1580     0.5930 C.3   1 <1>   0.1160 
  8 C        2.9480     0.2440     0.1360 C.3   1 <1>  -0.0800 
  9 C        4.2990     0.8840     0.4130 C.3   1 <1>   0.2200 
 10 C        2.4370    -0.0920     1.5440 C.3   1 <1>   0.1200 
 11 N        4.1450     2.3200     0.7510 N.am  1 <1>  -0.7300 
 12 C        4.7110     0.1300     1.6680 C.3   1 <1>   0.1200 
 13 O        3.5350     0.0020     2.4060 O.3   1 <1>  -0.5600 
 14 C        4.4480     3.3660    -0.0740 C.2   1 <1>   0.5440 
 15 O        4.7480     3.1050    -1.2250 O.2   1 <1>  -0.5700 
 16 C        4.3810     4.7230     0.4160 C.ar  1 <1>   0.0860 
 17 C        5.3310     5.6950     0.0410 C.ar  1 <1>   0.4100 
 18 C        3.3730     5.1120     1.2910 C.ar  1 <1>  -0.1500 
 19 N        5.3160     6.9520     0.4820 N.ar  1 <1>  -0.6200 
 20 N        6.3560     5.3800    -0.8220 N.pl3 1 <1>  -0.8690 
 21 C        3.3620     6.4110     1.7430 C.ar  1 <1>  -0.1500 
 22 C        4.3480     7.2800     1.3120 C.ar  1 <1>   0.1600 
 23 C        7.2670     6.3730    -1.4430 C.3   1 <1>   0.1290 
 24 H        2.5250     1.4030    -1.6060 H     1 <1>   0.0800 
 25 H        1.7160     1.9850    -0.1960 H     1 <1>   0.0800 
 26 H       -1.7330    -1.3240     1.0750 H     1 <1>   0.0800 
 27 H       -0.6070    -2.0750    -0.0240 H     1 <1>   0.0800 
 28 H       -1.9220    -1.1100    -0.6590 H     1 <1>   0.0800 
 29 H       -1.6040     0.9880     1.5570 H     1 <1>   0.0800 
 30 H       -1.9380     1.3400    -0.1280 H     1 <1>   0.0800 
 31 H       -0.5350     2.0340     0.6550 H     1 <1>   0.0800 
 32 H        3.1260    -0.6870    -0.3750 H     1 <1>   0.0800 
 33 H        5.0000     0.7510    -0.3950 H     1 <1>   0.0800 
 34 H        2.0340    -1.0890     1.5940 H     1 <1>   0.0800 
 35 H        1.6990     0.6150     1.8820 H     1 <1>   0.0800 
 36 H        3.9420     2.4840     1.7400 H     1 <1>   0.3700 
 37 H        5.4520     0.6520     2.2480 H     1 <1>   0.0800 
 38 H        5.0610    -0.8580     1.4260 H     1 <1>   0.0800 
 39 H        2.6140     4.4170     1.6060 H     1 <1>   0.1500 
 40 H        6.1980     4.5190    -1.3710 H     1 <1>   0.4000 
 41 H        2.6020     6.7550     2.4210 H     1 <1>   0.1500 
 42 H        4.3360     8.2960     1.6690 H     1 <1>   0.1500 
 43 H        7.6600     7.0320    -0.6880 H     1 <1>   0.0800 
 44 H        6.7290     6.9550    -2.1700 H     1 <1>   0.0800 
 45 H        8.0860     5.8670    -1.9240 H     1 <1>   0.0800 
@<TRIPOS>BOND
  1   1   2  2   
  2   1   3  2   
  3   1   4  am  
  4   1   5  1   
  5   4   6  1   
  6   4   7  1   
  7   5   8  1   
  8   5  24  1   
  9   5  25  1   
 10   6  26  1   
 11   6  27  1   
 12   6  28  1   
 13   7  29  1   
 14   7  30  1   
 15   7  31  1   
 16   8   9  1   
 17   8  10  1   
 18   8  32  1   
 19   9  11  1   
 20   9  12  1   
 21   9  33  1   
 22  10  13  1   
 23  10  34  1   
 24  10  35  1   
 25  11  14  am  
 26  11  36  1   
 27  12  13  1   
 28  12  37  1   
 29  12  38  1   
 30  14  15  2   
 31  14  16  1   
 32  16  17  ar  
 33  16  18  ar  
 34  17  19  ar  
 35  17  20  1   
 36  18  21  ar  
 37  18  39  1   
 38  19  22  ar  
 39  20  23  1   
 40  20  40  1   
 41  21  22  ar  
 42  21  41  1   
 43  22  42  1   
 44  23  43  1   
 45  23  44  1   
 46  23  45  1   
@<TRIPOS>SUBSTRUCTURE
  1 ****  11 GROUP 4 **** **** 0

# MOE 2024.06 (io_trps.svl 2023.06)
