@<TRIPOS>MOLECULE
NONAME
42 43 1 0 0 
SMALL
USER_CHARGES


@<TRIPOS>ATOM
  1 O       -1.5630    -0.3100    -0.5330 O.2   1 <1>  -0.5700 
  2 C       -2.0840     0.6140     0.0660 C.2   1 <1>   0.5440 
  3 N       -3.1100     0.3290     0.9380 N.am  1 <1>  -0.6600 
  4 C       -1.6330     1.9580    -0.1820 C.ar  1 <1>   0.0860 
  5 C       -3.3220    -1.0720     1.4150 C.3   1 <1>   0.3200 
  6 C       -4.2890     1.2330     1.1360 C.3   1 <1>   0.1400 
  7 C       -1.4680     2.8970     0.8190 C.ar  1 <1>   0.1600 
  8 C       -1.3150     2.3990    -1.4540 C.ar  1 <1>   0.1600 
  9 C       -4.2120    -1.8260     0.4450 C.2   1 <1>   0.0060 
 10 C       -5.1330     1.3360    -0.1410 C.3   1 <1>   0.1200 
 11 N       -1.0740     4.1260     0.5970 N.ar  1 <1>  -0.6200 
 12 N       -0.9180     3.6210    -1.7150 N.ar  1 <1>  -0.6200 
 13 N       -5.4240    -2.2130     0.6880 N.2   1 <1>  -0.5650 
 14 N       -3.7820    -2.1390    -0.7950 N.pl3 1 <1>   0.0330 
 15 O       -6.2620     2.0940     0.1250 O.3   1 <1>  -0.6800 
 16 C       -0.8190     4.4330    -0.6720 C.ar  1 <1>   0.7200 
 17 C       -5.8010    -2.8180    -0.4560 C.2   1 <1>   0.0770 
 18 C       -4.8120    -2.7790    -1.3750 C.2   1 <1>  -0.3020 
 19 N       -0.4210     5.6820    -0.9720 N.pl3 1 <1>  -0.8690 
 20 C       -0.2440     6.8150    -0.0650 C.3   1 <1>   0.2890 
 21 C       -1.3380     7.8320    -0.3650 C.3   1 <1>  -0.2400 
 22 C        1.1420     7.4000    -0.3110 C.3   1 <1>  -0.2400 
 23 H       -3.7790    -1.0610     2.3890 H     1 <1>   0.0800 
 24 H       -2.3760    -1.5780     1.5000 H     1 <1>   0.0800 
 25 H       -3.9590     2.2160     1.4200 H     1 <1>   0.0800 
 26 H       -4.9040     0.8450     1.9300 H     1 <1>   0.0800 
 27 H       -1.6700     2.6150     1.8380 H     1 <1>   0.1500 
 28 H       -1.3970     1.7100    -2.2780 H     1 <1>   0.1500 
 29 H       -5.4560     0.3680    -0.4830 H     1 <1>   0.0800 
 30 H       -4.5830     1.8340    -0.9200 H     1 <1>   0.0800 
 31 H       -2.8600    -1.8840    -1.1790 H     1 <1>   0.2700 
 32 H       -6.9290     1.5570     0.5990 H     1 <1>   0.4000 
 33 H       -6.7810    -3.2560    -0.5600 H     1 <1>   0.1500 
 34 H       -4.7840    -3.1620    -2.3790 H     1 <1>   0.1500 
 35 H       -0.2610     5.8560    -1.9610 H     1 <1>   0.4000 
 36 H       -0.3200     6.4920     0.9610 H     1 <1>   0.0800 
 37 H       -1.2770     8.1670    -1.3840 H     1 <1>   0.0800 
 38 H       -1.2370     8.6810     0.2860 H     1 <1>   0.0800 
 39 H       -2.3010     7.3860    -0.1930 H     1 <1>   0.0800 
 40 H        1.2390     7.7330    -1.3280 H     1 <1>   0.0800 
 41 H        1.8900     6.6550    -0.1070 H     1 <1>   0.0800 
 42 H        1.3070     8.2350     0.3440 H     1 <1>   0.0800 
@<TRIPOS>BOND
  1   1   2  2   
  2   2   3  am  
  3   2   4  1   
  4   3   5  1   
  5   3   6  1   
  6   4   7  ar  
  7   4   8  ar  
  8   5   9  1   
  9   5  23  1   
 10   5  24  1   
 11   6  10  1   
 12   6  25  1   
 13   6  26  1   
 14   7  11  ar  
 15   7  27  1   
 16   8  12  ar  
 17   8  28  1   
 18   9  13  2   
 19   9  14  1   
 20  10  15  1   
 21  10  29  1   
 22  10  30  1   
 23  11  16  ar  
 24  12  16  ar  
 25  13  17  1   
 26  14  18  1   
 27  14  31  1   
 28  15  32  1   
 29  16  19  1   
 30  17  18  2   
 31  17  33  1   
 32  18  34  1   
 33  19  20  1   
 34  19  35  1   
 35  20  21  1   
 36  20  22  1   
 37  20  36  1   
 38  21  37  1   
 39  21  38  1   
 40  21  39  1   
 41  22  40  1   
 42  22  41  1   
 43  22  42  1   
@<TRIPOS>SUBSTRUCTURE
  1 ****   4 GROUP 4 **** **** 0

# MOE 2024.06 (io_trps.svl 2023.06)
