@<TRIPOS>MOLECULE
NONAME
41 42 1 0 0 
SMALL
USER_CHARGES


@<TRIPOS>ATOM
  1 CL       1.7670    -0.6890     0.8800 Cl    1 <1>  -0.1770 
  2 C        0.8160    -2.1120     0.5540 C.ar  1 <1>   0.1770 
  3 C        0.8480    -3.1680     1.4400 C.ar  1 <1>  -0.1500 
  4 C        0.0400    -2.1660    -0.5890 C.ar  1 <1>  -0.1500 
  5 C        0.0840    -4.2840     1.1540 C.ar  1 <1>   0.1900 
  6 C       -0.7150    -3.2970    -0.8510 C.ar  1 <1>  -0.1500 
  7 F        0.1320    -5.2570     2.0230 F     1 <1>  -0.1900 
  8 C       -0.7180    -4.4010     0.0120 C.ar  1 <1>   0.0860 
  9 C       -1.5230    -5.5680    -0.3050 C.2   1 <1>   0.5440 
 10 O       -2.4770    -5.4670    -1.0520 O.2   1 <1>  -0.5700 
 11 N       -1.2520    -6.8030     0.2070 N.am  1 <1>  -0.7300 
 12 C       -2.0450    -8.0230    -0.0680 C.3   1 <1>   0.2200 
 13 C       -3.2570    -8.0560     0.8670 C.3   1 <1>  -0.0800 
 14 C       -1.2650    -9.2750     0.3270 C.3   1 <1>   0.1200 
 15 C       -3.0210    -9.3000     1.7320 C.3   1 <1>   0.1200 
 16 C       -4.6070    -7.9630     0.1210 C.3   1 <1>  -0.0550 
 17 O       -1.6580    -9.5510     1.6330 O.3   1 <1>  -0.5600 
 18 S       -5.0880    -9.3560    -0.9110 S.o2  1 <1>   1.3330 
 19 O       -6.1880    -8.9580    -1.7590 O.2   1 <1>  -0.6500 
 20 O       -3.9060    -9.9420    -1.5070 O.2   1 <1>  -0.6500 
 21 N       -5.7130   -10.4730     0.2080 N.am  1 <1>  -0.8490 
 22 C       -7.1130   -10.2210     0.5650 C.3   1 <1>   0.1160 
 23 C       -5.5620   -11.8590    -0.2480 C.3   1 <1>   0.1160 
 24 H        1.4500    -3.1210     2.3290 H     1 <1>   0.1500 
 25 H        0.0290    -1.3280    -1.2650 H     1 <1>   0.1500 
 26 H       -1.3190    -3.3330    -1.7430 H     1 <1>   0.1500 
 27 H       -0.5910    -6.8930     0.9850 H     1 <1>   0.3700 
 28 H       -2.3060    -8.0530    -1.1120 H     1 <1>   0.0800 
 29 H       -3.2110    -7.2090     1.5280 H     1 <1>   0.0800 
 30 H       -0.1990    -9.1390     0.2880 H     1 <1>   0.0800 
 31 H       -1.5530   -10.1100    -0.2880 H     1 <1>   0.0800 
 32 H       -3.5280   -10.1720     1.3640 H     1 <1>   0.0800 
 33 H       -3.2740    -9.1380     2.7650 H     1 <1>   0.0800 
 34 H       -4.5620    -7.0900    -0.5030 H     1 <1>   0.0800 
 35 H       -5.3820    -7.7850     0.8390 H     1 <1>   0.0800 
 36 H       -7.4230   -10.8950     1.3450 H     1 <1>   0.0800 
 37 H       -7.7520   -10.3600    -0.2930 H     1 <1>   0.0800 
 38 H       -7.2320    -9.2120     0.9220 H     1 <1>   0.0800 
 39 H       -5.9600   -12.5400     0.4840 H     1 <1>   0.0800 
 40 H       -4.5190   -12.0910    -0.3870 H     1 <1>   0.0800 
 41 H       -6.0760   -12.0030    -1.1840 H     1 <1>   0.0800 
@<TRIPOS>BOND
  1   1   2  1   
  2   2   3  ar  
  3   2   4  ar  
  4   3   5  ar  
  5   3  24  1   
  6   4   6  ar  
  7   4  25  1   
  8   5   7  1   
  9   5   8  ar  
 10   6   8  ar  
 11   6  26  1   
 12   8   9  1   
 13   9  10  2   
 14   9  11  am  
 15  11  12  1   
 16  11  27  1   
 17  12  13  1   
 18  12  14  1   
 19  12  28  1   
 20  13  15  1   
 21  13  16  1   
 22  13  29  1   
 23  14  17  1   
 24  14  30  1   
 25  14  31  1   
 26  15  17  1   
 27  15  32  1   
 28  15  33  1   
 29  16  18  1   
 30  16  34  1   
 31  16  35  1   
 32  18  19  2   
 33  18  20  2   
 34  18  21  am  
 35  21  22  1   
 36  21  23  1   
 37  22  36  1   
 38  22  37  1   
 39  22  38  1   
 40  23  39  1   
 41  23  40  1   
 42  23  41  1   
@<TRIPOS>SUBSTRUCTURE
  1 ****  11 GROUP 4 **** **** 0

# MOE 2024.06 (io_trps.svl 2023.06)
