@<TRIPOS>MOLECULE
NONAME
53 56 1 0 0 
SMALL
USER_CHARGES


@<TRIPOS>ATOM
  1 O        1.1930     0.9380    -2.5110 O.2   1 <1>  -0.5700 
  2 C        1.5650     0.9450    -1.3520 C.2   1 <1>   0.5440 
  3 N        1.0760     1.9220    -0.5120 N.am  1 <1>  -0.6600 
  4 C        2.5360    -0.0080    -0.8820 C.ar  1 <1>   0.0860 
  5 C        1.4320     2.0930     0.9130 C.3   1 <1>   0.1400 
  6 C       -0.0160     2.8360    -0.9070 C.3   1 <1>   0.1400 
  7 C        2.1930    -1.3360    -0.5560 C.ar  1 <1>   0.4100 
  8 C        3.8590     0.3810    -0.7300 C.ar  1 <1>  -0.1500 
  9 C        0.2670     2.8810     1.4980 C.3   1 <1>  -0.1600 
 10 C       -0.2680     3.7000     0.3250 C.3   1 <1>  -0.1600 
 11 N        3.0750    -2.2260    -0.0960 N.ar  1 <1>  -0.6200 
 12 N        0.9040    -1.8190    -0.6870 N.pl3 1 <1>  -0.8380 
 13 C        4.7630    -0.5430    -0.2630 C.ar  1 <1>  -0.1500 
 14 C        4.3210    -1.8190     0.0360 C.ar  1 <1>   0.1600 
 15 C       -0.2420    -1.2670     0.0990 C.3   1 <1>   0.2090 
 16 C        0.6460    -3.2170    -1.1480 C.3   1 <1>   0.2090 
 17 C       -0.6300    -2.1920     1.2720 C.3   1 <1>   0.2090 
 18 C        0.3000    -4.1440     0.0330 C.3   1 <1>   0.2090 
 19 N       -0.8360    -3.6190     0.8570 N.pl3 1 <1>  -0.8380 
 20 C       -2.1140    -4.0400     0.5100 C.ar  1 <1>   0.4100 
 21 N       -2.8210    -3.1840    -0.2180 N.ar  1 <1>  -0.6200 
 22 C       -2.6190    -5.3080     0.8880 C.ar  1 <1>   0.1670 
 23 C       -4.0080    -3.6460    -0.5590 C.ar  1 <1>   0.1670 
 24 N       -3.8050    -5.7680     0.5400 N.ar  1 <1>  -0.6200 
 25 C       -1.7970    -6.2510     1.7520 C.3   1 <1>  -0.0970 
 26 C       -4.4820    -4.8990    -0.1930 C.ar  1 <1>   0.1600 
 27 C       -4.8560    -2.7140    -1.3990 C.3   1 <1>  -0.0970 
 28 H        2.3410     2.6660     0.9790 H     1 <1>   0.0800 
 29 H        1.5610     1.1460     1.4080 H     1 <1>   0.0800 
 30 H       -0.8870     2.2540    -1.1540 H     1 <1>   0.0800 
 31 H        0.2750     3.4270    -1.7590 H     1 <1>   0.0800 
 32 H        4.1600     1.3840    -0.9800 H     1 <1>   0.1500 
 33 H        0.5740     3.4980     2.3230 H     1 <1>   0.0800 
 34 H       -0.4880     2.1920     1.8360 H     1 <1>   0.0800 
 35 H       -1.3100     3.9430     0.4340 H     1 <1>   0.0800 
 36 H        0.2940     4.6120     0.2290 H     1 <1>   0.0800 
 37 H        5.7990    -0.2860    -0.1330 H     1 <1>   0.1500 
 38 H        5.0330    -2.5390     0.4030 H     1 <1>   0.1500 
 39 H       -1.0880    -1.1480    -0.5550 H     1 <1>   0.0800 
 40 H        0.0050    -0.3010     0.4920 H     1 <1>   0.0800 
 41 H        1.5090    -3.5970    -1.6650 H     1 <1>   0.0800 
 42 H       -0.1770    -3.2100    -1.8410 H     1 <1>   0.0800 
 43 H       -1.5300    -1.8200     1.7300 H     1 <1>   0.0800 
 44 H        0.1520    -2.1580     2.0090 H     1 <1>   0.0800 
 45 H        1.1700    -4.2460     0.6570 H     1 <1>   0.0800 
 46 H        0.0510    -5.1180    -0.3500 H     1 <1>   0.0800 
 47 H       -1.0960    -5.7100     2.3590 H     1 <1>   0.0800 
 48 H       -1.2640    -6.9390     1.1230 H     1 <1>   0.0800 
 49 H       -2.4460    -6.8080     2.4030 H     1 <1>   0.0800 
 50 H       -5.4620    -5.2020    -0.5150 H     1 <1>   0.1500 
 51 H       -4.3330    -2.4760    -2.3080 H     1 <1>   0.0800 
 52 H       -5.0330    -1.8030    -0.8560 H     1 <1>   0.0800 
 53 H       -5.8000    -3.1620    -1.6460 H     1 <1>   0.0800 
@<TRIPOS>BOND
  1   1   2  2   
  2   2   3  am  
  3   2   4  1   
  4   3   5  1   
  5   3   6  1   
  6   4   7  ar  
  7   4   8  ar  
  8   5   9  1   
  9   5  28  1   
 10   5  29  1   
 11   6  10  1   
 12   6  30  1   
 13   6  31  1   
 14   7  11  ar  
 15   7  12  1   
 16   8  13  ar  
 17   8  32  1   
 18   9  10  1   
 19   9  33  1   
 20   9  34  1   
 21  10  35  1   
 22  10  36  1   
 23  11  14  ar  
 24  12  15  1   
 25  12  16  1   
 26  13  14  ar  
 27  13  37  1   
 28  14  38  1   
 29  15  17  1   
 30  15  39  1   
 31  15  40  1   
 32  16  18  1   
 33  16  41  1   
 34  16  42  1   
 35  17  19  1   
 36  17  43  1   
 37  17  44  1   
 38  18  19  1   
 39  18  45  1   
 40  18  46  1   
 41  19  20  1   
 42  20  21  ar  
 43  20  22  ar  
 44  21  23  ar  
 45  22  24  ar  
 46  22  25  1   
 47  23  26  ar  
 48  23  27  1   
 49  24  26  ar  
 50  25  47  1   
 51  25  48  1   
 52  25  49  1   
 53  26  50  1   
 54  27  51  1   
 55  27  52  1   
 56  27  53  1   
@<TRIPOS>SUBSTRUCTURE
  1 ****  15 GROUP 4 **** **** 0

# MOE 2024.06 (io_trps.svl 2023.06)
