@<TRIPOS>MOLECULE
NONAME
45 47 1 0 0 
SMALL
USER_CHARGES


@<TRIPOS>ATOM
  1 CL       0.3110    -1.0800     2.1360 Cl    1 <1>  -0.1770 
  2 C        0.1250    -2.6520     1.4030 C.ar  1 <1>   0.1770 
  3 C       -0.3180    -2.7430     0.0970 C.ar  1 <1>  -0.1500 
  4 C        0.4240    -3.7830     2.1390 C.ar  1 <1>  -0.1500 
  5 C       -0.4650    -3.9930    -0.4820 C.ar  1 <1>  -0.1500 
  6 C        0.2750    -5.0300     1.5550 C.ar  1 <1>  -0.1500 
  7 C       -0.1690    -5.1390     0.2440 C.ar  1 <1>  -0.1430 
  8 C       -0.3380    -6.5070    -0.3970 C.3   1 <1>  -0.0160 
  9 C       -1.7800    -6.9970    -0.2370 C.3   1 <1>  -0.0990 
 10 C       -1.9580    -8.3650    -0.8530 C.2   1 <1>   0.5690 
 11 O       -2.1340    -8.4570    -2.0420 O.2   1 <1>  -0.5700 
 12 N       -1.9150    -9.4530    -0.0500 N.am  1 <1>  -0.7300 
 13 C       -2.0330   -10.8550    -0.5140 C.3   1 <1>   0.2200 
 14 C       -3.3950   -11.4410    -0.1650 C.3   1 <1>  -0.0800 
 15 C       -1.1280   -11.7300     0.3410 C.3   1 <1>   0.1200 
 16 C       -3.2080   -11.9180     1.2800 C.3   1 <1>   0.1200 
 17 C       -4.6030   -10.5090    -0.3760 C.3   1 <1>  -0.0170 
 18 O       -1.8320   -11.9150     1.5320 O.3   1 <1>  -0.5600 
 19 C       -5.9060   -11.2370    -0.0870 C.ar  1 <1>  -0.1430 
 20 C       -6.4960   -12.0650    -1.0200 C.ar  1 <1>  -0.1500 
 21 C       -6.5660   -11.1120     1.1200 C.ar  1 <1>  -0.1500 
 22 C       -7.6800   -12.7130    -0.7100 C.ar  1 <1>   0.1600 
 23 C       -7.7460   -11.8060     1.3300 C.ar  1 <1>   0.1600 
 24 N       -8.3180   -12.6060     0.4440 N.ar  1 <1>  -0.6200 
 25 H       -0.5430    -1.8490    -0.4550 H     1 <1>   0.1500 
 26 H        0.7670    -3.6850     3.1530 H     1 <1>   0.1500 
 27 H       -0.8100    -4.0700    -1.4990 H     1 <1>   0.1500 
 28 H        0.5070    -5.9120     2.1250 H     1 <1>   0.1500 
 29 H       -0.0920    -6.4500    -1.4440 H     1 <1>   0.0800 
 30 H        0.3390    -7.2090     0.0570 H     1 <1>   0.0800 
 31 H       -2.4490    -6.3120    -0.7270 H     1 <1>   0.0800 
 32 H       -2.0420    -7.0300     0.8040 H     1 <1>   0.0800 
 33 H       -1.7880    -9.3640     0.9610 H     1 <1>   0.3700 
 34 H       -1.8030   -10.9300    -1.5640 H     1 <1>   0.0800 
 35 H       -3.5390   -12.3160    -0.7750 H     1 <1>   0.0800 
 36 H       -0.1760   -11.2750     0.5460 H     1 <1>   0.0800 
 37 H       -0.9860   -12.6950    -0.1130 H     1 <1>   0.0800 
 38 H       -3.5880   -12.9160     1.4220 H     1 <1>   0.0800 
 39 H       -3.6690   -11.2500     1.9860 H     1 <1>   0.0800 
 40 H       -4.6090   -10.1570    -1.3930 H     1 <1>   0.0800 
 41 H       -4.5300    -9.6460     0.2620 H     1 <1>   0.0800 
 42 H       -6.0480   -12.2100    -1.9860 H     1 <1>   0.1500 
 43 H       -6.1760   -10.4830     1.8980 H     1 <1>   0.1500 
 44 H       -8.1260   -13.3550    -1.4510 H     1 <1>   0.1500 
 45 H       -8.2470   -11.6970     2.2770 H     1 <1>   0.1500 
@<TRIPOS>BOND
  1   1   2  1   
  2   2   3  ar  
  3   2   4  ar  
  4   3   5  ar  
  5   3  25  1   
  6   4   6  ar  
  7   4  26  1   
  8   5   7  ar  
  9   5  27  1   
 10   6   7  ar  
 11   6  28  1   
 12   7   8  1   
 13   8   9  1   
 14   8  29  1   
 15   8  30  1   
 16   9  10  1   
 17   9  31  1   
 18   9  32  1   
 19  10  11  2   
 20  10  12  am  
 21  12  13  1   
 22  12  33  1   
 23  13  14  1   
 24  13  15  1   
 25  13  34  1   
 26  14  16  1   
 27  14  17  1   
 28  14  35  1   
 29  15  18  1   
 30  15  36  1   
 31  15  37  1   
 32  16  18  1   
 33  16  38  1   
 34  16  39  1   
 35  17  19  1   
 36  17  40  1   
 37  17  41  1   
 38  19  20  ar  
 39  19  21  ar  
 40  20  22  ar  
 41  20  42  1   
 42  21  23  ar  
 43  21  43  1   
 44  22  24  ar  
 45  22  44  1   
 46  23  24  ar  
 47  23  45  1   
@<TRIPOS>SUBSTRUCTURE
  1 ****  12 GROUP 4 **** **** 0

# MOE 2024.06 (io_trps.svl 2023.06)
