@<TRIPOS>MOLECULE
NONAME
31 33 1 0 0 
SMALL
USER_CHARGES


@<TRIPOS>ATOM
  1 CL      -0.6370    -0.1120     0.9700 Cl    1 <1>  -0.1770 
  2 C       -1.9630    -1.0370     0.3040 C.ar  1 <1>   0.1770 
  3 C       -3.0190    -0.4010    -0.3290 C.ar  1 <1>   0.1770 
  4 C       -1.9400    -2.4130     0.4200 C.ar  1 <1>  -0.1500 
  5 CL      -3.0600     1.3380    -0.4820 Cl    1 <1>  -0.1770 
  6 C       -4.0600    -1.1460    -0.8520 C.ar  1 <1>  -0.1500 
  7 C       -2.9810    -3.1870    -0.0930 C.ar  1 <1>   0.0860 
  8 C       -4.0330    -2.5250    -0.7350 C.ar  1 <1>  -0.1500 
  9 C       -2.9510    -4.6320     0.0230 C.2   1 <1>   0.5440 
 10 O       -2.0020    -5.2360    -0.4410 O.2   1 <1>  -0.5700 
 11 N       -3.9540    -5.3270     0.6460 N.am  1 <1>  -0.6600 
 12 C       -5.1090    -4.7450     1.3870 C.3   1 <1>   0.2350 
 13 C       -4.2500    -6.7580     0.3520 C.3   1 <1>   0.2350 
 14 C       -6.3050    -5.5670     0.9500 C.3   1 <1>  -0.2420 
 15 C       -5.7710    -6.8410     0.3390 C.3   1 <1>  -0.2420 
 16 C       -7.5020    -5.2490     1.8470 C.2   1 <1>   0.9470 
 17 C       -6.5720    -5.8800    -0.5030 C.3   1 <1>  -0.2000 
 18 C       -6.2430    -8.2910     0.4780 C.2   1 <1>   0.9470 
 19 O       -8.5220    -4.7600     1.3430 O.co2 1 <1>  -0.9000 
 20 O       -7.3580    -5.3010     3.0760 O.co2 1 <1>  -0.9000 
 21 O       -6.9790    -8.7800    -0.3900 O.co2 1 <1>  -0.9000 
 22 O       -5.7570    -8.9940     1.3750 O.co2 1 <1>  -0.9000 
 23 H       -1.1140    -2.9000     0.9070 H     1 <1>   0.1500 
 24 H       -4.8810    -0.6520    -1.3420 H     1 <1>   0.1500 
 25 H       -4.8410    -3.1140    -1.1410 H     1 <1>   0.1500 
 26 H       -4.9510    -4.8760     2.4440 H     1 <1>   0.0800 
 27 H       -5.2690    -3.7050     1.1790 H     1 <1>   0.0800 
 28 H       -3.8400    -7.0620    -0.5950 H     1 <1>   0.0800 
 29 H       -3.8480    -7.3750     1.1370 H     1 <1>   0.0800 
 30 H       -6.0800    -5.3210    -1.2750 H     1 <1>   0.1000 
 31 H       -7.5710    -6.1730    -0.7780 H     1 <1>   0.1000 
@<TRIPOS>BOND
  1   1   2  1   
  2   2   3  ar  
  3   2   4  ar  
  4   3   5  1   
  5   3   6  ar  
  6   4   7  ar  
  7   4  23  1   
  8   6   8  ar  
  9   6  24  1   
 10   7   8  ar  
 11   7   9  1   
 12   8  25  1   
 13   9  10  2   
 14   9  11  am  
 15  11  12  1   
 16  11  13  1   
 17  12  14  1   
 18  12  26  1   
 19  12  27  1   
 20  13  15  1   
 21  13  28  1   
 22  13  29  1   
 23  14  15  1   
 24  14  16  1   
 25  14  17  1   
 26  15  17  1   
 27  15  18  1   
 28  16  19  ar  
 29  16  20  ar  
 30  17  30  1   
 31  17  31  1   
 32  18  21  ar  
 33  18  22  ar  
@<TRIPOS>SUBSTRUCTURE
  1 ****  12 GROUP 4 **** **** 0

# MOE 2024.06 (io_trps.svl 2023.06)
