@<TRIPOS>MOLECULE
NONAME
49 50 1 0 0 
SMALL
USER_CHARGES


@<TRIPOS>ATOM
  1 S       -0.5670     0.5850     0.6370 S.o2  1 <1>   1.3330 
  2 O       -0.8270     0.9750     2.0010 O.2   1 <1>  -0.6500 
  3 O       -0.6190    -0.8020     0.2390 O.2   1 <1>  -0.6500 
  4 N        0.9950     1.1850     0.1750 N.am  1 <1>  -0.6930 
  5 C       -1.6370     1.5050    -0.4470 C.3   1 <1>  -0.1350 
  6 C        1.3750     2.5070     0.3550 C.ar  1 <1>   0.1990 
  7 C        1.9240     0.2270    -0.4730 C.3   1 <1>   0.1160 
  8 C        1.3660     3.1060     1.6090 C.ar  1 <1>  -0.1500 
  9 C        1.7750     3.2790    -0.7310 C.ar  1 <1>  -0.1500 
 10 C        1.7230     4.4310     1.7670 C.ar  1 <1>  -0.1500 
 11 C        2.1330     4.6030    -0.5710 C.ar  1 <1>  -0.1500 
 12 C        2.1070     5.2230     0.6820 C.ar  1 <1>   0.0860 
 13 C        2.4490     6.6220     0.8590 C.2   1 <1>   0.5440 
 14 O        2.7700     7.0600     1.9470 O.2   1 <1>  -0.5700 
 15 N        2.3900     7.4860    -0.1920 N.am  1 <1>  -0.7300 
 16 C        2.4300     8.9510    -0.0840 C.3   1 <1>   0.4000 
 17 C        1.1130     9.4480    -0.6800 C.2   1 <1>   0.0060 
 18 C        3.6620     9.5120    -0.8350 C.3   1 <1>  -0.0800 
 19 N        0.6430     9.0480    -1.8260 N.2   1 <1>  -0.5650 
 20 N        0.3080    10.3390    -0.0480 N.pl3 1 <1>   0.0480 
 21 C        4.9860     8.9670    -0.2680 C.3   1 <1>  -0.2400 
 22 C        3.7060    11.0500    -0.8000 C.3   1 <1>  -0.2400 
 23 C       -0.5170     9.7180    -1.9500 C.2   1 <1>   0.0770 
 24 C       -0.7370    10.5070    -0.8770 C.2   1 <1>  -0.3020 
 25 C        0.4850    10.9800     1.2680 C.3   1 <1>   0.0160 
 26 H       -2.6570     1.2180    -0.2850 H     1 <1>   0.0800 
 27 H       -1.3820     1.3110    -1.4700 H     1 <1>   0.0800 
 28 H       -1.5410     2.5560    -0.2560 H     1 <1>   0.0800 
 29 H        2.0590    -0.6300     0.1650 H     1 <1>   0.0800 
 30 H        2.8820     0.6870    -0.6420 H     1 <1>   0.0800 
 31 H        1.5140    -0.1000    -1.4130 H     1 <1>   0.0800 
 32 H        1.0800     2.5260     2.4690 H     1 <1>   0.1500 
 33 H        1.7980     2.8330    -1.7080 H     1 <1>   0.1500 
 34 H        1.7060     4.8710     2.7500 H     1 <1>   0.1500 
 35 H        2.4420     5.1670    -1.4340 H     1 <1>   0.1500 
 36 H        1.8620     7.2250    -1.0290 H     1 <1>   0.3700 
 37 H        2.4950     9.2340     0.9520 H     1 <1>   0.0800 
 38 H        3.5820     9.2110    -1.8660 H     1 <1>   0.0800 
 39 H        5.0800     9.2130     0.7760 H     1 <1>   0.0800 
 40 H        5.8240     9.3820    -0.7990 H     1 <1>   0.0800 
 41 H        5.0280     7.8970    -0.3670 H     1 <1>   0.0800 
 42 H        3.7630    11.4060     0.2140 H     1 <1>   0.0800 
 43 H        2.8310    11.4650    -1.2680 H     1 <1>   0.0800 
 44 H        4.5660    11.4090    -1.3370 H     1 <1>   0.0800 
 45 H       -1.1430     9.5940    -2.8170 H     1 <1>   0.1500 
 46 H       -1.5640    11.1600    -0.6680 H     1 <1>   0.1500 
 47 H        1.3800    11.5750     1.2590 H     1 <1>   0.0800 
 48 H        0.5620    10.2210     2.0260 H     1 <1>   0.0800 
 49 H       -0.3600    11.6090     1.4790 H     1 <1>   0.0800 
@<TRIPOS>BOND
  1   1   2  2   
  2   1   3  2   
  3   1   4  am  
  4   1   5  1   
  5   4   6  1   
  6   4   7  1   
  7   5  26  1   
  8   5  27  1   
  9   5  28  1   
 10   6   8  ar  
 11   6   9  ar  
 12   7  29  1   
 13   7  30  1   
 14   7  31  1   
 15   8  10  ar  
 16   8  32  1   
 17   9  11  ar  
 18   9  33  1   
 19  10  12  ar  
 20  10  34  1   
 21  11  12  ar  
 22  11  35  1   
 23  12  13  1   
 24  13  14  2   
 25  13  15  am  
 26  15  16  1   
 27  15  36  1   
 28  16  17  1   
 29  16  18  1   
 30  16  37  1   
 31  17  19  2   
 32  17  20  1   
 33  18  21  1   
 34  18  22  1   
 35  18  38  1   
 36  19  23  1   
 37  20  24  1   
 38  20  25  1   
 39  21  39  1   
 40  21  40  1   
 41  21  41  1   
 42  22  42  1   
 43  22  43  1   
 44  22  44  1   
 45  23  24  2   
 46  23  45  1   
 47  24  46  1   
 48  25  47  1   
 49  25  48  1   
 50  25  49  1   
@<TRIPOS>SUBSTRUCTURE
  1 ****  12 GROUP 4 **** **** 0

# MOE 2024.06 (io_trps.svl 2023.06)
