@<TRIPOS>MOLECULE
NONAME
45 47 1 0 0 
SMALL
USER_CHARGES


@<TRIPOS>ATOM
  1 O       -0.3310     0.7230     0.2710 O.2   1 <1>  -0.5700 
  2 C       -0.2610     1.9220     0.3540 C.2   1 <1>   0.5690 
  3 N       -1.3350     2.6540     0.7190 N.am  1 <1>  -0.7300 
  4 C        1.0460     2.6400     0.0050 C.3   1 <1>   0.1810 
  5 C       -1.3300     4.1330     0.8290 C.3   1 <1>   0.3640 
  6 O        1.1010     3.9640     0.4930 O.3   1 <1>  -0.5600 
  7 C       -2.5780     4.6730     0.1320 C.ar  1 <1>  -0.1440 
  8 C       -0.0470     4.7540     0.2140 C.3   1 <1>   0.2610 
  9 C       -3.3290     5.6690     0.7410 C.ar  1 <1>  -0.1500 
 10 C       -2.9790     4.1950    -1.1100 C.ar  1 <1>  -0.1500 
 11 C        0.1710     6.2060     0.6820 C.2   1 <1>   0.5690 
 12 C       -4.4580     6.1770     0.1240 C.ar  1 <1>  -0.1500 
 13 C       -4.1080     4.7020    -1.7290 C.ar  1 <1>  -0.1500 
 14 O       -0.4150     6.5960     1.6690 O.2   1 <1>  -0.5700 
 15 N        1.0210     7.0460    -0.0020 N.am  1 <1>  -0.6600 
 16 C       -4.8490     5.6950    -1.1120 C.ar  1 <1>  -0.1500 
 17 C        1.9930     6.6110    -1.0550 C.3   1 <1>   0.1400 
 18 C        1.2490     8.4560     0.4450 C.3   1 <1>   0.1400 
 19 C        3.4330     6.7750    -0.5480 C.3   1 <1>   0.1400 
 20 C        2.6910     8.6390     0.9460 C.3   1 <1>   0.1400 
 21 N        3.6750     8.1770    -0.0850 N.am  1 <1>  -0.6600 
 22 C        4.6750     8.9380    -0.6300 C.2   1 <1>   0.5690 
 23 O        5.3760     8.5270    -1.5220 O.2   1 <1>  -0.5700 
 24 C        4.9370    10.3390    -0.1310 C.3   1 <1>  -0.1790 
 25 H       -2.2090     2.1760     0.9420 H     1 <1>   0.3700 
 26 H        1.1630     2.6670    -1.0630 H     1 <1>   0.0800 
 27 H        1.8710     2.1000     0.4310 H     1 <1>   0.0800 
 28 H       -1.3740     4.3780     1.8760 H     1 <1>   0.0800 
 29 H       -0.1700     4.7750    -0.8530 H     1 <1>   0.0800 
 30 H       -3.0370     6.0600     1.7020 H     1 <1>   0.1500 
 31 H       -2.4180     3.4210    -1.6050 H     1 <1>   0.1500 
 32 H       -5.0310     6.9500     0.6050 H     1 <1>   0.1500 
 33 H       -4.4130     4.3240    -2.6890 H     1 <1>   0.1500 
 34 H       -5.7270     6.0900    -1.5920 H     1 <1>   0.1500 
 35 H        1.8390     5.5870    -1.3370 H     1 <1>   0.0800 
 36 H        1.8590     7.2180    -1.9340 H     1 <1>   0.0800 
 37 H        1.0720     9.1210    -0.3820 H     1 <1>   0.0800 
 38 H        0.5640     8.7240     1.2300 H     1 <1>   0.0800 
 39 H        4.1160     6.5100    -1.3360 H     1 <1>   0.0800 
 40 H        3.6000     6.0970     0.2710 H     1 <1>   0.0800 
 41 H        2.8240     8.0590     1.8430 H     1 <1>   0.0800 
 42 H        2.8450     9.6720     1.1970 H     1 <1>   0.0800 
 43 H        5.1220    10.3220     0.9260 H     1 <1>   0.0800 
 44 H        4.0950    10.9670    -0.3490 H     1 <1>   0.0800 
 45 H        5.8030    10.7410    -0.6240 H     1 <1>   0.0800 
@<TRIPOS>BOND
  1   1   2  2   
  2   2   3  am  
  3   2   4  1   
  4   3   5  1   
  5   3  25  1   
  6   4   6  1   
  7   4  26  1   
  8   4  27  1   
  9   5   7  1   
 10   5   8  1   
 11   5  28  1   
 12   6   8  1   
 13   7   9  ar  
 14   7  10  ar  
 15   8  11  1   
 16   8  29  1   
 17   9  12  ar  
 18   9  30  1   
 19  10  13  ar  
 20  10  31  1   
 21  11  14  2   
 22  11  15  am  
 23  12  16  ar  
 24  12  32  1   
 25  13  16  ar  
 26  13  33  1   
 27  15  17  1   
 28  15  18  1   
 29  16  34  1   
 30  17  19  1   
 31  17  35  1   
 32  17  36  1   
 33  18  20  1   
 34  18  37  1   
 35  18  38  1   
 36  19  21  1   
 37  19  39  1   
 38  19  40  1   
 39  20  21  1   
 40  20  41  1   
 41  20  42  1   
 42  21  22  am  
 43  22  23  2   
 44  22  24  1   
 45  24  43  1   
 46  24  44  1   
 47  24  45  1   
@<TRIPOS>SUBSTRUCTURE
  1 ****  11 GROUP 4 **** **** 0

# MOE 2024.06 (io_trps.svl 2023.06)
