@<TRIPOS>MOLECULE
NONAME
49 52 1 0 0 
SMALL
USER_CHARGES


@<TRIPOS>ATOM
  1 O       -1.0690     1.7700    -0.4170 O.co2 1 <1>  -0.9000 
  2 C       -0.0150     2.0800     0.1750 C.2   1 <1>   1.0330 
  3 O        0.7890     1.1720     0.4610 O.co2 1 <1>  -0.9000 
  4 C        0.2420     3.4880     0.4810 C.2   1 <1>  -0.0060 
  5 N        1.2950     4.0350     1.1790 N.2   1 <1>  -0.5650 
  6 C       -0.5440     4.5140     0.0940 C.2   1 <1>  -0.0100 
  7 C        1.0710     5.2990     1.1400 C.2   1 <1>   0.2980 
  8 O       -0.0260     5.6360     0.5030 O.3   1 <1>  -0.2800 
  9 C        1.9550     6.3990     1.7310 C.3   1 <1>   0.2900 
 10 N        3.0360     6.8640     0.8140 N.3   1 <1>  -0.8100 
 11 C        2.4730     7.6380    -0.3180 C.3   1 <1>   0.1100 
 12 C        3.9020     5.7600     0.3200 C.3   1 <1>   0.1100 
 13 C        3.0900     9.0500    -0.4400 C.3   1 <1>   0.0000 
 14 C        4.7710     5.0700     1.3910 C.3   1 <1>   0.1200 
 15 C        4.6180     8.9940    -0.6800 C.3   1 <1>  -0.1600 
 16 C        2.4380     9.7750    -1.6410 C.3   1 <1>  -0.1600 
 17 C        2.8220     9.8850     0.8340 C.3   1 <1>  -0.1600 
 18 O        4.0250     4.3130     2.2860 O.3   1 <1>  -0.6800 
 19 C        5.1990    10.4120    -0.8350 C.3   1 <1>  -0.0800 
 20 C        3.0070    11.1970    -1.8020 C.3   1 <1>  -0.0800 
 21 C        3.3950    11.3070     0.6870 C.3   1 <1>  -0.0800 
 22 C        4.5270    11.1090    -2.0320 C.3   1 <1>  -0.1600 
 23 C        4.9140    11.2170     0.4470 C.3   1 <1>  -0.1600 
 24 C        2.7320    11.9990    -0.5170 C.3   1 <1>  -0.1600 
 25 H       -1.4610     4.4990    -0.4670 H     1 <1>   0.1500 
 26 H        2.3900     6.0420     2.6450 H     1 <1>   0.0800 
 27 H        1.3330     7.2340     1.9970 H     1 <1>   0.0800 
 28 H        1.4100     7.7530    -0.1950 H     1 <1>   0.0800 
 29 H        2.6190     7.1030    -1.2410 H     1 <1>   0.0800 
 30 H        4.5840     6.1750    -0.4000 H     1 <1>   0.0800 
 31 H        3.3190     5.0210    -0.2020 H     1 <1>   0.0800 
 32 H        5.3300     5.8000     1.9490 H     1 <1>   0.0800 
 33 H        5.4600     4.3990     0.9090 H     1 <1>   0.0800 
 34 H        4.8290     8.4180    -1.5630 H     1 <1>   0.0800 
 35 H        5.0970     8.5080     0.1520 H     1 <1>   0.0800 
 36 H        1.3730     9.8330    -1.4970 H     1 <1>   0.0800 
 37 H        2.6140     9.2160    -2.5440 H     1 <1>   0.0800 
 38 H        3.2760     9.4060     1.6840 H     1 <1>   0.0800 
 39 H        1.7640     9.9390     1.0200 H     1 <1>   0.0800 
 40 H        3.2250     3.9320     1.8420 H     1 <1>   0.4000 
 41 H        6.2620    10.3530    -0.9970 H     1 <1>   0.0800 
 42 H        2.5400    11.6830    -2.6420 H     1 <1>   0.0800 
 43 H        3.2020    11.8710     1.5840 H     1 <1>   0.0800 
 44 H        4.7290    10.5580    -2.9340 H     1 <1>   0.0800 
 45 H        4.9350    12.0970    -2.1530 H     1 <1>   0.0800 
 46 H        5.3280    12.2060     0.3570 H     1 <1>   0.0800 
 47 H        5.3860    10.7400     1.2880 H     1 <1>   0.0800 
 48 H        1.6710    12.0750    -0.3550 H     1 <1>   0.0800 
 49 H        3.1180    12.9980    -0.6220 H     1 <1>   0.0800 
@<TRIPOS>BOND
  1   1   2  ar  
  2   2   3  ar  
  3   2   4  1   
  4   4   5  1   
  5   4   6  2   
  6   5   7  2   
  7   6   8  1   
  8   6  25  1   
  9   7   8  1   
 10   7   9  1   
 11   9  10  1   
 12   9  26  1   
 13   9  27  1   
 14  10  11  1   
 15  10  12  1   
 16  11  13  1   
 17  11  28  1   
 18  11  29  1   
 19  12  14  1   
 20  12  30  1   
 21  12  31  1   
 22  13  15  1   
 23  13  16  1   
 24  13  17  1   
 25  14  18  1   
 26  14  32  1   
 27  14  33  1   
 28  15  19  1   
 29  15  34  1   
 30  15  35  1   
 31  16  20  1   
 32  16  36  1   
 33  16  37  1   
 34  17  21  1   
 35  17  38  1   
 36  17  39  1   
 37  18  40  1   
 38  19  22  1   
 39  19  23  1   
 40  19  41  1   
 41  20  22  1   
 42  20  24  1   
 43  20  42  1   
 44  21  23  1   
 45  21  24  1   
 46  21  43  1   
 47  22  44  1   
 48  22  45  1   
 49  23  46  1   
 50  23  47  1   
 51  24  48  1   
 52  24  49  1   
@<TRIPOS>SUBSTRUCTURE
  1 ****  11 GROUP 4 **** **** 0

# MOE 2024.06 (io_trps.svl 2023.06)
