@<TRIPOS>MOLECULE
NONAME
47 50 1 0 0 
SMALL
USER_CHARGES


@<TRIPOS>ATOM
  1 S       -0.1590     0.4520    -1.2560 S.3   1 <1>  -0.0800 
  2 C        0.8990    -0.8700    -0.8350 C.2   1 <1>  -0.1400 
  3 C        0.8220     1.5130    -0.2740 C.2   1 <1>   0.2280 
  4 C        1.8680    -0.4050    -0.0290 C.2   1 <1>   0.0460 
  5 C        0.5960    -2.2320    -1.4160 C.3   1 <1>   0.5230 
  6 N        1.8060     0.9370     0.2890 N.2   1 <1>  -0.5650 
  7 C        3.0290    -1.1680     0.5760 C.3   1 <1>  -0.0590 
  8 N       -0.2760    -2.9860    -0.4750 N.4   1 <1>  -0.9590 
  9 C       -1.6500    -2.3710    -0.3510 C.3   1 <1>   0.3430 
 10 C       -0.3680    -4.4370    -0.8620 C.3   1 <1>   0.3430 
 11 C       -2.5830    -3.1920     0.5640 C.3   1 <1>   0.1900 
 12 C       -1.3170    -5.2230     0.0640 C.3   1 <1>   0.1100 
 13 N       -2.6540    -4.5970     0.0980 N.3   1 <1>  -0.8100 
 14 C       -3.9910    -2.5650     0.5990 C.3   1 <1>   0.1200 
 15 C       -3.6190    -5.3700     0.9270 C.3   1 <1>   0.3330 
 16 O       -4.8200    -3.3160     1.4320 O.3   1 <1>  -0.5600 
 17 C       -3.8070    -6.7710     0.3500 C.ar  1 <1>  -0.1440 
 18 C       -4.9800    -4.6460     1.0120 C.3   1 <1>   0.1200 
 19 C       -4.1380    -6.9520    -0.9860 C.ar  1 <1>  -0.1500 
 20 C       -3.6410    -7.8850     1.1610 C.ar  1 <1>  -0.1500 
 21 C       -4.2970    -8.2250    -1.5050 C.ar  1 <1>  -0.1500 
 22 C       -3.7980    -9.1590     0.6420 C.ar  1 <1>  -0.1500 
 23 C       -4.1260    -9.3290    -0.6910 C.ar  1 <1>  -0.1500 
 24 H        0.5310     2.5490    -0.2150 H     1 <1>   0.1500 
 25 H        1.5240    -2.7620    -1.5520 H     1 <1>   0.0800 
 26 H        0.1200    -2.1270    -2.3780 H     1 <1>   0.0800 
 27 H        3.0210    -2.2000     0.2810 H     1 <1>   0.0800 
 28 H        2.9820    -1.1070     1.6480 H     1 <1>   0.0800 
 29 H        3.9550    -0.7230     0.2540 H     1 <1>   0.0800 
 30 H        0.1610    -2.9260     0.4530 H     1 <1>   0.4500 
 31 H       -1.5690    -1.3730     0.0480 H     1 <1>   0.0800 
 32 H       -2.1060    -2.3040    -1.3250 H     1 <1>   0.0800 
 33 H       -0.7430    -4.5220    -1.8690 H     1 <1>   0.0800 
 34 H        0.6080    -4.8920    -0.8310 H     1 <1>   0.0800 
 35 H       -2.1910    -3.1620     1.5670 H     1 <1>   0.0800 
 36 H       -0.9050    -5.2770     1.0570 H     1 <1>   0.0800 
 37 H       -1.3960    -6.2280    -0.3150 H     1 <1>   0.0800 
 38 H       -4.4290    -2.5330    -0.3840 H     1 <1>   0.0800 
 39 H       -3.9540    -1.5670     0.9990 H     1 <1>   0.0800 
 40 H       -3.2340    -5.4550     1.9290 H     1 <1>   0.0800 
 41 H       -5.6160    -5.1430     1.7240 H     1 <1>   0.0800 
 42 H       -5.4720    -4.6490     0.0560 H     1 <1>   0.0800 
 43 H       -4.2700    -6.0980    -1.6280 H     1 <1>   0.1500 
 44 H       -3.3890    -7.7730     2.2010 H     1 <1>   0.1500 
 45 H       -4.5550    -8.3570    -2.5420 H     1 <1>   0.1500 
 46 H       -3.6680   -10.0190     1.2760 H     1 <1>   0.1500 
 47 H       -4.2500   -10.3200    -1.0930 H     1 <1>   0.1500 
@<TRIPOS>BOND
  1   1   2  1   
  2   1   3  1   
  3   2   4  2   
  4   2   5  1   
  5   3   6  2   
  6   3  24  1   
  7   4   6  1   
  8   4   7  1   
  9   5   8  1   
 10   5  25  1   
 11   5  26  1   
 12   7  27  1   
 13   7  28  1   
 14   7  29  1   
 15   8   9  1   
 16   8  10  1   
 17   8  30  1   
 18   9  11  1   
 19   9  31  1   
 20   9  32  1   
 21  10  12  1   
 22  10  33  1   
 23  10  34  1   
 24  11  13  1   
 25  11  14  1   
 26  11  35  1   
 27  12  13  1   
 28  12  36  1   
 29  12  37  1   
 30  13  15  1   
 31  14  16  1   
 32  14  38  1   
 33  14  39  1   
 34  15  17  1   
 35  15  18  1   
 36  15  40  1   
 37  16  18  1   
 38  17  19  ar  
 39  17  20  ar  
 40  18  41  1   
 41  18  42  1   
 42  19  21  ar  
 43  19  43  1   
 44  20  22  ar  
 45  20  44  1   
 46  21  23  ar  
 47  21  45  1   
 48  22  23  ar  
 49  22  46  1   
 50  23  47  1   
@<TRIPOS>SUBSTRUCTURE
  1 ****  13 GROUP 4 **** **** 0

# MOE 2024.06 (io_trps.svl 2023.06)
