@<TRIPOS>MOLECULE
NONAME
43 44 1 0 0 
SMALL
USER_CHARGES


@<TRIPOS>ATOM
  1 F       -1.0720     0.4220    -2.2860 F     1 <1>  -0.3400 
  2 C       -1.7700     1.3250    -1.6140 C.3   1 <1>   1.0200 
  3 F       -0.9070     2.0020    -0.8710 F     1 <1>  -0.3400 
  4 F       -2.2480     2.1800    -2.5070 F     1 <1>  -0.3400 
  5 C       -2.8830     0.6900    -0.7810 C.3   1 <1>  -0.1600 
  6 C       -3.7150     1.7130     0.0220 C.3   1 <1>  -0.0990 
  7 C       -4.8250     1.0250     0.7860 C.2   1 <1>   0.5690 
  8 O       -4.5530     0.4040     1.7820 O.2   1 <1>  -0.5700 
  9 N       -6.0900     1.0850     0.3080 N.am  1 <1>  -0.7300 
 10 C       -7.2760     0.4660     0.9520 C.3   1 <1>   0.2200 
 11 C       -7.3210    -1.0610     0.7080 C.3   1 <1>   0.2000 
 12 C       -8.5290     1.1640     0.4110 C.3   1 <1>  -0.1600 
 13 O       -6.2760    -1.6820     1.3800 O.3   1 <1>  -0.6800 
 14 C       -8.6360    -1.6840     1.1930 C.3   1 <1>   0.1400 
 15 C       -9.8000     0.5240     0.9710 C.3   1 <1>   0.1400 
 16 N       -9.8010    -0.9260     0.6410 N.am  1 <1>  -0.6600 
 17 C      -10.6840    -1.4570    -0.2780 C.2   1 <1>   0.5440 
 18 O      -11.2940    -0.6960    -1.0060 O.2   1 <1>  -0.5700 
 19 C      -10.8920    -2.8880    -0.4140 C.ar  1 <1>   0.0860 
 20 C      -11.1340    -3.7020     0.6940 C.ar  1 <1>  -0.1500 
 21 C      -10.8650    -3.4990    -1.6670 C.ar  1 <1>  -0.1500 
 22 C      -11.3220    -5.0660     0.5590 C.ar  1 <1>  -0.1500 
 23 C      -11.0520    -4.8620    -1.8100 C.ar  1 <1>  -0.1500 
 24 C      -11.2790    -5.6490    -0.6950 C.ar  1 <1>  -0.1500 
 25 H       -3.5270     0.1440    -1.4460 H     1 <1>   0.0800 
 26 H       -2.4340    -0.0130    -0.1030 H     1 <1>   0.0800 
 27 H       -4.1370     2.4520    -0.6340 H     1 <1>   0.0800 
 28 H       -3.0850     2.2210     0.7320 H     1 <1>   0.0800 
 29 H       -6.2810     1.5730    -0.5680 H     1 <1>   0.3700 
 30 H       -7.2280     0.6350     2.0160 H     1 <1>   0.0800 
 31 H       -7.2040    -1.2640    -0.3420 H     1 <1>   0.0800 
 32 H       -8.5130     2.2020     0.6890 H     1 <1>   0.0800 
 33 H       -8.5630     1.0950    -0.6620 H     1 <1>   0.0800 
 34 H       -5.5540    -1.0200     1.5480 H     1 <1>   0.4000 
 35 H       -8.6760    -1.6490     2.2680 H     1 <1>   0.0800 
 36 H       -8.6610    -2.7120     0.8810 H     1 <1>   0.0800 
 37 H      -10.6680     1.0090     0.5560 H     1 <1>   0.0800 
 38 H       -9.8370     0.6420     2.0410 H     1 <1>   0.0800 
 39 H      -11.1780    -3.2530     1.6710 H     1 <1>   0.1500 
 40 H      -10.6960    -2.8860    -2.5360 H     1 <1>   0.1500 
 41 H      -11.5030    -5.6750     1.4280 H     1 <1>   0.1500 
 42 H      -11.0240    -5.3100    -2.7880 H     1 <1>   0.1500 
 43 H      -11.4240    -6.7100    -0.8040 H     1 <1>   0.1500 
@<TRIPOS>BOND
  1   1   2  1   
  2   2   3  1   
  3   2   4  1   
  4   2   5  1   
  5   5   6  1   
  6   5  25  1   
  7   5  26  1   
  8   6   7  1   
  9   6  27  1   
 10   6  28  1   
 11   7   8  2   
 12   7   9  am  
 13   9  10  1   
 14   9  29  1   
 15  10  11  1   
 16  10  12  1   
 17  10  30  1   
 18  11  13  1   
 19  11  14  1   
 20  11  31  1   
 21  12  15  1   
 22  12  32  1   
 23  12  33  1   
 24  13  34  1   
 25  14  16  1   
 26  14  35  1   
 27  14  36  1   
 28  15  16  1   
 29  15  37  1   
 30  15  38  1   
 31  16  17  am  
 32  17  18  2   
 33  17  19  1   
 34  19  20  ar  
 35  19  21  ar  
 36  20  22  ar  
 37  20  39  1   
 38  21  23  ar  
 39  21  40  1   
 40  22  24  ar  
 41  22  41  1   
 42  23  24  ar  
 43  23  42  1   
 44  24  43  1   
@<TRIPOS>SUBSTRUCTURE
  1 ****  11 GROUP 4 **** **** 0

# MOE 2024.06 (io_trps.svl 2023.06)
