@<TRIPOS>MOLECULE
NONAME
39 41 1 0 0 
SMALL
USER_CHARGES


@<TRIPOS>ATOM
  1 O       -0.6300     1.4550     2.1560 O.co2 1 <1>  -0.9000 
  2 C       -0.8430     2.6810     2.0540 C.2   1 <1>   1.0330 
  3 O       -1.7670     3.1700     2.7330 O.co2 1 <1>  -0.9000 
  4 C       -0.0130     3.4710     1.1410 C.2   1 <1>  -0.0060 
  5 N       -0.0480     4.8260     0.8900 N.2   1 <1>  -0.5650 
  6 C        0.9600     2.9580     0.3610 C.2   1 <1>  -0.0100 
  7 C        0.8770     5.0090     0.0200 C.2   1 <1>   0.2980 
  8 O        1.5050     3.9120    -0.3380 O.3   1 <1>  -0.2800 
  9 C        1.2470     6.3360    -0.6460 C.3   1 <1>   0.2900 
 10 N        2.5060     6.9880    -0.1850 N.3   1 <1>  -0.8100 
 11 C        2.6800     8.2770    -0.8770 C.3   1 <1>   0.1100 
 12 C        3.6810     6.1180    -0.3600 C.3   1 <1>   0.1100 
 13 C        3.9000     9.0380    -0.3320 C.3   1 <1>  -0.0190 
 14 C        4.9390     6.8040     0.1830 C.3   1 <1>  -0.1600 
 15 C        4.0760    10.3870    -1.0400 C.2   1 <1>   0.4230 
 16 C        5.1660     8.1740    -0.4670 C.3   1 <1>  -0.1600 
 17 O        3.7190    10.4630    -2.1940 O.2   1 <1>  -0.5700 
 18 C        4.6640    11.5110    -0.3230 C.ar  1 <1>   0.3960 
 19 N        5.1470    11.3390     0.9200 N.ar  1 <1>  -0.6200 
 20 C        4.7220    12.7610    -0.9460 C.ar  1 <1>  -0.1500 
 21 C        5.6700    12.3910     1.5210 C.ar  1 <1>   0.1600 
 22 C        5.2690    13.8540    -0.3100 C.ar  1 <1>  -0.1500 
 23 C        5.7550    13.6530     0.9610 C.ar  1 <1>  -0.1500 
 24 H        1.2960     1.9410     0.2670 H     1 <1>   0.1500 
 25 H        0.4310     7.0120    -0.4610 H     1 <1>   0.0800 
 26 H        1.2980     6.1700    -1.7070 H     1 <1>   0.0800 
 27 H        1.8020     8.8830    -0.7320 H     1 <1>   0.0800 
 28 H        2.8010     8.1050    -1.9350 H     1 <1>   0.0800 
 29 H        3.8100     5.8790    -1.4020 H     1 <1>   0.0800 
 30 H        3.5400     5.2020     0.1870 H     1 <1>   0.0800 
 31 H        3.7090     9.2160     0.7110 H     1 <1>   0.0800 
 32 H        5.7910     6.1720     0.0090 H     1 <1>   0.0800 
 33 H        4.8290     6.9210     1.2480 H     1 <1>   0.0800 
 34 H        5.9990     8.6650     0.0050 H     1 <1>   0.0800 
 35 H        5.3990     8.0410    -1.5100 H     1 <1>   0.0800 
 36 H        4.3310    12.8700    -1.9420 H     1 <1>   0.1500 
 37 H        6.0540    12.2440     2.5170 H     1 <1>   0.1500 
 38 H        5.3150    14.8190    -0.7860 H     1 <1>   0.1500 
 39 H        6.1950    14.4620     1.5150 H     1 <1>   0.1500 
@<TRIPOS>BOND
  1   1   2  ar  
  2   2   3  ar  
  3   2   4  1   
  4   4   5  1   
  5   4   6  2   
  6   5   7  2   
  7   6   8  1   
  8   6  24  1   
  9   7   8  1   
 10   7   9  1   
 11   9  10  1   
 12   9  25  1   
 13   9  26  1   
 14  10  11  1   
 15  10  12  1   
 16  11  13  1   
 17  11  27  1   
 18  11  28  1   
 19  12  14  1   
 20  12  29  1   
 21  12  30  1   
 22  13  15  1   
 23  13  16  1   
 24  13  31  1   
 25  14  16  1   
 26  14  32  1   
 27  14  33  1   
 28  15  17  2   
 29  15  18  1   
 30  16  34  1   
 31  16  35  1   
 32  18  19  ar  
 33  18  20  ar  
 34  19  21  ar  
 35  20  22  ar  
 36  20  36  1   
 37  21  23  ar  
 38  21  37  1   
 39  22  23  ar  
 40  22  38  1   
 41  23  39  1   
@<TRIPOS>SUBSTRUCTURE
  1 ****  10 GROUP 4 **** **** 0

# MOE 2024.06 (io_trps.svl 2023.06)
