@<TRIPOS>MOLECULE
NONAME
51 54 1 0 0 
SMALL
USER_CHARGES


@<TRIPOS>ATOM
  1 O       -1.1930     0.8300     2.6280 O.2   1 <1>  -0.5700 
  2 C       -0.9720     1.9040     2.0630 C.2   1 <1>   0.5440 
  3 N       -1.9480     2.8850     2.2230 N.am  1 <1>  -0.6600 
  4 C        0.2890     2.0940     1.3980 C.ar  1 <1>   0.0860 
  5 C       -1.7040     4.3210     1.9040 C.3   1 <1>   0.1400 
  6 C       -3.3280     2.5110     2.6320 C.3   1 <1>   0.1400 
  7 C        0.4520     2.6760     0.1140 C.ar  1 <1>  -0.1710 
  8 C        1.4550     1.6640     2.0580 C.ar  1 <1>  -0.1500 
  9 C       -2.7040     4.8760     0.8740 C.3   1 <1>  -0.1600 
 10 C       -4.3670     3.4750     2.0530 C.3   1 <1>  -0.1600 
 11 O       -0.5350     3.0270    -0.5630 O.3   1 <1>  -0.8290 
 12 C        1.7650     2.8630    -0.4380 C.ar  1 <1>   0.0000 
 13 C        2.7070     1.8210     1.5340 C.ar  1 <1>  -0.1500 
 14 C       -3.9640     4.0010     0.6620 C.3   1 <1>   0.2800 
 15 C        2.8990     2.4330     0.2790 C.ar  1 <1>   0.0000 
 16 C        1.9670     3.4670    -1.6870 C.ar  1 <1>  -0.1500 
 17 O       -5.0170     4.8790     0.3110 O.3   1 <1>  -0.5600 
 18 C       -3.7900     2.8350    -0.3980 C.3   1 <1>   0.2000 
 19 C        4.1770     2.6240    -0.2740 C.ar  1 <1>  -0.1500 
 20 C        3.2230     3.6470    -2.2140 C.ar  1 <1>  -0.1500 
 21 C       -5.2600     5.0390    -1.0490 C.3   1 <1>   0.1200 
 22 O       -2.9030     3.1870    -1.4310 O.3   1 <1>  -0.6800 
 23 C       -5.1490     2.4670    -1.0590 C.3   1 <1>   0.2800 
 24 C        4.3400     3.2210    -1.4990 C.ar  1 <1>  -0.1500 
 25 C       -5.8180     3.7320    -1.6400 C.3   1 <1>  -0.1600 
 26 O       -6.0120     1.9290    -0.1170 O.3   1 <1>  -0.6800 
 27 C       -5.0210     1.3670    -2.1220 C.3   1 <1>  -0.2400 
 28 H       -1.8000     4.8780     2.8180 H     1 <1>   0.0800 
 29 H       -0.7020     4.4700     1.5440 H     1 <1>   0.0800 
 30 H       -3.5380     1.5170     2.2740 H     1 <1>   0.0800 
 31 H       -3.3900     2.4960     3.7060 H     1 <1>   0.0800 
 32 H        1.3310     1.1940     3.0160 H     1 <1>   0.1500 
 33 H       -2.1820     5.0400    -0.0490 H     1 <1>   0.0800 
 34 H       -3.0080     5.8450     1.2210 H     1 <1>   0.0800 
 35 H       -4.4670     4.3090     2.7240 H     1 <1>   0.0800 
 36 H       -5.3180     2.9830     2.0200 H     1 <1>   0.0800 
 37 H        3.5700     1.4770     2.0730 H     1 <1>   0.1500 
 38 H        1.0920     3.7870    -2.2240 H     1 <1>   0.1500 
 39 H       -3.3610     1.9640     0.0600 H     1 <1>   0.0800 
 40 H        5.0320     2.2920     0.2830 H     1 <1>   0.1500 
 41 H        3.3450     4.1140    -3.1740 H     1 <1>   0.1500 
 42 H       -5.9650     5.8410    -1.1690 H     1 <1>   0.0800 
 43 H       -4.3340     5.3170    -1.5250 H     1 <1>   0.0800 
 44 H       -1.9420     3.1270    -1.0770 H     1 <1>   0.4000 
 45 H        5.3200     3.3650    -1.9160 H     1 <1>   0.1500 
 46 H       -5.6310     3.7770    -2.6970 H     1 <1>   0.0800 
 47 H       -6.8830     3.7010    -1.5060 H     1 <1>   0.0800 
 48 H       -6.8680     1.7490    -0.5410 H     1 <1>   0.4000 
 49 H       -4.3870     1.7000    -2.9240 H     1 <1>   0.0800 
 50 H       -5.9790     1.1110    -2.5340 H     1 <1>   0.0800 
 51 H       -4.5660     0.4940    -1.6890 H     1 <1>   0.0800 
@<TRIPOS>BOND
  1   1   2  2   
  2   2   3  am  
  3   2   4  1   
  4   3   5  1   
  5   3   6  1   
  6   4   7  ar  
  7   4   8  ar  
  8   5   9  1   
  9   5  28  1   
 10   5  29  1   
 11   6  10  1   
 12   6  30  1   
 13   6  31  1   
 14   7  11  1   
 15   7  12  ar  
 16   8  13  ar  
 17   8  32  1   
 18   9  14  1   
 19   9  33  1   
 20   9  34  1   
 21  10  14  1   
 22  10  35  1   
 23  10  36  1   
 24  12  15  ar  
 25  12  16  ar  
 26  13  15  ar  
 27  13  37  1   
 28  14  17  1   
 29  14  18  1   
 30  15  19  ar  
 31  16  20  ar  
 32  16  38  1   
 33  17  21  1   
 34  18  22  1   
 35  18  23  1   
 36  18  39  1   
 37  19  24  ar  
 38  19  40  1   
 39  20  24  ar  
 40  20  41  1   
 41  21  25  1   
 42  21  42  1   
 43  21  43  1   
 44  22  44  1   
 45  23  25  1   
 46  23  26  1   
 47  23  27  1   
 48  24  45  1   
 49  25  46  1   
 50  25  47  1   
 51  26  48  1   
 52  27  49  1   
 53  27  50  1   
 54  27  51  1   
@<TRIPOS>SUBSTRUCTURE
  1 ****  11 GROUP 4 **** **** 0

# MOE 2024.06 (io_trps.svl 2023.06)
