@<TRIPOS>MOLECULE
NONAME
49 51 1 0 0 
SMALL
USER_CHARGES


@<TRIPOS>ATOM
  1 S        0.7220    -0.0520    -1.5500 S.o2  1 <1>   1.4470 
  2 O        0.3130     0.6820    -2.7220 O.2   1 <1>  -0.6500 
  3 O        1.8370    -0.9710    -1.6470 O.2   1 <1>  -0.6500 
  4 N        1.2560     1.1020    -0.4240 N.am  1 <1>  -0.8490 
  5 C       -0.7150    -0.8240    -0.7620 C.ar  1 <1>  -0.0090 
  6 C        1.7380     0.5520     0.8740 C.3   1 <1>   0.2760 
  7 C        1.9630     2.2390    -1.0490 C.3   1 <1>   0.1960 
  8 C       -0.8390    -2.2070    -0.6850 C.ar  1 <1>  -0.1500 
  9 C       -1.7350    -0.0470    -0.2250 C.ar  1 <1>  -0.1500 
 10 C        1.6790     1.6050     1.9940 C.3   1 <1>   0.1200 
 11 C        3.1470    -0.1060     0.8400 C.3   1 <1>   0.3430 
 12 C        3.2190     2.7500    -0.3270 C.3   1 <1>  -0.0800 
 13 C       -1.9380    -2.8000    -0.0890 C.ar  1 <1>  -0.1500 
 14 C       -2.8370    -0.6300     0.3730 C.ar  1 <1>  -0.1500 
 15 O        2.8430     2.3750     2.0200 O.3   1 <1>  -0.5600 
 16 N        4.0010     0.3090    -0.3240 N.4   1 <1>  -0.9590 
 17 C        2.9200     3.3620     1.0490 C.3   1 <1>   0.1200 
 18 C        4.3940     1.7550    -0.2940 C.3   1 <1>   0.3430 
 19 C       -2.9490    -2.0080     0.4430 C.ar  1 <1>   0.0830 
 20 C        5.1950    -0.5750    -0.4450 C.3   1 <1>   0.2630 
 21 O       -4.0640    -2.5000     1.0310 O.3   1 <1>  -0.3620 
 22 C       -4.3640    -3.8910     1.0050 C.3   1 <1>   0.1810 
 23 C       -5.7350    -4.1710     1.6100 C.2   1 <1>   0.5690 
 24 O       -6.0960    -5.3110     1.7500 O.2   1 <1>  -0.5700 
 25 N       -6.5400    -3.1550     1.9810 N.am  1 <1>  -0.8000 
 26 H        1.0440    -0.2120     1.1790 H     1 <1>   0.0800 
 27 H        2.2590     1.9770    -2.0530 H     1 <1>   0.0800 
 28 H        1.2590     3.0490    -1.1460 H     1 <1>   0.0800 
 29 H       -0.0670    -2.8330    -1.1030 H     1 <1>   0.1500 
 30 H       -1.6720     1.0270    -0.2830 H     1 <1>   0.1500 
 31 H        1.6230     1.1070     2.9460 H     1 <1>   0.0800 
 32 H        0.8150     2.2410     1.8970 H     1 <1>   0.0800 
 33 H        3.0030    -1.1730     0.7950 H     1 <1>   0.0800 
 34 H        3.6580     0.1080     1.7650 H     1 <1>   0.0800 
 35 H        3.5630     3.5800    -0.9180 H     1 <1>   0.0800 
 36 H       -1.9900    -3.8730    -0.0530 H     1 <1>   0.1500 
 37 H       -3.6210    -0.0180     0.7830 H     1 <1>   0.1500 
 38 H        3.3980     0.1320    -1.1510 H     1 <1>   0.4500 
 39 H        2.0070     3.9360     1.0460 H     1 <1>   0.0800 
 40 H        3.7240     4.0180     1.3390 H     1 <1>   0.0800 
 41 H        4.9870     1.9480     0.5850 H     1 <1>   0.0800 
 42 H        5.0170     1.9510    -1.1520 H     1 <1>   0.0800 
 43 H        5.8310    -0.4690     0.4190 H     1 <1>   0.0800 
 44 H        5.7610    -0.3190    -1.3260 H     1 <1>   0.0800 
 45 H        4.8880    -1.6050    -0.5270 H     1 <1>   0.0800 
 46 H       -4.3570    -4.2240    -0.0160 H     1 <1>   0.0800 
 47 H       -3.6140    -4.4120     1.5700 H     1 <1>   0.0800 
 48 H       -7.4550    -3.3430     2.3890 H     1 <1>   0.3700 
 49 H       -6.2540    -2.1790     1.8840 H     1 <1>   0.3700 
@<TRIPOS>BOND
  1   1   2  2   
  2   1   3  2   
  3   1   4  am  
  4   1   5  1   
  5   4   6  1   
  6   4   7  1   
  7   5   8  ar  
  8   5   9  ar  
  9   6  10  1   
 10   6  11  1   
 11   6  26  1   
 12   7  12  1   
 13   7  27  1   
 14   7  28  1   
 15   8  13  ar  
 16   8  29  1   
 17   9  14  ar  
 18   9  30  1   
 19  10  15  1   
 20  10  31  1   
 21  10  32  1   
 22  11  16  1   
 23  11  33  1   
 24  11  34  1   
 25  12  17  1   
 26  12  18  1   
 27  12  35  1   
 28  13  19  ar  
 29  13  36  1   
 30  14  19  ar  
 31  14  37  1   
 32  15  17  1   
 33  16  18  1   
 34  16  20  1   
 35  16  38  1   
 36  17  39  1   
 37  17  40  1   
 38  18  41  1   
 39  18  42  1   
 40  19  21  1   
 41  20  43  1   
 42  20  44  1   
 43  20  45  1   
 44  21  22  1   
 45  22  23  1   
 46  22  46  1   
 47  22  47  1   
 48  23  24  2   
 49  23  25  am  
 50  25  48  1   
 51  25  49  1   
@<TRIPOS>SUBSTRUCTURE
  1 ****   5 GROUP 4 **** **** 0

# MOE 2024.06 (io_trps.svl 2023.06)
