@<TRIPOS>MOLECULE
NONAME
55 58 1 0 0 
SMALL
USER_CHARGES


@<TRIPOS>ATOM
  1 S       -0.8220    -0.4300     1.1670 S.o2  1 <1>   1.0900 
  2 O        0.5540    -0.7460     0.8650 O.2   1 <1>  -0.6500 
  3 O       -1.1770     0.5740     2.1420 O.2   1 <1>  -0.6500 
  4 C       -1.6580    -1.9520     1.5090 C.3   1 <1>  -0.0550 
  5 C       -1.6700    -0.1320    -0.3780 C.3   1 <1>  -0.0550 
  6 C       -1.9290    -2.5510     0.1310 C.3   1 <1>   0.1760 
  7 C       -2.4410    -1.4060    -0.7650 C.3   1 <1>  -0.1600 
  8 N       -2.9030    -3.6700     0.1980 N.pl3 1 <1>   0.3140 
  9 N       -4.0600    -3.5500     0.8780 N.2   1 <1>  -0.7070 
 10 C       -2.8080    -4.8790    -0.4120 C.2   1 <1>  -0.3320 
 11 C       -4.6790    -4.6700     0.6800 C.2   1 <1>   0.1080 
 12 C       -3.9520    -5.5430    -0.1310 C.2   1 <1>   0.0630 
 13 C       -1.6140    -5.3370    -1.2400 C.3   1 <1>  -0.0600 
 14 C       -6.0410    -4.9610     1.2700 C.3   1 <1>  -0.0590 
 15 N       -4.3730    -6.8340    -0.5350 N.am  1 <1>  -0.4930 
 16 C       -4.3820    -7.4040    -1.7700 C.2   1 <1>   0.5690 
 17 O       -3.9080    -6.8990    -2.7620 O.2   1 <1>  -0.5700 
 18 C       -5.0700    -8.7640    -1.8800 C.3   1 <1>   0.1710 
 19 N       -6.1900    -8.9360    -0.9050 N.3   1 <1>  -0.8100 
 20 C       -6.5490   -10.3610    -0.7730 C.3   1 <1>   0.2530 
 21 C       -7.3610    -8.1320    -1.3320 C.3   1 <1>   0.1100 
 22 C       -7.2500   -10.6340     0.5480 C.ar  1 <1>  -0.1430 
 23 C       -8.4650    -8.0300    -0.2690 C.3   1 <1>   0.1200 
 24 C       -8.5070   -10.1050     0.8120 C.ar  1 <1>   0.0820 
 25 C       -6.6550   -11.4530     1.4980 C.ar  1 <1>  -0.1500 
 26 O       -9.1060    -9.2710    -0.0610 O.3   1 <1>  -0.3620 
 27 C       -9.1750   -10.4190     1.9840 C.ar  1 <1>  -0.1500 
 28 C       -7.3140   -11.7550     2.6780 C.ar  1 <1>  -0.1500 
 29 C       -8.5780   -11.2440     2.9200 C.ar  1 <1>  -0.1500 
 30 H       -2.5870    -1.7470     2.0070 H     1 <1>   0.0800 
 31 H       -1.0590    -2.6060     2.1130 H     1 <1>   0.0800 
 32 H       -0.9540     0.1150    -1.1400 H     1 <1>   0.0800 
 33 H       -2.3540     0.6900    -0.2780 H     1 <1>   0.0800 
 34 H       -1.0000    -2.9190    -0.2670 H     1 <1>   0.0800 
 35 H       -2.3080    -1.6420    -1.8060 H     1 <1>   0.0800 
 36 H       -3.4900    -1.2460    -0.5740 H     1 <1>   0.0800 
 37 H       -0.7000    -5.2100    -0.6890 H     1 <1>   0.0800 
 38 H       -1.5610    -4.7760    -2.1550 H     1 <1>   0.0800 
 39 H       -1.7050    -6.3780    -1.4880 H     1 <1>   0.0800 
 40 H       -6.3720    -4.1230     1.8550 H     1 <1>   0.0800 
 41 H       -5.9870    -5.8280     1.9020 H     1 <1>   0.0800 
 42 H       -6.7470    -5.1360     0.4800 H     1 <1>   0.0800 
 43 H       -4.9350    -7.3600     0.1410 H     1 <1>   0.3700 
 44 H       -4.3140    -9.5060    -1.6980 H     1 <1>   0.0800 
 45 H       -5.4290    -8.8970    -2.8860 H     1 <1>   0.0800 
 46 H       -5.6590   -10.9650    -0.8120 H     1 <1>   0.0800 
 47 H       -7.1840   -10.6640    -1.5890 H     1 <1>   0.0800 
 48 H       -7.7810    -8.5330    -2.2400 H     1 <1>   0.0800 
 49 H       -7.0370    -7.1280    -1.5460 H     1 <1>   0.0800 
 50 H       -9.2190    -7.3400    -0.6020 H     1 <1>   0.0800 
 51 H       -8.0640    -7.6800     0.6660 H     1 <1>   0.0800 
 52 H       -5.6770   -11.8650     1.3230 H     1 <1>   0.1500 
 53 H      -10.1540   -10.0130     2.1580 H     1 <1>   0.1500 
 54 H       -6.8450   -12.3930     3.4080 H     1 <1>   0.1500 
 55 H       -9.0930   -11.4860     3.8330 H     1 <1>   0.1500 
@<TRIPOS>BOND
  1   1   2  2   
  2   1   3  2   
  3   1   4  1   
  4   1   5  1   
  5   4   6  1   
  6   4  30  1   
  7   4  31  1   
  8   5   7  1   
  9   5  32  1   
 10   5  33  1   
 11   6   7  1   
 12   6   8  1   
 13   6  34  1   
 14   7  35  1   
 15   7  36  1   
 16   8   9  1   
 17   8  10  1   
 18   9  11  2   
 19  10  12  2   
 20  10  13  1   
 21  11  12  1   
 22  11  14  1   
 23  12  15  1   
 24  13  37  1   
 25  13  38  1   
 26  13  39  1   
 27  14  40  1   
 28  14  41  1   
 29  14  42  1   
 30  15  16  am  
 31  15  43  1   
 32  16  17  2   
 33  16  18  1   
 34  18  19  1   
 35  18  44  1   
 36  18  45  1   
 37  19  20  1   
 38  19  21  1   
 39  20  22  1   
 40  20  46  1   
 41  20  47  1   
 42  21  23  1   
 43  21  48  1   
 44  21  49  1   
 45  22  24  ar  
 46  22  25  ar  
 47  23  26  1   
 48  23  50  1   
 49  23  51  1   
 50  24  26  1   
 51  24  27  ar  
 52  25  28  ar  
 53  25  52  1   
 54  27  29  ar  
 55  27  53  1   
 56  28  29  ar  
 57  28  54  1   
 58  29  55  1   
@<TRIPOS>SUBSTRUCTURE
  1 ****  15 GROUP 4 **** **** 0

# MOE 2024.06 (io_trps.svl 2023.06)
