@<TRIPOS>MOLECULE
NONAME
54 56 1 0 0 
SMALL
USER_CHARGES


@<TRIPOS>ATOM
  1 O        0.4500    -0.6010     0.3560 O.2   1 <1>  -0.5700 
  2 C        1.6470    -0.5440     0.1910 C.2   1 <1>   0.5690 
  3 N        2.5060    -1.4880     0.6570 N.am  1 <1>  -0.6600 
  4 C        2.2550     0.5980    -0.6020 C.3   1 <1>  -0.0190 
  5 C        3.9590    -1.3230     0.3930 C.3   1 <1>   0.2200 
  6 C        2.0620    -2.7250     1.3760 C.3   1 <1>   0.2010 
  7 C        2.9410     1.5790     0.3710 C.3   1 <1>   0.1100 
  8 C        3.1870     0.0130    -1.6880 C.3   1 <1>  -0.1600 
  9 C        4.5140    -0.1960     1.2990 C.3   1 <1>   0.1100 
 10 C        4.1550    -1.0530    -1.1140 C.3   1 <1>  -0.1600 
 11 C        2.3580    -4.0100     0.5960 C.2   1 <1>   0.5690 
 12 N        4.2960     1.2030     0.8470 N.3   1 <1>  -0.8100 
 13 O        3.2980    -4.6740     0.9720 O.2   1 <1>  -0.5700 
 14 N        1.6010    -4.3790    -0.4950 N.am  1 <1>  -0.6600 
 15 C        5.4190     1.8020     0.0890 C.3   1 <1>   0.2900 
 16 C        1.9110    -5.6010    -1.2880 C.3   1 <1>   0.0600 
 17 C        0.4740    -3.5610    -1.0270 C.3   1 <1>   0.0600 
 18 C        5.5130     3.3050     0.3010 C.2   1 <1>  -0.0400 
 19 O        6.2970     4.0010    -0.5000 O.3   1 <1>  -0.2800 
 20 C        4.9260     4.1200     1.2040 C.2   1 <1>  -0.1500 
 21 C        6.2290     5.2670    -0.1370 C.2   1 <1>  -0.0400 
 22 C        5.3930     5.4080     0.9160 C.2   1 <1>  -0.1500 
 23 C        7.0530     6.2740    -0.9200 C.3   1 <1>   0.0200 
 24 C        6.8850     7.7090    -0.4000 C.3   1 <1>  -0.1600 
 25 C        7.7260     8.7040    -1.2070 C.3   1 <1>  -0.2400 
 26 H        1.4490     1.1240    -1.0820 H     1 <1>   0.0800 
 27 H        4.4690    -2.2360     0.6520 H     1 <1>   0.0800 
 28 H        2.5730    -2.7750     2.3200 H     1 <1>   0.0800 
 29 H        1.0100    -2.6740     1.5870 H     1 <1>   0.0800 
 30 H        2.3060     1.6990     1.2330 H     1 <1>   0.0800 
 31 H        2.9940     2.5430    -0.1060 H     1 <1>   0.0800 
 32 H        2.5720    -0.4610    -2.4320 H     1 <1>   0.0800 
 33 H        3.7250     0.8010    -2.1830 H     1 <1>   0.0800 
 34 H        5.5700    -0.3580     1.4240 H     1 <1>   0.0800 
 35 H        4.0730    -0.3070     2.2740 H     1 <1>   0.0800 
 36 H        5.1740    -0.7640    -1.2940 H     1 <1>   0.0800 
 37 H        3.9990    -1.9800    -1.6380 H     1 <1>   0.0800 
 38 H        6.3510     1.3730     0.4100 H     1 <1>   0.0800 
 39 H        5.3090     1.6070    -0.9600 H     1 <1>   0.0800 
 40 H        1.0610    -6.2610    -1.2830 H     1 <1>   0.0800 
 41 H        2.7530    -6.1270    -0.8730 H     1 <1>   0.0800 
 42 H        2.1430    -5.3270    -2.3020 H     1 <1>   0.0800 
 43 H       -0.1730    -4.1680    -1.6360 H     1 <1>   0.0800 
 44 H        0.8630    -2.7550    -1.6250 H     1 <1>   0.0800 
 45 H       -0.1100    -3.1490    -0.2240 H     1 <1>   0.0800 
 46 H        4.2420     3.8550     1.9900 H     1 <1>   0.1500 
 47 H        5.1180     6.2980     1.4510 H     1 <1>   0.1500 
 48 H        8.0880     5.9880    -0.8580 H     1 <1>   0.0800 
 49 H        6.7570     6.2280    -1.9530 H     1 <1>   0.0800 
 50 H        5.8470     7.9900    -0.4620 H     1 <1>   0.0800 
 51 H        7.1820     7.7490     0.6340 H     1 <1>   0.0800 
 52 H        7.4300     8.6950    -2.2410 H     1 <1>   0.0800 
 53 H        8.7700     8.4540    -1.1420 H     1 <1>   0.0800 
 54 H        7.5890     9.6990    -0.8210 H     1 <1>   0.0800 
@<TRIPOS>BOND
  1   1   2  2   
  2   2   3  am  
  3   2   4  1   
  4   3   5  1   
  5   3   6  1   
  6   4   7  1   
  7   4   8  1   
  8   4  26  1   
  9   5   9  1   
 10   5  10  1   
 11   5  27  1   
 12   6  11  1   
 13   6  28  1   
 14   6  29  1   
 15   7  12  1   
 16   7  30  1   
 17   7  31  1   
 18   8  10  1   
 19   8  32  1   
 20   8  33  1   
 21   9  12  1   
 22   9  34  1   
 23   9  35  1   
 24  10  36  1   
 25  10  37  1   
 26  11  13  2   
 27  11  14  am  
 28  12  15  1   
 29  14  16  1   
 30  14  17  1   
 31  15  18  1   
 32  15  38  1   
 33  15  39  1   
 34  16  40  1   
 35  16  41  1   
 36  16  42  1   
 37  17  43  1   
 38  17  44  1   
 39  17  45  1   
 40  18  19  1   
 41  18  20  2   
 42  19  21  1   
 43  20  22  1   
 44  20  46  1   
 45  21  22  2   
 46  21  23  1   
 47  22  47  1   
 48  23  24  1   
 49  23  48  1   
 50  23  49  1   
 51  24  25  1   
 52  24  50  1   
 53  24  51  1   
 54  25  52  1   
 55  25  53  1   
 56  25  54  1   
@<TRIPOS>SUBSTRUCTURE
  1 ****  12 GROUP 4 **** **** 0

# MOE 2024.06 (io_trps.svl 2023.06)
