@<TRIPOS>MOLECULE
NONAME
54 57 1 0 0 
SMALL
USER_CHARGES


@<TRIPOS>ATOM
  1 O       -0.4620    -0.3930    -0.5440 O.3   1 <1>  -0.2800 
  2 C       -0.5820    -1.4980     0.1590 C.2   1 <1>  -0.0100 
  3 C       -1.6560     0.1560    -0.6350 C.2   1 <1>  -0.0100 
  4 C       -1.8680    -1.6920     0.5280 C.2   1 <1>  -0.1810 
  5 C       -2.5740    -0.5960     0.0080 C.2   1 <1>  -0.1500 
  6 C       -2.4430    -2.8350     1.3300 C.3   1 <1>   0.5240 
  7 N       -3.0280    -3.7950     0.3650 N.4   1 <1>  -0.9590 
  8 C       -4.4510    -3.4180     0.0620 C.3   1 <1>   0.3430 
  9 C       -2.8810    -5.2050     0.8220 C.3   1 <1>   0.3430 
 10 C       -5.1620    -4.3950    -0.9100 C.3   1 <1>   0.1900 
 11 C       -3.4870    -6.1340    -0.2270 C.3   1 <1>  -0.1600 
 12 N       -6.6120    -4.1170    -1.1140 N.3   1 <1>  -0.8100 
 13 C       -4.9970    -5.8570    -0.4210 C.3   1 <1>   0.0000 
 14 C       -7.1290    -4.9300    -2.2300 C.3   1 <1>   0.1100 
 15 C       -6.9490    -2.6850    -1.3250 C.3   1 <1>   0.2900 
 16 C       -5.5490    -6.8020    -1.5130 C.3   1 <1>  -0.1600 
 17 C       -5.7730    -6.0450     0.9170 C.3   1 <1>   0.1200 
 18 C       -6.9820    -6.4260    -1.9260 C.3   1 <1>  -0.1600 
 19 C       -7.0180    -1.9380     0.0030 C.2   1 <1>   0.0060 
 20 O       -5.4180    -7.2340     1.5350 O.3   1 <1>  -0.6800 
 21 N       -6.1840    -1.0050     0.3510 N.2   1 <1>  -0.5650 
 22 N       -7.9620    -2.1990     0.9400 N.pl3 1 <1>   0.0480 
 23 C       -6.6160    -0.6260     1.5680 C.2   1 <1>   0.0770 
 24 C       -7.6920    -1.3470     1.9440 C.2   1 <1>  -0.3020 
 25 C       -9.0610    -3.1830     0.8990 C.3   1 <1>   0.0160 
 26 H        0.3060    -2.0800     0.3420 H     1 <1>   0.1500 
 27 H       -1.7620     1.0830    -1.1730 H     1 <1>   0.1500 
 28 H       -3.6270    -0.3940     0.1100 H     1 <1>   0.1500 
 29 H       -3.1880    -2.4790     2.0230 H     1 <1>   0.0800 
 30 H       -1.6480    -3.3060     1.8860 H     1 <1>   0.0800 
 31 H       -2.4860    -3.6720    -0.5000 H     1 <1>   0.4500 
 32 H       -5.0170    -3.3750     0.9780 H     1 <1>   0.0800 
 33 H       -4.4620    -2.4370    -0.3800 H     1 <1>   0.0800 
 34 H       -1.8390    -5.4460     0.9560 H     1 <1>   0.0800 
 35 H       -3.3870    -5.3490     1.7640 H     1 <1>   0.0800 
 36 H       -4.6700    -4.2920    -1.8630 H     1 <1>   0.0800 
 37 H       -2.9580    -6.0160    -1.1570 H     1 <1>   0.0800 
 38 H       -3.3360    -7.1520     0.0880 H     1 <1>   0.0800 
 39 H       -8.1740    -4.7160    -2.3880 H     1 <1>   0.0800 
 40 H       -6.5980    -4.6890    -3.1370 H     1 <1>   0.0800 
 41 H       -6.2270    -2.2210    -1.9750 H     1 <1>   0.0800 
 42 H       -7.9130    -2.5980    -1.7950 H     1 <1>   0.0800 
 43 H       -4.9230    -6.7400    -2.3870 H     1 <1>   0.0800 
 44 H       -5.5260    -7.8240    -1.1760 H     1 <1>   0.0800 
 45 H       -6.8380    -6.0460     0.7680 H     1 <1>   0.0800 
 46 H       -5.5510    -5.2580     1.6140 H     1 <1>   0.0800 
 47 H       -7.6780    -6.6930    -1.1520 H     1 <1>   0.0800 
 48 H       -7.2590    -6.9890    -2.8000 H     1 <1>   0.0800 
 49 H       -5.8390    -7.9940     1.0850 H     1 <1>   0.4000 
 50 H       -6.1290     0.1620     2.1200 H     1 <1>   0.1500 
 51 H       -8.2700    -1.2930     2.8490 H     1 <1>   0.1500 
 52 H       -9.5660    -3.2010     1.8470 H     1 <1>   0.0800 
 53 H       -8.6600    -4.1580     0.6890 H     1 <1>   0.0800 
 54 H       -9.7570    -2.9060     0.1290 H     1 <1>   0.0800 
@<TRIPOS>BOND
  1   1   2  1   
  2   1   3  1   
  3   2   4  2   
  4   2  26  1   
  5   3   5  2   
  6   3  27  1   
  7   4   5  1   
  8   4   6  1   
  9   5  28  1   
 10   6   7  1   
 11   6  29  1   
 12   6  30  1   
 13   7   8  1   
 14   7   9  1   
 15   7  31  1   
 16   8  10  1   
 17   8  32  1   
 18   8  33  1   
 19   9  11  1   
 20   9  34  1   
 21   9  35  1   
 22  10  12  1   
 23  10  13  1   
 24  10  36  1   
 25  11  13  1   
 26  11  37  1   
 27  11  38  1   
 28  12  14  1   
 29  12  15  1   
 30  13  16  1   
 31  13  17  1   
 32  14  18  1   
 33  14  39  1   
 34  14  40  1   
 35  15  19  1   
 36  15  41  1   
 37  15  42  1   
 38  16  18  1   
 39  16  43  1   
 40  16  44  1   
 41  17  20  1   
 42  17  45  1   
 43  17  46  1   
 44  18  47  1   
 45  18  48  1   
 46  19  21  2   
 47  19  22  1   
 48  20  49  1   
 49  21  23  1   
 50  22  24  1   
 51  22  25  1   
 52  23  24  2   
 53  23  50  1   
 54  24  51  1   
 55  25  52  1   
 56  25  53  1   
 57  25  54  1   
@<TRIPOS>SUBSTRUCTURE
  1 ****   8 GROUP 4 **** **** 0

# MOE 2024.06 (io_trps.svl 2023.06)
