@<TRIPOS>MOLECULE
NONAME
52 54 1 0 0 
SMALL
USER_CHARGES


@<TRIPOS>ATOM
  1 O        0.1280    -0.2340    -1.5090 O.2   1 <1>  -0.5700 
  2 C       -0.7880     0.5380    -1.3400 C.2   1 <1>   0.5690 
  3 N       -1.9910     0.0990    -0.8470 N.am  1 <1>  -0.6600 
  4 C       -0.5850     2.0120    -1.7370 C.3   1 <1>   0.1710 
  5 C       -3.2540     0.8670    -0.7120 C.3   1 <1>   0.1400 
  6 C       -2.1640    -1.2630    -0.2950 C.3   1 <1>   0.1400 
  7 N        0.0760     2.8800    -0.7180 N.3   1 <1>  -0.8100 
  8 C       -4.1920    -0.0210     0.1170 C.3   1 <1>   0.2000 
  9 C       -3.6760    -1.4400    -0.1420 C.3   1 <1>  -0.0800 
 10 C        0.3930     4.2080    -1.2660 C.3   1 <1>   0.2530 
 11 C       -0.6730     2.9560     0.5470 C.3   1 <1>   0.0300 
 12 O       -4.0410     0.2760     1.4760 O.3   1 <1>  -0.5600 
 13 C       -4.0680    -2.4690     0.9340 C.3   1 <1>   0.0200 
 14 C        1.3060     4.9940    -0.3360 C.ar  1 <1>  -0.1430 
 15 C       -4.8500     1.3020     1.9570 C.3   1 <1>   0.0400 
 16 C       -3.6940    -3.8950     0.5670 C.2   1 <1>  -0.0400 
 17 C        0.9880     6.2930     0.0350 C.ar  1 <1>   0.1600 
 18 C        2.4710     4.4340     0.1490 C.ar  1 <1>  -0.1500 
 19 O       -3.9080    -4.8440     1.4400 O.3   1 <1>  -0.0190 
 20 C       -3.1570    -4.4630    -0.5260 C.2   1 <1>  -0.1500 
 21 N        1.7200     7.0590     0.8300 N.ar  1 <1>  -0.6200 
 22 C        3.2470     5.2140     0.9790 C.ar  1 <1>  -0.1500 
 23 N       -3.5430    -6.0110     0.9940 N.2   1 <1>  -0.4100 
 24 C       -3.0850    -5.8120    -0.1890 C.2   1 <1>   0.1080 
 25 C        2.8320     6.5000     1.2820 C.ar  1 <1>   0.1600 
 26 C       -2.5430    -6.9010    -1.0860 C.3   1 <1>  -0.0590 
 27 H       -1.5310     2.4400    -2.0110 H     1 <1>   0.0800 
 28 H        0.0290     2.0030    -2.6200 H     1 <1>   0.0800 
 29 H       -3.0900     1.8160    -0.2360 H     1 <1>   0.0800 
 30 H       -3.6710     1.0180    -1.6910 H     1 <1>   0.0800 
 31 H       -1.7310    -1.9990    -0.9490 H     1 <1>   0.0800 
 32 H       -1.6770    -1.3080     0.6650 H     1 <1>   0.0800 
 33 H       -5.2270     0.0880    -0.1600 H     1 <1>   0.0800 
 34 H       -4.0680    -1.7630    -1.0900 H     1 <1>   0.0800 
 35 H        0.9030     4.0900    -2.2080 H     1 <1>   0.0800 
 36 H       -0.5180     4.7530    -1.4450 H     1 <1>   0.0800 
 37 H       -0.1030     3.4970     1.2830 H     1 <1>   0.0800 
 38 H       -0.8500     1.9680     0.9360 H     1 <1>   0.0800 
 39 H       -1.6140     3.4560     0.4010 H     1 <1>   0.0800 
 40 H       -5.1310    -2.4300     1.0930 H     1 <1>   0.0800 
 41 H       -3.5920    -2.2200     1.8670 H     1 <1>   0.0800 
 42 H       -4.6240     1.4440     2.9990 H     1 <1>   0.0800 
 43 H       -5.8830     1.0200     1.8490 H     1 <1>   0.0800 
 44 H       -4.6450     2.2100     1.4170 H     1 <1>   0.0800 
 45 H        0.0810     6.7310    -0.3410 H     1 <1>   0.1500 
 46 H        2.7510     3.4260    -0.1080 H     1 <1>   0.1500 
 47 H       -2.8440    -4.0290    -1.4560 H     1 <1>   0.1500 
 48 H        4.1630     4.8300     1.3880 H     1 <1>   0.1500 
 49 H        3.4460     7.1000     1.9310 H     1 <1>   0.1500 
 50 H       -3.0960    -6.9260    -2.0060 H     1 <1>   0.0800 
 51 H       -2.6320    -7.8550    -0.5990 H     1 <1>   0.0800 
 52 H       -1.5060    -6.7150    -1.2980 H     1 <1>   0.0800 
@<TRIPOS>BOND
  1   1   2  2   
  2   2   3  am  
  3   2   4  1   
  4   3   5  1   
  5   3   6  1   
  6   4   7  1   
  7   4  27  1   
  8   4  28  1   
  9   5   8  1   
 10   5  29  1   
 11   5  30  1   
 12   6   9  1   
 13   6  31  1   
 14   6  32  1   
 15   7  10  1   
 16   7  11  1   
 17   8   9  1   
 18   8  12  1   
 19   8  33  1   
 20   9  13  1   
 21   9  34  1   
 22  10  14  1   
 23  10  35  1   
 24  10  36  1   
 25  11  37  1   
 26  11  38  1   
 27  11  39  1   
 28  12  15  1   
 29  13  16  1   
 30  13  40  1   
 31  13  41  1   
 32  14  17  ar  
 33  14  18  ar  
 34  15  42  1   
 35  15  43  1   
 36  15  44  1   
 37  16  19  1   
 38  16  20  2   
 39  17  21  ar  
 40  17  45  1   
 41  18  22  ar  
 42  18  46  1   
 43  19  23  1   
 44  20  24  1   
 45  20  47  1   
 46  21  25  ar  
 47  22  25  ar  
 48  22  48  1   
 49  23  24  2   
 50  24  26  1   
 51  25  49  1   
 52  26  50  1   
 53  26  51  1   
 54  26  52  1   
@<TRIPOS>SUBSTRUCTURE
  1 ****   3 GROUP 4 **** **** 0

# MOE 2024.06 (io_trps.svl 2023.06)
