@<TRIPOS>MOLECULE
NONAME
45 47 1 0 0 
SMALL
USER_CHARGES


@<TRIPOS>ATOM
  1 F        0.2500     1.5230    -1.4450 F     1 <1>  -0.1900 
  2 C       -0.6670     1.8490    -0.5680 C.ar  1 <1>   0.1900 
  3 C       -1.1440     0.8850     0.3060 C.ar  1 <1>   0.1900 
  4 C       -1.1430     3.1540    -0.5240 C.ar  1 <1>  -0.1440 
  5 F       -0.6810    -0.3380     0.2560 F     1 <1>  -0.1900 
  6 C       -2.1100     1.1910     1.2450 C.ar  1 <1>  -0.1500 
  7 C       -2.1160     3.4570     0.4220 C.ar  1 <1>  -0.1500 
  8 C       -0.6380     4.2470    -1.4650 C.3   1 <1>   0.0450 
  9 C       -2.5950     2.4890     1.2970 C.ar  1 <1>  -0.1500 
 10 C        0.1320     5.3350    -0.7260 C.2   1 <1>   0.5690 
 11 O       -0.1430     6.4900    -0.9520 O.2   1 <1>  -0.5700 
 12 N        1.1510     5.0480     0.1400 N.am  1 <1>  -0.6600 
 13 C        1.4810     6.0120     1.2560 C.3   1 <1>   0.1400 
 14 C        2.1820     4.0060    -0.1540 C.3   1 <1>   0.1400 
 15 C        2.6610     6.9570     0.9100 C.3   1 <1>   0.4230 
 16 C        3.5680     4.5830    -0.5450 C.3   1 <1>  -0.0800 
 17 N        2.7660     7.0330    -0.5930 N.4   1 <1>  -0.9590 
 18 C        3.9500     6.5380     1.6660 C.3   1 <1>   0.1200 
 19 C        4.5830     4.5310     0.6060 C.3   1 <1>   0.1200 
 20 C        3.6010     5.9660    -1.2300 C.3   1 <1>   0.3430 
 21 C        3.2400     8.4100    -1.0390 C.3   1 <1>   0.2370 
 22 O        4.0860     5.1460     1.7450 O.3   1 <1>  -0.5600 
 23 C        4.6180     8.8120    -0.5120 C.2   1 <1>   0.9060 
 24 O        5.6130     8.3640    -1.0900 O.co2 1 <1>  -0.9000 
 25 O        4.6650     9.4170     0.5620 O.co2 1 <1>  -0.9000 
 26 H       -2.4710     0.4330     1.9170 H     1 <1>   0.1500 
 27 H       -2.5120     4.4580     0.4850 H     1 <1>   0.1500 
 28 H       -1.4860     4.7000    -1.9460 H     1 <1>   0.0800 
 29 H       -0.0170     3.8460    -2.2420 H     1 <1>   0.0800 
 30 H       -3.3490     2.7490     2.0210 H     1 <1>   0.1500 
 31 H        0.6180     6.6220     1.4560 H     1 <1>   0.0800 
 32 H        1.6820     5.4650     2.1600 H     1 <1>   0.0800 
 33 H        2.2800     3.3600     0.7040 H     1 <1>   0.0800 
 34 H        1.8410     3.3940    -0.9680 H     1 <1>   0.0800 
 35 H        2.4110     7.9410     1.2720 H     1 <1>   0.0800 
 36 H        3.9730     3.9040    -1.2730 H     1 <1>   0.0800 
 37 H        1.7870     6.8940    -0.9070 H     1 <1>   0.4500 
 38 H        3.8760     6.8920     2.6780 H     1 <1>   0.0800 
 39 H        4.8420     6.9660     1.2430 H     1 <1>   0.0800 
 40 H        5.5180     4.9980     0.3380 H     1 <1>   0.0800 
 41 H        4.7840     3.5070     0.8700 H     1 <1>   0.0800 
 42 H        3.2810     5.8540    -2.2520 H     1 <1>   0.0800 
 43 H        4.6280     6.2970    -1.2580 H     1 <1>   0.0800 
 44 H        3.2840     8.4510    -2.1110 H     1 <1>   0.0800 
 45 H        2.5460     9.1570    -0.7010 H     1 <1>   0.0800 
@<TRIPOS>BOND
  1   1   2  1   
  2   2   3  ar  
  3   2   4  ar  
  4   3   5  1   
  5   3   6  ar  
  6   4   7  ar  
  7   4   8  1   
  8   6   9  ar  
  9   6  26  1   
 10   7   9  ar  
 11   7  27  1   
 12   8  10  1   
 13   8  28  1   
 14   8  29  1   
 15   9  30  1   
 16  10  11  2   
 17  10  12  am  
 18  12  13  1   
 19  12  14  1   
 20  13  15  1   
 21  13  31  1   
 22  13  32  1   
 23  14  16  1   
 24  14  33  1   
 25  14  34  1   
 26  15  17  1   
 27  15  18  1   
 28  15  35  1   
 29  16  19  1   
 30  16  20  1   
 31  16  36  1   
 32  17  20  1   
 33  17  21  1   
 34  17  37  1   
 35  18  22  1   
 36  18  38  1   
 37  18  39  1   
 38  19  22  1   
 39  19  40  1   
 40  19  41  1   
 41  20  42  1   
 42  20  43  1   
 43  21  23  1   
 44  21  44  1   
 45  21  45  1   
 46  23  24  ar  
 47  23  25  ar  
@<TRIPOS>SUBSTRUCTURE
  1 ****  12 GROUP 4 **** **** 0

# MOE 2024.06 (io_trps.svl 2023.06)
