@<TRIPOS>MOLECULE
Untitled Document
50 53 1 0 0 
SMALL
USER_CHARGES


@<TRIPOS>ATOM
  1 F        1.2930    -0.6900     1.2610 F     1 <1>  -0.3400 
  2 C        2.2660    -1.2750     0.5750 C.3   1 <1>   1.1640 
  3 F        2.4250    -0.5590    -0.5320 F     1 <1>  -0.3400 
  4 F        3.3760    -1.1090     1.2860 F     1 <1>  -0.3400 
  5 C        1.9540    -2.7560     0.2920 C.ar  1 <1>  -0.1440 
  6 C        2.3230    -3.7480     1.1950 C.ar  1 <1>  -0.1500 
  7 C        1.2920    -3.1390    -0.8700 C.ar  1 <1>  -0.1500 
  8 C        2.0450    -5.0800     0.9410 C.ar  1 <1>  -0.1500 
  9 C        1.0130    -4.4710    -1.1250 C.ar  1 <1>  -0.1500 
 10 C        1.3870    -5.4520    -0.2200 C.ar  1 <1>  -0.1430 
 11 C        1.0820    -6.9140    -0.4950 C.3   1 <1>  -0.0160 
 12 C       -0.3010    -7.2560     0.0660 C.3   1 <1>   0.3430 
 13 N       -0.6120    -8.7150    -0.0570 N.4   1 <1>  -0.9590 
 14 C       -0.8020    -9.1840    -1.4600 C.3   1 <1>   0.3430 
 15 C       -1.7580    -9.1020     0.8290 C.3   1 <1>   0.3430 
 16 C       -0.8390   -10.7170    -1.5150 C.3   1 <1>  -0.1600 
 17 C       -2.2580   -10.5240     0.5350 C.3   1 <1>  -0.1600 
 18 C       -1.2050   -11.3830    -0.1780 C.3   1 <1>   0.4240 
 19 O       -0.0510   -11.3180     0.6420 O.3   1 <1>  -0.4300 
 20 C       -1.6600   -12.8330    -0.4010 C.ar  1 <1>  -0.1430 
 21 C        0.8510   -12.2890     0.7100 C.2   1 <1>   0.7800 
 22 C       -0.7530   -13.8600    -0.1610 C.ar  1 <1>   0.1170 
 23 C       -2.9310   -13.1540    -0.8640 C.ar  1 <1>  -0.1500 
 24 O        1.9530   -12.0150     1.1160 O.2   1 <1>  -0.5700 
 25 N        0.5110   -13.5280     0.2990 N.am  1 <1>  -0.5470 
 26 C       -1.1150   -15.1820    -0.3770 C.ar  1 <1>  -0.1500 
 27 C       -3.2900   -14.4740    -1.0750 C.ar  1 <1>  -0.1500 
 28 C       -2.3820   -15.4890    -0.8320 C.ar  1 <1>  -0.1500 
 29 H        2.8360    -3.4880     2.1070 H     1 <1>   0.1500 
 30 H        0.9890    -2.3970    -1.5910 H     1 <1>   0.1500 
 31 H        2.3540    -5.8210     1.6600 H     1 <1>   0.1500 
 32 H        0.5060    -4.7300    -2.0380 H     1 <1>   0.1500 
 33 H        1.8320    -7.5260    -0.0260 H     1 <1>   0.0800 
 34 H        1.1160    -7.0840    -1.5560 H     1 <1>   0.0800 
 35 H       -1.0500    -6.6720    -0.4450 H     1 <1>   0.0800 
 36 H       -0.3170    -6.9740     1.1060 H     1 <1>   0.0800 
 37 H        0.1990    -9.2460     0.3140 H     1 <1>   0.4500 
 38 H       -0.0040    -8.8290    -2.0910 H     1 <1>   0.0800 
 39 H       -1.7300    -8.7900    -1.8420 H     1 <1>   0.0800 
 40 H       -2.5740    -8.4080     0.7060 H     1 <1>   0.0800 
 41 H       -1.4340    -9.0530     1.8570 H     1 <1>   0.0800 
 42 H        0.1070   -11.0960    -1.8580 H     1 <1>   0.0800 
 43 H       -1.5630   -10.9950    -2.2610 H     1 <1>   0.0800 
 44 H       -3.1380   -10.4470    -0.0760 H     1 <1>   0.0800 
 45 H       -2.5560   -11.0000     1.4520 H     1 <1>   0.0800 
 46 H       -3.6620   -12.3940    -1.0740 H     1 <1>   0.1500 
 47 H        1.2230   -14.2460     0.4270 H     1 <1>   0.3700 
 48 H       -0.4100   -15.9720    -0.1880 H     1 <1>   0.1500 
 49 H       -4.2780   -14.7160    -1.4310 H     1 <1>   0.1500 
 50 H       -2.6640   -16.5150    -0.9970 H     1 <1>   0.1500 
@<TRIPOS>BOND
  1   1   2  1   
  2   2   3  1   
  3   2   4  1   
  4   2   5  1   
  5   5   6  ar  
  6   5   7  ar  
  7   6   8  ar  
  8   6  29  1   
  9   7   9  ar  
 10   7  30  1   
 11   8  10  ar  
 12   8  31  1   
 13   9  10  ar  
 14   9  32  1   
 15  10  11  1   
 16  11  12  1   
 17  11  33  1   
 18  11  34  1   
 19  12  13  1   
 20  12  35  1   
 21  12  36  1   
 22  13  14  1   
 23  13  15  1   
 24  13  37  1   
 25  14  16  1   
 26  14  38  1   
 27  14  39  1   
 28  15  17  1   
 29  15  40  1   
 30  15  41  1   
 31  16  18  1   
 32  16  42  1   
 33  16  43  1   
 34  17  18  1   
 35  17  44  1   
 36  17  45  1   
 37  18  19  1   
 38  18  20  1   
 39  19  21  1   
 40  20  22  ar  
 41  20  23  ar  
 42  21  24  2   
 43  21  25  am  
 44  22  25  1   
 45  22  26  ar  
 46  23  27  ar  
 47  23  46  1   
 48  25  47  1   
 49  26  28  ar  
 50  26  48  1   
 51  27  28  ar  
 52  27  49  1   
 53  28  50  1   
@<TRIPOS>SUBSTRUCTURE
  1 ****  13 GROUP 4 **** **** 0

# MOE 2024.06 (io_trps.svl 2023.06)
