@<TRIPOS>MOLECULE
NONAME
48 51 1 0 0 
SMALL
USER_CHARGES


@<TRIPOS>ATOM
  1 CL       0.7220    -0.0020     0.1290 Cl    1 <1>  -0.1770 
  2 C        0.3400    -1.6980     0.1270 C.ar  1 <1>   0.1770 
  3 C        1.2460    -2.5990    -0.3610 C.ar  1 <1>  -0.1500 
  4 C       -0.8820    -2.1150     0.6420 C.ar  1 <1>  -0.1500 
  5 C        0.9390    -3.9660    -0.3590 C.ar  1 <1>   0.3610 
  6 C       -1.1970    -3.4490     0.6280 C.ar  1 <1>  -0.1500 
  7 N        1.8860    -4.8900    -0.7400 N.ar  1 <1>  -0.1790 
  8 C       -0.3280    -4.4160     0.0760 C.ar  1 <1>   0.0000 
  9 C        1.6410    -6.2130    -0.7070 C.ar  1 <1>   0.2110 
 10 C       -0.6390    -5.8150    -0.0100 C.ar  1 <1>   0.1000 
 11 C        0.4060    -6.6800    -0.3460 C.ar  1 <1>  -0.1500 
 12 N       -1.8880    -6.3170     0.1700 N.pl3 1 <1>  -0.8380 
 13 C       -2.2010    -7.5760     0.9370 C.3   1 <1>   0.2090 
 14 C       -3.1270    -5.6520    -0.3590 C.3   1 <1>   0.2090 
 15 C       -3.0220    -8.5810     0.0810 C.3   1 <1>   0.4230 
 16 C       -3.9150    -6.6420    -1.2230 C.3   1 <1>  -0.1600 
 17 N       -3.3530    -9.8780     0.7730 N.4   1 <1>  -0.9590 
 18 C       -4.3160    -7.9130    -0.4280 C.3   1 <1>  -0.1060 
 19 C       -4.0210   -10.8480    -0.1340 C.3   1 <1>   0.3430 
 20 C       -2.2740   -10.5030     1.5810 C.3   1 <1>   0.2630 
 21 C       -5.1950    -7.5410     0.7830 C.2   1 <1>   0.9060 
 22 C       -5.0650    -8.8810    -1.3750 C.3   1 <1>  -0.1600 
 23 C       -5.3050   -10.2440    -0.7080 C.3   1 <1>  -0.1600 
 24 O       -5.1330    -8.2430     1.8050 O.co2 1 <1>  -0.9000 
 25 O       -5.9190    -6.5490     0.7230 O.co2 1 <1>  -0.9000 
 26 H        2.1890    -2.2390    -0.7300 H     1 <1>   0.1500 
 27 H       -1.5590    -1.3830     1.0500 H     1 <1>   0.1500 
 28 H       -2.1310    -3.7630     1.0620 H     1 <1>   0.1500 
 29 H        2.8050    -4.5400    -1.0290 H     1 <1>   0.4570 
 30 H        2.4300    -6.8960    -0.9830 H     1 <1>   0.1500 
 31 H        0.2230    -7.7380    -0.3590 H     1 <1>   0.1500 
 32 H       -1.2860    -8.0300     1.2630 H     1 <1>   0.0800 
 33 H       -2.7630    -7.3060     1.8160 H     1 <1>   0.0800 
 34 H       -3.7360    -5.3060     0.4620 H     1 <1>   0.0800 
 35 H       -2.8670    -4.8010    -0.9640 H     1 <1>   0.0800 
 36 H       -2.4180    -8.8130    -0.7780 H     1 <1>   0.0800 
 37 H       -4.8050    -6.1480    -1.5750 H     1 <1>   0.0800 
 38 H       -3.3260    -6.8980    -2.0840 H     1 <1>   0.0800 
 39 H       -4.1090    -9.5490     1.4360 H     1 <1>   0.4500 
 40 H       -3.3550   -11.1090    -0.9390 H     1 <1>   0.0800 
 41 H       -4.2690   -11.7450     0.4100 H     1 <1>   0.0800 
 42 H       -1.4440   -10.7780     0.9520 H     1 <1>   0.0800 
 43 H       -2.6480   -11.3860     2.0720 H     1 <1>   0.0800 
 44 H       -1.9330    -9.8170     2.3400 H     1 <1>   0.0800 
 45 H       -6.0130    -8.4470    -1.6500 H     1 <1>   0.0800 
 46 H       -4.4950    -9.0250    -2.2770 H     1 <1>   0.0800 
 47 H       -5.7250   -10.9250    -1.4280 H     1 <1>   0.0800 
 48 H       -6.0260   -10.1380     0.0850 H     1 <1>   0.0800 
@<TRIPOS>BOND
  1   1   2  1   
  2   2   3  ar  
  3   2   4  ar  
  4   3   5  ar  
  5   3  26  1   
  6   4   6  ar  
  7   4  27  1   
  8   5   7  ar  
  9   5   8  ar  
 10   6   8  ar  
 11   6  28  1   
 12   7   9  ar  
 13   7  29  1   
 14   8  10  ar  
 15   9  11  ar  
 16   9  30  1   
 17  10  11  ar  
 18  10  12  1   
 19  11  31  1   
 20  12  13  1   
 21  12  14  1   
 22  13  15  1   
 23  13  32  1   
 24  13  33  1   
 25  14  16  1   
 26  14  34  1   
 27  14  35  1   
 28  15  17  1   
 29  15  18  1   
 30  15  36  1   
 31  16  18  1   
 32  16  37  1   
 33  16  38  1   
 34  17  19  1   
 35  17  20  1   
 36  17  39  1   
 37  18  21  1   
 38  18  22  1   
 39  19  23  1   
 40  19  40  1   
 41  19  41  1   
 42  20  42  1   
 43  20  43  1   
 44  20  44  1   
 45  21  24  ar  
 46  21  25  ar  
 47  22  23  1   
 48  22  45  1   
 49  22  46  1   
 50  23  47  1   
 51  23  48  1   
@<TRIPOS>SUBSTRUCTURE
  1 ****  12 GROUP 4 **** **** 0

# MOE 2024.06 (io_trps.svl 2023.06)
