@<TRIPOS>MOLECULE
NONAME
52 54 1 0 0 
SMALL
USER_CHARGES


@<TRIPOS>ATOM
  1 O        0.8340     0.2550    -0.2360 O.2   1 <1>  -0.5700 
  2 C        1.9020    -0.3390    -0.2640 C.2   1 <1>   0.7160 
  3 N        3.0240     0.3860    -0.6480 N.am  1 <1>  -0.6600 
  4 C        1.9330    -1.7640     0.0810 C.2   1 <1>   0.1410 
  5 C        4.3190    -0.2690    -1.0010 C.3   1 <1>   0.1400 
  6 C        2.9400     1.8620    -0.8410 C.3   1 <1>   0.1400 
  7 N        2.9600    -2.3690     0.7620 N.2   1 <1>  -0.5650 
  8 C        0.9800    -2.7150    -0.1770 C.2   1 <1>  -0.3320 
  9 C        5.3070    -0.2320     0.1750 C.3   1 <1>   0.1100 
 10 C        4.2510     2.6080    -0.5570 C.3   1 <1>  -0.1600 
 11 C        2.6030    -3.5990     0.8940 C.2   1 <1>   0.0360 
 12 N        1.4070    -3.8730     0.3440 N.pl3 1 <1>   0.0330 
 13 C       -0.3540    -2.6020    -0.9010 C.3   1 <1>  -0.0600 
 14 N        5.9510     1.0840     0.3760 N.3   1 <1>  -0.8100 
 15 C        4.9750     2.1380     0.7070 C.3   1 <1>   0.1100 
 16 C        6.9790     0.9730     1.4590 C.3   1 <1>   0.1710 
 17 C        8.0190     2.0990     1.4650 C.2   1 <1>   0.5690 
 18 O        8.6980     2.2820     2.4480 O.2   1 <1>  -0.5700 
 19 N        8.1540     2.8500     0.3440 N.am  1 <1>  -0.7300 
 20 C        9.1090     3.9720     0.1460 C.3   1 <1>   0.1400 
 21 C       10.5500     3.4670    -0.0070 C.3   1 <1>   0.2000 
 22 O       11.3680     4.5200    -0.3960 O.3   1 <1>  -0.5600 
 23 C       10.7580     2.4220    -1.0970 C.3   1 <1>  -0.1600 
 24 C       12.5440     4.0250    -0.9490 C.3   1 <1>   0.1200 
 25 C       12.1960     2.6570    -1.5320 C.3   1 <1>  -0.1600 
 26 H        4.7560     0.2070    -1.8600 H     1 <1>   0.0800 
 27 H        4.1380    -1.2940    -1.2690 H     1 <1>   0.0800 
 28 H        2.1860     2.2540    -0.1790 H     1 <1>   0.0800 
 29 H        2.6220     2.0630    -1.8490 H     1 <1>   0.0800 
 30 H        6.0750    -0.9570    -0.0330 H     1 <1>   0.0800 
 31 H        4.8050    -0.5400     1.0770 H     1 <1>   0.0800 
 32 H        4.0010     3.6460    -0.4350 H     1 <1>   0.0800 
 33 H        4.9090     2.5460    -1.4050 H     1 <1>   0.0800 
 34 H        3.1880    -4.3530     1.3930 H     1 <1>   0.1500 
 35 H        0.9280    -4.7780     0.3360 H     1 <1>   0.2700 
 36 H       -0.4700    -1.6300    -1.3450 H     1 <1>   0.0800 
 37 H       -1.1630    -2.7560    -0.2100 H     1 <1>   0.0800 
 38 H       -0.4170    -3.3360    -1.6840 H     1 <1>   0.0800 
 39 H        4.2730     1.7900     1.4480 H     1 <1>   0.0800 
 40 H        5.4940     2.9860     1.1200 H     1 <1>   0.0800 
 41 H        7.5260     0.0560     1.3390 H     1 <1>   0.0800 
 42 H        6.4960     0.9410     2.4200 H     1 <1>   0.0800 
 43 H        7.5140     2.6150    -0.4240 H     1 <1>   0.3700 
 44 H        9.0600     4.6280     0.9980 H     1 <1>   0.0800 
 45 H        8.8280     4.5210    -0.7340 H     1 <1>   0.0800 
 46 H       10.9160     3.1050     0.9400 H     1 <1>   0.0800 
 47 H       10.0870     2.6120    -1.9150 H     1 <1>   0.0800 
 48 H       10.5930     1.4270    -0.7230 H     1 <1>   0.0800 
 49 H       13.2740     3.9400    -0.1610 H     1 <1>   0.0800 
 50 H       12.8880     4.7150    -1.7000 H     1 <1>   0.0800 
 51 H       12.2880     2.6590    -2.6040 H     1 <1>   0.0800 
 52 H       12.8550     1.9100    -1.1240 H     1 <1>   0.0800 
@<TRIPOS>BOND
  1   1   2  2   
  2   2   3  am  
  3   2   4  1   
  4   3   5  1   
  5   3   6  1   
  6   4   7  1   
  7   4   8  2   
  8   5   9  1   
  9   5  26  1   
 10   5  27  1   
 11   6  10  1   
 12   6  28  1   
 13   6  29  1   
 14   7  11  2   
 15   8  12  1   
 16   8  13  1   
 17   9  14  1   
 18   9  30  1   
 19   9  31  1   
 20  10  15  1   
 21  10  32  1   
 22  10  33  1   
 23  11  12  1   
 24  11  34  1   
 25  12  35  1   
 26  13  36  1   
 27  13  37  1   
 28  13  38  1   
 29  14  15  1   
 30  14  16  1   
 31  15  39  1   
 32  15  40  1   
 33  16  17  1   
 34  16  41  1   
 35  16  42  1   
 36  17  18  2   
 37  17  19  am  
 38  19  20  1   
 39  19  43  1   
 40  20  21  1   
 41  20  44  1   
 42  20  45  1   
 43  21  22  1   
 44  21  23  1   
 45  21  46  1   
 46  22  24  1   
 47  23  25  1   
 48  23  47  1   
 49  23  48  1   
 50  24  25  1   
 51  24  49  1   
 52  24  50  1   
 53  25  51  1   
 54  25  52  1   
@<TRIPOS>SUBSTRUCTURE
  1 ****  14 GROUP 4 **** **** 0

# MOE 2024.06 (io_trps.svl 2023.06)
