@<TRIPOS>MOLECULE
NONAME
52 55 1 0 0 
SMALL
USER_CHARGES


@<TRIPOS>ATOM
  1 O        0.8680    -0.0520    -1.2590 O.2   1 <1>  -0.5700 
  2 C        1.7240    -0.6150    -0.5950 C.2   1 <1>   0.5440 
  3 N        2.7140     0.1690    -0.0110 N.am  1 <1>  -0.6600 
  4 C        1.6500    -2.0710    -0.4170 C.ar  1 <1>   0.3960 
  5 C        3.7560    -0.4110     0.8930 C.3   1 <1>   0.1400 
  6 C        2.7270     1.6510    -0.2090 C.3   1 <1>   0.1400 
  7 N        2.6820    -2.8230    -0.8450 N.ar  1 <1>  -0.6200 
  8 C        0.5270    -2.6510     0.1980 C.ar  1 <1>  -0.1440 
  9 C        5.0450    -0.7480     0.1280 C.3   1 <1>   0.1400 
 10 C        4.1290     2.2650    -0.3270 C.3   1 <1>  -0.1600 
 11 C        2.5910    -4.1270    -0.6810 C.ar  1 <1>   0.1600 
 12 C        0.4590    -4.0200     0.3610 C.ar  1 <1>  -0.1500 
 13 C       -0.6400    -1.8060     0.7010 C.3   1 <1>  -0.0960 
 14 N        5.8230     0.4740    -0.2400 N.am  1 <1>  -0.6600 
 15 C        5.1140     1.4220    -1.1430 C.3   1 <1>   0.1400 
 16 C        1.5190    -4.7690    -0.0940 C.ar  1 <1>  -0.1500 
 17 C        7.0990     0.6650     0.2290 C.2   1 <1>   0.6300 
 18 O        7.6370    -0.1280     0.9660 O.2   1 <1>  -0.5700 
 19 C        7.8940     1.9000    -0.1770 C.3   1 <1>  -0.1000 
 20 C        8.8320     2.5540     0.7950 C.3   1 <1>  -0.0680 
 21 C        7.5810     3.2600     0.3760 C.3   1 <1>  -0.2000 
 22 C       10.1900     3.0180     0.3020 C.ar  1 <1>  -0.0320 
 23 C       11.0820     2.0970    -0.2220 C.ar  1 <1>  -0.1500 
 24 C       10.5520     4.3540     0.3740 C.ar  1 <1>  -0.1500 
 25 C       12.3230     2.5070    -0.6790 C.ar  1 <1>  -0.1500 
 26 C       11.7930     4.7670    -0.0820 C.ar  1 <1>  -0.1500 
 27 C       12.6780     3.8430    -0.6100 C.ar  1 <1>  -0.1500 
 28 H        3.9780     0.2720     1.6940 H     1 <1>   0.0800 
 29 H        3.3810    -1.3130     1.3420 H     1 <1>   0.0800 
 30 H        2.1920     1.8900    -1.1120 H     1 <1>   0.0800 
 31 H        2.1990     2.1150     0.6060 H     1 <1>   0.0800 
 32 H        4.8070    -1.3000    -0.7640 H     1 <1>   0.0800 
 33 H        5.6440    -1.3910     0.7480 H     1 <1>   0.0800 
 34 H        4.0190     3.2190    -0.8090 H     1 <1>   0.0800 
 35 H        4.5290     2.4560     0.6520 H     1 <1>   0.0800 
 36 H        3.4160    -4.7220    -1.0350 H     1 <1>   0.1500 
 37 H       -0.3890    -4.4960     0.8230 H     1 <1>   0.1500 
 38 H       -1.3190    -2.3920     1.2940 H     1 <1>   0.0800 
 39 H       -1.1830    -1.3990    -0.1340 H     1 <1>   0.0800 
 40 H       -0.2820    -0.9920     1.3070 H     1 <1>   0.0800 
 41 H        5.8210     2.0690    -1.6300 H     1 <1>   0.0800 
 42 H        4.5940     0.8760    -1.9140 H     1 <1>   0.0800 
 43 H        1.5170    -5.8400     0.0050 H     1 <1>   0.1500 
 44 H        8.2300     1.8320    -1.1950 H     1 <1>   0.1000 
 45 H        8.8720     2.1500     1.7930 H     1 <1>   0.1000 
 46 H        7.6530     4.1080    -0.2820 H     1 <1>   0.1000 
 47 H        6.7980     3.3650     1.1060 H     1 <1>   0.1000 
 48 H       10.8070     1.0580    -0.2720 H     1 <1>   0.1500 
 49 H        9.8680     5.0730     0.7870 H     1 <1>   0.1500 
 50 H       13.0110     1.7870    -1.0860 H     1 <1>   0.1500 
 51 H       12.0680     5.8050    -0.0250 H     1 <1>   0.1500 
 52 H       13.6420     4.1630    -0.9650 H     1 <1>   0.1500 
@<TRIPOS>BOND
  1   1   2  2   
  2   2   3  am  
  3   2   4  1   
  4   3   5  1   
  5   3   6  1   
  6   4   7  ar  
  7   4   8  ar  
  8   5   9  1   
  9   5  28  1   
 10   5  29  1   
 11   6  10  1   
 12   6  30  1   
 13   6  31  1   
 14   7  11  ar  
 15   8  12  ar  
 16   8  13  1   
 17   9  14  1   
 18   9  32  1   
 19   9  33  1   
 20  10  15  1   
 21  10  34  1   
 22  10  35  1   
 23  11  16  ar  
 24  11  36  1   
 25  12  16  ar  
 26  12  37  1   
 27  13  38  1   
 28  13  39  1   
 29  13  40  1   
 30  14  15  1   
 31  14  17  am  
 32  15  41  1   
 33  15  42  1   
 34  16  43  1   
 35  17  18  2   
 36  17  19  1   
 37  19  20  1   
 38  19  21  1   
 39  19  44  1   
 40  20  21  1   
 41  20  22  1   
 42  20  45  1   
 43  21  46  1   
 44  21  47  1   
 45  22  23  ar  
 46  22  24  ar  
 47  23  25  ar  
 48  23  48  1   
 49  24  26  ar  
 50  24  49  1   
 51  25  27  ar  
 52  25  50  1   
 53  26  27  ar  
 54  26  51  1   
 55  27  52  1   
@<TRIPOS>SUBSTRUCTURE
  1 ****  14 GROUP 4 **** **** 0

# MOE 2024.06 (io_trps.svl 2023.06)
