@<TRIPOS>MOLECULE
NONAME
44 46 1 0 0 
SMALL
USER_CHARGES


@<TRIPOS>ATOM
  1 F        0.4810     1.7950    -1.6380 F     1 <1>  -0.1900 
  2 C        1.1430     2.6690    -0.9240 C.ar  1 <1>   0.1900 
  3 C        2.4990     2.7860    -1.1020 C.ar  1 <1>  -0.1500 
  4 C        0.4250     3.4440    -0.0090 C.ar  1 <1>  -0.1500 
  5 C        3.1810     3.7290    -0.3260 C.ar  1 <1>   0.0000 
  6 C        1.0940     4.3720     0.7560 C.ar  1 <1>  -0.1500 
  7 C        2.4780     4.5090     0.5900 C.ar  1 <1>  -0.1520 
  8 C        4.5310     4.1230    -0.2320 C.2   1 <1>  -0.1500 
  9 N        3.3660     5.3420     1.2190 N.pl3 1 <1>   0.0330 
 10 C        4.6140     5.1050     0.7010 C.2   1 <1>  -0.3320 
 11 C        5.8440     5.8530     1.1540 C.3   1 <1>   0.5230 
 12 N        6.2390     6.7200     0.0230 N.4   1 <1>  -0.9590 
 13 C        7.6380     7.2180     0.1950 C.3   1 <1>   0.3430 
 14 C        5.2650     7.8500    -0.1490 C.3   1 <1>   0.2630 
 15 C        8.2190     7.8020    -1.1040 C.3   1 <1>  -0.0220 
 16 C        9.0320     9.0630    -0.8200 C.2   1 <1>  -0.1240 
 17 C        8.3550    10.2020    -0.2590 C.2   1 <1>   0.6160 
 18 C       10.3550     9.1360    -1.0890 C.2   1 <1>  -0.0410 
 19 O        7.1730    10.1310     0.0400 O.2   1 <1>  -0.5700 
 20 N        9.0630    11.3690    -0.0330 N.am  1 <1>  -0.4200 
 21 N       11.0290    10.3080    -0.8140 N.am  1 <1>  -0.5390 
 22 C       10.4190    11.4140    -0.2940 C.2   1 <1>   0.6900 
 23 C        8.3860    12.5790     0.5170 C.3   1 <1>   0.0600 
 24 O       11.0910    12.3980    -0.0740 O.2   1 <1>  -0.5700 
 25 H        3.0240     2.1740    -1.8120 H     1 <1>   0.1500 
 26 H       -0.6370     3.2990     0.0800 H     1 <1>   0.1500 
 27 H        0.5670     4.9810     1.4700 H     1 <1>   0.1500 
 28 H        5.3100     3.6760    -0.8270 H     1 <1>   0.1500 
 29 H        3.0980     5.9890     1.9700 H     1 <1>   0.2700 
 30 H        6.6280     5.1450     1.3710 H     1 <1>   0.0800 
 31 H        5.6450     6.4370     2.0380 H     1 <1>   0.0800 
 32 H        6.1750     6.1160    -0.8080 H     1 <1>   0.4500 
 33 H        8.2790     6.4190     0.5300 H     1 <1>   0.0800 
 34 H        7.6420     7.9800     0.9590 H     1 <1>   0.0800 
 35 H        5.2750     8.4910     0.7180 H     1 <1>   0.0800 
 36 H        4.2660     7.4680    -0.2910 H     1 <1>   0.0800 
 37 H        5.5240     8.4480    -1.0070 H     1 <1>   0.0800 
 38 H        7.4410     8.0610    -1.8000 H     1 <1>   0.0800 
 39 H        8.8420     7.0610    -1.5720 H     1 <1>   0.0800 
 40 H       10.9300     8.3280    -1.5160 H     1 <1>   0.1500 
 41 H       12.0290    10.4310    -0.9940 H     1 <1>   0.3700 
 42 H        7.3470    12.5920     0.2360 H     1 <1>   0.0800 
 43 H        8.8510    13.4720     0.1340 H     1 <1>   0.0800 
 44 H        8.4640    12.5780     1.5890 H     1 <1>   0.0800 
@<TRIPOS>BOND
  1   1   2  1   
  2   2   3  ar  
  3   2   4  ar  
  4   3   5  ar  
  5   3  25  1   
  6   4   6  ar  
  7   4  26  1   
  8   5   7  ar  
  9   5   8  1   
 10   6   7  ar  
 11   6  27  1   
 12   7   9  1   
 13   8  10  2   
 14   8  28  1   
 15   9  10  1   
 16   9  29  1   
 17  10  11  1   
 18  11  12  1   
 19  11  30  1   
 20  11  31  1   
 21  12  13  1   
 22  12  14  1   
 23  12  32  1   
 24  13  15  1   
 25  13  33  1   
 26  13  34  1   
 27  14  35  1   
 28  14  36  1   
 29  14  37  1   
 30  15  16  1   
 31  15  38  1   
 32  15  39  1   
 33  16  17  1   
 34  16  18  2   
 35  17  19  2   
 36  17  20  am  
 37  18  21  1   
 38  18  40  1   
 39  20  22  am  
 40  20  23  1   
 41  21  22  am  
 42  21  41  1   
 43  22  24  2   
 44  23  42  1   
 45  23  43  1   
 46  23  44  1   
@<TRIPOS>SUBSTRUCTURE
  1 ****  12 GROUP 4 **** **** 0

# MOE 2024.06 (io_trps.svl 2023.06)
