@<TRIPOS>MOLECULE
NONAME
57 60 1 0 0 
SMALL
USER_CHARGES


@<TRIPOS>ATOM
  1 F       -1.2770    -0.8640     1.5380 F     1 <1>  -0.1900 
  2 C       -2.3550    -1.1540     0.8540 C.ar  1 <1>   0.1900 
  3 C       -2.4080    -2.3090     0.0910 C.ar  1 <1>   0.1900 
  4 C       -3.4310    -0.2910     0.9130 C.ar  1 <1>  -0.1500 
  5 F       -1.3810    -3.1230     0.0430 F     1 <1>  -0.1900 
  6 C       -3.5440    -2.6240    -0.6330 C.ar  1 <1>  -0.1500 
  7 C       -4.5820    -0.5920     0.1880 C.ar  1 <1>   0.1000 
  8 C       -4.6250    -1.7580    -0.5760 C.ar  1 <1>  -0.1500 
  9 N       -5.6960     0.2400     0.2130 N.pl3 1 <1>  -0.8380 
 10 C       -5.5000     1.6780    -0.0500 C.3   1 <1>   0.2090 
 11 C       -6.7190    -0.0560     1.2320 C.3   1 <1>   0.2090 
 12 C       -6.8070     2.2240    -0.6180 C.3   1 <1>  -0.1600 
 13 C       -8.0590     0.4460     0.7020 C.3   1 <1>  -0.1600 
 14 C       -8.0010     1.9350     0.3110 C.3   1 <1>   0.4230 
 15 N       -9.2840     2.3390    -0.3580 N.4   1 <1>  -0.9590 
 16 C      -10.5010     2.0810     0.4890 C.3   1 <1>   0.3430 
 17 C       -9.2950     3.7680    -0.8070 C.3   1 <1>   0.3430 
 18 C      -11.8010     2.2820    -0.3030 C.3   1 <1>   0.0000 
 19 C      -10.5360     4.0500    -1.6540 C.3   1 <1>  -0.1600 
 20 C      -12.9960     1.9920     0.6170 C.3   1 <1>   0.2000 
 21 C      -11.8300     3.7160    -0.8970 C.3   1 <1>  -0.1600 
 22 C      -12.0160     1.2320    -1.4090 C.3   1 <1>  -0.1600 
 23 O      -13.2070     3.0540     1.4920 O.3   1 <1>  -0.5600 
 24 C      -14.1700     1.7410    -0.3300 C.3   1 <1>  -0.1600 
 25 C      -13.5380     1.1460    -1.5980 C.3   1 <1>  -0.1600 
 26 C      -14.1970     2.8490     2.4550 C.3   1 <1>   0.0400 
 27 H       -3.3740     0.5950     1.5140 H     1 <1>   0.1500 
 28 H       -3.5760    -3.5220    -1.2230 H     1 <1>   0.1500 
 29 H       -5.5180    -1.9780    -1.1320 H     1 <1>   0.1500 
 30 H       -5.2360     2.1850     0.8630 H     1 <1>   0.0800 
 31 H       -4.7010     1.8110    -0.7610 H     1 <1>   0.0800 
 32 H       -6.7610    -1.1190     1.4080 H     1 <1>   0.0800 
 33 H       -6.4620     0.4330     2.1580 H     1 <1>   0.0800 
 34 H       -6.9640     1.7680    -1.5790 H     1 <1>   0.0800 
 35 H       -6.6690     3.2800    -0.7510 H     1 <1>   0.0800 
 36 H       -8.7810     0.2790     1.4780 H     1 <1>   0.0800 
 37 H       -8.3200    -0.1520    -0.1530 H     1 <1>   0.0800 
 38 H       -7.8730     2.5140     1.2120 H     1 <1>   0.0800 
 39 H       -9.3780     1.7590    -1.2000 H     1 <1>   0.4500 
 40 H      -10.4940     1.0730     0.8630 H     1 <1>   0.0800 
 41 H      -10.5050     2.7510     1.3340 H     1 <1>   0.0800 
 42 H       -9.2910     4.4200     0.0520 H     1 <1>   0.0800 
 43 H       -8.4250     3.9860    -1.4030 H     1 <1>   0.0800 
 44 H      -10.5470     5.0930    -1.9170 H     1 <1>   0.0800 
 45 H      -10.4790     3.4950    -2.5730 H     1 <1>   0.0800 
 46 H      -12.8070     1.1030     1.1960 H     1 <1>   0.0800 
 47 H      -12.6750     3.8450    -1.5520 H     1 <1>   0.0800 
 48 H      -11.9390     4.4340    -0.1020 H     1 <1>   0.0800 
 49 H      -11.5240     1.4710    -2.3360 H     1 <1>   0.0800 
 50 H      -11.6620     0.2710    -1.0750 H     1 <1>   0.0800 
 51 H      -14.8820     1.0610     0.1040 H     1 <1>   0.0800 
 52 H      -14.6570     2.6710    -0.5700 H     1 <1>   0.0800 
 53 H      -13.8460     0.1240    -1.7430 H     1 <1>   0.0800 
 54 H      -13.8440     1.7200    -2.4570 H     1 <1>   0.0800 
 55 H      -14.2160     3.7070     3.1030 H     1 <1>   0.0800 
 56 H      -13.9650     1.9680     3.0280 H     1 <1>   0.0800 
 57 H      -15.1530     2.7470     1.9720 H     1 <1>   0.0800 
@<TRIPOS>BOND
  1   1   2  1   
  2   2   3  ar  
  3   2   4  ar  
  4   3   5  1   
  5   3   6  ar  
  6   4   7  ar  
  7   4  27  1   
  8   6   8  ar  
  9   6  28  1   
 10   7   8  ar  
 11   7   9  1   
 12   8  29  1   
 13   9  10  1   
 14   9  11  1   
 15  10  12  1   
 16  10  30  1   
 17  10  31  1   
 18  11  13  1   
 19  11  32  1   
 20  11  33  1   
 21  12  14  1   
 22  12  34  1   
 23  12  35  1   
 24  13  14  1   
 25  13  36  1   
 26  13  37  1   
 27  14  15  1   
 28  14  38  1   
 29  15  16  1   
 30  15  17  1   
 31  15  39  1   
 32  16  18  1   
 33  16  40  1   
 34  16  41  1   
 35  17  19  1   
 36  17  42  1   
 37  17  43  1   
 38  18  20  1   
 39  18  21  1   
 40  18  22  1   
 41  19  21  1   
 42  19  44  1   
 43  19  45  1   
 44  20  23  1   
 45  20  24  1   
 46  20  46  1   
 47  21  47  1   
 48  21  48  1   
 49  22  25  1   
 50  22  49  1   
 51  22  50  1   
 52  23  26  1   
 53  24  25  1   
 54  24  51  1   
 55  24  52  1   
 56  25  53  1   
 57  25  54  1   
 58  26  55  1   
 59  26  56  1   
 60  26  57  1   
@<TRIPOS>SUBSTRUCTURE
  1 ****  13 GROUP 4 **** **** 0

# MOE 2024.06 (io_trps.svl 2023.06)
