@<TRIPOS>MOLECULE
NONAME
54 56 1 0 0 
SMALL
USER_CHARGES


@<TRIPOS>ATOM
  1 O       -1.5020     0.8920     2.5460 O.2   1 <1>  -0.5700 
  2 C       -2.1270     1.2020     1.5580 C.2   1 <1>   0.5690 
  3 N       -3.2400     0.4830     1.1700 N.am  1 <1>  -0.6600 
  4 C       -1.6050     2.4380     0.8090 C.3   1 <1>  -0.0190 
  5 C       -4.1130     0.7630    -0.0080 C.3   1 <1>   0.1400 
  6 C       -3.6860    -0.6980     1.9690 C.3   1 <1>   0.1400 
  7 C       -2.5560     3.6520     0.9040 C.3   1 <1>  -0.1600 
  8 C       -1.1130     2.1370    -0.6300 C.3   1 <1>  -0.1600 
  9 C       -4.1760    -0.4670    -0.9150 C.3   1 <1>  -0.1600 
 10 C       -3.7390    -1.9410     1.0790 C.3   1 <1>  -0.1600 
 11 C       -1.9420     4.9310     0.2980 C.3   1 <1>   0.2000 
 12 C       -1.2510     3.3360    -1.5840 C.3   1 <1>  -0.1600 
 13 C       -4.6410    -1.6970    -0.1360 C.3   1 <1>   0.2000 
 14 O       -2.9980     5.7260    -0.1860 O.3   1 <1>  -0.5600 
 15 C       -0.9420     4.6450    -0.8560 C.3   1 <1>   0.2000 
 16 O       -4.5640    -2.8030    -1.0080 O.3   1 <1>  -0.3630 
 17 C       -3.6380     6.5080     0.7740 C.3   1 <1>   0.0400 
 18 O       -1.0060     5.6690    -1.7780 O.3   1 <1>  -0.6800 
 19 C       -5.2040    -3.9780    -0.7770 C.ar  1 <1>   0.0820 
 20 C       -6.1190    -4.1870     0.2520 C.ar  1 <1>  -0.1500 
 21 C       -4.9110    -5.0200    -1.6410 C.ar  1 <1>  -0.1500 
 22 C       -6.7200    -5.4240     0.4060 C.ar  1 <1>  -0.1500 
 23 C       -5.5130    -6.2560    -1.4850 C.ar  1 <1>  -0.1500 
 24 C       -6.4200    -6.4650    -0.4590 C.ar  1 <1>  -0.1440 
 25 C       -7.0840    -7.8190    -0.2880 C.3   1 <1>  -0.0970 
 26 H       -0.7240     2.7400     1.3500 H     1 <1>   0.0800 
 27 H       -5.1010     1.0100     0.3430 H     1 <1>   0.0800 
 28 H       -3.7520     1.5940    -0.5810 H     1 <1>   0.0800 
 29 H       -3.0180    -0.8840     2.7930 H     1 <1>   0.0800 
 30 H       -4.6610    -0.4950     2.3780 H     1 <1>   0.0800 
 31 H       -2.7870     3.8310     1.9390 H     1 <1>   0.0800 
 32 H       -3.4750     3.4370     0.3950 H     1 <1>   0.0800 
 33 H       -0.0760     1.8550    -0.5720 H     1 <1>   0.0800 
 34 H       -1.6290     1.2950    -1.0530 H     1 <1>   0.0800 
 35 H       -3.2000    -0.6480    -1.3280 H     1 <1>   0.0800 
 36 H       -4.8590    -0.2770    -1.7230 H     1 <1>   0.0800 
 37 H       -4.1060    -2.7680     1.6560 H     1 <1>   0.0800 
 38 H       -2.7410    -2.1730     0.7510 H     1 <1>   0.0800 
 39 H       -1.4120     5.4810     1.0570 H     1 <1>   0.0800 
 40 H       -2.2580     3.3790    -1.9630 H     1 <1>   0.0800 
 41 H       -0.5800     3.2130    -2.4160 H     1 <1>   0.0800 
 42 H       -5.6660    -1.5560     0.1580 H     1 <1>   0.0800 
 43 H        0.0630     4.6080    -0.4740 H     1 <1>   0.0800 
 44 H       -4.4150     7.0690     0.2840 H     1 <1>   0.0800 
 45 H       -2.9260     7.1860     1.2130 H     1 <1>   0.0800 
 46 H       -4.0730     5.8740     1.5260 H     1 <1>   0.0800 
 47 H       -1.9100     6.0510    -1.6870 H     1 <1>   0.4000 
 48 H       -6.3770    -3.4070     0.9400 H     1 <1>   0.1500 
 49 H       -4.2070    -4.8570    -2.4360 H     1 <1>   0.1500 
 50 H       -7.4260    -5.5750     1.2030 H     1 <1>   0.1500 
 51 H       -5.2730    -7.0530    -2.1660 H     1 <1>   0.1500 
 52 H       -7.3170    -7.9970     0.7470 H     1 <1>   0.0800 
 53 H       -6.4300    -8.6030    -0.6260 H     1 <1>   0.0800 
 54 H       -7.9930    -7.8540    -0.8610 H     1 <1>   0.0800 
@<TRIPOS>BOND
  1   1   2  2   
  2   2   3  am  
  3   2   4  1   
  4   3   5  1   
  5   3   6  1   
  6   4   7  1   
  7   4   8  1   
  8   4  26  1   
  9   5   9  1   
 10   5  27  1   
 11   5  28  1   
 12   6  10  1   
 13   6  29  1   
 14   6  30  1   
 15   7  11  1   
 16   7  31  1   
 17   7  32  1   
 18   8  12  1   
 19   8  33  1   
 20   8  34  1   
 21   9  13  1   
 22   9  35  1   
 23   9  36  1   
 24  10  13  1   
 25  10  37  1   
 26  10  38  1   
 27  11  14  1   
 28  11  15  1   
 29  11  39  1   
 30  12  15  1   
 31  12  40  1   
 32  12  41  1   
 33  13  16  1   
 34  13  42  1   
 35  14  17  1   
 36  15  18  1   
 37  15  43  1   
 38  16  19  1   
 39  17  44  1   
 40  17  45  1   
 41  17  46  1   
 42  18  47  1   
 43  19  20  ar  
 44  19  21  ar  
 45  20  22  ar  
 46  20  48  1   
 47  21  23  ar  
 48  21  49  1   
 49  22  24  ar  
 50  22  50  1   
 51  23  24  ar  
 52  23  51  1   
 53  24  25  1   
 54  25  52  1   
 55  25  53  1   
 56  25  54  1   
@<TRIPOS>SUBSTRUCTURE
  1 ****   5 GROUP 4 **** **** 0

# MOE 2024.06 (io_trps.svl 2023.06)
