@<TRIPOS>MOLECULE
NONAME
47 49 1 0 0 
SMALL
USER_CHARGES


@<TRIPOS>ATOM
  1 O        1.4210     0.8120     0.2320 O.2   1 <1>  -0.5700 
  2 C        2.0510    -0.1350    -0.2030 C.2   1 <1>   0.5440 
  3 N        3.2330     0.1090    -0.8740 N.am  1 <1>  -0.6600 
  4 C        1.5510    -1.4810     0.0070 C.ar  1 <1>   0.0860 
  5 C        3.6290     1.4980    -1.2530 C.3   1 <1>   0.1400 
  6 C        4.3510    -0.8730    -0.9660 C.3   1 <1>   0.1400 
  7 C        1.4490    -2.3950    -1.0420 C.ar  1 <1>  -0.1500 
  8 C        1.1460    -1.9050     1.2720 C.ar  1 <1>  -0.1500 
  9 C        4.7520     1.9910    -0.3320 C.3   1 <1>   0.2890 
 10 C        5.5300    -0.4020    -0.1000 C.3   1 <1>  -0.1600 
 11 C        0.9820    -3.6810    -0.8350 C.ar  1 <1>  -0.1500 
 12 C        0.6780    -3.1890     1.4870 C.ar  1 <1>  -0.1500 
 13 N        5.1620     3.3520    -0.7240 N.pl3 1 <1>  -0.8690 
 14 C        5.9540     1.0450    -0.4140 C.3   1 <1>  -0.1600 
 15 C        0.5970    -4.0800     0.4320 C.ar  1 <1>  -0.1500 
 16 C        5.3060     4.2570     0.3140 C.ar  1 <1>   0.4100 
 17 N        6.3600     4.1010     1.0900 N.ar  1 <1>  -0.6200 
 18 C        4.3270     5.2860     0.4930 C.ar  1 <1>   0.4100 
 19 C        6.4210     5.0340     2.0320 C.ar  1 <1>   0.1600 
 20 N        4.4100     6.2050     1.4390 N.ar  1 <1>  -0.6200 
 21 N        3.1900     5.3360    -0.3280 N.pl3 1 <1>  -0.8380 
 22 C        5.4890     6.0440     2.1970 C.ar  1 <1>   0.1600 
 23 C        2.0180     4.5780     0.1930 C.3   1 <1>   0.1290 
 24 C        2.8240     6.6730    -0.8680 C.3   1 <1>   0.1290 
 25 H        2.7860     2.1620    -1.1850 H     1 <1>   0.0800 
 26 H        3.9750     1.4950    -2.2710 H     1 <1>   0.0800 
 27 H        4.6630    -0.9510    -1.9940 H     1 <1>   0.0800 
 28 H        4.0380    -1.8470    -0.6360 H     1 <1>   0.0800 
 29 H        1.7400    -2.0860    -2.0310 H     1 <1>   0.1500 
 30 H        1.2010    -1.2100     2.0920 H     1 <1>   0.1500 
 31 H        4.3780     2.0080     0.6790 H     1 <1>   0.0800 
 32 H        6.3660    -1.0610    -0.2490 H     1 <1>   0.0800 
 33 H        5.2440    -0.4720     0.9360 H     1 <1>   0.0800 
 34 H        0.9130    -4.3710    -1.6590 H     1 <1>   0.1500 
 35 H        0.3730    -3.4940     2.4730 H     1 <1>   0.1500 
 36 H        4.4480     3.7560    -1.3410 H     1 <1>   0.4000 
 37 H        6.7040     1.3650     0.2880 H     1 <1>   0.0800 
 38 H        6.3730     1.0920    -1.4040 H     1 <1>   0.0800 
 39 H        0.2320    -5.0790     0.5970 H     1 <1>   0.1500 
 40 H        7.2600     4.9860     2.7030 H     1 <1>   0.1500 
 41 H        5.6310     6.7560     2.9900 H     1 <1>   0.1500 
 42 H        2.3420     3.6670     0.6670 H     1 <1>   0.0800 
 43 H        1.3530     4.3270    -0.6150 H     1 <1>   0.0800 
 44 H        1.4900     5.1730     0.9180 H     1 <1>   0.0800 
 45 H        3.7130     7.1990    -1.1700 H     1 <1>   0.0800 
 46 H        2.3220     7.2510    -0.1100 H     1 <1>   0.0800 
 47 H        2.1770     6.5610    -1.7200 H     1 <1>   0.0800 
@<TRIPOS>BOND
  1   1   2  2   
  2   2   3  am  
  3   2   4  1   
  4   3   5  1   
  5   3   6  1   
  6   4   7  ar  
  7   4   8  ar  
  8   5   9  1   
  9   5  25  1   
 10   5  26  1   
 11   6  10  1   
 12   6  27  1   
 13   6  28  1   
 14   7  11  ar  
 15   7  29  1   
 16   8  12  ar  
 17   8  30  1   
 18   9  13  1   
 19   9  14  1   
 20   9  31  1   
 21  10  14  1   
 22  10  32  1   
 23  10  33  1   
 24  11  15  ar  
 25  11  34  1   
 26  12  15  ar  
 27  12  35  1   
 28  13  16  1   
 29  13  36  1   
 30  14  37  1   
 31  14  38  1   
 32  15  39  1   
 33  16  17  ar  
 34  16  18  ar  
 35  17  19  ar  
 36  18  20  ar  
 37  18  21  1   
 38  19  22  ar  
 39  19  40  1   
 40  20  22  ar  
 41  21  23  1   
 42  21  24  1   
 43  22  41  1   
 44  23  42  1   
 45  23  43  1   
 46  23  44  1   
 47  24  45  1   
 48  24  46  1   
 49  24  47  1   
@<TRIPOS>SUBSTRUCTURE
  1 ****   5 GROUP 4 **** **** 0

# MOE 2024.06 (io_trps.svl 2023.06)
