@<TRIPOS>MOLECULE
NONAME
52 55 1 0 0 
SMALL
USER_CHARGES


@<TRIPOS>ATOM
  1 O       -0.2450     0.2360    -0.1660 O.3   1 <1>  -0.6800 
  2 C        0.8810    -0.1390    -0.8890 C.3   1 <1>   0.2000 
  3 C        1.4290    -1.4240    -0.2680 C.3   1 <1>  -0.0800 
  4 C        1.9840     0.9000    -0.6280 C.3   1 <1>   0.3430 
  5 C        2.1320    -0.8690     0.9730 C.3   1 <1>   0.3430 
  6 C        2.3730    -2.1690    -1.2510 C.3   1 <1>   0.0210 
  7 N        2.8220     0.3460     0.4810 N.4   1 <1>  -0.9590 
  8 C        3.7790    -2.4260    -0.7300 C.2   1 <1>   0.1080 
  9 C        3.1790     1.3260     1.5310 C.3   1 <1>   0.4860 
 10 N        4.6890    -1.5000    -0.6410 N.2   1 <1>  -0.7070 
 11 C        4.2470    -3.6650    -0.3090 C.2   1 <1>  -0.1500 
 12 C        3.8540     2.5240     0.8860 C.ar  1 <1>  -0.1440 
 13 N        5.7870    -2.1490    -0.1870 N.pl3 1 <1>   0.3000 
 14 C        5.5340    -3.4540     0.0340 C.2   1 <1>  -0.3320 
 15 C        3.2330     3.7640     0.9020 C.ar  1 <1>  -0.1500 
 16 C        5.0920     2.3930     0.2730 C.ar  1 <1>  -0.1500 
 17 C        6.5600    -4.4450     0.5550 C.3   1 <1>  -0.0600 
 18 C        3.8390     4.8580     0.3110 C.ar  1 <1>  -0.1500 
 19 C        5.6960     3.4880    -0.3180 C.ar  1 <1>  -0.1500 
 20 C        5.0750     4.7270    -0.3040 C.ar  1 <1>  -0.1440 
 21 C        5.7510     5.9280    -0.9590 C.3   1 <1>   0.2390 
 22 N        7.0170     6.2780    -0.2780 N.pl3 1 <1>   0.3140 
 23 N        8.1800     6.3890    -0.9500 N.2   1 <1>  -0.7070 
 24 C        7.1890     6.5450     1.0340 C.2   1 <1>  -0.3020 
 25 C        9.0570     6.7190    -0.0510 C.2   1 <1>   0.1390 
 26 C        8.4950     6.8330     1.2140 C.2   1 <1>  -0.1500 
 27 H       -1.0360    -0.2690    -0.4490 H     1 <1>   0.4000 
 28 H        0.6140    -0.2130    -1.9300 H     1 <1>   0.0800 
 29 H        0.6360    -2.0910     0.0220 H     1 <1>   0.0800 
 30 H        1.5430     1.8460    -0.3610 H     1 <1>   0.0800 
 31 H        2.5950     1.0270    -1.5060 H     1 <1>   0.0800 
 32 H        2.8240    -1.5780     1.3990 H     1 <1>   0.0800 
 33 H        1.3910    -0.5970     1.7070 H     1 <1>   0.0800 
 34 H        2.4740    -1.6220    -2.1720 H     1 <1>   0.0800 
 35 H        1.9300    -3.1140    -1.5080 H     1 <1>   0.0800 
 36 H        3.6990    -0.0090     0.0430 H     1 <1>   0.4500 
 37 H        2.2900     1.6470     2.0490 H     1 <1>   0.0800 
 38 H        3.8490     0.8750     2.2450 H     1 <1>   0.0800 
 39 H        3.6900    -4.5860    -0.2820 H     1 <1>   0.1500 
 40 H        6.6970    -1.6880    -0.0510 H     1 <1>   0.2700 
 41 H        2.2740     3.8930     1.3760 H     1 <1>   0.1500 
 42 H        5.5990     1.4430     0.2480 H     1 <1>   0.1500 
 43 H        6.1210    -5.4240     0.6410 H     1 <1>   0.0800 
 44 H        6.9150    -4.1440     1.5240 H     1 <1>   0.0800 
 45 H        7.3950    -4.5070    -0.1210 H     1 <1>   0.0800 
 46 H        3.3420     5.8140     0.3350 H     1 <1>   0.1500 
 47 H        6.6610     3.3780    -0.7880 H     1 <1>   0.1500 
 48 H        5.1090     6.7880    -0.9330 H     1 <1>   0.0800 
 49 H        5.9730     5.7030    -1.9860 H     1 <1>   0.0800 
 50 H        6.3880     6.5130     1.7500 H     1 <1>   0.1500 
 51 H       10.0980     6.8850    -0.2720 H     1 <1>   0.1500 
 52 H        9.0140     7.0940     2.1190 H     1 <1>   0.1500 
@<TRIPOS>BOND
  1   1   2  1   
  2   1  27  1   
  3   2   3  1   
  4   2   4  1   
  5   2  28  1   
  6   3   5  1   
  7   3   6  1   
  8   3  29  1   
  9   4   7  1   
 10   4  30  1   
 11   4  31  1   
 12   5   7  1   
 13   5  32  1   
 14   5  33  1   
 15   6   8  1   
 16   6  34  1   
 17   6  35  1   
 18   7   9  1   
 19   7  36  1   
 20   8  10  2   
 21   8  11  1   
 22   9  12  1   
 23   9  37  1   
 24   9  38  1   
 25  10  13  1   
 26  11  14  2   
 27  11  39  1   
 28  12  15  ar  
 29  12  16  ar  
 30  13  14  1   
 31  13  40  1   
 32  14  17  1   
 33  15  18  ar  
 34  15  41  1   
 35  16  19  ar  
 36  16  42  1   
 37  17  43  1   
 38  17  44  1   
 39  17  45  1   
 40  18  20  ar  
 41  18  46  1   
 42  19  20  ar  
 43  19  47  1   
 44  20  21  1   
 45  21  22  1   
 46  21  48  1   
 47  21  49  1   
 48  22  23  1   
 49  22  24  1   
 50  23  25  2   
 51  24  26  2   
 52  24  50  1   
 53  25  26  1   
 54  25  51  1   
 55  26  52  1   
@<TRIPOS>SUBSTRUCTURE
  1 ****  16 GROUP 4 **** **** 0

# MOE 2024.06 (io_trps.svl 2023.06)
