@<TRIPOS>MOLECULE
NONAME
51 54 1 0 0 
SMALL
USER_CHARGES


@<TRIPOS>ATOM
  1 O        0.1790     0.0950    -1.1420 O.2   1 <1>  -0.5700 
  2 C       -0.7440     0.8270    -0.8790 C.2   1 <1>   0.5690 
  3 N       -1.9620     0.3400    -0.4960 N.am  1 <1>  -0.6600 
  4 C       -0.5130     2.3230    -0.9770 C.3   1 <1>  -0.0990 
  5 C       -3.1840     1.1260    -0.1750 C.3   1 <1>   0.1400 
  6 C       -2.2210    -1.1130    -0.3510 C.3   1 <1>   0.1400 
  7 C       -0.1670     2.9260     0.3950 C.3   1 <1>  -0.0990 
  8 C       -4.2870     0.0800    -0.0090 C.3   1 <1>   0.2000 
  9 C       -3.5670    -1.2120     0.3680 C.3   1 <1>  -0.0800 
 10 C       -0.2120     4.4480     0.3670 C.2   1 <1>   0.3890 
 11 O       -5.1880     0.4350     0.9810 O.3   1 <1>  -0.6800 
 12 C       -4.3640    -2.4770     0.0120 C.3   1 <1>   0.0210 
 13 N        0.9040     5.0870     0.3280 N.2   1 <1>  -0.6290 
 14 C       -1.5180     5.0840     0.3870 C.2   1 <1>   0.6300 
 15 C       -3.5550    -3.7280     0.2930 C.2   1 <1>   0.1080 
 16 C        0.8470     6.4760     0.3050 C.ar  1 <1>   0.1790 
 17 O       -2.5820     4.4830     0.4120 O.2   1 <1>  -0.5700 
 18 N       -1.5590     6.4450     0.3700 N.am  1 <1>  -0.5470 
 19 N       -3.1680    -4.0630     1.4850 N.2   1 <1>  -0.7070 
 20 C       -3.1300    -4.6350    -0.6720 C.2   1 <1>  -0.1500 
 21 C       -0.3770     7.1740     0.3270 C.ar  1 <1>   0.1170 
 22 C        2.0310     7.2030     0.2600 C.ar  1 <1>  -0.1500 
 23 N       -2.4780    -5.2060     1.3100 N.pl3 1 <1>   0.3000 
 24 C       -2.4400    -5.5720     0.0110 C.2   1 <1>  -0.3320 
 25 C       -0.3810     8.5660     0.3040 C.ar  1 <1>  -0.1500 
 26 C        2.0160     8.5830     0.2370 C.ar  1 <1>  -0.1500 
 27 C       -1.7350    -6.8130    -0.5050 C.3   1 <1>  -0.0600 
 28 C        0.8070     9.2660     0.2590 C.ar  1 <1>  -0.1500 
 29 H        0.3000     2.5030    -1.6580 H     1 <1>   0.0800 
 30 H       -1.3870     2.7880    -1.3910 H     1 <1>   0.0800 
 31 H       -3.0320     1.6680     0.7420 H     1 <1>   0.0800 
 32 H       -3.4250     1.8060    -0.9730 H     1 <1>   0.0800 
 33 H       -2.2700    -1.5570    -1.3300 H     1 <1>   0.0800 
 34 H       -1.4380    -1.5900     0.2150 H     1 <1>   0.0800 
 35 H        0.8160     2.5970     0.6850 H     1 <1>   0.0800 
 36 H       -0.8560     2.5730     1.1400 H     1 <1>   0.0800 
 37 H       -4.8260    -0.0260    -0.9350 H     1 <1>   0.0800 
 38 H       -3.3580    -1.2160     1.4240 H     1 <1>   0.0800 
 39 H       -4.7510     0.4260     1.8550 H     1 <1>   0.4000 
 40 H       -4.6430    -2.4600    -1.0250 H     1 <1>   0.0800 
 41 H       -5.2640    -2.5100     0.6000 H     1 <1>   0.0800 
 42 H       -2.4770     6.8870     0.3870 H     1 <1>   0.3700 
 43 H       -3.3220    -4.5760    -1.7280 H     1 <1>   0.1500 
 44 H        2.9620     6.6660     0.2430 H     1 <1>   0.1500 
 45 H       -2.0460    -5.7090     2.0940 H     1 <1>   0.2700 
 46 H       -1.3160     9.0960     0.3210 H     1 <1>   0.1500 
 47 H        2.9410     9.1330     0.2020 H     1 <1>   0.1500 
 48 H       -1.8480    -6.8850    -1.5720 H     1 <1>   0.0800 
 49 H       -2.1560    -7.6950    -0.0550 H     1 <1>   0.0800 
 50 H       -0.6860    -6.7670    -0.2740 H     1 <1>   0.0800 
 51 H        0.8040    10.3420     0.2410 H     1 <1>   0.1500 
@<TRIPOS>BOND
  1   1   2  2   
  2   2   3  am  
  3   2   4  1   
  4   3   5  1   
  5   3   6  1   
  6   4   7  1   
  7   4  29  1   
  8   4  30  1   
  9   5   8  1   
 10   5  31  1   
 11   5  32  1   
 12   6   9  1   
 13   6  33  1   
 14   6  34  1   
 15   7  10  1   
 16   7  35  1   
 17   7  36  1   
 18   8   9  1   
 19   8  11  1   
 20   8  37  1   
 21   9  12  1   
 22   9  38  1   
 23  10  13  2   
 24  10  14  1   
 25  11  39  1   
 26  12  15  1   
 27  12  40  1   
 28  12  41  1   
 29  13  16  1   
 30  14  17  2   
 31  14  18  am  
 32  15  19  2   
 33  15  20  1   
 34  16  21  ar  
 35  16  22  ar  
 36  18  21  1   
 37  18  42  1   
 38  19  23  1   
 39  20  24  2   
 40  20  43  1   
 41  21  25  ar  
 42  22  26  ar  
 43  22  44  1   
 44  23  24  1   
 45  23  45  1   
 46  24  27  1   
 47  25  28  ar  
 48  25  46  1   
 49  26  28  ar  
 50  26  47  1   
 51  27  48  1   
 52  27  49  1   
 53  27  50  1   
 54  28  51  1   
@<TRIPOS>SUBSTRUCTURE
  1 ****   2 GROUP 4 **** **** 0

# MOE 2024.06 (io_trps.svl 2023.06)
