@<TRIPOS>MOLECULE
NONAME
49 52 1 0 0 
SMALL
USER_CHARGES


@<TRIPOS>ATOM
  1 S        0.2420     0.7160    -1.0040 S.3   1 <1>  -0.0800 
  2 C        1.8220    -0.0330    -1.0770 C.2   1 <1>  -0.1400 
  3 C        0.5000     1.1670     0.6710 C.2   1 <1>  -0.1100 
  4 C        2.4730     0.0800     0.0900 C.2   1 <1>  -0.1810 
  5 C        2.2850    -0.7210    -2.3450 C.3   1 <1>   0.0200 
  6 C        1.7220     0.7840     1.0940 C.2   1 <1>  -0.1810 
  7 C        3.8610    -0.5220     0.2800 C.3   1 <1>   0.0210 
  8 C        3.5360    -1.5630    -2.0370 C.3   1 <1>  -0.1600 
  9 C        2.3000     1.1050     2.4590 C.3   1 <1>   0.3900 
 10 C        4.5100    -0.8420    -1.0820 C.3   1 <1>  -0.1600 
 11 N        3.2500     2.2510     2.3660 N.pl3 1 <1>  -0.8690 
 12 C        3.6100     3.0970     1.3880 C.ar  1 <1>   0.7710 
 13 N        4.4480     4.0470     1.7500 N.ar  1 <1>  -0.6200 
 14 N        3.1500     2.9810     0.1290 N.ar  1 <1>  -0.1790 
 15 C        4.8470     4.9110     0.8320 C.ar  1 <1>   0.4100 
 16 C        3.5090     3.8550    -0.8370 C.ar  1 <1>   0.2110 
 17 N        5.7350     5.8670     1.2090 N.pl3 1 <1>  -0.8380 
 18 C        4.3660     4.8440    -0.4930 C.ar  1 <1>  -0.1500 
 19 C        6.7650     6.4770     0.3040 C.3   1 <1>   0.2090 
 20 C        5.8370     6.3640     2.6160 C.3   1 <1>   0.2090 
 21 C        6.6260     8.0080     0.2950 C.3   1 <1>   0.2000 
 22 C        5.6870     7.8910     2.6330 C.3   1 <1>  -0.1600 
 23 O        7.6430     8.5640    -0.4620 O.3   1 <1>  -0.6800 
 24 C        6.7010     8.5910     1.7100 C.3   1 <1>  -0.1600 
 25 H       -0.3030     1.6950     1.1600 H     1 <1>   0.1500 
 26 H        2.5110     0.0220    -3.0890 H     1 <1>   0.0800 
 27 H        1.5040    -1.3570    -2.7270 H     1 <1>   0.0800 
 28 H        3.7660    -1.4300     0.8510 H     1 <1>   0.0800 
 29 H        4.5020     0.1480     0.8250 H     1 <1>   0.0800 
 30 H        4.0370    -1.8100    -2.9570 H     1 <1>   0.0800 
 31 H        3.2260    -2.4860    -1.5780 H     1 <1>   0.0800 
 32 H        2.8050     0.2400     2.8560 H     1 <1>   0.0800 
 33 H        1.5030     1.3640     3.1370 H     1 <1>   0.0800 
 34 H        5.3790    -1.4570    -0.9240 H     1 <1>   0.0800 
 35 H        4.8380     0.0730    -1.5440 H     1 <1>   0.0800 
 36 H        3.6950     2.4730     3.2620 H     1 <1>   0.4000 
 37 H        2.5320     2.1790    -0.0430 H     1 <1>   0.4570 
 38 H        3.1040     3.7380    -1.8300 H     1 <1>   0.1500 
 39 H        4.6750     5.5840    -1.2050 H     1 <1>   0.1500 
 40 H        6.6800     6.1000    -0.6980 H     1 <1>   0.0800 
 41 H        7.7400     6.2130     0.6760 H     1 <1>   0.0800 
 42 H        6.7940     6.0810     3.0230 H     1 <1>   0.0800 
 43 H        5.0710     5.9300     3.2360 H     1 <1>   0.0800 
 44 H        5.6940     8.2760    -0.1720 H     1 <1>   0.0800 
 45 H        5.8140     8.2470     3.6400 H     1 <1>   0.0800 
 46 H        4.6860     8.1400     2.3250 H     1 <1>   0.0800 
 47 H        8.4830     8.5550     0.0340 H     1 <1>   0.4000 
 48 H        6.4880     9.6460     1.6780 H     1 <1>   0.0800 
 49 H        7.6880     8.4480     2.1120 H     1 <1>   0.0800 
@<TRIPOS>BOND
  1   1   2  1   
  2   1   3  1   
  3   2   4  2   
  4   2   5  1   
  5   3   6  2   
  6   3  25  1   
  7   4   6  1   
  8   4   7  1   
  9   5   8  1   
 10   5  26  1   
 11   5  27  1   
 12   6   9  1   
 13   7  10  1   
 14   7  28  1   
 15   7  29  1   
 16   8  10  1   
 17   8  30  1   
 18   8  31  1   
 19   9  11  1   
 20   9  32  1   
 21   9  33  1   
 22  10  34  1   
 23  10  35  1   
 24  11  12  1   
 25  11  36  1   
 26  12  13  ar  
 27  12  14  ar  
 28  13  15  ar  
 29  14  16  ar  
 30  14  37  1   
 31  15  17  1   
 32  15  18  ar  
 33  16  18  ar  
 34  16  38  1   
 35  17  19  1   
 36  17  20  1   
 37  18  39  1   
 38  19  21  1   
 39  19  40  1   
 40  19  41  1   
 41  20  22  1   
 42  20  42  1   
 43  20  43  1   
 44  21  23  1   
 45  21  24  1   
 46  21  44  1   
 47  22  24  1   
 48  22  45  1   
 49  22  46  1   
 50  23  47  1   
 51  24  48  1   
 52  24  49  1   
@<TRIPOS>SUBSTRUCTURE
  1 ****  14 GROUP 4 **** **** 0

# MOE 2024.06 (io_trps.svl 2023.06)
