@<TRIPOS>MOLECULE
NONAME
54 57 1 0 0 
SMALL
USER_CHARGES


@<TRIPOS>ATOM
  1 O        3.6210     3.6210     1.1110 O.3   1 <1>  -0.0190 
  2 N        4.1360     2.9540     2.0980 N.2   1 <1>  -0.4100 
  3 C        2.9030     2.8630     0.3280 C.2   1 <1>  -0.0400 
  4 C        3.7570     1.7360     1.9400 C.2   1 <1>   0.1080 
  5 C        2.9540     1.6120     0.8090 C.2   1 <1>  -0.1500 
  6 C        2.2110     3.4720    -0.8750 C.3   1 <1>   0.0200 
  7 C        4.1360     0.6000     2.8640 C.3   1 <1>  -0.0590 
  8 C        0.9720     4.3030    -0.4720 C.3   1 <1>  -0.0800 
  9 C        0.4520     5.1380    -1.6410 C.3   1 <1>   0.2000 
 10 C        1.2790     5.3890     0.5610 C.3   1 <1>   0.3430 
 11 O       -0.8600     5.4900    -1.3550 O.3   1 <1>  -0.6800 
 12 C        1.3040     6.4180    -1.6000 C.3   1 <1>   0.3430 
 13 N        1.8910     6.4910    -0.2220 N.4   1 <1>  -0.9590 
 14 C        1.7450     7.8250     0.4110 C.3   1 <1>   0.5240 
 15 C        2.4740     8.8800    -0.4040 C.2   1 <1>  -0.1810 
 16 C        3.7260     8.7470    -1.0200 C.2   1 <1>   0.2350 
 17 C        2.0670    10.1340    -0.6930 C.2   1 <1>  -0.3020 
 18 N        4.0510     9.8430    -1.6510 N.2   1 <1>  -0.7070 
 19 C        4.5220     7.5390    -1.0230 C.ar  1 <1>   0.0540 
 20 N        3.0380    10.6960    -1.4390 N.pl3 1 <1>   0.3000 
 21 C        5.0600     6.9690     0.1370 C.ar  1 <1>  -0.1430 
 22 C        4.6870     6.8610    -2.2280 C.ar  1 <1>  -0.1500 
 23 C        5.6690     5.7290     0.0750 C.ar  1 <1>  -0.1500 
 24 C        5.0230     7.6750     1.4870 C.3   1 <1>  -0.0970 
 25 C        5.3000     5.6230    -2.2890 C.ar  1 <1>  -0.1430 
 26 C        5.7820     5.0530    -1.1250 C.ar  1 <1>  -0.1500 
 27 C        5.4690     4.8980    -3.6120 C.3   1 <1>  -0.0970 
 28 H        2.5040     0.7060     0.4460 H     1 <1>   0.1500 
 29 H        2.9290     4.0720    -1.4060 H     1 <1>   0.0800 
 30 H        1.9030     2.6780    -1.5340 H     1 <1>   0.0800 
 31 H        3.2510     0.1480     3.2730 H     1 <1>   0.0800 
 32 H        4.7430     0.9680     3.6710 H     1 <1>   0.0800 
 33 H        4.6940    -0.1420     2.3220 H     1 <1>   0.0800 
 34 H        0.2190     3.6330    -0.0930 H     1 <1>   0.0800 
 35 H        0.4800     4.6440    -2.5980 H     1 <1>   0.0800 
 36 H        1.9240     5.0480     1.3530 H     1 <1>   0.0800 
 37 H        0.3490     5.7260     0.9890 H     1 <1>   0.0800 
 38 H       -1.4810     4.7560    -1.5490 H     1 <1>   0.4000 
 39 H        0.6900     7.2760    -1.8200 H     1 <1>   0.0800 
 40 H        2.0980     6.3560    -2.3250 H     1 <1>   0.0800 
 41 H        2.9070     6.3080    -0.2980 H     1 <1>   0.4500 
 42 H        0.7020     8.0850     0.4840 H     1 <1>   0.0800 
 43 H        2.1590     7.8020     1.4050 H     1 <1>   0.0800 
 44 H        1.1680    10.6620    -0.4230 H     1 <1>   0.1500 
 45 H        3.0400    11.6530    -1.8200 H     1 <1>   0.2700 
 46 H        4.3260     7.3270    -3.1290 H     1 <1>   0.1500 
 47 H        6.0720     5.2740     0.9670 H     1 <1>   0.1500 
 48 H        5.9570     7.5240     1.9990 H     1 <1>   0.0800 
 49 H        4.2360     7.2760     2.1000 H     1 <1>   0.0800 
 50 H        4.8870     8.7360     1.3730 H     1 <1>   0.0800 
 51 H        6.2640     4.0900    -1.1470 H     1 <1>   0.1500 
 52 H        5.2140     3.8590    -3.5050 H     1 <1>   0.0800 
 53 H        6.4930     4.9690    -3.9330 H     1 <1>   0.0800 
 54 H        4.8430     5.3300    -4.3730 H     1 <1>   0.0800 
@<TRIPOS>BOND
  1   1   2  1   
  2   1   3  1   
  3   2   4  2   
  4   3   5  2   
  5   3   6  1   
  6   4   5  1   
  7   4   7  1   
  8   5  28  1   
  9   6   8  1   
 10   6  29  1   
 11   6  30  1   
 12   7  31  1   
 13   7  32  1   
 14   7  33  1   
 15   8   9  1   
 16   8  10  1   
 17   8  34  1   
 18   9  11  1   
 19   9  12  1   
 20   9  35  1   
 21  10  13  1   
 22  10  36  1   
 23  10  37  1   
 24  11  38  1   
 25  12  13  1   
 26  12  39  1   
 27  12  40  1   
 28  13  14  1   
 29  13  41  1   
 30  14  15  1   
 31  14  42  1   
 32  14  43  1   
 33  15  16  1   
 34  15  17  2   
 35  16  18  2   
 36  16  19  1   
 37  17  20  1   
 38  17  44  1   
 39  18  20  1   
 40  19  21  ar  
 41  19  22  ar  
 42  20  45  1   
 43  21  23  ar  
 44  21  24  1   
 45  22  25  ar  
 46  22  46  1   
 47  23  26  ar  
 48  23  47  1   
 49  24  48  1   
 50  24  49  1   
 51  24  50  1   
 52  25  26  ar  
 53  25  27  1   
 54  26  51  1   
 55  27  52  1   
 56  27  53  1   
 57  27  54  1   
@<TRIPOS>SUBSTRUCTURE
  1 ****  13 GROUP 4 **** **** 0

# MOE 2024.06 (io_trps.svl 2023.06)
