@<TRIPOS>MOLECULE
NONAME
46 47 1 0 0 
SMALL
USER_CHARGES


@<TRIPOS>ATOM
  1 F        0.9550     2.3660    -1.3960 F     1 <1>  -0.1900 
  2 C        2.2550     2.3890    -1.1900 C.ar  1 <1>   0.1900 
  3 C        2.8630     1.6210    -0.1980 C.ar  1 <1>   0.4100 
  4 C        3.0230     3.2180    -1.9560 C.ar  1 <1>   0.1600 
  5 N        4.1700     1.7080    -0.0320 N.ar  1 <1>  -0.6200 
  6 N        2.1790     0.7640     0.6630 N.pl3 1 <1>  -0.8380 
  7 N        4.3290     3.3140    -1.7780 N.ar  1 <1>  -0.6200 
  8 C        4.8420     2.5020    -0.8520 C.ar  1 <1>   0.7200 
  9 C        1.0680    -0.0960     0.1650 C.3   1 <1>   0.1290 
 10 C        2.7930     0.2940     1.9390 C.3   1 <1>   0.1290 
 11 N        6.2100     2.5760    -0.6540 N.pl3 1 <1>  -0.8380 
 12 C        7.0570     3.6530    -1.2740 C.3   1 <1>   0.2090 
 13 C        6.9530     1.3640    -0.2010 C.3   1 <1>   0.2090 
 14 C        7.0110     4.9800    -0.4770 C.3   1 <1>   0.3430 
 15 C        7.4630     1.5950     1.2170 C.3   1 <1>  -0.2400 
 16 N        5.6250     5.3130    -0.0220 N.4   1 <1>  -0.9590 
 17 C        5.2610     6.7610    -0.1220 C.3   1 <1>   0.3430 
 18 C        5.3390     4.7780     1.3540 C.3   1 <1>   0.3430 
 19 C        3.8200     6.9980     0.3730 C.3   1 <1>   0.1200 
 20 C        3.8940     5.1010     1.7770 C.3   1 <1>   0.1200 
 21 O        3.6510     6.4760     1.6610 O.3   1 <1>  -0.5600 
 22 H        2.5580     3.8160    -2.7210 H     1 <1>   0.1500 
 23 H        1.0680    -0.1320    -0.9100 H     1 <1>   0.0800 
 24 H        0.1260     0.2990     0.5040 H     1 <1>   0.0800 
 25 H        1.1790    -1.1010     0.5340 H     1 <1>   0.0800 
 26 H        3.4160     1.0640     2.3600 H     1 <1>   0.0800 
 27 H        3.3940    -0.5790     1.7530 H     1 <1>   0.0800 
 28 H        2.0230     0.0520     2.6500 H     1 <1>   0.0800 
 29 H        6.7310     3.8340    -2.2840 H     1 <1>   0.0800 
 30 H        8.0810     3.3260    -1.3370 H     1 <1>   0.0800 
 31 H        7.7780     1.1670    -0.8660 H     1 <1>   0.0800 
 32 H        6.3170     0.4930    -0.2190 H     1 <1>   0.0800 
 33 H        7.3900     5.7660    -1.1080 H     1 <1>   0.0800 
 34 H        7.6630     4.9010     0.3770 H     1 <1>   0.0800 
 35 H        8.1290     2.4370     1.2530 H     1 <1>   0.0800 
 36 H        7.9990     0.7240     1.5480 H     1 <1>   0.0800 
 37 H        6.6340     1.7520     1.8830 H     1 <1>   0.0800 
 38 H        5.0070     4.7740    -0.6590 H     1 <1>   0.4500 
 39 H        5.3450     7.0930    -1.1440 H     1 <1>   0.0800 
 40 H        5.9320     7.3500     0.4800 H     1 <1>   0.0800 
 41 H        6.0130     5.2190     2.0690 H     1 <1>   0.0800 
 42 H        5.4810     3.7100     1.3750 H     1 <1>   0.0800 
 43 H        3.1040     6.5350    -0.2830 H     1 <1>   0.0800 
 44 H        3.6120     8.0530     0.4190 H     1 <1>   0.0800 
 45 H        3.7380     4.8240     2.8050 H     1 <1>   0.0800 
 46 H        3.1860     4.5660     1.1680 H     1 <1>   0.0800 
@<TRIPOS>BOND
  1   1   2  1   
  2   2   3  ar  
  3   2   4  ar  
  4   3   5  ar  
  5   3   6  1   
  6   4   7  ar  
  7   4  22  1   
  8   5   8  ar  
  9   6   9  1   
 10   6  10  1   
 11   7   8  ar  
 12   8  11  1   
 13   9  23  1   
 14   9  24  1   
 15   9  25  1   
 16  10  26  1   
 17  10  27  1   
 18  10  28  1   
 19  11  12  1   
 20  11  13  1   
 21  12  14  1   
 22  12  29  1   
 23  12  30  1   
 24  13  15  1   
 25  13  31  1   
 26  13  32  1   
 27  14  16  1   
 28  14  33  1   
 29  14  34  1   
 30  15  35  1   
 31  15  36  1   
 32  15  37  1   
 33  16  17  1   
 34  16  18  1   
 35  16  38  1   
 36  17  19  1   
 37  17  39  1   
 38  17  40  1   
 39  18  20  1   
 40  18  41  1   
 41  18  42  1   
 42  19  21  1   
 43  19  43  1   
 44  19  44  1   
 45  20  21  1   
 46  20  45  1   
 47  20  46  1   
@<TRIPOS>SUBSTRUCTURE
  1 ****   8 GROUP 4 **** **** 0

# MOE 2024.06 (io_trps.svl 2023.06)
