@<TRIPOS>MOLECULE
NONAME
45 47 1 0 0 
SMALL
USER_CHARGES


@<TRIPOS>ATOM
  1 S       -0.3740     0.7770    -1.6130 S.o2  1 <1>   1.5010 
  2 O       -1.1230     2.0000    -1.8140 O.2   1 <1>  -0.6500 
  3 O        0.2990     0.1690    -2.7390 O.2   1 <1>  -0.6500 
  4 N       -1.4240    -0.3580    -0.9110 N.am  1 <1>  -0.8490 
  5 C        0.8580     1.0800    -0.3340 C.2   1 <1>  -0.0630 
  6 C       -0.8100    -1.6710    -0.6250 C.3   1 <1>   0.1960 
  7 C       -2.2430     0.1740     0.1720 C.3   1 <1>   0.1960 
  8 C        2.0120     0.4490    -0.0520 C.2   1 <1>  -0.0400 
  9 C        0.8310     2.0580     0.6440 C.2   1 <1>   0.1080 
 10 C       -1.8120    -2.7480    -0.1480 C.3   1 <1>  -0.1060 
 11 C       -3.3330    -0.8200     0.5490 C.3   1 <1>  -0.1600 
 12 O        2.6140     0.9650     0.9970 O.3   1 <1>  -0.0190 
 13 C        2.7080    -0.7080    -0.7450 C.3   1 <1>  -0.0600 
 14 N        1.8570     1.9560     1.4030 N.2   1 <1>  -0.4100 
 15 C       -0.2090     3.1470     0.8330 C.3   1 <1>  -0.0590 
 16 C       -2.6330    -3.2250    -1.3540 C.2   1 <1>   0.9060 
 17 C       -2.6960    -2.1390     0.9680 C.3   1 <1>   0.2000 
 18 C       -1.0540    -4.0010     0.3750 C.3   1 <1>  -0.0650 
 19 O       -3.8540    -3.4210    -1.2390 O.co2 1 <1>  -0.9000 
 20 O       -2.0350    -3.5210    -2.3950 O.co2 1 <1>  -0.9000 
 21 O       -3.7120    -3.0030     1.3110 O.3   1 <1>  -0.6800 
 22 C       -0.0850    -3.7760     1.5490 C.3   1 <1>  -0.1950 
 23 C        1.3620    -3.4780     1.3150 C.3   1 <1>  -0.2000 
 24 C        0.9470    -4.8130     1.8590 C.3   1 <1>  -0.2000 
 25 H       -0.3090    -2.0300    -1.5100 H     1 <1>   0.0800 
 26 H       -0.0660    -1.5300     0.1370 H     1 <1>   0.0800 
 27 H       -1.6270     0.3790     1.0310 H     1 <1>   0.0800 
 28 H       -2.7160     1.0880    -0.1450 H     1 <1>   0.0800 
 29 H       -3.9850    -0.9650    -0.2960 H     1 <1>   0.0800 
 30 H       -3.9100    -0.4250     1.3640 H     1 <1>   0.0800 
 31 H        2.0740    -1.1700    -1.4790 H     1 <1>   0.0800 
 32 H        2.9960    -1.4470    -0.0210 H     1 <1>   0.0800 
 33 H        3.5950    -0.3510    -1.2360 H     1 <1>   0.0800 
 34 H       -1.1860     2.7240     0.9650 H     1 <1>   0.0800 
 35 H       -0.2190     3.7940    -0.0250 H     1 <1>   0.0800 
 36 H        0.0300     3.7350     1.7010 H     1 <1>   0.0800 
 37 H       -2.1160    -1.9660     1.8560 H     1 <1>   0.0800 
 38 H       -1.7820    -4.7340     0.6780 H     1 <1>   0.0800 
 39 H       -0.5100    -4.4390    -0.4460 H     1 <1>   0.0800 
 40 H       -4.0820    -3.3180     0.4310 H     1 <1>   0.4000 
 41 H       -0.5660    -3.3540     2.4140 H     1 <1>   0.1000 
 42 H        1.7360    -3.4470     0.3070 H     1 <1>   0.1000 
 43 H        1.8560    -2.7790     1.9680 H     1 <1>   0.1000 
 44 H        1.1520    -5.0420     2.8900 H     1 <1>   0.1000 
 45 H        1.0190    -5.6780     1.2220 H     1 <1>   0.1000 
@<TRIPOS>BOND
  1   1   2  2   
  2   1   3  2   
  3   1   4  am  
  4   1   5  1   
  5   4   6  1   
  6   4   7  1   
  7   5   8  2   
  8   5   9  1   
  9   6  10  1   
 10   6  25  1   
 11   6  26  1   
 12   7  11  1   
 13   7  27  1   
 14   7  28  1   
 15   8  12  1   
 16   8  13  1   
 17   9  14  2   
 18   9  15  1   
 19  10  16  1   
 20  10  17  1   
 21  10  18  1   
 22  11  17  1   
 23  11  29  1   
 24  11  30  1   
 25  12  14  1   
 26  13  31  1   
 27  13  32  1   
 28  13  33  1   
 29  15  34  1   
 30  15  35  1   
 31  15  36  1   
 32  16  19  ar  
 33  16  20  ar  
 34  17  21  1   
 35  17  37  1   
 36  18  22  1   
 37  18  38  1   
 38  18  39  1   
 39  21  40  1   
 40  22  23  1   
 41  22  24  1   
 42  22  41  1   
 43  23  24  1   
 44  23  42  1   
 45  23  43  1   
 46  24  44  1   
 47  24  45  1   
@<TRIPOS>SUBSTRUCTURE
  1 ****   6 GROUP 4 **** **** 0

# MOE 2024.06 (io_trps.svl 2023.06)
