@<TRIPOS>MOLECULE
NONAME
44 46 1 0 0 
SMALL
USER_CHARGES


@<TRIPOS>ATOM
  1 O       -1.2470     0.5590    -2.6560 O.2   1 <1>  -0.5700 
  2 C       -2.2460     0.5010    -1.9800 C.2   1 <1>   0.5690 
  3 N       -2.5700     1.3320    -0.9630 N.am  1 <1>  -0.6600 
  4 C       -3.3070    -0.5450    -2.1770 C.3   1 <1>  -0.0990 
  5 C       -1.7460     2.4910    -0.5320 C.3   1 <1>   0.2200 
  6 C       -3.8710     0.9760    -0.3610 C.3   1 <1>   0.1400 
  7 C       -4.1420    -0.4380    -0.8880 C.3   1 <1>  -0.0800 
  8 C       -1.3600     2.3730     0.9420 C.3   1 <1>  -0.1600 
  9 C       -2.5330     3.7960    -0.6200 C.3   1 <1>  -0.1600 
 10 C       -3.6870    -1.4700     0.1590 C.3   1 <1>   0.2090 
 11 C       -2.3850     3.1820     1.7490 C.3   1 <1>  -0.1600 
 12 C       -3.2110     3.9880     0.7400 C.3   1 <1>  -0.1600 
 13 N       -4.0810    -2.8530    -0.2510 N.pl3 1 <1>  -0.8380 
 14 C       -5.4430    -3.1540    -0.2890 C.ar  1 <1>   0.4100 
 15 C       -3.1920    -3.9040     0.3050 C.3   1 <1>   0.1290 
 16 N       -6.2310    -2.4620     0.5140 N.ar  1 <1>  -0.6200 
 17 C       -5.9420    -4.1400    -1.1500 C.ar  1 <1>   0.1600 
 18 C       -7.5420    -2.7610     0.4100 C.ar  1 <1>   0.1310 
 19 N       -7.2080    -4.4890    -1.2630 N.ar  1 <1>  -0.6200 
 20 C       -8.5740    -2.0550     1.1810 C.2   1 <1>   0.9790 
 21 C       -7.9790    -3.7660    -0.4580 C.ar  1 <1>   0.1600 
 22 O       -8.3790    -0.9440     1.7150 O.co2 1 <1>  -0.9000 
 23 O       -9.7160    -2.5490     1.2930 O.co2 1 <1>  -0.9000 
 24 H       -2.8740    -1.5190    -2.3160 H     1 <1>   0.0800 
 25 H       -3.8980    -0.2840    -3.0350 H     1 <1>   0.0800 
 26 H       -0.8650     2.5410    -1.1510 H     1 <1>   0.0800 
 27 H       -4.6260     1.6570    -0.7130 H     1 <1>   0.0800 
 28 H       -3.8350     1.0020     0.7140 H     1 <1>   0.0800 
 29 H       -5.1940    -0.5530    -1.0780 H     1 <1>   0.0800 
 30 H       -0.3910     2.8240     1.0700 H     1 <1>   0.0800 
 31 H       -1.3000     1.3470     1.2600 H     1 <1>   0.0800 
 32 H       -3.2310     3.7960    -1.4380 H     1 <1>   0.0800 
 33 H       -1.8330     4.5980    -0.7690 H     1 <1>   0.0800 
 34 H       -4.1320    -1.2430     1.1150 H     1 <1>   0.0800 
 35 H       -2.6180    -1.4130     0.2750 H     1 <1>   0.0800 
 36 H       -1.8800     3.8390     2.4360 H     1 <1>   0.0800 
 37 H       -3.0270     2.5270     2.3120 H     1 <1>   0.0800 
 38 H       -4.2140     3.6020     0.7050 H     1 <1>   0.0800 
 39 H       -3.2550     5.0300     1.0080 H     1 <1>   0.0800 
 40 H       -2.2120    -3.8190    -0.1310 H     1 <1>   0.0800 
 41 H       -3.5840    -4.8830     0.0900 H     1 <1>   0.0800 
 42 H       -3.1190    -3.7890     1.3730 H     1 <1>   0.0800 
 43 H       -5.2310    -4.6470    -1.7720 H     1 <1>   0.1500 
 44 H       -9.0360    -3.9770    -0.4890 H     1 <1>   0.1500 
@<TRIPOS>BOND
  1   1   2  2   
  2   2   3  am  
  3   2   4  1   
  4   3   5  1   
  5   3   6  1   
  6   4   7  1   
  7   4  24  1   
  8   4  25  1   
  9   5   8  1   
 10   5   9  1   
 11   5  26  1   
 12   6   7  1   
 13   6  27  1   
 14   6  28  1   
 15   7  10  1   
 16   7  29  1   
 17   8  11  1   
 18   8  30  1   
 19   8  31  1   
 20   9  12  1   
 21   9  32  1   
 22   9  33  1   
 23  10  13  1   
 24  10  34  1   
 25  10  35  1   
 26  11  12  1   
 27  11  36  1   
 28  11  37  1   
 29  12  38  1   
 30  12  39  1   
 31  13  14  1   
 32  13  15  1   
 33  14  16  ar  
 34  14  17  ar  
 35  15  40  1   
 36  15  41  1   
 37  15  42  1   
 38  16  18  ar  
 39  17  19  ar  
 40  17  43  1   
 41  18  20  1   
 42  18  21  ar  
 43  19  21  ar  
 44  20  22  ar  
 45  20  23  ar  
 46  21  44  1   
@<TRIPOS>SUBSTRUCTURE
  1 ****   7 GROUP 4 **** **** 0

# MOE 2024.06 (io_trps.svl 2023.06)
