@<TRIPOS>MOLECULE
NONAME
42 44 1 0 0 
SMALL
USER_CHARGES


@<TRIPOS>ATOM
  1 O        1.5350    -1.0830     2.0920 O.2   1 <1>  -0.5700 
  2 C        1.3790    -1.7420     1.0820 C.2   1 <1>   0.5440 
  3 N        2.4270    -2.2640     0.3890 N.am  1 <1>  -0.6600 
  4 C        0.1550    -1.9860     0.3790 C.ar  1 <1>   0.0860 
  5 C        3.8540    -1.9340     0.6910 C.3   1 <1>   0.2810 
  6 C        1.9640    -2.7810    -0.9300 C.3   1 <1>   0.2840 
  7 C        0.4590    -2.5980    -0.8240 C.ar  1 <1>  -0.1440 
  8 C       -1.1680    -1.7110     0.6980 C.ar  1 <1>  -0.1500 
  9 C        4.1990    -0.5080     0.2160 C.2   1 <1>   0.5690 
 10 C        4.8120    -3.0250     0.1640 C.3   1 <1>  -0.1600 
 11 C       -0.5330    -2.9470    -1.7210 C.ar  1 <1>  -0.1500 
 12 C       -2.1690    -2.0580    -0.1940 C.ar  1 <1>  -0.1500 
 13 O        4.9990    -0.3390    -0.6750 O.2   1 <1>  -0.5700 
 14 N        3.5580     0.5290     0.8260 N.am  1 <1>  -0.4930 
 15 C        4.5820    -4.4030     0.8070 C.3   1 <1>  -0.2400 
 16 C       -1.8530    -2.6730    -1.3980 C.ar  1 <1>  -0.1500 
 17 C        3.6220     1.9210     0.6440 C.2   1 <1>   0.3520 
 18 N        2.8130     2.6770     1.2760 N.2   1 <1>  -0.4100 
 19 C        4.4580     2.7350    -0.1410 C.2   1 <1>   0.3520 
 20 O        3.1360     3.8750     0.8970 O.3   1 <1>   0.2420 
 21 N        4.1160     3.9510     0.0490 N.2   1 <1>  -0.4100 
 22 N        5.4960     2.3280    -1.0000 N.am  1 <1>  -0.4930 
 23 C        6.4090     3.0100    -1.7330 C.2   1 <1>   0.5690 
 24 O        7.2010     2.4060    -2.4100 O.2   1 <1>  -0.5700 
 25 C        6.4790     4.5200    -1.7320 C.3   1 <1>  -0.1790 
 26 H        3.9590    -1.9240     1.7620 H     1 <1>   0.0800 
 27 H        2.2210    -3.8190    -1.0480 H     1 <1>   0.0800 
 28 H        2.3730    -2.1930    -1.7350 H     1 <1>   0.0800 
 29 H       -1.3980    -1.2320     1.6340 H     1 <1>   0.1500 
 30 H        5.8210    -2.7200     0.3840 H     1 <1>   0.0800 
 31 H        4.7370    -3.0950    -0.9070 H     1 <1>   0.0800 
 32 H       -0.2910    -3.4240    -2.6560 H     1 <1>   0.1500 
 33 H       -3.1980    -1.8490     0.0460 H     1 <1>   0.1500 
 34 H        2.8220     0.2470     1.4910 H     1 <1>   0.3700 
 35 H        4.7040    -4.3430     1.8740 H     1 <1>   0.0800 
 36 H        5.2960    -5.1110     0.4230 H     1 <1>   0.0800 
 37 H        3.5940    -4.7720     0.5980 H     1 <1>   0.0800 
 38 H       -2.6390    -2.9380    -2.0850 H     1 <1>   0.1500 
 39 H        5.5800     1.3080    -1.1060 H     1 <1>   0.3700 
 40 H        6.6340     4.8780    -0.7320 H     1 <1>   0.0800 
 41 H        5.5660     4.9270    -2.1240 H     1 <1>   0.0800 
 42 H        7.2970     4.8470    -2.3480 H     1 <1>   0.0800 
@<TRIPOS>BOND
  1   1   2  2   
  2   2   3  am  
  3   2   4  1   
  4   3   5  1   
  5   3   6  1   
  6   4   7  ar  
  7   4   8  ar  
  8   5   9  1   
  9   5  10  1   
 10   5  26  1   
 11   6   7  1   
 12   6  27  1   
 13   6  28  1   
 14   7  11  ar  
 15   8  12  ar  
 16   8  29  1   
 17   9  13  2   
 18   9  14  am  
 19  10  15  1   
 20  10  30  1   
 21  10  31  1   
 22  11  16  ar  
 23  11  32  1   
 24  12  16  ar  
 25  12  33  1   
 26  14  17  1   
 27  14  34  1   
 28  15  35  1   
 29  15  36  1   
 30  15  37  1   
 31  16  38  1   
 32  17  18  2   
 33  17  19  1   
 34  18  20  1   
 35  19  21  2   
 36  19  22  1   
 37  20  21  1   
 38  22  23  am  
 39  22  39  1   
 40  23  24  2   
 41  23  25  1   
 42  25  40  1   
 43  25  41  1   
 44  25  42  1   
@<TRIPOS>SUBSTRUCTURE
  1 ****  14 GROUP 4 **** **** 0

# MOE 2024.06 (io_trps.svl 2023.06)
