@<TRIPOS>MOLECULE
NONAME
59 61 1 0 0 
SMALL
USER_CHARGES


@<TRIPOS>ATOM
  1 S        0.1950    -0.0910     0.6940 S.o2  1 <1>   1.0900 
  2 O       -0.8260     0.1210     1.6930 O.2   1 <1>  -0.6500 
  3 O        0.6000    -1.4060     0.2570 O.2   1 <1>  -0.6500 
  4 C        1.6540     0.8250     1.1610 C.3   1 <1>  -0.0550 
  5 C       -0.1720     0.9320    -0.7240 C.3   1 <1>  -0.0550 
  6 C        1.6100     2.1820     0.4390 C.3   1 <1>  -0.0800 
  7 C        1.0070     1.8940    -0.9480 C.3   1 <1>  -0.1600 
  8 C        2.9960     2.8510     0.3840 C.3   1 <1>  -0.1600 
  9 C        2.9310     4.2380    -0.2640 C.3   1 <1>   0.3430 
 10 N        4.2520     4.9340    -0.1650 N.4   1 <1>  -0.9590 
 11 C        4.0720     6.3880    -0.4310 C.3   1 <1>   0.3430 
 12 C        5.2690     4.3260    -1.0720 C.3   1 <1>   0.3430 
 13 C        5.3970     7.1260    -0.2440 C.3   1 <1>  -0.1600 
 14 C        6.6160     5.0290    -0.8980 C.3   1 <1>  -0.1600 
 15 C        6.5130     6.5450    -1.1250 C.3   1 <1>   0.4230 
 16 N        7.8180     7.2050    -0.8110 N.4   1 <1>  -0.9590 
 17 C        7.8440     8.7110    -0.9230 C.3   1 <1>   0.3430 
 18 C        9.0240     6.6700    -1.5470 C.3   1 <1>   0.3430 
 19 C        9.1510     9.2870    -0.3230 C.3   1 <1>   0.1100 
 20 C       10.3330     7.2770    -0.9840 C.3   1 <1>   0.1100 
 21 N       10.0730     8.2150     0.1350 N.3   1 <1>  -0.8100 
 22 C       11.3470     8.7650     0.6520 C.3   1 <1>   0.1100 
 23 C       11.1700     9.4460     2.0150 C.3   1 <1>   0.1200 
 24 O       12.4010     9.9070     2.4530 O.3   1 <1>  -0.6800 
 25 H        2.5200     0.2760     0.8410 H     1 <1>   0.0800 
 26 H        1.7040     0.9480     2.2270 H     1 <1>   0.0800 
 27 H       -1.0590     1.5030    -0.5200 H     1 <1>   0.0800 
 28 H       -0.3520     0.3320    -1.5970 H     1 <1>   0.0800 
 29 H        0.9260     2.8160     0.9830 H     1 <1>   0.0800 
 30 H        0.6720     2.7890    -1.4450 H     1 <1>   0.0800 
 31 H        1.7360     1.4010    -1.5700 H     1 <1>   0.0800 
 32 H        3.6660     2.2130    -0.1650 H     1 <1>   0.0800 
 33 H        3.3620     2.9470     1.3920 H     1 <1>   0.0800 
 34 H        2.1810     4.8190     0.2510 H     1 <1>   0.0800 
 35 H        2.6320     4.1500    -1.2970 H     1 <1>   0.0800 
 36 H        4.5670     4.8210     0.8110 H     1 <1>   0.4500 
 37 H        3.3360     6.7970     0.2450 H     1 <1>   0.0800 
 38 H        3.7130     6.5320    -1.4390 H     1 <1>   0.0800 
 39 H        4.9410     4.4130    -2.0960 H     1 <1>   0.0800 
 40 H        5.3850     3.2770    -0.8470 H     1 <1>   0.0800 
 41 H        5.6770     7.0820     0.7940 H     1 <1>   0.0800 
 42 H        5.2210     8.1540    -0.5020 H     1 <1>   0.0800 
 43 H        7.2900     4.5930    -1.6120 H     1 <1>   0.0800 
 44 H        6.9910     4.8220     0.0890 H     1 <1>   0.0800 
 45 H        6.2680     6.7250    -2.1610 H     1 <1>   0.0800 
 46 H        8.0790     7.0530     0.1780 H     1 <1>   0.4500 
 47 H        7.0150     9.1460    -0.3910 H     1 <1>   0.0800 
 48 H        7.7650     9.0090    -1.9560 H     1 <1>   0.0800 
 49 H        8.9510     6.8960    -2.5980 H     1 <1>   0.0800 
 50 H        9.0850     5.6000    -1.4430 H     1 <1>   0.0800 
 51 H        8.8930     9.9220     0.5070 H     1 <1>   0.0800 
 52 H        9.6370     9.9040    -1.0600 H     1 <1>   0.0800 
 53 H       10.8600     7.7850    -1.7760 H     1 <1>   0.0800 
 54 H       10.9660     6.4770    -0.6390 H     1 <1>   0.0800 
 55 H       11.7580     9.4720    -0.0510 H     1 <1>   0.0800 
 56 H       12.0520     7.9600     0.7760 H     1 <1>   0.0800 
 57 H       10.7870     8.7560     2.7480 H     1 <1>   0.0800 
 58 H       10.5210    10.2990     1.9410 H     1 <1>   0.0800 
 59 H       12.9750     9.1690     2.7380 H     1 <1>   0.4000 
@<TRIPOS>BOND
  1   1   2  2   
  2   1   3  2   
  3   1   4  1   
  4   1   5  1   
  5   4   6  1   
  6   4  25  1   
  7   4  26  1   
  8   5   7  1   
  9   5  27  1   
 10   5  28  1   
 11   6   7  1   
 12   6   8  1   
 13   6  29  1   
 14   7  30  1   
 15   7  31  1   
 16   8   9  1   
 17   8  32  1   
 18   8  33  1   
 19   9  10  1   
 20   9  34  1   
 21   9  35  1   
 22  10  11  1   
 23  10  12  1   
 24  10  36  1   
 25  11  13  1   
 26  11  37  1   
 27  11  38  1   
 28  12  14  1   
 29  12  39  1   
 30  12  40  1   
 31  13  15  1   
 32  13  41  1   
 33  13  42  1   
 34  14  15  1   
 35  14  43  1   
 36  14  44  1   
 37  15  16  1   
 38  15  45  1   
 39  16  17  1   
 40  16  18  1   
 41  16  46  1   
 42  17  19  1   
 43  17  47  1   
 44  17  48  1   
 45  18  20  1   
 46  18  49  1   
 47  18  50  1   
 48  19  21  1   
 49  19  51  1   
 50  19  52  1   
 51  20  21  1   
 52  20  53  1   
 53  20  54  1   
 54  21  22  1   
 55  22  23  1   
 56  22  55  1   
 57  22  56  1   
 58  23  24  1   
 59  23  57  1   
 60  23  58  1   
 61  24  59  1   
@<TRIPOS>SUBSTRUCTURE
  1 ****  10 GROUP 4 **** **** 0

# MOE 2024.06 (io_trps.svl 2023.06)
