@<TRIPOS>MOLECULE
NONAME
40 41 1 0 0 
SMALL
USER_CHARGES


@<TRIPOS>ATOM
  1 S        0.1370     0.2180     0.4130 S.o2  1 <1>   1.3330 
  2 O        0.3780    -0.4980     1.6470 O.2   1 <1>  -0.6500 
  3 O       -0.5230     1.5040     0.4550 O.2   1 <1>  -0.6500 
  4 N       -0.8120    -0.8050    -0.5580 N.am  1 <1>  -0.8490 
  5 C        1.6380     0.3690    -0.5590 C.3   1 <1>  -0.0550 
  6 C       -0.4890    -2.2260    -0.3920 C.3   1 <1>   0.1160 
  7 C       -2.2470    -0.5930    -0.3460 C.3   1 <1>   0.1160 
  8 C        2.7490     1.2330     0.0700 C.3   1 <1>  -0.0800 
  9 C        3.9160     1.3680    -0.9010 C.3   1 <1>   0.2200 
 10 C        3.4370     0.5290     1.2370 C.3   1 <1>   0.1200 
 11 N        4.6190     2.6290    -0.6330 N.am  1 <1>  -0.7300 
 12 C        4.8180     0.1830    -0.5350 C.3   1 <1>   0.1200 
 13 O        4.2880    -0.3890     0.6270 O.3   1 <1>  -0.5600 
 14 C        4.3520     3.8210    -1.2540 C.2   1 <1>   0.5440 
 15 O        3.9240     3.7440    -2.4070 O.2   1 <1>  -0.5700 
 16 C        4.5590     5.0730    -0.5420 C.ar  1 <1>   0.3960 
 17 N        4.5840     6.2360    -1.2390 N.ar  1 <1>  -0.6200 
 18 C        4.7350     5.0690     0.8850 C.ar  1 <1>  -0.1710 
 19 C        4.7720     7.3460    -0.5700 C.ar  1 <1>   0.1600 
 20 O        4.7170     4.0380     1.6110 O.3   1 <1>  -0.8290 
 21 C        4.9340     6.2830     1.5460 C.ar  1 <1>  -0.1500 
 22 C        4.9510     7.4270     0.8080 C.ar  1 <1>  -0.1500 
 23 H        2.0300    -0.6100    -0.7550 H     1 <1>   0.0800 
 24 H        1.3730     0.8040    -1.5030 H     1 <1>   0.0800 
 25 H       -1.0500    -2.8170    -1.0960 H     1 <1>   0.0800 
 26 H       -0.7270    -2.5530     0.6080 H     1 <1>   0.0800 
 27 H        0.5590    -2.3940    -0.5670 H     1 <1>   0.0800 
 28 H       -2.8200    -1.2490    -0.9790 H     1 <1>   0.0800 
 29 H       -2.5100     0.4230    -0.5920 H     1 <1>   0.0800 
 30 H       -2.5040    -0.7770     0.6840 H     1 <1>   0.0800 
 31 H        2.3530     2.1920     0.3610 H     1 <1>   0.0800 
 32 H        3.6140     1.3340    -1.9340 H     1 <1>   0.0800 
 33 H        2.7690     0.0150     1.9030 H     1 <1>   0.0800 
 34 H        4.0390     1.2270     1.7980 H     1 <1>   0.0800 
 35 H        4.8020     2.8240     0.3790 H     1 <1>   0.3700 
 36 H        5.8270     0.5010    -0.3360 H     1 <1>   0.0800 
 37 H        4.8100    -0.5660    -1.3060 H     1 <1>   0.0800 
 38 H        4.7880     8.2610    -1.1340 H     1 <1>   0.1500 
 39 H        5.0650     6.2660     2.6120 H     1 <1>   0.1500 
 40 H        5.1000     8.3810     1.2730 H     1 <1>   0.1500 
@<TRIPOS>BOND
  1   1   2  2   
  2   1   3  2   
  3   1   4  am  
  4   1   5  1   
  5   4   6  1   
  6   4   7  1   
  7   5   8  1   
  8   5  23  1   
  9   5  24  1   
 10   6  25  1   
 11   6  26  1   
 12   6  27  1   
 13   7  28  1   
 14   7  29  1   
 15   7  30  1   
 16   8   9  1   
 17   8  10  1   
 18   8  31  1   
 19   9  11  1   
 20   9  12  1   
 21   9  32  1   
 22  10  13  1   
 23  10  33  1   
 24  10  34  1   
 25  11  14  am  
 26  11  35  1   
 27  12  13  1   
 28  12  36  1   
 29  12  37  1   
 30  14  15  2   
 31  14  16  1   
 32  16  17  ar  
 33  16  18  ar  
 34  17  19  ar  
 35  18  20  1   
 36  18  21  ar  
 37  19  22  ar  
 38  19  38  1   
 39  21  22  ar  
 40  21  39  1   
 41  22  40  1   
@<TRIPOS>SUBSTRUCTURE
  1 ****   8 GROUP 4 **** **** 0

# MOE 2024.06 (io_trps.svl 2023.06)
