@<TRIPOS>MOLECULE
NONAME
46 48 1 0 0 
SMALL
USER_CHARGES


@<TRIPOS>ATOM
  1 F        0.5320     0.7110     2.0930 F     1 <1>  -0.1900 
  2 C        1.5060     1.0550     1.2850 C.ar  1 <1>   0.1900 
  3 C        1.7090     2.3970     1.0100 C.ar  1 <1>   0.1900 
  4 C        2.3090     0.0740     0.7220 C.ar  1 <1>  -0.1440 
  5 F        0.9350     3.3080     1.5460 F     1 <1>  -0.1900 
  6 C        2.7250     2.8040     0.1680 C.ar  1 <1>  -0.1500 
  7 C        3.3460     0.4810    -0.1210 C.ar  1 <1>   0.0830 
  8 C        2.0740    -1.4030     1.0250 C.3   1 <1>   0.2540 
  9 C        3.5450     1.8380    -0.3950 C.ar  1 <1>  -0.1500 
 10 O        4.1430    -0.4860    -0.6450 O.3   1 <1>  -0.3630 
 11 N        1.3040    -2.0660    -0.0510 N.3   1 <1>  -0.8100 
 12 C        5.1460    -0.2050    -1.5950 C.3   1 <1>   0.0400 
 13 C        1.2320    -3.5370     0.1450 C.3   1 <1>   0.3330 
 14 C       -0.0580    -1.5060    -0.1750 C.3   1 <1>   0.1100 
 15 C        2.6320    -4.1550     0.1730 C.ar  1 <1>  -0.1430 
 16 C        0.3630    -4.2020    -0.9600 C.3   1 <1>   0.2000 
 17 C       -0.8780    -2.2420    -1.2480 C.3   1 <1>   0.1200 
 18 C        3.5520    -3.8690    -0.8250 C.ar  1 <1>  -0.1500 
 19 C        2.9900    -5.0260     1.1930 C.ar  1 <1>  -0.1500 
 20 O       -0.9120    -3.6130    -0.9800 O.3   1 <1>  -0.5600 
 21 C        0.1620    -5.7150    -0.7640 C.3   1 <1>   0.1200 
 22 C        4.8070    -4.4520    -0.8130 C.ar  1 <1>  -0.1500 
 23 C        4.2450    -5.6110     1.2070 C.ar  1 <1>  -0.1500 
 24 O        1.3070    -6.4290    -1.1110 O.3   1 <1>  -0.6800 
 25 C        5.1530    -5.3260     0.2030 C.ar  1 <1>  -0.1500 
 26 H        2.8700     3.8490    -0.0360 H     1 <1>   0.1500 
 27 H        1.5600    -1.5190     1.9640 H     1 <1>   0.0800 
 28 H        3.0370    -1.8730     1.1320 H     1 <1>   0.0800 
 29 H        4.3360     2.1630    -1.0440 H     1 <1>   0.1500 
 30 H        5.5970    -1.1370    -1.8850 H     1 <1>   0.0800 
 31 H        5.8850     0.4330    -1.1450 H     1 <1>   0.0800 
 32 H        4.6940     0.2640    -2.4510 H     1 <1>   0.0800 
 33 H        0.7550    -3.7310     1.0900 H     1 <1>   0.0800 
 34 H       -0.5750    -1.5720     0.7680 H     1 <1>   0.0800 
 35 H        0.0010    -0.4690    -0.4530 H     1 <1>   0.0800 
 36 H        0.8110    -4.0390    -1.9250 H     1 <1>   0.0800 
 37 H       -0.4480    -2.0870    -2.2220 H     1 <1>   0.0800 
 38 H       -1.8910    -1.8820    -1.2540 H     1 <1>   0.0800 
 39 H        3.2890    -3.1800    -1.6100 H     1 <1>   0.1500 
 40 H        2.2950    -5.2590     1.9810 H     1 <1>   0.1500 
 41 H       -0.6320    -6.0630    -1.4000 H     1 <1>   0.0800 
 42 H       -0.0770    -5.9370     0.2610 H     1 <1>   0.0800 
 43 H        5.5120    -4.2240    -1.5920 H     1 <1>   0.1500 
 44 H        4.5160    -6.2870     1.9990 H     1 <1>   0.1500 
 45 H        2.1050    -6.0410    -0.6840 H     1 <1>   0.4000 
 46 H        6.1280    -5.7800     0.2120 H     1 <1>   0.1500 
@<TRIPOS>BOND
  1   1   2  1   
  2   2   3  ar  
  3   2   4  ar  
  4   3   5  1   
  5   3   6  ar  
  6   4   7  ar  
  7   4   8  1   
  8   6   9  ar  
  9   6  26  1   
 10   7   9  ar  
 11   7  10  1   
 12   8  11  1   
 13   8  27  1   
 14   8  28  1   
 15   9  29  1   
 16  10  12  1   
 17  11  13  1   
 18  11  14  1   
 19  12  30  1   
 20  12  31  1   
 21  12  32  1   
 22  13  15  1   
 23  13  16  1   
 24  13  33  1   
 25  14  17  1   
 26  14  34  1   
 27  14  35  1   
 28  15  18  ar  
 29  15  19  ar  
 30  16  20  1   
 31  16  21  1   
 32  16  36  1   
 33  17  20  1   
 34  17  37  1   
 35  17  38  1   
 36  18  22  ar  
 37  18  39  1   
 38  19  23  ar  
 39  19  40  1   
 40  21  24  1   
 41  21  41  1   
 42  21  42  1   
 43  22  25  ar  
 44  22  43  1   
 45  23  25  ar  
 46  23  44  1   
 47  24  45  1   
 48  25  46  1   
@<TRIPOS>SUBSTRUCTURE
  1 ****  11 GROUP 4 **** **** 0

# MOE 2024.06 (io_trps.svl 2023.06)
