@<TRIPOS>MOLECULE
NONAME
57 60 1 0 0 
SMALL
USER_CHARGES


@<TRIPOS>ATOM
  1 O       -0.0190     0.6580     2.0810 O.2   1 <1>  -0.5700 
  2 C       -0.9340     1.2880     1.5820 C.2   1 <1>   0.5440 
  3 N       -1.7760     0.6470     0.6910 N.am  1 <1>  -0.6600 
  4 C       -1.1130     2.6680     1.9820 C.ar  1 <1>   0.0860 
  5 C       -2.9830     1.3190     0.1210 C.3   1 <1>   0.2200 
  6 C       -1.5240    -0.7840     0.3380 C.3   1 <1>   0.0600 
  7 C       -0.8680     3.7370     1.1130 C.ar  1 <1>   0.0820 
  8 C       -1.5310     2.9720     3.2770 C.ar  1 <1>  -0.1500 
  9 C       -4.2840     0.5570     0.3580 C.3   1 <1>  -0.1600 
 10 C       -2.9190     1.5030    -1.3930 C.3   1 <1>  -0.1600 
 11 O       -0.4620     3.5010    -0.1500 O.3   1 <1>  -0.3620 
 12 C       -1.0580     5.0490     1.5220 C.ar  1 <1>  -0.1500 
 13 C       -1.7150     4.2790     3.6890 C.ar  1 <1>  -0.1500 
 14 C       -5.2500     1.1280    -0.6890 C.3   1 <1>  -0.0800 
 15 C       -4.3780     1.7240    -1.8100 C.3   1 <1>  -0.0800 
 16 C        0.8770     3.7970    -0.4900 C.3   1 <1>   0.1200 
 17 C       -1.4810     5.3220     2.8090 C.ar  1 <1>  -0.1500 
 18 C       -6.1150     2.2790    -0.1540 C.3   1 <1>  -0.1600 
 19 C       -4.7590     3.2080    -1.9140 C.3   1 <1>  -0.1600 
 20 C        1.7880     2.6440    -0.0620 C.3   1 <1>  -0.0170 
 21 C       -6.1390     3.2980    -1.2830 C.3   1 <1>   0.2000 
 22 C        3.2090     2.9130    -0.5300 C.ar  1 <1>  -0.1440 
 23 O       -6.3490     4.5610    -0.7770 O.3   1 <1>  -0.6800 
 24 C        4.1060     3.5680     0.3000 C.ar  1 <1>  -0.1500 
 25 C        3.6190     2.5120    -1.7920 C.ar  1 <1>  -0.1500 
 26 C        5.3980     3.8220    -0.1270 C.ar  1 <1>  -0.1500 
 27 C        4.9110     2.7660    -2.2210 C.ar  1 <1>  -0.1500 
 28 C        5.8010     3.4210    -1.3890 C.ar  1 <1>  -0.1500 
 29 H       -3.1060     2.2940     0.5570 H     1 <1>   0.0800 
 30 H       -1.9740    -1.0400    -0.6030 H     1 <1>   0.0800 
 31 H       -1.9300    -1.4170     1.1070 H     1 <1>   0.0800 
 32 H       -0.4650    -0.9640     0.2680 H     1 <1>   0.0800 
 33 H       -1.7070     2.1620     3.9640 H     1 <1>   0.1500 
 34 H       -4.1520    -0.4900     0.1590 H     1 <1>   0.0800 
 35 H       -4.6410     0.6840     1.3640 H     1 <1>   0.0800 
 36 H       -2.2840     2.3250    -1.6670 H     1 <1>   0.0800 
 37 H       -2.5570     0.6110    -1.8670 H     1 <1>   0.0800 
 38 H       -0.8770     5.8530     0.8300 H     1 <1>   0.1500 
 39 H       -2.0390     4.4880     4.6950 H     1 <1>   0.1500 
 40 H       -5.8850     0.3520    -1.0840 H     1 <1>   0.0800 
 41 H       -4.5850     1.2300    -2.7450 H     1 <1>   0.0800 
 42 H        0.9180     3.9220    -1.5570 H     1 <1>   0.0800 
 43 H        1.1720     4.7170    -0.0170 H     1 <1>   0.0800 
 44 H       -1.6260     6.3400     3.1280 H     1 <1>   0.1500 
 45 H       -5.6580     2.7140     0.7170 H     1 <1>   0.0800 
 46 H       -7.1080     1.9440     0.0890 H     1 <1>   0.0800 
 47 H       -4.7770     3.5380    -2.9370 H     1 <1>   0.0800 
 48 H       -4.0640     3.8100    -1.3540 H     1 <1>   0.0800 
 49 H        1.7760     2.5430     1.0090 H     1 <1>   0.0800 
 50 H        1.4330     1.7240    -0.4910 H     1 <1>   0.0800 
 51 H       -6.9120     3.0690    -1.9980 H     1 <1>   0.0800 
 52 H       -5.6460     4.7810    -0.1380 H     1 <1>   0.4000 
 53 H        3.8030     3.8810     1.2840 H     1 <1>   0.1500 
 54 H        2.9350     2.0000    -2.4450 H     1 <1>   0.1500 
 55 H        6.0890     4.3290     0.5220 H     1 <1>   0.1500 
 56 H        5.2220     2.4510    -3.2020 H     1 <1>   0.1500 
 57 H        6.8050     3.6180    -1.7220 H     1 <1>   0.1500 
@<TRIPOS>BOND
  1   1   2  2   
  2   2   3  am  
  3   2   4  1   
  4   3   5  1   
  5   3   6  1   
  6   4   7  ar  
  7   4   8  ar  
  8   5   9  1   
  9   5  10  1   
 10   5  29  1   
 11   6  30  1   
 12   6  31  1   
 13   6  32  1   
 14   7  11  1   
 15   7  12  ar  
 16   8  13  ar  
 17   8  33  1   
 18   9  14  1   
 19   9  34  1   
 20   9  35  1   
 21  10  15  1   
 22  10  36  1   
 23  10  37  1   
 24  11  16  1   
 25  12  17  ar  
 26  12  38  1   
 27  13  17  ar  
 28  13  39  1   
 29  14  15  1   
 30  14  18  1   
 31  14  40  1   
 32  15  19  1   
 33  15  41  1   
 34  16  20  1   
 35  16  42  1   
 36  16  43  1   
 37  17  44  1   
 38  18  21  1   
 39  18  45  1   
 40  18  46  1   
 41  19  21  1   
 42  19  47  1   
 43  19  48  1   
 44  20  22  1   
 45  20  49  1   
 46  20  50  1   
 47  21  23  1   
 48  21  51  1   
 49  22  24  ar  
 50  22  25  ar  
 51  23  52  1   
 52  24  26  ar  
 53  24  53  1   
 54  25  27  ar  
 55  25  54  1   
 56  26  28  ar  
 57  26  55  1   
 58  27  28  ar  
 59  27  56  1   
 60  28  57  1   
@<TRIPOS>SUBSTRUCTURE
  1 ****  11 GROUP 4 **** **** 0

# MOE 2024.06 (io_trps.svl 2023.06)
