@<TRIPOS>MOLECULE
NONAME
48 50 1 0 0 
SMALL
USER_CHARGES


@<TRIPOS>ATOM
  1 F       -1.1590     0.3220    -1.4800 F     1 <1>  -0.1900 
  2 C       -1.9140    -0.6280    -0.9650 C.ar  1 <1>   0.1900 
  3 C       -2.9560    -0.3450    -0.0820 C.ar  1 <1>   0.4100 
  4 C       -1.6740    -1.9260    -1.3220 C.ar  1 <1>   0.1600 
  5 N       -3.6950    -1.3350     0.3870 N.ar  1 <1>  -0.6200 
  6 N       -3.2810     0.9400     0.3520 N.pl3 1 <1>  -0.8380 
  7 N       -2.4040    -2.9200    -0.8500 N.ar  1 <1>  -0.6200 
  8 C       -3.3690    -2.5490    -0.0130 C.ar  1 <1>   0.7200 
  9 C       -4.6560     1.2610     0.8260 C.3   1 <1>   0.1290 
 10 C       -2.2240     1.8840     0.8040 C.3   1 <1>   0.1290 
 11 N       -4.1520    -3.5190     0.5170 N.pl3 1 <1>  -0.8690 
 12 C       -4.4070    -4.7930    -0.1530 C.3   1 <1>   0.2890 
 13 C       -5.8590    -5.1980     0.0810 C.3   1 <1>  -0.1600 
 14 C       -3.4530    -5.8350     0.4250 C.3   1 <1>  -0.1600 
 15 C       -6.1240    -6.5870    -0.4900 C.3   1 <1>   0.3430 
 16 C       -3.7460    -7.2120    -0.1550 C.3   1 <1>   0.3430 
 17 N       -5.1700    -7.5740     0.1040 N.4   1 <1>  -0.9590 
 18 C       -5.4610    -8.9660    -0.3400 C.3   1 <1>   0.4860 
 19 C       -6.8450    -9.3580     0.1420 C.ar  1 <1>  -0.1430 
 20 C       -7.9140    -9.4640    -0.7280 C.ar  1 <1>  -0.1500 
 21 C       -7.1090    -9.6270     1.4730 C.ar  1 <1>  -0.1500 
 22 C       -9.1630    -9.8090    -0.2370 C.ar  1 <1>   0.1600 
 23 C       -8.3950    -9.9630     1.8590 C.ar  1 <1>   0.1600 
 24 N       -9.4240   -10.0510     1.0350 N.ar  1 <1>  -0.6200 
 25 H       -0.8740    -2.1530    -2.0040 H     1 <1>   0.1500 
 26 H       -5.3790     0.6630     0.2980 H     1 <1>   0.0800 
 27 H       -4.8740     2.2990     0.6470 H     1 <1>   0.0800 
 28 H       -4.7350     1.0540     1.8790 H     1 <1>   0.0800 
 29 H       -1.2700     1.3870     0.8570 H     1 <1>   0.0800 
 30 H       -2.4610     2.2640     1.7820 H     1 <1>   0.0800 
 31 H       -2.1540     2.7050     0.1120 H     1 <1>   0.0800 
 32 H       -4.9250    -3.0990     1.0320 H     1 <1>   0.4000 
 33 H       -4.2320    -4.6870    -1.2130 H     1 <1>   0.0800 
 34 H       -6.5070    -4.4900    -0.4060 H     1 <1>   0.0800 
 35 H       -6.0840    -5.1950     1.1330 H     1 <1>   0.0800 
 36 H       -3.5370    -5.8640     1.4970 H     1 <1>   0.0800 
 37 H       -2.4420    -5.5610     0.1800 H     1 <1>   0.0800 
 38 H       -6.0080    -6.5640    -1.5620 H     1 <1>   0.0800 
 39 H       -7.1410    -6.8730    -0.2660 H     1 <1>   0.0800 
 40 H       -3.0880    -7.9360     0.3000 H     1 <1>   0.0800 
 41 H       -3.5550    -7.2000    -1.2160 H     1 <1>   0.0800 
 42 H       -5.3220    -7.5540     1.1210 H     1 <1>   0.4500 
 43 H       -4.7360    -9.6480     0.0770 H     1 <1>   0.0800 
 44 H       -5.4120    -9.0340    -1.4140 H     1 <1>   0.0800 
 45 H       -7.8030    -9.2890    -1.7840 H     1 <1>   0.1500 
 46 H       -6.3380    -9.5870     2.2210 H     1 <1>   0.1500 
 47 H       -9.9900    -9.8900    -0.9240 H     1 <1>   0.1500 
 48 H       -8.5920   -10.1720     2.8990 H     1 <1>   0.1500 
@<TRIPOS>BOND
  1   1   2  1   
  2   2   3  ar  
  3   2   4  ar  
  4   3   5  ar  
  5   3   6  1   
  6   4   7  ar  
  7   4  25  1   
  8   5   8  ar  
  9   6   9  1   
 10   6  10  1   
 11   7   8  ar  
 12   8  11  1   
 13   9  26  1   
 14   9  27  1   
 15   9  28  1   
 16  10  29  1   
 17  10  30  1   
 18  10  31  1   
 19  11  12  1   
 20  11  32  1   
 21  12  13  1   
 22  12  14  1   
 23  12  33  1   
 24  13  15  1   
 25  13  34  1   
 26  13  35  1   
 27  14  16  1   
 28  14  36  1   
 29  14  37  1   
 30  15  17  1   
 31  15  38  1   
 32  15  39  1   
 33  16  17  1   
 34  16  40  1   
 35  16  41  1   
 36  17  18  1   
 37  17  42  1   
 38  18  19  1   
 39  18  43  1   
 40  18  44  1   
 41  19  20  ar  
 42  19  21  ar  
 43  20  22  ar  
 44  20  45  1   
 45  21  23  ar  
 46  21  46  1   
 47  22  24  ar  
 48  22  47  1   
 49  23  24  ar  
 50  23  48  1   
@<TRIPOS>SUBSTRUCTURE
  1 ****  12 GROUP 4 **** **** 0

# MOE 2024.06 (io_trps.svl 2023.06)
