@<TRIPOS>MOLECULE
NONAME
44 46 1 0 0 
SMALL
USER_CHARGES


@<TRIPOS>ATOM
  1 F       -1.2160     0.1210     0.4690 F     1 <1>  -0.3400 
  2 C       -2.2820    -0.5820     0.8200 C.3   1 <1>   1.0200 
  3 F       -3.3190     0.2420     0.7700 F     1 <1>  -0.3400 
  4 F       -2.1220    -0.9050     2.0960 F     1 <1>  -0.3400 
  5 C       -2.4750    -1.8150    -0.0620 C.3   1 <1>  -0.1600 
  6 C       -3.7110    -2.6580     0.3170 C.3   1 <1>  -0.0990 
  7 C       -3.8450    -3.8670    -0.5820 C.2   1 <1>   0.5690 
  8 O       -4.1940    -3.7080    -1.7240 O.2   1 <1>  -0.5700 
  9 N       -3.5730    -5.0930    -0.0790 N.am  1 <1>  -0.7300 
 10 C       -3.6260    -6.3590    -0.8480 C.3   1 <1>   0.2200 
 11 C       -4.8900    -7.1520    -0.5330 C.3   1 <1>  -0.0800 
 12 C       -2.5670    -7.3020    -0.2960 C.3   1 <1>   0.1200 
 13 C       -4.5150    -7.8730     0.7700 C.3   1 <1>   0.1200 
 14 C       -6.1860    -6.3180    -0.4580 C.3   1 <1>  -0.0170 
 15 O       -3.1210    -7.8120     0.8780 O.3   1 <1>  -0.5600 
 16 C       -7.4940    -7.0920    -0.2550 C.ar  1 <1>  -0.1440 
 17 C       -8.6930    -6.3800     0.0000 C.ar  1 <1>   0.0000 
 18 C       -7.5850    -8.4550    -0.3100 C.ar  1 <1>  -0.1500 
 19 C       -9.8780    -7.1270     0.2140 C.ar  1 <1>   0.3100 
 20 C       -8.7880    -4.9690     0.0480 C.ar  1 <1>  -0.1500 
 21 C       -8.8110    -9.0950    -0.0940 C.ar  1 <1>   0.1600 
 22 N       -9.9200    -8.4810     0.1640 N.ar  1 <1>  -0.6200 
 23 C      -11.0750    -6.4450     0.4850 C.ar  1 <1>  -0.1500 
 24 C       -9.9720    -4.3340     0.3120 C.ar  1 <1>  -0.1500 
 25 C      -11.1310    -5.0790     0.5370 C.ar  1 <1>  -0.1500 
 26 H       -2.5690    -1.4860    -1.0810 H     1 <1>   0.0800 
 27 H       -1.5910    -2.4220     0.0110 H     1 <1>   0.0800 
 28 H       -4.6040    -2.0660     0.2130 H     1 <1>   0.0800 
 29 H       -3.6440    -2.9790     1.3410 H     1 <1>   0.0800 
 30 H       -3.3190    -5.2230     0.9040 H     1 <1>   0.3700 
 31 H       -3.5030    -6.1710    -1.9020 H     1 <1>   0.0800 
 32 H       -5.0010    -7.8900    -1.3080 H     1 <1>   0.0800 
 33 H       -1.6370    -6.8080    -0.0780 H     1 <1>   0.0800 
 34 H       -2.3980    -8.1260    -0.9680 H     1 <1>   0.0800 
 35 H       -4.8150    -8.9060     0.7640 H     1 <1>   0.0800 
 36 H       -4.9310    -7.3790     1.6310 H     1 <1>   0.0800 
 37 H       -6.2740    -5.7460    -1.3670 H     1 <1>   0.0800 
 38 H       -6.0900    -5.6220     0.3550 H     1 <1>   0.0800 
 39 H       -6.7450    -9.0870    -0.5170 H     1 <1>   0.1500 
 40 H       -7.9140    -4.3710    -0.1300 H     1 <1>   0.1500 
 41 H       -8.8320   -10.1710    -0.1450 H     1 <1>   0.1500 
 42 H      -11.9550    -7.0390     0.6510 H     1 <1>   0.1500 
 43 H      -10.0270    -3.2600     0.3470 H     1 <1>   0.1500 
 44 H      -12.0560    -4.5690     0.7450 H     1 <1>   0.1500 
@<TRIPOS>BOND
  1   1   2  1   
  2   2   3  1   
  3   2   4  1   
  4   2   5  1   
  5   5   6  1   
  6   5  26  1   
  7   5  27  1   
  8   6   7  1   
  9   6  28  1   
 10   6  29  1   
 11   7   8  2   
 12   7   9  am  
 13   9  10  1   
 14   9  30  1   
 15  10  11  1   
 16  10  12  1   
 17  10  31  1   
 18  11  13  1   
 19  11  14  1   
 20  11  32  1   
 21  12  15  1   
 22  12  33  1   
 23  12  34  1   
 24  13  15  1   
 25  13  35  1   
 26  13  36  1   
 27  14  16  1   
 28  14  37  1   
 29  14  38  1   
 30  16  17  ar  
 31  16  18  ar  
 32  17  19  ar  
 33  17  20  ar  
 34  18  21  ar  
 35  18  39  1   
 36  19  22  ar  
 37  19  23  ar  
 38  20  24  ar  
 39  20  40  1   
 40  21  22  ar  
 41  21  41  1   
 42  23  25  ar  
 43  23  42  1   
 44  24  25  ar  
 45  24  43  1   
 46  25  44  1   
@<TRIPOS>SUBSTRUCTURE
  1 ****  14 GROUP 4 **** **** 0

# MOE 2024.06 (io_trps.svl 2023.06)
