@<TRIPOS>MOLECULE
NONAME
56 59 1 0 0 
SMALL
USER_CHARGES


@<TRIPOS>ATOM
  1 O        1.5200    -0.2540     1.1240 O.2   1 <1>  -0.5700 
  2 C        1.5640    -1.2010     0.3720 C.2   1 <1>   0.5690 
  3 N        2.6540    -1.4170    -0.4260 N.am  1 <1>  -0.6600 
  4 C        0.3770    -2.1720     0.3460 C.3   1 <1>  -0.0190 
  5 C        3.7790    -0.4340    -0.4980 C.3   1 <1>   0.2810 
  6 C        3.0210    -2.6750    -1.1040 C.3   1 <1>   0.1400 
  7 C       -0.9770    -1.4330     0.3450 C.3   1 <1>  -0.1600 
  8 C        0.4460    -3.1590     1.5270 C.3   1 <1>  -0.1600 
  9 C        3.4080     0.8910    -1.2080 C.2   1 <1>   0.5690 
 10 C        4.9240    -1.2050    -1.1760 C.3   1 <1>  -0.1600 
 11 C        4.5430    -2.6800    -1.0740 C.3   1 <1>  -0.1600 
 12 C       -2.1570    -2.4150     0.3240 C.3   1 <1>  -0.1600 
 13 C       -0.7330    -4.1430     1.5110 C.3   1 <1>  -0.1600 
 14 O        3.3890     0.9370    -2.4210 O.2   1 <1>  -0.5700 
 15 N        3.1200     2.0110    -0.4810 N.am  1 <1>  -0.5100 
 16 C       -2.0750    -3.4000     1.4970 C.3   1 <1>  -0.1600 
 17 C        3.3780     2.3470     0.9580 C.3   1 <1>   0.2250 
 18 C        3.4700     3.4150    -0.8560 C.3   1 <1>   0.2250 
 19 C        4.3070     3.4720     0.4430 C.3   1 <1>   0.0850 
 20 N        5.7130     3.0510     0.2050 N.pl3 1 <1>   0.4850 
 21 N        6.1960     1.8230     0.5110 N.2   1 <1>  -0.7070 
 22 C        6.6890     3.8310    -0.3220 C.2   1 <1>  -0.3320 
 23 C        7.4450     1.8560     0.1720 C.2   1 <1>   0.1080 
 24 C        7.8140     3.0860    -0.3560 C.2   1 <1>  -0.1500 
 25 C        6.5110     5.2710    -0.7760 C.3   1 <1>  -0.0600 
 26 C        8.3690     0.6740     0.3450 C.3   1 <1>  -0.0590 
 27 H        0.4210    -2.7340    -0.5680 H     1 <1>   0.0800 
 28 H        4.0860    -0.2210     0.5080 H     1 <1>   0.0800 
 29 H        2.6180    -3.5360    -0.6000 H     1 <1>   0.0800 
 30 H        2.6660    -2.6410    -2.1210 H     1 <1>   0.0800 
 31 H       -1.0480    -0.8150     1.2250 H     1 <1>   0.0800 
 32 H       -1.0300    -0.7840    -0.5130 H     1 <1>   0.0800 
 33 H        1.3710    -3.7060     1.4910 H     1 <1>   0.0800 
 34 H        0.4320    -2.6030     2.4490 H     1 <1>   0.0800 
 35 H        4.9990    -0.9300    -2.2130 H     1 <1>   0.0800 
 36 H        5.8640    -0.9910    -0.7010 H     1 <1>   0.0800 
 37 H        4.8740    -3.0800    -0.1310 H     1 <1>   0.0800 
 38 H        4.9580    -3.2670    -1.8740 H     1 <1>   0.0800 
 39 H       -3.0810    -1.8670     0.3780 H     1 <1>   0.0800 
 40 H       -2.1510    -2.9620    -0.6040 H     1 <1>   0.0800 
 41 H       -0.6640    -4.7700     0.6380 H     1 <1>   0.0800 
 42 H       -0.6830    -4.7780     2.3790 H     1 <1>   0.0800 
 43 H       -2.8810    -4.1100     1.4290 H     1 <1>   0.0800 
 44 H       -2.1900    -2.8590     2.4220 H     1 <1>   0.0800 
 45 H        2.4830     2.7170     1.4280 H     1 <1>   0.0000 
 46 H        3.8630     1.5710     1.5200 H     1 <1>   0.0000 
 47 H        4.0470     3.4770    -1.7620 H     1 <1>   0.0000 
 48 H        2.6000     4.0470    -0.8410 H     1 <1>   0.0000 
 49 H        4.2370     4.3980     0.9850 H     1 <1>   0.0000 
 50 H        8.7930     3.3560    -0.7080 H     1 <1>   0.1500 
 51 H        7.4470     5.6630    -1.1330 H     1 <1>   0.0800 
 52 H        6.1760     5.8840     0.0420 H     1 <1>   0.0800 
 53 H        5.7940     5.3260    -1.5760 H     1 <1>   0.0800 
 54 H        9.3930     0.9990     0.3520 H     1 <1>   0.0800 
 55 H        8.2230    -0.0180    -0.4640 H     1 <1>   0.0800 
 56 H        8.1520     0.1790     1.2740 H     1 <1>   0.0800 
@<TRIPOS>BOND
  1   1   2  2   
  2   2   3  am  
  3   2   4  1   
  4   3   5  1   
  5   3   6  1   
  6   4   7  1   
  7   4   8  1   
  8   4  27  1   
  9   5   9  1   
 10   5  10  1   
 11   5  28  1   
 12   6  11  1   
 13   6  29  1   
 14   6  30  1   
 15   7  12  1   
 16   7  31  1   
 17   7  32  1   
 18   8  13  1   
 19   8  33  1   
 20   8  34  1   
 21   9  14  2   
 22   9  15  am  
 23  10  11  1   
 24  10  35  1   
 25  10  36  1   
 26  11  37  1   
 27  11  38  1   
 28  12  16  1   
 29  12  39  1   
 30  12  40  1   
 31  13  16  1   
 32  13  41  1   
 33  13  42  1   
 34  15  17  1   
 35  15  18  1   
 36  16  43  1   
 37  16  44  1   
 38  17  19  1   
 39  17  45  1   
 40  17  46  1   
 41  18  19  1   
 42  18  47  1   
 43  18  48  1   
 44  19  20  1   
 45  19  49  1   
 46  20  21  1   
 47  20  22  1   
 48  21  23  2   
 49  22  24  2   
 50  22  25  1   
 51  23  24  1   
 52  23  26  1   
 53  24  50  1   
 54  25  51  1   
 55  25  52  1   
 56  25  53  1   
 57  26  54  1   
 58  26  55  1   
 59  26  56  1   
@<TRIPOS>SUBSTRUCTURE
  1 ****   5 GROUP 4 **** **** 0

# MOE 2024.06 (io_trps.svl 2023.06)
