@<TRIPOS>MOLECULE
NONAME
58 60 1 0 0 
SMALL
USER_CHARGES


@<TRIPOS>ATOM
  1 O       -3.2700    -2.9420     1.3100 O.2   1 <1>  -0.5700 
  2 C       -2.1070    -2.6730     1.0830 C.2   1 <1>   0.6900 
  3 N       -1.1120    -3.5680     1.4010 N.am  1 <1>  -0.4200 
  4 N       -1.7830    -1.5300     0.4110 N.am  1 <1>  -0.5390 
  5 C        0.1380    -3.4340     0.8290 C.2   1 <1>   0.6160 
  6 C       -1.3730    -4.6850     2.3550 C.3   1 <1>   0.1400 
  7 C       -0.5120    -1.2910    -0.0740 C.2   1 <1>  -0.0290 
  8 O        0.9230    -4.3600     0.9050 O.2   1 <1>  -0.5700 
  9 C        0.4380    -2.2330     0.1220 C.2   1 <1>  -0.1360 
 10 C       -1.7850    -5.9700     1.6180 C.3   1 <1>   0.3430 
 11 C       -0.2850     0.0180    -0.8030 C.3   1 <1>  -0.1020 
 12 N       -2.9230    -5.7190     0.6740 N.4   1 <1>  -0.9590 
 13 C       -4.1200    -6.5700     0.9920 C.3   1 <1>   0.3430 
 14 C       -2.4800    -5.8850    -0.7430 C.3   1 <1>   0.3430 
 15 C       -5.4260    -6.0940     0.3220 C.3   1 <1>   0.1400 
 16 C       -3.0730    -4.8040    -1.6470 C.3   1 <1>  -0.1600 
 17 N       -5.2650    -5.8440    -1.1460 N.am  1 <1>  -0.6600 
 18 C       -4.5760    -4.5680    -1.4770 C.3   1 <1>   0.1400 
 19 C       -5.7610    -6.6400    -2.1580 C.2   1 <1>   0.5690 
 20 O       -5.4270    -6.4490    -3.3040 O.2   1 <1>  -0.5700 
 21 C       -6.6830    -7.8270    -1.8910 C.3   1 <1>   0.1810 
 22 O       -7.8110    -7.4420    -1.1210 O.3   1 <1>  -0.3630 
 23 C       -8.5490    -8.3590    -0.4430 C.ar  1 <1>   0.0830 
 24 C       -9.4170    -7.8890     0.5390 C.ar  1 <1>  -0.1430 
 25 C       -8.4580    -9.7270    -0.6900 C.ar  1 <1>  -0.1500 
 26 C      -10.1630    -8.7920     1.2790 C.ar  1 <1>  -0.1500 
 27 C       -9.5630    -6.3970     0.8030 C.3   1 <1>  -0.0970 
 28 C       -9.2070   -10.6180     0.0560 C.ar  1 <1>  -0.1500 
 29 C      -10.0570   -10.1520     1.0430 C.ar  1 <1>  -0.1500 
 30 H       -2.5430    -0.8600     0.2730 H     1 <1>   0.3700 
 31 H       -2.1470    -4.4000     3.0470 H     1 <1>   0.0800 
 32 H       -0.4840    -4.8770     2.9320 H     1 <1>   0.0800 
 33 H        1.4460    -2.1310    -0.2360 H     1 <1>   0.1500 
 34 H       -2.0610    -6.7150     2.3450 H     1 <1>   0.0800 
 35 H       -0.9290    -6.3430     1.0780 H     1 <1>   0.0800 
 36 H       -0.9300     0.0830    -1.6610 H     1 <1>   0.0800 
 37 H        0.7340     0.0950    -1.1360 H     1 <1>   0.0800 
 38 H       -0.4920     0.8470    -0.1480 H     1 <1>   0.0800 
 39 H       -3.2100    -4.7270     0.7920 H     1 <1>   0.4500 
 40 H       -4.2810    -6.5750     2.0580 H     1 <1>   0.0800 
 41 H       -3.9280    -7.5860     0.6890 H     1 <1>   0.0800 
 42 H       -2.7850    -6.8540    -1.1060 H     1 <1>   0.0800 
 43 H       -1.4040    -5.8310    -0.8060 H     1 <1>   0.0800 
 44 H       -5.7630    -5.1900     0.7990 H     1 <1>   0.0800 
 45 H       -6.1810    -6.8350     0.5050 H     1 <1>   0.0800 
 46 H       -2.8990    -5.1020    -2.6670 H     1 <1>   0.0800 
 47 H       -2.5490    -3.8770    -1.5080 H     1 <1>   0.0800 
 48 H       -4.9820    -4.1570    -2.3880 H     1 <1>   0.0800 
 49 H       -4.7540    -3.8480    -0.6970 H     1 <1>   0.0800 
 50 H       -6.1360    -8.5790    -1.3550 H     1 <1>   0.0800 
 51 H       -7.0400    -8.2300    -2.8210 H     1 <1>   0.0800 
 52 H       -7.8210   -10.1190    -1.4590 H     1 <1>   0.1500 
 53 H      -10.8350    -8.4440     2.0440 H     1 <1>   0.1500 
 54 H       -9.8310    -5.8920    -0.1090 H     1 <1>   0.0800 
 55 H       -8.6350    -5.9930     1.1620 H     1 <1>   0.0800 
 56 H      -10.3280    -6.2050     1.5330 H     1 <1>   0.0800 
 57 H       -9.1350   -11.6750    -0.1320 H     1 <1>   0.1500 
 58 H      -10.6400   -10.8450     1.6230 H     1 <1>   0.1500 
@<TRIPOS>BOND
  1   1   2  2   
  2   2   3  am  
  3   2   4  am  
  4   3   5  am  
  5   3   6  1   
  6   4   7  1   
  7   4  30  1   
  8   5   8  2   
  9   5   9  1   
 10   6  10  1   
 11   6  31  1   
 12   6  32  1   
 13   7   9  2   
 14   7  11  1   
 15   9  33  1   
 16  10  12  1   
 17  10  34  1   
 18  10  35  1   
 19  11  36  1   
 20  11  37  1   
 21  11  38  1   
 22  12  13  1   
 23  12  14  1   
 24  12  39  1   
 25  13  15  1   
 26  13  40  1   
 27  13  41  1   
 28  14  16  1   
 29  14  42  1   
 30  14  43  1   
 31  15  17  1   
 32  15  44  1   
 33  15  45  1   
 34  16  18  1   
 35  16  46  1   
 36  16  47  1   
 37  17  18  1   
 38  17  19  am  
 39  18  48  1   
 40  18  49  1   
 41  19  20  2   
 42  19  21  1   
 43  21  22  1   
 44  21  50  1   
 45  21  51  1   
 46  22  23  1   
 47  23  24  ar  
 48  23  25  ar  
 49  24  26  ar  
 50  24  27  1   
 51  25  28  ar  
 52  25  52  1   
 53  26  29  ar  
 54  26  53  1   
 55  27  54  1   
 56  27  55  1   
 57  27  56  1   
 58  28  29  ar  
 59  28  57  1   
 60  29  58  1   
@<TRIPOS>SUBSTRUCTURE
  1 ****  15 GROUP 4 **** **** 0

# MOE 2024.06 (io_trps.svl 2023.06)
