@<TRIPOS>MOLECULE
NONAME
57 60 1 0 0 
SMALL
USER_CHARGES


@<TRIPOS>ATOM
  1 F       -1.1920    -0.7300     0.2440 F     1 <1>  -0.1900 
  2 C       -2.3480    -0.1180     0.1930 C.ar  1 <1>   0.1900 
  3 C       -2.8100     0.4990    -0.9740 C.ar  1 <1>   0.0830 
  4 C       -3.0940    -0.1150     1.3570 C.ar  1 <1>  -0.1500 
  5 O       -2.1690     0.5680    -2.1760 O.3   1 <1>  -0.3630 
  6 C       -4.0520     1.1110    -0.9290 C.ar  1 <1>  -0.1500 
  7 C       -4.3290     0.5050     1.3670 C.ar  1 <1>  -0.1500 
  8 C       -0.8470     0.1130    -2.3680 C.3   1 <1>   0.0400 
  9 C       -4.8390     1.1220     0.2240 C.ar  1 <1>   0.0530 
 10 C       -6.1320     1.7550     0.2170 C.2   1 <1>   0.0870 
 11 O       -6.2940     2.9150    -0.3660 O.3   1 <1>  -0.0190 
 12 C       -7.3480     1.3790     0.6900 C.2   1 <1>  -0.0860 
 13 N       -7.5260     3.3460    -0.3080 N.2   1 <1>  -0.4100 
 14 C       -8.1810     2.4460     0.3390 C.2   1 <1>   0.3720 
 15 C       -7.7570     0.1760     1.3430 C.2   1 <1>   0.7160 
 16 N       -9.5530     2.5260     0.6310 N.pl3 1 <1>  -0.8210 
 17 O       -7.2880    -0.1100     2.4280 O.2   1 <1>  -0.5700 
 18 N       -8.6670    -0.7000     0.7760 N.am  1 <1>  -0.6600 
 19 C      -10.3150     3.5170    -0.1870 C.3   1 <1>   0.1290 
 20 C       -9.8330     2.7140     2.0830 C.3   1 <1>   0.1290 
 21 C       -9.3210    -0.4530    -0.5480 C.3   1 <1>   0.1400 
 22 C       -9.1910    -1.8800     1.5340 C.3   1 <1>   0.1400 
 23 C       -9.3880    -1.7390    -1.3940 C.3   1 <1>   0.3430 
 24 C       -9.2430    -3.1380     0.6490 C.3   1 <1>   0.3430 
 25 N       -9.9870    -2.8940    -0.6390 N.4   1 <1>  -0.9590 
 26 C      -10.0410    -4.1130    -1.4900 C.3   1 <1>   0.4380 
 27 C      -10.9190    -5.1690    -0.8160 C.3   1 <1>  -0.1950 
 28 C      -10.3840    -6.1600     0.1730 C.3   1 <1>  -0.2000 
 29 C      -10.7810    -6.6080    -1.2030 C.3   1 <1>  -0.2000 
 30 H       -2.7090    -0.5910     2.2410 H     1 <1>   0.1500 
 31 H       -4.4160     1.5930    -1.8190 H     1 <1>   0.1500 
 32 H       -4.8990     0.5180     2.2800 H     1 <1>   0.1500 
 33 H       -0.5560     0.3460    -3.3760 H     1 <1>   0.0800 
 34 H       -0.8170    -0.9510    -2.2180 H     1 <1>   0.0800 
 35 H       -0.1980     0.6190    -1.6750 H     1 <1>   0.0800 
 36 H      -10.1020     3.3710    -1.2330 H     1 <1>   0.0800 
 37 H      -10.0310     4.5190     0.0850 H     1 <1>   0.0800 
 38 H      -11.3720     3.3930    -0.0290 H     1 <1>   0.0800 
 39 H       -9.3350     1.9590     2.6660 H     1 <1>   0.0800 
 40 H      -10.8910     2.6460     2.2680 H     1 <1>   0.0800 
 41 H       -9.4820     3.6820     2.4020 H     1 <1>   0.0800 
 42 H       -8.7790     0.2880    -1.1080 H     1 <1>   0.0800 
 43 H      -10.3130    -0.0690    -0.3830 H     1 <1>   0.0800 
 44 H      -10.1760    -1.6530     1.9020 H     1 <1>   0.0800 
 45 H       -8.5690    -2.0910     2.3880 H     1 <1>   0.0800 
 46 H       -8.3870    -1.9910    -1.7040 H     1 <1>   0.0800 
 47 H       -9.9660    -1.5410    -2.2820 H     1 <1>   0.0800 
 48 H       -9.7180    -3.9290     1.2040 H     1 <1>   0.0800 
 49 H       -8.2330    -3.4460     0.4340 H     1 <1>   0.0800 
 50 H      -10.9550    -2.6500    -0.3940 H     1 <1>   0.4500 
 51 H       -9.0490    -4.5050    -1.6450 H     1 <1>   0.0800 
 52 H      -10.4650    -3.8710    -2.4520 H     1 <1>   0.0800 
 53 H      -11.9340    -4.8310    -0.6950 H     1 <1>   0.1000 
 54 H      -11.0030    -6.4700     0.9990 H     1 <1>   0.1000 
 55 H       -9.3350    -6.2010     0.4150 H     1 <1>   0.1000 
 56 H      -10.0000    -6.9190    -1.8780 H     1 <1>   0.1000 
 57 H      -11.6680    -7.2120    -1.3060 H     1 <1>   0.1000 
@<TRIPOS>BOND
  1   1   2  1   
  2   2   3  ar  
  3   2   4  ar  
  4   3   5  1   
  5   3   6  ar  
  6   4   7  ar  
  7   4  30  1   
  8   5   8  1   
  9   6   9  ar  
 10   6  31  1   
 11   7   9  ar  
 12   7  32  1   
 13   8  33  1   
 14   8  34  1   
 15   8  35  1   
 16   9  10  1   
 17  10  11  1   
 18  10  12  2   
 19  11  13  1   
 20  12  14  1   
 21  12  15  1   
 22  13  14  2   
 23  14  16  1   
 24  15  17  2   
 25  15  18  am  
 26  16  19  1   
 27  16  20  1   
 28  18  21  1   
 29  18  22  1   
 30  19  36  1   
 31  19  37  1   
 32  19  38  1   
 33  20  39  1   
 34  20  40  1   
 35  20  41  1   
 36  21  23  1   
 37  21  42  1   
 38  21  43  1   
 39  22  24  1   
 40  22  44  1   
 41  22  45  1   
 42  23  25  1   
 43  23  46  1   
 44  23  47  1   
 45  24  25  1   
 46  24  48  1   
 47  24  49  1   
 48  25  26  1   
 49  25  50  1   
 50  26  27  1   
 51  26  51  1   
 52  26  52  1   
 53  27  28  1   
 54  27  29  1   
 55  27  53  1   
 56  28  29  1   
 57  28  54  1   
 58  28  55  1   
 59  29  56  1   
 60  29  57  1   
@<TRIPOS>SUBSTRUCTURE
  1 ****  15 GROUP 4 **** **** 0

# MOE 2024.06 (io_trps.svl 2023.06)
