@<TRIPOS>MOLECULE
NONAME
51 55 1 0 0 
SMALL
USER_CHARGES


@<TRIPOS>ATOM
  1 O       -1.0830    -0.5120     0.8070 O.3   1 <1>  -0.0190 
  2 N       -1.8610    -1.2450     0.0680 N.2   1 <1>  -0.4100 
  3 C       -0.7880    -1.2870     1.8220 C.2   1 <1>   0.2980 
  4 C       -1.9810    -2.3700     0.6560 C.2   1 <1>   0.3350 
  5 N       -1.3110    -2.4480     1.7940 N.2   1 <1>  -0.5650 
  6 C        0.1210    -0.7540     2.9080 C.3   1 <1>  -0.0600 
  7 C       -2.8200    -3.5400     0.1350 C.3   1 <1>   0.5240 
  8 N       -3.8710    -3.0790    -0.8380 N.4   1 <1>  -0.9590 
  9 C       -4.9260    -2.2690    -0.1350 C.3   1 <1>   0.3430 
 10 C       -4.4650    -4.2000    -1.6180 C.3   1 <1>   0.3430 
 11 C       -5.9240    -1.6510    -1.1270 C.3   1 <1>   0.1430 
 12 C       -5.4300    -3.6370    -2.6660 C.3   1 <1>  -0.1600 
 13 C       -7.0230    -0.9720    -0.3450 C.ar  1 <1>   0.1670 
 14 C       -6.5200    -2.7480    -2.0380 C.3   1 <1>  -0.1600 
 15 C       -5.3170    -0.4770    -1.9430 C.3   1 <1>  -0.1600 
 16 N       -7.6560    -1.5110     0.6660 N.ar  1 <1>  -0.6200 
 17 C       -7.2750     0.2800    -0.8090 C.ar  1 <1>  -0.1440 
 18 C       -6.3800     0.6390    -1.9690 C.3   1 <1>  -0.0170 
 19 C       -8.6100    -0.7480     1.2220 C.ar  1 <1>   0.6200 
 20 C       -8.2580     1.0010    -0.1820 C.ar  1 <1>   0.1600 
 21 N       -8.9270     0.4940     0.8290 N.ar  1 <1>  -0.6200 
 22 C       -9.3580    -1.3110     2.3360 C.ar  1 <1>   0.0000 
 23 C      -10.7030    -0.9930     2.5460 C.ar  1 <1>  -0.1500 
 24 C       -8.7690    -2.1930     3.2460 C.ar  1 <1>  -0.1500 
 25 C      -11.4210    -1.5260     3.6010 C.ar  1 <1>  -0.1500 
 26 C       -9.4810    -2.7310     4.3030 C.ar  1 <1>  -0.1500 
 27 C      -10.8110    -2.3990     4.4830 C.ar  1 <1>  -0.1500 
 28 H       -0.3180     0.1190     3.3540 H     1 <1>   0.0800 
 29 H        1.0750    -0.4940     2.4880 H     1 <1>   0.0800 
 30 H        0.2650    -1.5010     3.6670 H     1 <1>   0.0800 
 31 H       -3.2830    -4.0350     0.9720 H     1 <1>   0.0800 
 32 H       -2.1550    -4.2380    -0.3430 H     1 <1>   0.0800 
 33 H       -3.3860    -2.4390    -1.4840 H     1 <1>   0.4500 
 34 H       -4.4720    -1.4760     0.4370 H     1 <1>   0.0800 
 35 H       -5.4720    -2.8990     0.5490 H     1 <1>   0.0800 
 36 H       -5.0020    -4.8620    -0.9570 H     1 <1>   0.0800 
 37 H       -3.6900    -4.7650    -2.1110 H     1 <1>   0.0800 
 38 H       -5.9010    -4.4570    -3.1800 H     1 <1>   0.0800 
 39 H       -4.8740    -3.0840    -3.4030 H     1 <1>   0.0800 
 40 H       -7.1240    -2.3000    -2.8090 H     1 <1>   0.0800 
 41 H       -7.1730    -3.3700    -1.4480 H     1 <1>   0.0800 
 42 H       -5.0300    -0.7580    -2.9400 H     1 <1>   0.0800 
 43 H       -4.4490    -0.0930    -1.4350 H     1 <1>   0.0800 
 44 H       -6.9470     0.6080    -2.8840 H     1 <1>   0.0800 
 45 H       -5.9390     1.6130    -1.8460 H     1 <1>   0.0800 
 46 H       -8.5000     1.9990    -0.5070 H     1 <1>   0.1500 
 47 H      -11.1940    -0.3150     1.8700 H     1 <1>   0.1500 
 48 H       -7.7350    -2.4610     3.1250 H     1 <1>   0.1500 
 49 H      -12.4550    -1.2620     3.7360 H     1 <1>   0.1500 
 50 H       -9.0010    -3.4080     4.9890 H     1 <1>   0.1500 
 51 H      -11.3670    -2.8150     5.3050 H     1 <1>   0.1500 
@<TRIPOS>BOND
  1   1   2  1   
  2   1   3  1   
  3   2   4  2   
  4   3   5  2   
  5   3   6  1   
  6   4   5  1   
  7   4   7  1   
  8   6  28  1   
  9   6  29  1   
 10   6  30  1   
 11   7   8  1   
 12   7  31  1   
 13   7  32  1   
 14   8   9  1   
 15   8  10  1   
 16   8  33  1   
 17   9  11  1   
 18   9  34  1   
 19   9  35  1   
 20  10  12  1   
 21  10  36  1   
 22  10  37  1   
 23  11  13  1   
 24  11  14  1   
 25  11  15  1   
 26  12  14  1   
 27  12  38  1   
 28  12  39  1   
 29  13  16  ar  
 30  13  17  ar  
 31  14  40  1   
 32  14  41  1   
 33  15  18  1   
 34  15  42  1   
 35  15  43  1   
 36  16  19  ar  
 37  17  18  1   
 38  17  20  ar  
 39  18  44  1   
 40  18  45  1   
 41  19  21  ar  
 42  19  22  1   
 43  20  21  ar  
 44  20  46  1   
 45  22  23  ar  
 46  22  24  ar  
 47  23  25  ar  
 48  23  47  1   
 49  24  26  ar  
 50  24  48  1   
 51  25  27  ar  
 52  25  49  1   
 53  26  27  ar  
 54  26  50  1   
 55  27  51  1   
@<TRIPOS>SUBSTRUCTURE
  1 ****   9 GROUP 4 **** **** 0

# MOE 2024.06 (io_trps.svl 2023.06)
