@<TRIPOS>MOLECULE
NONAME
53 55 1 0 0 
SMALL
USER_CHARGES


@<TRIPOS>ATOM
  1 O        2.5600     0.5980    -0.7310 O.2   1 <1>  -0.5700 
  2 C        2.4930    -0.6050    -0.6440 C.2   1 <1>   0.5690 
  3 N        1.5110    -1.2290     0.0770 N.am  1 <1>  -0.6600 
  4 C        3.5740    -1.4150    -1.3260 C.3   1 <1>  -0.0990 
  5 C        1.2000    -2.6760    -0.0350 C.3   1 <1>   0.1400 
  6 C        0.5120    -0.4480     0.8590 C.3   1 <1>   0.0600 
  7 C        3.1770    -2.8510    -1.7160 C.3   1 <1>  -0.0800 
  8 C        2.3320    -3.5260    -0.6320 C.3   1 <1>  -0.0800 
  9 C        4.4300    -3.7460    -1.8240 C.3   1 <1>  -0.1600 
 10 C        3.3660    -4.0460     0.3650 C.3   1 <1>  -0.1600 
 11 C        4.4540    -4.6090    -0.5470 C.3   1 <1>   0.2200 
 12 N        5.7660    -4.7680     0.1480 N.am  1 <1>  -0.6600 
 13 C        6.8390    -3.9050     0.0440 C.2   1 <1>   0.5440 
 14 C        6.0180    -6.1570     0.6240 C.3   1 <1>   0.0600 
 15 O        7.9270    -4.3690    -0.2390 O.2   1 <1>  -0.5700 
 16 C        6.7170    -2.4830     0.2890 C.ar  1 <1>   0.0860 
 17 C        7.2290    -1.5520    -0.6140 C.ar  1 <1>  -0.1500 
 18 C        6.1000    -1.9940     1.4410 C.ar  1 <1>  -0.1500 
 19 C        7.1050    -0.1900    -0.4120 C.ar  1 <1>   0.0820 
 20 C        5.9590    -0.6360     1.6590 C.ar  1 <1>  -0.1500 
 21 O        7.6460     0.6050    -1.3740 O.3   1 <1>  -0.3620 
 22 C        6.4400     0.2740     0.7310 C.ar  1 <1>   0.0820 
 23 C        8.2400     1.8350    -1.0200 C.3   1 <1>   0.3200 
 24 O        6.2350     1.5860     0.9710 O.3   1 <1>  -0.3620 
 25 C        9.1860     2.2330    -2.1030 C.1   1 <1>  -0.2000 
 26 C        4.9690     2.0840     0.5950 C.3   1 <1>   0.0400 
 27 C        9.9400     2.5500    -2.9660 C.1   1 <1>  -0.1770 
 28 H        3.9090    -0.8850    -2.1990 H     1 <1>   0.0800 
 29 H        4.3910    -1.4370    -0.6380 H     1 <1>   0.0800 
 30 H        0.9420    -3.0630     0.9360 H     1 <1>   0.0800 
 31 H        0.3330    -2.7720    -0.6660 H     1 <1>   0.0800 
 32 H        0.4110    -0.8670     1.8450 H     1 <1>   0.0800 
 33 H       -0.4410    -0.4760     0.3600 H     1 <1>   0.0800 
 34 H        0.8210     0.5780     0.9550 H     1 <1>   0.0800 
 35 H        2.6340    -2.8240    -2.6460 H     1 <1>   0.0800 
 36 H        1.8660    -4.3930    -1.0710 H     1 <1>   0.0800 
 37 H        5.3220    -3.1660    -1.9690 H     1 <1>   0.0800 
 38 H        4.3260    -4.3990    -2.6720 H     1 <1>   0.0800 
 39 H        2.9580    -4.8050     1.0070 H     1 <1>   0.0800 
 40 H        3.7410    -3.2310     0.9560 H     1 <1>   0.0800 
 41 H        4.1260    -5.5890    -0.8510 H     1 <1>   0.0800 
 42 H        5.2010    -6.4900     1.2400 H     1 <1>   0.0800 
 43 H        6.9240    -6.1920     1.2060 H     1 <1>   0.0800 
 44 H        6.1270    -6.8160    -0.2200 H     1 <1>   0.0800 
 45 H        7.7380    -1.9060    -1.4930 H     1 <1>   0.1500 
 46 H        5.7280    -2.6950     2.1680 H     1 <1>   0.1500 
 47 H        5.4720    -0.2750     2.5470 H     1 <1>   0.1500 
 48 H        7.4650     2.5720    -0.9190 H     1 <1>   0.0800 
 49 H        8.7640     1.7130    -0.0880 H     1 <1>   0.0800 
 50 H        4.9350     3.1340     0.8210 H     1 <1>   0.0800 
 51 H        4.2060     1.5640     1.1460 H     1 <1>   0.0800 
 52 H        4.8330     1.9290    -0.4610 H     1 <1>   0.0800 
 53 H       10.6200     2.8300    -3.7520 H     1 <1>   0.1770 
@<TRIPOS>BOND
  1   1   2  2   
  2   2   3  am  
  3   2   4  1   
  4   3   5  1   
  5   3   6  1   
  6   4   7  1   
  7   4  28  1   
  8   4  29  1   
  9   5   8  1   
 10   5  30  1   
 11   5  31  1   
 12   6  32  1   
 13   6  33  1   
 14   6  34  1   
 15   7   8  1   
 16   7   9  1   
 17   7  35  1   
 18   8  10  1   
 19   8  36  1   
 20   9  11  1   
 21   9  37  1   
 22   9  38  1   
 23  10  11  1   
 24  10  39  1   
 25  10  40  1   
 26  11  12  1   
 27  11  41  1   
 28  12  13  am  
 29  12  14  1   
 30  13  15  2   
 31  13  16  1   
 32  14  42  1   
 33  14  43  1   
 34  14  44  1   
 35  16  17  ar  
 36  16  18  ar  
 37  17  19  ar  
 38  17  45  1   
 39  18  20  ar  
 40  18  46  1   
 41  19  21  1   
 42  19  22  ar  
 43  20  22  ar  
 44  20  47  1   
 45  21  23  1   
 46  22  24  1   
 47  23  25  1   
 48  23  48  1   
 49  23  49  1   
 50  24  26  1   
 51  25  27  3   
 52  26  50  1   
 53  26  51  1   
 54  26  52  1   
 55  27  53  1   
@<TRIPOS>SUBSTRUCTURE
  1 ****  16 GROUP 4 **** **** 0

# MOE 2024.06 (io_trps.svl 2023.06)
