@<TRIPOS>MOLECULE
NONAME
53 55 1 0 0 
SMALL
USER_CHARGES


@<TRIPOS>ATOM
  1 F       -0.4500    -0.9850    -0.8260 F     1 <1>  -0.1900 
  2 C       -0.5850    -2.2480    -0.5160 C.ar  1 <1>   0.1900 
  3 C       -1.4920    -2.6000     0.4660 C.ar  1 <1>  -0.1500 
  4 C        0.1830    -3.1830    -1.1830 C.ar  1 <1>  -0.1500 
  5 C       -1.6350    -3.9390     0.7930 C.ar  1 <1>  -0.1500 
  6 C        0.0330    -4.5190    -0.8510 C.ar  1 <1>  -0.1500 
  7 C       -0.8730    -4.9030     0.1300 C.ar  1 <1>   0.0830 
  8 O       -0.9580    -6.2320     0.3830 O.3   1 <1>  -0.3630 
  9 C       -1.9000    -6.7480     1.3140 C.3   1 <1>   0.1810 
 10 C       -1.8660    -8.2740     1.3670 C.2   1 <1>   0.5690 
 11 O       -1.6810    -8.7800     2.4480 O.2   1 <1>  -0.5700 
 12 N       -2.0720    -9.0320     0.2420 N.am  1 <1>  -0.6600 
 13 C       -2.0540   -10.5340     0.3150 C.3   1 <1>   0.3640 
 14 C       -2.3510    -8.4470    -1.1100 C.3   1 <1>   0.1400 
 15 C       -0.7000   -11.1170    -0.1340 C.ar  1 <1>  -0.1430 
 16 C       -3.2450   -11.1430    -0.4960 C.3   1 <1>   0.2000 
 17 C       -2.7090    -9.5200    -2.1490 C.3   1 <1>   0.1200 
 18 C       -0.5140   -12.4920    -0.0470 C.ar  1 <1>  -0.1500 
 19 C        0.3570   -10.3410    -0.6040 C.ar  1 <1>  -0.1500 
 20 O       -3.6610   -10.3830    -1.6120 O.3   1 <1>  -0.5600 
 21 C       -4.4830   -11.3230     0.3910 C.3   1 <1>   0.1200 
 22 C        0.6680   -13.0900    -0.4480 C.ar  1 <1>   0.0830 
 23 C        1.5520   -10.9240    -0.9890 C.ar  1 <1>  -0.1500 
 24 O       -4.2750   -12.3520     1.3050 O.3   1 <1>  -0.6800 
 25 O        0.7360   -14.4430    -0.3760 O.3   1 <1>  -0.3630 
 26 C        1.7230   -12.2940    -0.9040 C.ar  1 <1>   0.0830 
 27 C        0.9200   -15.1340    -1.5920 C.3   1 <1>   0.0400 
 28 O        2.9290   -12.7990    -1.2600 O.3   1 <1>  -0.3630 
 29 C        3.7040   -13.3380    -0.2110 C.3   1 <1>   0.0400 
 30 H       -2.0670    -1.8390     0.9620 H     1 <1>   0.1500 
 31 H        0.8800    -2.8690    -1.9400 H     1 <1>   0.1500 
 32 H       -2.3380    -4.2050     1.5600 H     1 <1>   0.1500 
 33 H        0.6190    -5.2700    -1.3490 H     1 <1>   0.1500 
 34 H       -1.6580    -6.3550     2.2850 H     1 <1>   0.0800 
 35 H       -2.8820    -6.4250     1.0240 H     1 <1>   0.0800 
 36 H       -2.1740   -10.8360     1.3420 H     1 <1>   0.0800 
 37 H       -3.1720    -7.7560    -1.0350 H     1 <1>   0.0800 
 38 H       -1.4890    -7.9040    -1.4540 H     1 <1>   0.0800 
 39 H       -2.9690   -12.1070    -0.8800 H     1 <1>   0.0800 
 40 H       -1.8440   -10.0900    -2.4430 H     1 <1>   0.0800 
 41 H       -3.1320    -9.0620    -3.0260 H     1 <1>   0.0800 
 42 H       -1.2930   -13.1270     0.3360 H     1 <1>   0.1500 
 43 H        0.2760    -9.2710    -0.6650 H     1 <1>   0.1500 
 44 H       -5.3440   -11.5740    -0.2040 H     1 <1>   0.0800 
 45 H       -4.6760   -10.4200     0.9440 H     1 <1>   0.0800 
 46 H        2.3630   -10.3160    -1.3470 H     1 <1>   0.1500 
 47 H       -4.3870   -13.2250     0.8800 H     1 <1>   0.4000 
 48 H        0.7870   -16.1840    -1.4050 H     1 <1>   0.0800 
 49 H        1.9130   -14.9530    -1.9610 H     1 <1>   0.0800 
 50 H        0.1890   -14.7890    -2.3030 H     1 <1>   0.0800 
 51 H        4.6560   -13.6340    -0.6140 H     1 <1>   0.0800 
 52 H        3.1980   -14.1910     0.2030 H     1 <1>   0.0800 
 53 H        3.8400   -12.5830     0.5420 H     1 <1>   0.0800 
@<TRIPOS>BOND
  1   1   2  1   
  2   2   3  ar  
  3   2   4  ar  
  4   3   5  ar  
  5   3  30  1   
  6   4   6  ar  
  7   4  31  1   
  8   5   7  ar  
  9   5  32  1   
 10   6   7  ar  
 11   6  33  1   
 12   7   8  1   
 13   8   9  1   
 14   9  10  1   
 15   9  34  1   
 16   9  35  1   
 17  10  11  2   
 18  10  12  am  
 19  12  13  1   
 20  12  14  1   
 21  13  15  1   
 22  13  16  1   
 23  13  36  1   
 24  14  17  1   
 25  14  37  1   
 26  14  38  1   
 27  15  18  ar  
 28  15  19  ar  
 29  16  20  1   
 30  16  21  1   
 31  16  39  1   
 32  17  20  1   
 33  17  40  1   
 34  17  41  1   
 35  18  22  ar  
 36  18  42  1   
 37  19  23  ar  
 38  19  43  1   
 39  21  24  1   
 40  21  44  1   
 41  21  45  1   
 42  22  25  1   
 43  22  26  ar  
 44  23  26  ar  
 45  23  46  1   
 46  24  47  1   
 47  25  27  1   
 48  26  28  1   
 49  27  48  1   
 50  27  49  1   
 51  27  50  1   
 52  28  29  1   
 53  29  51  1   
 54  29  52  1   
 55  29  53  1   
@<TRIPOS>SUBSTRUCTURE
  1 ****  12 GROUP 4 **** **** 0

# MOE 2024.06 (io_trps.svl 2023.06)
