@<TRIPOS>MOLECULE
NONAME
52 54 1 0 0 
SMALL
USER_CHARGES


@<TRIPOS>ATOM
  1 O       -4.4650    -1.2870     1.1750 O.co2 1 <1>  -0.9000 
  2 C       -3.6650    -0.6730     0.4510 C.2   1 <1>   0.9060 
  3 O       -3.4500    -1.1410    -0.6690 O.co2 1 <1>  -0.9000 
  4 C       -3.2850     0.7640     0.7650 C.3   1 <1>   0.0140 
  5 O       -4.3400     1.4490     1.4430 O.3   1 <1>  -0.3630 
  6 C       -5.2360     2.2970     0.8820 C.ar  1 <1>   0.0820 
  7 C       -5.9320     2.1050    -0.3170 C.ar  1 <1>  -0.1440 
  8 C       -5.4880     3.4360     1.6270 C.ar  1 <1>  -0.1500 
  9 C       -6.8530     3.0610    -0.7170 C.ar  1 <1>  -0.1500 
 10 C       -5.7730     0.9130    -1.2390 C.3   1 <1>   0.4870 
 11 C       -6.4060     4.3790     1.2090 C.ar  1 <1>  -0.1500 
 12 C       -7.1220     4.2090     0.0260 C.ar  1 <1>   0.0000 
 13 N       -6.3270    -0.3160    -0.6160 N.4   1 <1>  -0.9590 
 14 C       -8.1060     5.1760    -0.4280 C.ar  1 <1>   0.3100 
 15 C       -6.2970    -1.5150    -1.4790 C.3   1 <1>   0.3430 
 16 C       -7.6360    -0.3060     0.0410 C.3   1 <1>   0.3430 
 17 N       -8.1860     5.4110    -1.7410 N.ar  1 <1>  -0.6200 
 18 C       -8.9420     5.8180     0.4870 C.ar  1 <1>  -0.1500 
 19 C       -6.9540    -2.6100    -0.6150 C.3   1 <1>   0.4230 
 20 C       -7.9610    -1.7950     0.2290 C.3   1 <1>  -0.1600 
 21 C       -9.0810     6.3000    -2.1340 C.ar  1 <1>   0.1600 
 22 C       -9.8740     6.7390     0.0650 C.ar  1 <1>  -0.1500 
 23 N       -5.9520    -3.3230     0.2590 N.4   1 <1>  -0.9590 
 24 C       -9.9360     6.9830    -1.2890 C.ar  1 <1>  -0.1500 
 25 C       -4.8280    -3.9520    -0.5060 C.3   1 <1>   0.2630 
 26 C       -6.5180    -4.3090     1.2270 C.3   1 <1>   0.2630 
 27 H       -3.0390     1.2970    -0.1340 H     1 <1>   0.0800 
 28 H       -2.4330     0.7570     1.4160 H     1 <1>   0.0800 
 29 H       -4.9510     3.5810     2.5490 H     1 <1>   0.1500 
 30 H       -7.3950     2.9350    -1.6390 H     1 <1>   0.1500 
 31 H       -4.7290     0.7680    -1.4670 H     1 <1>   0.0800 
 32 H       -6.2870     1.1130    -2.1640 H     1 <1>   0.0800 
 33 H       -6.5590     5.2590     1.8070 H     1 <1>   0.1500 
 34 H       -5.6500    -0.5280     0.1550 H     1 <1>   0.4500 
 35 H       -5.2920    -1.7730    -1.7680 H     1 <1>   0.0800 
 36 H       -6.8910    -1.3400    -2.3600 H     1 <1>   0.0800 
 37 H       -8.3670     0.1680    -0.5950 H     1 <1>   0.0800 
 38 H       -7.5860     0.2180     0.9840 H     1 <1>   0.0800 
 39 H       -8.8630     5.5900     1.5330 H     1 <1>   0.1500 
 40 H       -7.4580    -3.3270    -1.2420 H     1 <1>   0.0800 
 41 H       -8.9640    -1.9730    -0.1150 H     1 <1>   0.0800 
 42 H       -7.9190    -2.0300     1.2750 H     1 <1>   0.0800 
 43 H       -9.1380     6.4980    -3.1910 H     1 <1>   0.1500 
 44 H      -10.5240     7.2440     0.7580 H     1 <1>   0.1500 
 45 H       -5.4510    -2.5760     0.8160 H     1 <1>   0.4500 
 46 H      -10.6390     7.6930    -1.6870 H     1 <1>   0.1500 
 47 H       -5.1950    -4.7210    -1.1650 H     1 <1>   0.0800 
 48 H       -4.1190    -4.3880     0.1790 H     1 <1>   0.0800 
 49 H       -4.3000    -3.2100    -1.0840 H     1 <1>   0.0800 
 50 H       -7.0250    -5.1030     0.7030 H     1 <1>   0.0800 
 51 H       -7.2120    -3.8320     1.8980 H     1 <1>   0.0800 
 52 H       -5.7240    -4.7370     1.8180 H     1 <1>   0.0800 
@<TRIPOS>BOND
  1   1   2  ar  
  2   2   3  ar  
  3   2   4  1   
  4   4   5  1   
  5   4  27  1   
  6   4  28  1   
  7   5   6  1   
  8   6   7  ar  
  9   6   8  ar  
 10   7   9  ar  
 11   7  10  1   
 12   8  11  ar  
 13   8  29  1   
 14   9  12  ar  
 15   9  30  1   
 16  10  13  1   
 17  10  31  1   
 18  10  32  1   
 19  11  12  ar  
 20  11  33  1   
 21  12  14  1   
 22  13  15  1   
 23  13  16  1   
 24  13  34  1   
 25  14  17  ar  
 26  14  18  ar  
 27  15  19  1   
 28  15  35  1   
 29  15  36  1   
 30  16  20  1   
 31  16  37  1   
 32  16  38  1   
 33  17  21  ar  
 34  18  22  ar  
 35  18  39  1   
 36  19  20  1   
 37  19  23  1   
 38  19  40  1   
 39  20  41  1   
 40  20  42  1   
 41  21  24  ar  
 42  21  43  1   
 43  22  24  ar  
 44  22  44  1   
 45  23  25  1   
 46  23  26  1   
 47  23  45  1   
 48  24  46  1   
 49  25  47  1   
 50  25  48  1   
 51  25  49  1   
 52  26  50  1   
 53  26  51  1   
 54  26  52  1   
@<TRIPOS>SUBSTRUCTURE
  1 ****   7 GROUP 4 **** **** 0

# MOE 2024.06 (io_trps.svl 2023.06)
