@<TRIPOS>MOLECULE
NONAME
52 55 1 0 0 
SMALL
USER_CHARGES


@<TRIPOS>ATOM
  1 O        0.5780     0.1420    -1.1930 O.2   1 <1>  -0.5700 
  2 C        1.3260    -0.3900    -0.3880 C.2   1 <1>   0.5440 
  3 N        1.0310    -1.6450     0.0980 N.am  1 <1>  -0.4200 
  4 C        2.5160     0.2570     0.0910 C.ar  1 <1>   0.0860 
  5 C        1.8700    -2.2300     1.0160 C.2   1 <1>   0.4500 
  6 C       -0.1740    -2.3810    -0.3690 C.3   1 <1>   0.1400 
  7 C        3.2930    -0.4350     1.0280 C.ar  1 <1>   0.1790 
  8 C        2.9290     1.5260    -0.3250 C.ar  1 <1>  -0.1500 
  9 N        2.9350    -1.6920     1.4750 N.2   1 <1>  -0.6290 
 10 C       -1.4260    -1.8710     0.3540 C.3   1 <1>  -0.0990 
 11 C        4.4520     0.1530     1.5230 C.ar  1 <1>  -0.1500 
 12 C        4.0820     2.0970     0.1750 C.ar  1 <1>  -0.1500 
 13 C       -2.6650    -2.6520    -0.0500 C.2   1 <1>   0.5690 
 14 C        4.8470     1.4070     1.1040 C.ar  1 <1>  -0.1500 
 15 O       -2.5150    -3.8060    -0.3810 O.2   1 <1>  -0.5700 
 16 N       -3.9060    -2.0700    -0.0170 N.am  1 <1>  -0.6600 
 17 C       -4.1670    -0.7010     0.5270 C.3   1 <1>   0.1400 
 18 C       -5.0890    -2.8160    -0.5460 C.3   1 <1>   0.1400 
 19 C       -5.6080    -0.5960     1.0240 C.3   1 <1>  -0.1600 
 20 C       -6.1130    -1.8490    -1.1420 C.3   1 <1>  -0.1600 
 21 C       -6.6060    -0.8000    -0.1280 C.3   1 <1>   0.4180 
 22 O       -6.7040     0.4000    -0.8560 O.3   1 <1>  -0.5600 
 23 C       -7.9720    -1.2110     0.4190 C.2   1 <1>  -0.2880 
 24 C       -7.5650     1.3950    -0.3740 C.3   1 <1>   0.1200 
 25 C       -9.0770    -0.4680     0.3200 C.2   1 <1>  -0.2760 
 26 C       -9.0150     0.8940    -0.3430 C.3   1 <1>  -0.0220 
 27 C      -10.4470    -0.8890     0.8230 C.3   1 <1>  -0.1020 
 28 H        1.5890    -3.2110     1.3590 H     1 <1>   0.0600 
 29 H       -0.0450    -3.4340    -0.1840 H     1 <1>   0.0800 
 30 H       -0.2880    -2.2450    -1.4320 H     1 <1>   0.0800 
 31 H        2.3320     2.0580    -1.0470 H     1 <1>   0.1500 
 32 H       -1.5580    -0.8350     0.1040 H     1 <1>   0.0800 
 33 H       -1.3000    -1.9680     1.4150 H     1 <1>   0.0800 
 34 H        5.0370    -0.3910     2.2420 H     1 <1>   0.1500 
 35 H        4.3910     3.0750    -0.1530 H     1 <1>   0.1500 
 36 H        5.7460     1.8510     1.4950 H     1 <1>   0.1500 
 37 H       -3.9970     0.0280    -0.2480 H     1 <1>   0.0800 
 38 H       -3.5000    -0.4960     1.3460 H     1 <1>   0.0800 
 39 H       -5.5350    -3.3800     0.2550 H     1 <1>   0.0800 
 40 H       -4.7740    -3.5110    -1.3070 H     1 <1>   0.0800 
 41 H       -5.7670     0.3520     1.4990 H     1 <1>   0.0800 
 42 H       -5.7590    -1.3520     1.7730 H     1 <1>   0.0800 
 43 H       -6.9490    -2.4070    -1.5230 H     1 <1>   0.0800 
 44 H       -5.6480    -1.3580    -1.9790 H     1 <1>   0.0800 
 45 H       -7.9570    -2.1780     0.8880 H     1 <1>   0.1500 
 46 H       -7.4780     2.2470    -1.0240 H     1 <1>   0.0800 
 47 H       -7.2480     1.6810     0.6130 H     1 <1>   0.0800 
 48 H       -9.4000     0.8320    -1.3450 H     1 <1>   0.0800 
 49 H       -9.6090     1.6040     0.2040 H     1 <1>   0.0800 
 50 H      -10.7990    -0.1970     1.5680 H     1 <1>   0.0800 
 51 H      -10.4020    -1.8690     1.2620 H     1 <1>   0.0800 
 52 H      -11.1490    -0.9110     0.0090 H     1 <1>   0.0800 
@<TRIPOS>BOND
  1   1   2  2   
  2   2   3  am  
  3   2   4  1   
  4   3   5  1   
  5   3   6  1   
  6   4   7  ar  
  7   4   8  ar  
  8   5   9  2   
  9   5  28  1   
 10   6  10  1   
 11   6  29  1   
 12   6  30  1   
 13   7   9  1   
 14   7  11  ar  
 15   8  12  ar  
 16   8  31  1   
 17  10  13  1   
 18  10  32  1   
 19  10  33  1   
 20  11  14  ar  
 21  11  34  1   
 22  12  14  ar  
 23  12  35  1   
 24  13  15  2   
 25  13  16  am  
 26  14  36  1   
 27  16  17  1   
 28  16  18  1   
 29  17  19  1   
 30  17  37  1   
 31  17  38  1   
 32  18  20  1   
 33  18  39  1   
 34  18  40  1   
 35  19  21  1   
 36  19  41  1   
 37  19  42  1   
 38  20  21  1   
 39  20  43  1   
 40  20  44  1   
 41  21  22  1   
 42  21  23  1   
 43  22  24  1   
 44  23  25  2   
 45  23  45  1   
 46  24  26  1   
 47  24  46  1   
 48  24  47  1   
 49  25  26  1   
 50  25  27  1   
 51  26  48  1   
 52  26  49  1   
 53  27  50  1   
 54  27  51  1   
 55  27  52  1   
@<TRIPOS>SUBSTRUCTURE
  1 ****  10 GROUP 4 **** **** 0

# MOE 2024.06 (io_trps.svl 2023.06)
