@<TRIPOS>MOLECULE
NONAME
49 51 1 0 0 
SMALL
USER_CHARGES


@<TRIPOS>ATOM
  1 S       -0.4490    -0.6670     0.2090 S.o2  1 <1>   1.3330 
  2 O       -0.4930     0.6600     0.7650 O.2   1 <1>  -0.6500 
  3 O        0.4780    -1.0090    -0.8370 O.2   1 <1>  -0.6500 
  4 N        0.0450    -1.5980     1.4830 N.am  1 <1>  -0.9780 
  5 C       -2.1060    -1.2620    -0.1570 C.3   1 <1>  -0.0550 
  6 C       -2.1650    -2.7430    -0.5760 C.3   1 <1>  -0.1600 
  7 C       -3.6100    -3.2040    -0.8290 C.3   1 <1>  -0.0990 
  8 C       -3.6740    -4.6460    -1.2930 C.2   1 <1>   0.5690 
  9 O       -3.9880    -4.8860    -2.4310 O.2   1 <1>  -0.5700 
 10 N       -3.3820    -5.6270    -0.4080 N.am  1 <1>  -0.7300 
 11 C       -3.3030    -7.0710    -0.7320 C.3   1 <1>   0.2200 
 12 C       -4.5050    -7.8330    -0.1870 C.3   1 <1>  -0.0800 
 13 C       -2.1890    -7.6900     0.0990 C.3   1 <1>   0.1200 
 14 C       -4.1190    -8.0560     1.2820 C.3   1 <1>   0.1200 
 15 C       -5.8700    -7.1440    -0.4000 C.3   1 <1>  -0.0170 
 16 O       -2.7380    -7.8500     1.3720 O.3   1 <1>  -0.5600 
 17 C       -7.1140    -7.9330     0.0270 C.ar  1 <1>  -0.1430 
 18 C       -8.3810    -7.2990     0.0160 C.ar  1 <1>   0.0000 
 19 C       -7.0830    -9.2420     0.4200 C.ar  1 <1>  -0.1500 
 20 C       -9.5050    -8.0470     0.4440 C.ar  1 <1>   0.3100 
 21 C       -8.6010    -5.9640    -0.4030 C.ar  1 <1>  -0.1500 
 22 C       -8.2570    -9.8940     0.8160 C.ar  1 <1>   0.1600 
 23 N       -9.4260    -9.3410     0.8410 N.ar  1 <1>  -0.6200 
 24 C      -10.7680    -7.4340     0.4580 C.ar  1 <1>  -0.1500 
 25 C       -9.8470    -5.3980    -0.3810 C.ar  1 <1>  -0.1500 
 26 C      -10.9460    -6.1380     0.0580 C.ar  1 <1>  -0.1500 
 27 H        0.2840    -0.9120     2.1970 H     1 <1>   0.4200 
 28 H        0.9320    -1.9810     1.1620 H     1 <1>   0.4200 
 29 H       -2.7200    -1.1200     0.7110 H     1 <1>   0.0800 
 30 H       -2.5180    -0.6630    -0.9470 H     1 <1>   0.0800 
 31 H       -1.5850    -2.8800    -1.4740 H     1 <1>   0.0800 
 32 H       -1.7240    -3.3510     0.1960 H     1 <1>   0.0800 
 33 H       -4.0590    -2.5870    -1.5870 H     1 <1>   0.0800 
 34 H       -4.1950    -3.1060     0.0680 H     1 <1>   0.0800 
 35 H       -3.1440    -5.4110     0.5630 H     1 <1>   0.3700 
 36 H       -3.1590    -7.2180    -1.7900 H     1 <1>   0.0800 
 37 H       -4.5230    -8.7880    -0.6810 H     1 <1>   0.0800 
 38 H       -1.3120    -7.0690     0.1540 H     1 <1>   0.0800 
 39 H       -1.9270    -8.6640    -0.2750 H     1 <1>   0.0800 
 40 H       -4.3410    -9.0540     1.6150 H     1 <1>   0.0800 
 41 H       -4.5980    -7.3420     1.9300 H     1 <1>   0.0800 
 42 H       -5.9670    -6.9040    -1.4450 H     1 <1>   0.0800 
 43 H       -5.8660    -6.2170     0.1460 H     1 <1>   0.0800 
 44 H       -6.1820    -9.8230     0.4450 H     1 <1>   0.1500 
 45 H       -7.7750    -5.3760    -0.7550 H     1 <1>   0.1500 
 46 H       -8.1810   -10.9240     1.1200 H     1 <1>   0.1500 
 47 H      -11.5990    -8.0250     0.7960 H     1 <1>   0.1500 
 48 H       -9.9960    -4.3810    -0.7020 H     1 <1>   0.1500 
 49 H      -11.9210    -5.6820     0.0730 H     1 <1>   0.1500 
@<TRIPOS>BOND
  1   1   2  2   
  2   1   3  2   
  3   1   4  am  
  4   1   5  1   
  5   4  27  1   
  6   4  28  1   
  7   5   6  1   
  8   5  29  1   
  9   5  30  1   
 10   6   7  1   
 11   6  31  1   
 12   6  32  1   
 13   7   8  1   
 14   7  33  1   
 15   7  34  1   
 16   8   9  2   
 17   8  10  am  
 18  10  11  1   
 19  10  35  1   
 20  11  12  1   
 21  11  13  1   
 22  11  36  1   
 23  12  14  1   
 24  12  15  1   
 25  12  37  1   
 26  13  16  1   
 27  13  38  1   
 28  13  39  1   
 29  14  16  1   
 30  14  40  1   
 31  14  41  1   
 32  15  17  1   
 33  15  42  1   
 34  15  43  1   
 35  17  18  ar  
 36  17  19  ar  
 37  18  20  ar  
 38  18  21  ar  
 39  19  22  ar  
 40  19  44  1   
 41  20  23  ar  
 42  20  24  ar  
 43  21  25  ar  
 44  21  45  1   
 45  22  23  ar  
 46  22  46  1   
 47  24  26  ar  
 48  24  47  1   
 49  25  26  ar  
 50  25  48  1   
 51  26  49  1   
@<TRIPOS>SUBSTRUCTURE
  1 ****  15 GROUP 4 **** **** 0

# MOE 2024.06 (io_trps.svl 2023.06)
