@<TRIPOS>MOLECULE
NONAME
46 47 1 0 0 
SMALL
USER_CHARGES


@<TRIPOS>ATOM
  1 O       -0.6440     0.8700    -0.9150 O.2   1 <1>  -0.5700 
  2 C       -0.7010     2.0730    -0.8150 C.2   1 <1>   0.5690 
  3 N       -1.4830     2.7280     0.1020 N.am  1 <1>  -0.6600 
  4 C        0.1450     2.9010    -1.7780 C.3   1 <1>   0.1810 
  5 C       -1.5120     4.2300     0.1440 C.3   1 <1>   0.3640 
  6 C       -2.2900     2.0610     1.1610 C.3   1 <1>   0.2200 
  7 O        0.5990     4.0840    -1.1750 O.3   1 <1>  -0.5600 
  8 C       -2.9080     4.7180    -0.2540 C.ar  1 <1>  -0.1440 
  9 C       -0.4420     4.9450    -0.7330 C.3   1 <1>   0.2610 
 10 C       -1.3720     1.3250     2.1350 C.3   1 <1>  -0.2400 
 11 C       -3.3470     1.1330     0.5590 C.3   1 <1>  -0.2400 
 12 C       -3.5690     4.1970    -1.3600 C.ar  1 <1>  -0.1500 
 13 C       -3.5320     5.7070     0.4940 C.ar  1 <1>  -0.1500 
 14 C        0.1470     6.1320     0.0420 C.2   1 <1>   0.5690 
 15 C       -4.8280     4.6520    -1.7080 C.ar  1 <1>  -0.1500 
 16 C       -4.7910     6.1640     0.1470 C.ar  1 <1>  -0.1500 
 17 O       -0.5940     6.9490     0.5370 O.2   1 <1>  -0.5700 
 18 N        1.4970     6.2320     0.1650 N.am  1 <1>  -0.7300 
 19 C       -5.4410     5.6360    -0.9540 C.ar  1 <1>  -0.1500 
 20 C        2.2390     7.3050     0.8550 C.3   1 <1>   0.1400 
 21 C        3.2680     7.8960    -0.1090 C.3   1 <1>  -0.1600 
 22 C        4.0740     9.0180     0.5550 C.3   1 <1>  -0.2400 
 23 H       -0.4290     3.1510    -2.6510 H     1 <1>   0.0800 
 24 H        1.0070     2.3320    -2.0740 H     1 <1>   0.0800 
 25 H       -1.3360     4.5180     1.1670 H     1 <1>   0.0800 
 26 H       -2.8170     2.8180     1.7200 H     1 <1>   0.0800 
 27 H       -0.9170     5.3430    -1.6120 H     1 <1>   0.0800 
 28 H       -0.8710     0.5090     1.6470 H     1 <1>   0.0800 
 29 H       -1.9490     0.9260     2.9490 H     1 <1>   0.0800 
 30 H       -0.6390     2.0010     2.5370 H     1 <1>   0.0800 
 31 H       -2.8930     0.3000     0.0540 H     1 <1>   0.0800 
 32 H       -3.9670     1.6740    -0.1310 H     1 <1>   0.0800 
 33 H       -3.9740     0.7460     1.3410 H     1 <1>   0.0800 
 34 H       -3.1110     3.4260    -1.9550 H     1 <1>   0.1500 
 35 H       -3.0370     6.1380     1.3490 H     1 <1>   0.1500 
 36 H       -5.3330     4.2390    -2.5640 H     1 <1>   0.1500 
 37 H       -5.2630     6.9330     0.7330 H     1 <1>   0.1500 
 38 H        2.0550     5.4900    -0.2710 H     1 <1>   0.3700 
 39 H       -6.4200     5.9920    -1.2230 H     1 <1>   0.1500 
 40 H        1.5560     8.0720     1.1810 H     1 <1>   0.0800 
 41 H        2.7320     6.8960     1.7200 H     1 <1>   0.0800 
 42 H        3.9420     7.1240    -0.4350 H     1 <1>   0.0800 
 43 H        2.7570     8.2930    -0.9700 H     1 <1>   0.0800 
 44 H        4.6070     8.6440     1.4110 H     1 <1>   0.0800 
 45 H        3.4210     9.8130     0.8720 H     1 <1>   0.0800 
 46 H        4.7870     9.4210    -0.1430 H     1 <1>   0.0800 
@<TRIPOS>BOND
  1   1   2  2   
  2   2   3  am  
  3   2   4  1   
  4   3   5  1   
  5   3   6  1   
  6   4   7  1   
  7   4  23  1   
  8   4  24  1   
  9   5   8  1   
 10   5   9  1   
 11   5  25  1   
 12   6  10  1   
 13   6  11  1   
 14   6  26  1   
 15   7   9  1   
 16   8  12  ar  
 17   8  13  ar  
 18   9  14  1   
 19   9  27  1   
 20  10  28  1   
 21  10  29  1   
 22  10  30  1   
 23  11  31  1   
 24  11  32  1   
 25  11  33  1   
 26  12  15  ar  
 27  12  34  1   
 28  13  16  ar  
 29  13  35  1   
 30  14  17  2   
 31  14  18  am  
 32  15  19  ar  
 33  15  36  1   
 34  16  19  ar  
 35  16  37  1   
 36  18  20  1   
 37  18  38  1   
 38  19  39  1   
 39  20  21  1   
 40  20  40  1   
 41  20  41  1   
 42  21  22  1   
 43  21  42  1   
 44  21  43  1   
 45  22  44  1   
 46  22  45  1   
 47  22  46  1   
@<TRIPOS>SUBSTRUCTURE
  1 ****   5 GROUP 4 **** **** 0

# MOE 2024.06 (io_trps.svl 2023.06)
