@<TRIPOS>MOLECULE
NONAME
53 56 1 0 0 
SMALL
USER_CHARGES


@<TRIPOS>ATOM
  1 S        0.2290     1.0880     2.1730 S.3   1 <1>  -0.0800 
  2 C       -0.7770     1.8940     0.9970 C.2   1 <1>  -0.1400 
  3 C       -0.2540    -0.4480     1.4930 C.2   1 <1>   0.2280 
  4 C       -1.3760     0.9630     0.2350 C.2   1 <1>   0.0460 
  5 C       -0.8340     3.4090     1.0100 C.3   1 <1>   0.5230 
  6 N       -1.0650    -0.3520     0.5170 N.2   1 <1>  -0.5650 
  7 C       -2.3550     1.1740    -0.9020 C.3   1 <1>  -0.0590 
  8 N        0.4240     4.0070     0.4690 N.4   1 <1>  -0.9590 
  9 C        1.5010     4.0600     1.5180 C.3   1 <1>   0.3430 
 10 C        0.8720     3.3650    -0.8160 C.3   1 <1>   0.3430 
 11 C        2.6190     5.0610     1.1460 C.3   1 <1>   0.2200 
 12 C        2.0630     4.0420    -1.5390 C.3   1 <1>  -0.0800 
 13 N        2.1510     6.0150     0.0680 N.am  1 <1>  -0.6600 
 14 C        3.9150     4.3160     0.7830 C.3   1 <1>   0.1200 
 15 C        3.3860     3.3030    -1.2840 C.3   1 <1>   0.1200 
 16 C        2.2140     5.5670    -1.3570 C.3   1 <1>   0.1400 
 17 C        1.4610     7.1330     0.4440 C.2   1 <1>   0.5690 
 18 O        3.6250     3.1490     0.0730 O.3   1 <1>  -0.5600 
 19 O        0.8880     7.1580     1.5050 O.2   1 <1>  -0.5700 
 20 C        1.3560     8.3290    -0.4830 C.3   1 <1>  -0.0990 
 21 C        1.0230     9.6230     0.2800 C.3   1 <1>   0.0960 
 22 N        1.0180    10.7890    -0.6290 N.pl3 1 <1>   0.3140 
 23 N        0.3870    10.7880    -1.7840 N.2   1 <1>  -0.4180 
 24 C        1.5980    11.9720    -0.4940 C.2   1 <1>   0.0060 
 25 N        0.5950    11.9390    -2.3130 N.2   1 <1>   0.0000 
 26 N        1.3510    12.6910    -1.5200 N.2   1 <1>  -0.3380 
 27 C        2.4320    12.4270     0.6890 C.3   1 <1>  -0.0600 
 28 H        0.1580    -1.3390     1.9360 H     1 <1>   0.1500 
 29 H       -1.0140     3.7580     2.0140 H     1 <1>   0.0800 
 30 H       -1.6640     3.7230     0.3990 H     1 <1>   0.0800 
 31 H       -2.5530     2.2160    -1.0660 H     1 <1>   0.0800 
 32 H       -3.2810     0.6770    -0.6710 H     1 <1>   0.0800 
 33 H       -1.9580     0.7450    -1.8050 H     1 <1>   0.0800 
 34 H        0.2510     5.0040     0.2760 H     1 <1>   0.4500 
 35 H        1.0720     4.3820     2.4520 H     1 <1>   0.0800 
 36 H        1.9260     3.0820     1.6730 H     1 <1>   0.0800 
 37 H        1.1310     2.3340    -0.6270 H     1 <1>   0.0800 
 38 H        0.0360     3.3590    -1.4970 H     1 <1>   0.0800 
 39 H        2.8450     5.6410     2.0240 H     1 <1>   0.0800 
 40 H        1.8850     3.8960    -2.5890 H     1 <1>   0.0800 
 41 H        4.4060     4.0040     1.6890 H     1 <1>   0.0800 
 42 H        4.5980     4.9350     0.2270 H     1 <1>   0.0800 
 43 H        4.2250     3.8100    -1.7330 H     1 <1>   0.0800 
 44 H        3.3380     2.3110    -1.7030 H     1 <1>   0.0800 
 45 H        1.4300     6.0500    -1.9150 H     1 <1>   0.0800 
 46 H        3.1510     5.8910    -1.7820 H     1 <1>   0.0800 
 47 H        2.2920     8.4550    -0.9960 H     1 <1>   0.0800 
 48 H        0.5840     8.1350    -1.2040 H     1 <1>   0.0800 
 49 H        1.7470     9.7860     1.0570 H     1 <1>   0.0800 
 50 H        0.0500     9.5460     0.7310 H     1 <1>   0.0800 
 51 H        2.7500    13.4440     0.5400 H     1 <1>   0.0800 
 52 H        3.3050    11.8080     0.7900 H     1 <1>   0.0800 
 53 H        1.8520    12.3810     1.5930 H     1 <1>   0.0800 
@<TRIPOS>BOND
  1   1   2  1   
  2   1   3  1   
  3   2   4  2   
  4   2   5  1   
  5   3   6  2   
  6   3  28  1   
  7   4   6  1   
  8   4   7  1   
  9   5   8  1   
 10   5  29  1   
 11   5  30  1   
 12   7  31  1   
 13   7  32  1   
 14   7  33  1   
 15   8   9  1   
 16   8  10  1   
 17   8  34  1   
 18   9  11  1   
 19   9  35  1   
 20   9  36  1   
 21  10  12  1   
 22  10  37  1   
 23  10  38  1   
 24  11  13  1   
 25  11  14  1   
 26  11  39  1   
 27  12  15  1   
 28  12  16  1   
 29  12  40  1   
 30  13  16  1   
 31  13  17  am  
 32  14  18  1   
 33  14  41  1   
 34  14  42  1   
 35  15  18  1   
 36  15  43  1   
 37  15  44  1   
 38  16  45  1   
 39  16  46  1   
 40  17  19  2   
 41  17  20  1   
 42  20  21  1   
 43  20  47  1   
 44  20  48  1   
 45  21  22  1   
 46  21  49  1   
 47  21  50  1   
 48  22  23  1   
 49  22  24  1   
 50  23  25  2   
 51  24  26  2   
 52  24  27  1   
 53  25  26  1   
 54  27  51  1   
 55  27  52  1   
 56  27  53  1   
@<TRIPOS>SUBSTRUCTURE
  1 ****  13 GROUP 4 **** **** 0

# MOE 2024.06 (io_trps.svl 2023.06)
