@<TRIPOS>MOLECULE
NONAME
57 60 1 0 0 
SMALL
USER_CHARGES


@<TRIPOS>ATOM
  1 O       -1.6060    -0.2430     0.2420 O.2   1 <1>  -0.5700 
  2 C       -2.3760     0.6910     0.1230 C.2   1 <1>   0.7160 
  3 N       -3.6870     0.4490     0.4060 N.am  1 <1>  -0.7300 
  4 C       -1.9470     1.9850    -0.3130 C.2   1 <1>  -0.0860 
  5 C       -4.2640    -0.8150     0.9350 C.3   1 <1>   0.1400 
  6 C       -2.7380     3.1400    -0.3880 C.2   1 <1>   0.3720 
  7 C       -0.7430     2.4070    -0.7860 C.2   1 <1>   0.0870 
  8 C       -3.9850    -2.0030    -0.0220 C.3   1 <1>   0.4230 
  9 N       -2.0750     4.1290    -0.8720 N.2   1 <1>  -0.4100 
 10 N       -4.0770     3.2380     0.0160 N.pl3 1 <1>  -0.8210 
 11 O       -0.8770     3.6680    -1.1080 O.3   1 <1>  -0.0190 
 12 C        0.5250     1.7550    -0.9840 C.ar  1 <1>   0.0530 
 13 N       -3.4280    -3.2120     0.6410 N.4   1 <1>  -0.9590 
 14 C       -5.2220    -2.5250    -0.7430 C.3   1 <1>  -0.1600 
 15 C       -5.0050     3.7910    -1.0320 C.3   1 <1>   0.2090 
 16 C       -4.2550     3.9400     1.3330 C.3   1 <1>   0.2090 
 17 C        1.1930     1.8590    -2.2030 C.ar  1 <1>  -0.1500 
 18 C        1.1350     1.0120     0.0260 C.ar  1 <1>  -0.1500 
 19 C       -3.6140    -4.3170    -0.3340 C.3   1 <1>   0.3430 
 20 C       -2.0080    -3.0220     1.0480 C.3   1 <1>   0.3430 
 21 C       -4.9100    -3.9890    -1.0680 C.3   1 <1>  -0.1600 
 22 C       -5.0910     5.3310    -1.0200 C.3   1 <1>   0.1200 
 23 C       -4.3660     5.4700     1.1870 C.3   1 <1>   0.1200 
 24 C        2.4110     1.2390    -2.4100 C.ar  1 <1>  -0.1500 
 25 C        2.3530     0.3900    -0.1740 C.ar  1 <1>  -0.1500 
 26 C       -1.5500    -4.2050     1.8910 C.3   1 <1>  -0.2400 
 27 O       -5.3640     5.8020     0.2670 O.3   1 <1>  -0.5600 
 28 C        2.9940     0.5000    -1.3960 C.ar  1 <1>  -0.1500 
 29 H       -4.2900     1.2900     0.3690 H     1 <1>   0.3700 
 30 H       -3.8280    -1.0070     1.9000 H     1 <1>   0.0800 
 31 H       -5.3240    -0.6800     1.0660 H     1 <1>   0.0800 
 32 H       -3.2750    -1.6770    -0.7650 H     1 <1>   0.0800 
 33 H       -3.9930    -3.4160     1.4720 H     1 <1>   0.4500 
 34 H       -6.0860    -2.4720    -0.1030 H     1 <1>   0.0800 
 35 H       -5.4160    -1.9480    -1.6310 H     1 <1>   0.0800 
 36 H       -4.6790     3.4700    -2.0070 H     1 <1>   0.0800 
 37 H       -5.9910     3.3920    -0.8720 H     1 <1>   0.0800 
 38 H       -5.1490     3.5760     1.8080 H     1 <1>   0.0800 
 39 H       -3.4250     3.7120     1.9790 H     1 <1>   0.0800 
 40 H        0.7500     2.4350    -2.9960 H     1 <1>   0.1500 
 41 H        0.6490     0.9240     0.9810 H     1 <1>   0.1500 
 42 H       -2.7970    -4.3230    -1.0370 H     1 <1>   0.0800 
 43 H       -3.6660    -5.2750     0.1590 H     1 <1>   0.0800 
 44 H       -1.3800    -2.9150     0.1770 H     1 <1>   0.0800 
 45 H       -1.9130    -2.1190     1.6310 H     1 <1>   0.0800 
 46 H       -4.7750    -4.1370    -2.1260 H     1 <1>   0.0800 
 47 H       -5.7040    -4.6340    -0.7320 H     1 <1>   0.0800 
 48 H       -5.8850     5.6620    -1.6650 H     1 <1>   0.0800 
 49 H       -4.1690     5.7680    -1.3600 H     1 <1>   0.0800 
 50 H       -3.4320     5.8890     0.8540 H     1 <1>   0.0800 
 51 H       -4.6270     5.9150     2.1300 H     1 <1>   0.0800 
 52 H        2.9080     1.3300    -3.3610 H     1 <1>   0.1500 
 53 H        2.8060    -0.1790     0.6190 H     1 <1>   0.1500 
 54 H       -1.5420    -5.1150     1.3190 H     1 <1>   0.0800 
 55 H       -2.1740    -4.3230     2.7580 H     1 <1>   0.0800 
 56 H       -0.5450    -4.0230     2.2290 H     1 <1>   0.0800 
 57 H        3.9420     0.0170    -1.5550 H     1 <1>   0.1500 
@<TRIPOS>BOND
  1   1   2  2   
  2   2   3  am  
  3   2   4  1   
  4   3   5  1   
  5   3  29  1   
  6   4   6  1   
  7   4   7  2   
  8   5   8  1   
  9   5  30  1   
 10   5  31  1   
 11   6   9  2   
 12   6  10  1   
 13   7  11  1   
 14   7  12  1   
 15   8  13  1   
 16   8  14  1   
 17   8  32  1   
 18   9  11  1   
 19  10  15  1   
 20  10  16  1   
 21  12  17  ar  
 22  12  18  ar  
 23  13  19  1   
 24  13  20  1   
 25  13  33  1   
 26  14  21  1   
 27  14  34  1   
 28  14  35  1   
 29  15  22  1   
 30  15  36  1   
 31  15  37  1   
 32  16  23  1   
 33  16  38  1   
 34  16  39  1   
 35  17  24  ar  
 36  17  40  1   
 37  18  25  ar  
 38  18  41  1   
 39  19  21  1   
 40  19  42  1   
 41  19  43  1   
 42  20  26  1   
 43  20  44  1   
 44  20  45  1   
 45  21  46  1   
 46  21  47  1   
 47  22  27  1   
 48  22  48  1   
 49  22  49  1   
 50  23  27  1   
 51  23  50  1   
 52  23  51  1   
 53  24  28  ar  
 54  24  52  1   
 55  25  28  ar  
 56  25  53  1   
 57  26  54  1   
 58  26  55  1   
 59  26  56  1   
 60  28  57  1   
@<TRIPOS>SUBSTRUCTURE
  1 ****   2 GROUP 4 **** **** 0

# MOE 2024.06 (io_trps.svl 2023.06)
