@<TRIPOS>MOLECULE
NONAME
40 42 1 0 0 
SMALL
USER_CHARGES


@<TRIPOS>ATOM
  1 CL      -0.7260    -2.2130     2.1270 Cl    1 <1>  -0.1770 
  2 C        0.3430    -1.6490     0.8640 C.ar  1 <1>   0.1770 
  3 C        1.2240    -2.5160     0.2330 C.ar  1 <1>  -0.0090 
  4 C        0.2640    -0.3090     0.5250 C.ar  1 <1>  -0.1500 
  5 S        1.3220    -4.2590     0.6930 S.o2  1 <1>   1.4470 
  6 C        2.0350    -1.9870    -0.7680 C.ar  1 <1>  -0.1500 
  7 C        1.0800     0.1940    -0.4710 C.ar  1 <1>  -0.1500 
  8 O        2.1480    -4.9640    -0.2610 O.2   1 <1>  -0.6500 
  9 O        1.5940    -4.4060     2.1010 O.2   1 <1>  -0.6500 
 10 N       -0.2380    -4.8330     0.4720 N.am  1 <1>  -0.9140 
 11 C        1.9660    -0.6480    -1.1180 C.ar  1 <1>  -0.1500 
 12 C       -0.3370    -6.2880     0.4670 C.3   1 <1>   0.2760 
 13 C       -1.6900    -6.7110    -0.0900 C.3   1 <1>  -0.0800 
 14 C       -0.4650    -6.8200     1.8940 C.3   1 <1>   0.1200 
 15 C       -2.6130    -6.6190     1.1310 C.3   1 <1>   0.1200 
 16 C       -2.1910    -5.9290    -1.3190 C.3   1 <1>  -0.0170 
 17 O       -1.7850    -6.5540     2.2550 O.3   1 <1>  -0.5600 
 18 C       -3.5000    -6.5100    -1.8310 C.ar  1 <1>  -0.1430 
 19 C       -4.7220    -5.9530    -1.5130 C.ar  1 <1>  -0.1500 
 20 C       -3.5300    -7.6280    -2.6390 C.ar  1 <1>  -0.1500 
 21 C       -5.8840    -6.5290    -2.0000 C.ar  1 <1>   0.1600 
 22 C       -4.7480    -8.1260    -3.0730 C.ar  1 <1>   0.1600 
 23 N       -5.9250    -7.6040    -2.7700 N.ar  1 <1>  -0.6200 
 24 H       -0.4310     0.3320     1.0390 H     1 <1>   0.1500 
 25 H        2.7310    -2.6310    -1.2810 H     1 <1>   0.1500 
 26 H        1.0270     1.2360    -0.7420 H     1 <1>   0.1500 
 27 H       -0.7400    -4.5480     1.3170 H     1 <1>   0.4200 
 28 H        2.6050    -0.2620    -1.8950 H     1 <1>   0.1500 
 29 H        0.4750    -6.7420    -0.0780 H     1 <1>   0.0800 
 30 H       -1.6220    -7.7500    -0.3610 H     1 <1>   0.0800 
 31 H        0.2030    -6.3600     2.5990 H     1 <1>   0.0800 
 32 H       -0.3260    -7.8870     1.9150 H     1 <1>   0.0800 
 33 H       -3.2540    -7.4800     1.2140 H     1 <1>   0.0800 
 34 H       -3.2080    -5.7230     1.1150 H     1 <1>   0.0800 
 35 H       -1.4510    -5.9760    -2.0990 H     1 <1>   0.0800 
 36 H       -2.3350    -4.8910    -1.0730 H     1 <1>   0.0800 
 37 H       -4.7850    -5.0770    -0.8930 H     1 <1>   0.1500 
 38 H       -2.6210    -8.1170    -2.9350 H     1 <1>   0.1500 
 39 H       -6.8290    -6.0830    -1.7430 H     1 <1>   0.1500 
 40 H       -4.7530    -8.9990    -3.7030 H     1 <1>   0.1500 
@<TRIPOS>BOND
  1   1   2  1   
  2   2   3  ar  
  3   2   4  ar  
  4   3   5  1   
  5   3   6  ar  
  6   4   7  ar  
  7   4  24  1   
  8   5   8  2   
  9   5   9  2   
 10   5  10  am  
 11   6  11  ar  
 12   6  25  1   
 13   7  11  ar  
 14   7  26  1   
 15  10  12  1   
 16  10  27  1   
 17  11  28  1   
 18  12  13  1   
 19  12  14  1   
 20  12  29  1   
 21  13  15  1   
 22  13  16  1   
 23  13  30  1   
 24  14  17  1   
 25  14  31  1   
 26  14  32  1   
 27  15  17  1   
 28  15  33  1   
 29  15  34  1   
 30  16  18  1   
 31  16  35  1   
 32  16  36  1   
 33  18  19  ar  
 34  18  20  ar  
 35  19  21  ar  
 36  19  37  1   
 37  20  22  ar  
 38  20  38  1   
 39  21  23  ar  
 40  21  39  1   
 41  22  23  ar  
 42  22  40  1   
@<TRIPOS>SUBSTRUCTURE
  1 ****  10 GROUP 4 **** **** 0

# MOE 2024.06 (io_trps.svl 2023.06)
