@<TRIPOS>MOLECULE
NONAME
51 55 1 0 0 
SMALL
USER_CHARGES


@<TRIPOS>ATOM
  1 O        0.6650    -0.7890    -1.3840 O.3   1 <1>  -0.5600 
  2 C        1.8050    -1.0750    -0.5990 C.3   1 <1>   0.4240 
  3 C       -0.5860    -1.0460    -0.8350 C.3   1 <1>   0.1200 
  4 C        1.6200    -2.3870     0.2190 C.ar  1 <1>  -0.1440 
  5 C        2.0440     0.1530     0.3000 C.3   1 <1>  -0.1600 
  6 C        2.9360    -1.2120    -1.6310 C.3   1 <1>  -0.1600 
  7 C       -0.7310    -2.5510    -0.6830 C.3   1 <1>  -0.0160 
  8 C        2.6350    -2.9090     1.0330 C.ar  1 <1>   0.0830 
  9 C        0.4130    -3.0830     0.1540 C.ar  1 <1>  -0.1440 
 10 C        2.2690     1.4240    -0.5190 C.3   1 <1>   0.2090 
 11 C        3.1640     0.0840    -2.4100 C.3   1 <1>   0.2090 
 12 O        3.8100    -2.2350     1.1320 O.3   1 <1>  -0.3630 
 13 C        2.4360    -4.0970     1.7330 C.ar  1 <1>  -0.1500 
 14 C        0.2270    -4.2650     0.8520 C.ar  1 <1>  -0.1500 
 15 N        3.4000     1.2070    -1.4580 N.pl3 1 <1>  -0.8380 
 16 C        4.9530    -2.7670     1.7640 C.3   1 <1>   0.0400 
 17 C        1.2380    -4.7740     1.6410 C.ar  1 <1>  -0.1500 
 18 C        4.6800     1.6190    -1.1420 C.ar  1 <1>   0.4100 
 19 N        5.6700     0.7630    -1.3020 N.ar  1 <1>  -0.6200 
 20 C        4.9270     2.8920    -0.6660 C.ar  1 <1>  -0.1500 
 21 C        6.8670     1.1960    -0.9620 C.ar  1 <1>   0.4700 
 22 C        6.2130     3.2280    -0.3420 C.ar  1 <1>   0.2780 
 23 N        7.2100     2.3790    -0.4860 N.ar  1 <1>  -0.6200 
 24 C        6.5550     4.6090     0.1940 C.3   1 <1>  -0.0680 
 25 C        6.9290     4.7780     1.6350 C.3   1 <1>  -0.2000 
 26 C        5.6460     5.3590     1.1240 C.3   1 <1>  -0.2000 
 27 H       -1.3290    -0.6600    -1.5100 H     1 <1>   0.0800 
 28 H       -0.6700    -0.5470     0.1140 H     1 <1>   0.0800 
 29 H        2.9170     0.0060     0.9040 H     1 <1>   0.0800 
 30 H        1.2190     0.2860     0.9720 H     1 <1>   0.0800 
 31 H        2.7000    -2.0100    -2.3100 H     1 <1>   0.0800 
 32 H        3.8610    -1.4640    -1.1540 H     1 <1>   0.0800 
 33 H       -0.7200    -3.0150    -1.6540 H     1 <1>   0.0800 
 34 H       -1.6730    -2.7690    -0.2120 H     1 <1>   0.0800 
 35 H        2.4800     2.2420     0.1460 H     1 <1>   0.0800 
 36 H        1.3840     1.6670    -1.0810 H     1 <1>   0.0800 
 37 H        2.3010     0.3090    -3.0130 H     1 <1>   0.0800 
 38 H        4.0070    -0.0280    -3.0710 H     1 <1>   0.0800 
 39 H        3.2000    -4.5110     2.3610 H     1 <1>   0.1500 
 40 H       -0.7080    -4.7940     0.7850 H     1 <1>   0.1500 
 41 H        5.7620    -2.0730     1.6220 H     1 <1>   0.0800 
 42 H        5.1950    -3.7100     1.3080 H     1 <1>   0.0800 
 43 H        4.7500    -2.8820     2.8140 H     1 <1>   0.0800 
 44 H        1.0900    -5.6920     2.1820 H     1 <1>   0.1500 
 45 H        4.1250     3.5920    -0.5660 H     1 <1>   0.1500 
 46 H        7.6710     0.4920    -1.0910 H     1 <1>   0.1500 
 47 H        7.1220     5.1790    -0.5200 H     1 <1>   0.1000 
 48 H        7.7470     5.4340     1.8750 H     1 <1>   0.1000 
 49 H        6.8970     3.9080     2.2700 H     1 <1>   0.1000 
 50 H        4.7260     4.9100     1.4550 H     1 <1>   0.1000 
 51 H        5.5690     6.4270     1.0170 H     1 <1>   0.1000 
@<TRIPOS>BOND
  1   1   2  1   
  2   1   3  1   
  3   2   4  1   
  4   2   5  1   
  5   2   6  1   
  6   3   7  1   
  7   3  27  1   
  8   3  28  1   
  9   4   8  ar  
 10   4   9  ar  
 11   5  10  1   
 12   5  29  1   
 13   5  30  1   
 14   6  11  1   
 15   6  31  1   
 16   6  32  1   
 17   7   9  1   
 18   7  33  1   
 19   7  34  1   
 20   8  12  1   
 21   8  13  ar  
 22   9  14  ar  
 23  10  15  1   
 24  10  35  1   
 25  10  36  1   
 26  11  15  1   
 27  11  37  1   
 28  11  38  1   
 29  12  16  1   
 30  13  17  ar  
 31  13  39  1   
 32  14  17  ar  
 33  14  40  1   
 34  15  18  1   
 35  16  41  1   
 36  16  42  1   
 37  16  43  1   
 38  17  44  1   
 39  18  19  ar  
 40  18  20  ar  
 41  19  21  ar  
 42  20  22  ar  
 43  20  45  1   
 44  21  23  ar  
 45  21  46  1   
 46  22  23  ar  
 47  22  24  1   
 48  24  25  1   
 49  24  26  1   
 50  24  47  1   
 51  25  26  1   
 52  25  48  1   
 53  25  49  1   
 54  26  50  1   
 55  26  51  1   
@<TRIPOS>SUBSTRUCTURE
  1 ****   5 GROUP 4 **** **** 0

# MOE 2024.06 (io_trps.svl 2023.06)
