@<TRIPOS>MOLECULE
NONAME
47 50 1 0 0 
SMALL
USER_CHARGES


@<TRIPOS>ATOM
  1 O        0.5040     0.0140     0.0190 O.3   1 <1>  -0.3630 
  2 C        1.2190    -1.1080     0.1430 C.ar  1 <1>   0.0820 
  3 C        1.2920     0.9160    -0.7580 C.3   1 <1>   0.4000 
  4 C        2.4030    -0.9880    -0.5180 C.ar  1 <1>   0.0820 
  5 C        0.8860    -2.2630     0.8170 C.ar  1 <1>  -0.1500 
  6 O        2.4910     0.2170    -1.0900 O.3   1 <1>  -0.3630 
  7 C        3.3220    -2.0160    -0.5370 C.ar  1 <1>  -0.1500 
  8 C        1.7890    -3.3230     0.8000 C.ar  1 <1>  -0.1440 
  9 C        3.0150    -3.1970     0.1330 C.ar  1 <1>  -0.1430 
 10 C        1.3990    -4.6040     1.5130 C.3   1 <1>   0.4870 
 11 C        4.0530    -4.3130     0.1210 C.3   1 <1>  -0.0960 
 12 N        0.9290    -5.5740     0.4880 N.4   1 <1>  -0.9590 
 13 C       -0.4250    -5.1850    -0.0240 C.3   1 <1>   0.3430 
 14 C        0.8020    -6.9460     1.0700 C.3   1 <1>   0.3430 
 15 C       -1.4170    -6.1140     0.6810 C.3   1 <1>   0.2000 
 16 C       -0.6350    -7.4180     0.8060 C.3   1 <1>  -0.0800 
 17 O       -1.6400    -5.6220     1.9630 O.3   1 <1>  -0.6800 
 18 C       -0.7350    -8.2750    -0.4730 C.3   1 <1>  -0.0170 
 19 C        0.2630    -9.4210    -0.4380 C.ar  1 <1>  -0.1430 
 20 C        0.1600   -10.4510     0.4770 C.ar  1 <1>  -0.1500 
 21 C        1.3280    -9.4900    -1.3150 C.ar  1 <1>  -0.1500 
 22 C        1.1110   -11.4570     0.4860 C.ar  1 <1>   0.1600 
 23 C        2.2240   -10.5420    -1.2230 C.ar  1 <1>   0.1600 
 24 N        2.1450   -11.5180    -0.3350 N.ar  1 <1>  -0.6200 
 25 H        0.7640     1.1770    -1.6580 H     1 <1>   0.0800 
 26 H        1.5320     1.7840    -0.1700 H     1 <1>   0.0800 
 27 H       -0.0570    -2.3100     1.3340 H     1 <1>   0.1500 
 28 H        4.2500    -1.8770    -1.0630 H     1 <1>   0.1500 
 29 H        0.6170    -4.4120     2.2310 H     1 <1>   0.0800 
 30 H        2.2550    -4.9970     2.0360 H     1 <1>   0.0800 
 31 H        4.9860    -3.9560    -0.2810 H     1 <1>   0.0800 
 32 H        3.7240    -5.1330    -0.4900 H     1 <1>   0.0800 
 33 H        4.2470    -4.6630     1.1190 H     1 <1>   0.0800 
 34 H        1.6090    -5.5410    -0.2810 H     1 <1>   0.4500 
 35 H       -0.6600    -4.1520     0.1660 H     1 <1>   0.0800 
 36 H       -0.4700    -5.3620    -1.0860 H     1 <1>   0.0800 
 37 H        1.5250    -7.6230     0.6440 H     1 <1>   0.0800 
 38 H        0.9580    -6.9030     2.1360 H     1 <1>   0.0800 
 39 H       -2.3590    -6.1980     0.1650 H     1 <1>   0.0800 
 40 H       -0.9880    -8.0060     1.6350 H     1 <1>   0.0800 
 41 H       -2.4170    -6.0540     2.3810 H     1 <1>   0.4000 
 42 H       -0.5550    -7.6790    -1.3500 H     1 <1>   0.0800 
 43 H       -1.7290    -8.6820    -0.5600 H     1 <1>   0.0800 
 44 H       -0.6490   -10.4900     1.1840 H     1 <1>   0.1500 
 45 H        1.4750    -8.7450    -2.0760 H     1 <1>   0.1500 
 46 H        1.0180   -12.2540     1.2050 H     1 <1>   0.1500 
 47 H        3.0480   -10.5860    -1.9160 H     1 <1>   0.1500 
@<TRIPOS>BOND
  1   1   2  1   
  2   1   3  1   
  3   2   4  ar  
  4   2   5  ar  
  5   3   6  1   
  6   3  25  1   
  7   3  26  1   
  8   4   6  1   
  9   4   7  ar  
 10   5   8  ar  
 11   5  27  1   
 12   7   9  ar  
 13   7  28  1   
 14   8   9  ar  
 15   8  10  1   
 16   9  11  1   
 17  10  12  1   
 18  10  29  1   
 19  10  30  1   
 20  11  31  1   
 21  11  32  1   
 22  11  33  1   
 23  12  13  1   
 24  12  14  1   
 25  12  34  1   
 26  13  15  1   
 27  13  35  1   
 28  13  36  1   
 29  14  16  1   
 30  14  37  1   
 31  14  38  1   
 32  15  16  1   
 33  15  17  1   
 34  15  39  1   
 35  16  18  1   
 36  16  40  1   
 37  17  41  1   
 38  18  19  1   
 39  18  42  1   
 40  18  43  1   
 41  19  20  ar  
 42  19  21  ar  
 43  20  22  ar  
 44  20  44  1   
 45  21  23  ar  
 46  21  45  1   
 47  22  24  ar  
 48  22  46  1   
 49  23  24  ar  
 50  23  47  1   
@<TRIPOS>SUBSTRUCTURE
  1 ****  12 GROUP 4 **** **** 0

# MOE 2024.06 (io_trps.svl 2023.06)
