@<TRIPOS>MOLECULE
NONAME
49 50 1 0 0 
SMALL
USER_CHARGES


@<TRIPOS>ATOM
  1 O        0.2000     0.0550    -1.4180 O.2   1 <1>  -0.5700 
  2 C        1.2260    -0.4990    -1.1180 C.2   1 <1>   0.5690 
  3 N        2.3210     0.1380    -0.6100 N.am  1 <1>  -0.4940 
  4 C        1.2880    -2.0040    -1.3260 C.3   1 <1>  -0.0990 
  5 C        2.4650     1.4850    -0.2530 C.2   1 <1>   0.2040 
  6 C        0.1220    -2.7180    -0.6130 C.3   1 <1>  -0.1600 
  7 O        1.4470     2.3110    -0.2090 O.3   1 <1>  -0.0190 
  8 C        3.5650     2.1730     0.1150 C.2   1 <1>  -0.1810 
  9 C        0.0560    -4.2050    -0.9660 C.3   1 <1>   0.3430 
 10 N        1.8090     3.5100     0.1720 N.2   1 <1>  -0.4100 
 11 C        3.0760     3.4530     0.3710 C.2   1 <1>   0.1080 
 12 C        5.0040     1.7000     0.2300 C.3   1 <1>   0.0210 
 13 N       -1.1080    -4.8350    -0.2870 N.4   1 <1>  -0.9590 
 14 C        3.8950     4.6440     0.8220 C.3   1 <1>  -0.0590 
 15 C        5.3250     1.2960     1.6710 C.3   1 <1>  -0.2400 
 16 C       -0.9840    -6.3170    -0.2590 C.3   1 <1>   0.3430 
 17 C       -2.4040    -4.4480    -0.9090 C.3   1 <1>   0.3430 
 18 C       -1.7470    -6.9120     0.9280 C.3   1 <1>  -0.1600 
 19 C       -3.4300    -4.1160     0.1740 C.3   1 <1>  -0.1600 
 20 C       -3.2410    -6.5470     1.0310 C.3   1 <1>  -0.1600 
 21 C       -3.4780    -5.0700     1.3820 C.3   1 <1>  -0.1600 
 22 H        3.1550    -0.4230    -0.4650 H     1 <1>   0.3700 
 23 H        2.2280    -2.3870    -0.9710 H     1 <1>   0.0800 
 24 H        1.2310    -2.1810    -2.3850 H     1 <1>   0.0800 
 25 H       -0.7950    -2.2380    -0.9080 H     1 <1>   0.0800 
 26 H        0.2380    -2.5970     0.4500 H     1 <1>   0.0800 
 27 H        0.9680    -4.6810    -0.6410 H     1 <1>   0.0800 
 28 H       -0.0290    -4.3290    -2.0340 H     1 <1>   0.0800 
 29 H        5.6690     2.4840    -0.0870 H     1 <1>   0.0800 
 30 H        5.1610     0.8580    -0.4210 H     1 <1>   0.0800 
 31 H       -1.1380    -4.5110     0.6890 H     1 <1>   0.4500 
 32 H        4.3490     4.4370     1.7730 H     1 <1>   0.0800 
 33 H        3.2610     5.5070     0.9220 H     1 <1>   0.0800 
 34 H        4.6590     4.8580     0.0990 H     1 <1>   0.0800 
 35 H        5.1980     2.1350     2.3320 H     1 <1>   0.0800 
 36 H        6.3430     0.9540     1.7420 H     1 <1>   0.0800 
 37 H        4.6710     0.5060     1.9930 H     1 <1>   0.0800 
 38 H        0.0540    -6.5950    -0.1670 H     1 <1>   0.0800 
 39 H       -1.3580    -6.7350    -1.1810 H     1 <1>   0.0800 
 40 H       -2.7730    -5.2600    -1.5150 H     1 <1>   0.0800 
 41 H       -2.2790    -3.5900    -1.5490 H     1 <1>   0.0800 
 42 H       -1.2460    -6.6410     1.8410 H     1 <1>   0.0800 
 43 H       -1.6740    -7.9840     0.8500 H     1 <1>   0.0800 
 44 H       -4.3980    -4.1130    -0.2970 H     1 <1>   0.0800 
 45 H       -3.2600    -3.1120     0.5250 H     1 <1>   0.0800 
 46 H       -3.6640    -7.1430     1.8240 H     1 <1>   0.0800 
 47 H       -3.7660    -6.8140     0.1290 H     1 <1>   0.0800 
 48 H       -4.4520    -4.9770     1.8350 H     1 <1>   0.0800 
 49 H       -2.7670    -4.7590     2.1290 H     1 <1>   0.0800 
@<TRIPOS>BOND
  1   1   2  2   
  2   2   3  am  
  3   2   4  1   
  4   3   5  1   
  5   3  22  1   
  6   4   6  1   
  7   4  23  1   
  8   4  24  1   
  9   5   7  1   
 10   5   8  2   
 11   6   9  1   
 12   6  25  1   
 13   6  26  1   
 14   7  10  1   
 15   8  11  1   
 16   8  12  1   
 17   9  13  1   
 18   9  27  1   
 19   9  28  1   
 20  10  11  2   
 21  11  14  1   
 22  12  15  1   
 23  12  29  1   
 24  12  30  1   
 25  13  16  1   
 26  13  17  1   
 27  13  31  1   
 28  14  32  1   
 29  14  33  1   
 30  14  34  1   
 31  15  35  1   
 32  15  36  1   
 33  15  37  1   
 34  16  18  1   
 35  16  38  1   
 36  16  39  1   
 37  17  19  1   
 38  17  40  1   
 39  17  41  1   
 40  18  20  1   
 41  18  42  1   
 42  18  43  1   
 43  19  21  1   
 44  19  44  1   
 45  19  45  1   
 46  20  21  1   
 47  20  46  1   
 48  20  47  1   
 49  21  48  1   
 50  21  49  1   
@<TRIPOS>SUBSTRUCTURE
  1 ****   2 GROUP 4 **** **** 0

# MOE 2024.06 (io_trps.svl 2023.06)
