@<TRIPOS>MOLECULE
NONAME
48 50 1 0 0 
SMALL
USER_CHARGES


@<TRIPOS>ATOM
  1 O       -1.7550     1.0950    -2.6940 O.2   1 <1>  -0.5700 
  2 C       -1.8050     1.8000    -1.7250 C.2   1 <1>   0.6590 
  3 O       -2.9260     2.2200    -1.1770 O.3   1 <1>  -0.4300 
  4 C       -0.6090     2.2790    -0.9530 C.3   1 <1>  -0.0990 
  5 C       -2.7250     2.9210     0.0280 C.3   1 <1>   0.2800 
  6 C       -1.2330     3.3330    -0.0290 C.3   1 <1>  -0.0190 
  7 C       -2.9920     1.9210     1.1730 C.3   1 <1>  -0.1600 
  8 C       -3.7480     4.0840     0.0970 C.3   1 <1>  -0.1600 
  9 C       -1.0320     4.7390    -0.5860 C.2   1 <1>   0.5690 
 10 C       -4.4070     1.3040     1.1250 C.3   1 <1>  -0.1600 
 11 C       -5.1190     3.7090     0.7000 C.3   1 <1>  -0.1600 
 12 O       -1.1930     4.9310    -1.7660 O.2   1 <1>  -0.5700 
 13 N       -0.6670     5.7260     0.2900 N.am  1 <1>  -0.4940 
 14 C       -5.4600     2.2300     0.4910 C.3   1 <1>  -0.1600 
 15 C       -0.4230     7.1080     0.0890 C.2   1 <1>  -0.0880 
 16 N       -1.0280     7.9490    -0.8000 N.pl3 1 <1>   0.3140 
 17 C        0.4550     7.8680     0.7880 C.2   1 <1>  -0.1810 
 18 N       -0.5640     9.2100    -0.6760 N.2   1 <1>  -0.7070 
 19 C       -2.1180     7.6750    -1.7470 C.3   1 <1>   0.0160 
 20 C        0.3220     9.1520     0.2660 C.2   1 <1>   0.1080 
 21 C        1.4030     7.4500     1.8990 C.3   1 <1>  -0.0590 
 22 C        1.0980    10.3800     0.7090 C.3   1 <1>   0.0210 
 23 C        2.3880    10.5420    -0.1010 C.3   1 <1>  -0.2400 
 24 H        0.1390     2.6780    -1.6140 H     1 <1>   0.0800 
 25 H       -0.2070     1.4540    -0.3950 H     1 <1>   0.0800 
 26 H       -0.7880     3.2840     0.9470 H     1 <1>   0.0800 
 27 H       -2.8850     2.4470     2.1060 H     1 <1>   0.0800 
 28 H       -2.2620     1.1310     1.1700 H     1 <1>   0.0800 
 29 H       -3.8890     4.4760    -0.8970 H     1 <1>   0.0800 
 30 H       -3.3570     4.8810     0.7030 H     1 <1>   0.0800 
 31 H       -4.7070     1.0490     2.1270 H     1 <1>   0.0800 
 32 H       -4.3780     0.3900     0.5560 H     1 <1>   0.0800 
 33 H       -5.8850     4.3250     0.2620 H     1 <1>   0.0800 
 34 H       -5.1090     3.9080     1.7580 H     1 <1>   0.0800 
 35 H       -0.4550     5.4190     1.2370 H     1 <1>   0.3700 
 36 H       -6.4300     2.0110     0.9030 H     1 <1>   0.0800 
 37 H       -5.5110     2.0370    -0.5680 H     1 <1>   0.0800 
 38 H       -2.7990     6.9690    -1.3160 H     1 <1>   0.0800 
 39 H       -1.7000     7.2770    -2.6530 H     1 <1>   0.0800 
 40 H       -2.6350     8.5910    -1.9630 H     1 <1>   0.0800 
 41 H        1.4090     6.3830     2.0180 H     1 <1>   0.0800 
 42 H        1.1020     7.9040     2.8260 H     1 <1>   0.0800 
 43 H        2.4020     7.7700     1.6640 H     1 <1>   0.0800 
 44 H        1.3280    10.3050     1.7560 H     1 <1>   0.0800 
 45 H        0.4770    11.2470     0.5690 H     1 <1>   0.0800 
 46 H        3.0230     9.6850     0.0330 H     1 <1>   0.0800 
 47 H        2.9160    11.4240     0.2120 H     1 <1>   0.0800 
 48 H        2.1480    10.6320    -1.1460 H     1 <1>   0.0800 
@<TRIPOS>BOND
  1   1   2  2   
  2   2   3  1   
  3   2   4  1   
  4   3   5  1   
  5   4   6  1   
  6   4  24  1   
  7   4  25  1   
  8   5   6  1   
  9   5   7  1   
 10   5   8  1   
 11   6   9  1   
 12   6  26  1   
 13   7  10  1   
 14   7  27  1   
 15   7  28  1   
 16   8  11  1   
 17   8  29  1   
 18   8  30  1   
 19   9  12  2   
 20   9  13  am  
 21  10  14  1   
 22  10  31  1   
 23  10  32  1   
 24  11  14  1   
 25  11  33  1   
 26  11  34  1   
 27  13  15  1   
 28  13  35  1   
 29  14  36  1   
 30  14  37  1   
 31  15  16  1   
 32  15  17  2   
 33  16  18  1   
 34  16  19  1   
 35  17  20  1   
 36  17  21  1   
 37  18  20  2   
 38  19  38  1   
 39  19  39  1   
 40  19  40  1   
 41  20  22  1   
 42  21  41  1   
 43  21  42  1   
 44  21  43  1   
 45  22  23  1   
 46  22  44  1   
 47  22  45  1   
 48  23  46  1   
 49  23  47  1   
 50  23  48  1   
@<TRIPOS>SUBSTRUCTURE
  1 ****   9 GROUP 4 **** **** 0

# MOE 2024.06 (io_trps.svl 2023.06)
