@<TRIPOS>MOLECULE
Untitled Document
49 50 1 0 0 
SMALL
USER_CHARGES


@<TRIPOS>ATOM
  1 O        0.5360     0.3390     1.6530 O.2   1 <1>  -0.5700 
  2 C        1.4190    -0.4200     1.2880 C.2   1 <1>   0.6900 
  3 N        1.1640    -1.7850     1.2130 N.am  1 <1>  -0.4200 
  4 N        2.6640     0.0780     0.9500 N.am  1 <1>  -0.4230 
  5 C        2.1430    -2.6650     0.7880 C.2   1 <1>   0.7150 
  6 C       -0.1810    -2.3070     1.5850 C.3   1 <1>   0.1400 
  7 C        3.6520    -0.8040     0.5290 C.2   1 <1>   0.2900 
  8 C        2.9950     1.5260     1.0130 C.3   1 <1>   0.0600 
  9 O        1.9200    -3.8620     0.7090 O.2   1 <1>  -0.5700 
 10 C        3.4100    -2.1290     0.4480 C.2   1 <1>  -0.2370 
 11 C       -1.0920    -2.3390     0.3530 C.3   1 <1>  -0.1600 
 12 N        4.9010    -0.4930     0.1660 N.2   1 <1>  -0.5650 
 13 N        4.5650    -2.6930     0.0100 N.pl3 1 <1>   0.0480 
 14 C       -2.4770    -2.9030     0.7000 C.3   1 <1>  -0.1600 
 15 C        5.4120    -1.6470    -0.1370 C.2   1 <1>   0.0360 
 16 C        4.7790    -4.1420    -0.2320 C.3   1 <1>   0.0960 
 17 C       -3.3800    -2.9390    -0.5490 C.3   1 <1>  -0.1600 
 18 C        6.2050    -4.4670    -0.7030 C.3   1 <1>  -0.1600 
 19 C       -4.8050    -3.4870    -0.3370 C.3   1 <1>   0.2800 
 20 C        6.3790    -5.9720    -0.9350 C.3   1 <1>  -0.2400 
 21 O       -5.4260    -2.7220     0.6140 O.3   1 <1>  -0.6800 
 22 C       -4.8290    -4.9290     0.1680 C.3   1 <1>  -0.2400 
 23 C       -5.6340    -3.3510    -1.6110 C.3   1 <1>  -0.2400 
 24 H       -0.6160    -1.6840     2.3470 H     1 <1>   0.0800 
 25 H       -0.0850    -3.2980     1.9950 H     1 <1>   0.0800 
 26 H        2.1580     2.1020     1.3660 H     1 <1>   0.0800 
 27 H        3.2690     1.8710     0.0320 H     1 <1>   0.0800 
 28 H        3.8270     1.6730     1.6790 H     1 <1>   0.0800 
 29 H       -0.6390    -2.9530    -0.4060 H     1 <1>   0.0800 
 30 H       -1.2010    -1.3380    -0.0300 H     1 <1>   0.0800 
 31 H       -2.9270    -2.2840     1.4570 H     1 <1>   0.0800 
 32 H       -2.3570    -3.8960     1.0960 H     1 <1>   0.0800 
 33 H        6.4260    -1.7720    -0.4760 H     1 <1>   0.1500 
 34 H        4.0690    -4.4670    -0.9720 H     1 <1>   0.0800 
 35 H        4.5710    -4.6690     0.6820 H     1 <1>   0.0800 
 36 H       -2.9010    -3.5420    -1.3010 H     1 <1>   0.0800 
 37 H       -3.4580    -1.9430    -0.9500 H     1 <1>   0.0800 
 38 H        6.9140    -4.1470     0.0410 H     1 <1>   0.0800 
 39 H        6.4080    -3.9490    -1.6250 H     1 <1>   0.0800 
 40 H        6.1990    -6.5180    -0.0250 H     1 <1>   0.0800 
 41 H        7.3820    -6.1810    -1.2640 H     1 <1>   0.0800 
 42 H        5.6940    -6.3210    -1.6890 H     1 <1>   0.0800 
 43 H       -4.9130    -2.7630     1.4390 H     1 <1>   0.4000 
 44 H       -4.3480    -5.0200     1.1230 H     1 <1>   0.0800 
 45 H       -4.3220    -5.5690    -0.5310 H     1 <1>   0.0800 
 46 H       -5.8450    -5.2720     0.2600 H     1 <1>   0.0800 
 47 H       -5.6620    -2.3250    -1.9310 H     1 <1>   0.0800 
 48 H       -6.6400    -3.6900    -1.4420 H     1 <1>   0.0800 
 49 H       -5.2030    -3.9420    -2.3990 H     1 <1>   0.0800 
@<TRIPOS>BOND
  1   1   2  2   
  2   2   3  am  
  3   2   4  am  
  4   3   5  am  
  5   3   6  1   
  6   4   7  1   
  7   4   8  1   
  8   5   9  2   
  9   5  10  1   
 10   6  11  1   
 11   6  24  1   
 12   6  25  1   
 13   7  10  2   
 14   7  12  1   
 15   8  26  1   
 16   8  27  1   
 17   8  28  1   
 18  10  13  1   
 19  11  14  1   
 20  11  29  1   
 21  11  30  1   
 22  12  15  2   
 23  13  15  1   
 24  13  16  1   
 25  14  17  1   
 26  14  31  1   
 27  14  32  1   
 28  15  33  1   
 29  16  18  1   
 30  16  34  1   
 31  16  35  1   
 32  17  19  1   
 33  17  36  1   
 34  17  37  1   
 35  18  20  1   
 36  18  38  1   
 37  18  39  1   
 38  19  21  1   
 39  19  22  1   
 40  19  23  1   
 41  20  40  1   
 42  20  41  1   
 43  20  42  1   
 44  21  43  1   
 45  22  44  1   
 46  22  45  1   
 47  22  46  1   
 48  23  47  1   
 49  23  48  1   
 50  23  49  1   
@<TRIPOS>SUBSTRUCTURE
  1 ****   3 GROUP 4 **** **** 0

# MOE 2024.06 (io_trps.svl 2023.06)
