@<TRIPOS>MOLECULE
NONAME
55 58 1 0 0 
SMALL
USER_CHARGES


@<TRIPOS>ATOM
  1 O       -0.0570    -0.8660     0.1820 O.2   1 <1>  -0.5700 
  2 C        1.1120    -1.2050     0.2870 C.2   1 <1>   0.5440 
  3 N        1.3970    -2.2420     1.1650 N.am  1 <1>  -0.6600 
  4 C        2.1200    -0.5230    -0.5360 C.ar  1 <1>   0.3960 
  5 C        0.4400    -2.6550     2.2280 C.3   1 <1>   0.1400 
  6 C        2.6450    -3.0520     1.1230 C.3   1 <1>   0.1400 
  7 N        3.3440    -0.2550    -0.0420 N.ar  1 <1>  -0.6200 
  8 C        1.7730    -0.1470    -1.8360 C.ar  1 <1>  -0.1500 
  9 C        0.0300    -4.1120     2.0090 C.3   1 <1>  -0.1600 
 10 C        2.2820    -4.5190     0.8790 C.3   1 <1>  -0.1600 
 11 C        4.1920     0.3720    -0.8360 C.ar  1 <1>   0.1600 
 12 C        2.6680     0.5020    -2.6570 C.ar  1 <1>  -0.1500 
 13 C        1.2640    -5.0330     1.9170 C.3   1 <1>  -0.0190 
 14 C        3.9130     0.7650    -2.1320 C.ar  1 <1>  -0.1500 
 15 C        0.8900    -6.5130     1.7620 C.2   1 <1>   0.5690 
 16 O        1.0700    -7.2170     2.7280 O.2   1 <1>  -0.5700 
 17 N        0.3670    -7.0530     0.6130 N.am  1 <1>  -0.6600 
 18 C        0.0540    -6.3970    -0.6850 C.3   1 <1>   0.1400 
 19 C       -0.0210    -8.4870     0.5500 C.3   1 <1>   0.1400 
 20 C       -0.9780    -7.3140    -1.3340 C.3   1 <1>   0.2000 
 21 C       -0.5540    -8.7110    -0.8710 C.3   1 <1>  -0.0800 
 22 O       -2.2210    -7.0060    -0.8020 O.3   1 <1>  -0.6800 
 23 C       -1.6530    -9.7860    -0.9640 C.3   1 <1>   0.0200 
 24 C       -1.1540   -11.1830    -0.6360 C.2   1 <1>  -0.0400 
 25 O       -2.0220   -12.1570    -0.5700 O.3   1 <1>  -0.0190 
 26 C        0.0590   -11.7010    -0.3800 C.2   1 <1>  -0.1500 
 27 N       -1.4590   -13.2950    -0.2810 N.2   1 <1>  -0.4100 
 28 C       -0.2050   -13.0500    -0.1600 C.2   1 <1>   0.1080 
 29 C        0.8360   -14.0940     0.1770 C.3   1 <1>  -0.0590 
 30 H        0.9170    -2.5460     3.1860 H     1 <1>   0.0800 
 31 H       -0.4350    -2.0260     2.2230 H     1 <1>   0.0800 
 32 H        3.2980    -2.7220     0.3360 H     1 <1>   0.0800 
 33 H        3.1660    -2.9450     2.0600 H     1 <1>   0.0800 
 34 H        0.7840    -0.3690    -2.1930 H     1 <1>   0.1500 
 35 H       -0.5900    -4.4280     2.8300 H     1 <1>   0.0800 
 36 H       -0.5630    -4.1630     1.1180 H     1 <1>   0.0800 
 37 H        1.8910    -4.5950    -0.1160 H     1 <1>   0.0800 
 38 H        3.1750    -5.1170     0.9270 H     1 <1>   0.0800 
 39 H        5.1680     0.5880    -0.4340 H     1 <1>   0.1500 
 40 H        2.4060     0.7940    -3.6600 H     1 <1>   0.1500 
 41 H        1.7580    -4.9610     2.8710 H     1 <1>   0.0800 
 42 H        4.6590     1.2720    -2.7170 H     1 <1>   0.1500 
 43 H       -0.3260    -5.3980    -0.5750 H     1 <1>   0.0800 
 44 H        0.9450    -6.3780    -1.2890 H     1 <1>   0.0800 
 45 H        0.8280    -9.1140     0.7620 H     1 <1>   0.0800 
 46 H       -0.7870    -8.6740     1.2840 H     1 <1>   0.0800 
 47 H       -1.0270    -7.2110    -2.4050 H     1 <1>   0.0800 
 48 H        0.2740    -9.0170    -1.4870 H     1 <1>   0.0800 
 49 H       -2.1370    -6.9350     0.1710 H     1 <1>   0.4000 
 50 H       -2.0570    -9.7970    -1.9610 H     1 <1>   0.0800 
 51 H       -2.4590    -9.5480    -0.2920 H     1 <1>   0.0800 
 52 H        1.0250   -11.2360    -0.3420 H     1 <1>   0.1500 
 53 H        1.3290   -13.8340     1.0960 H     1 <1>   0.0800 
 54 H        1.5620   -14.1540    -0.6120 H     1 <1>   0.0800 
 55 H        0.3680   -15.0550     0.2930 H     1 <1>   0.0800 
@<TRIPOS>BOND
  1   1   2  2   
  2   2   3  am  
  3   2   4  1   
  4   3   5  1   
  5   3   6  1   
  6   4   7  ar  
  7   4   8  ar  
  8   5   9  1   
  9   5  30  1   
 10   5  31  1   
 11   6  10  1   
 12   6  32  1   
 13   6  33  1   
 14   7  11  ar  
 15   8  12  ar  
 16   8  34  1   
 17   9  13  1   
 18   9  35  1   
 19   9  36  1   
 20  10  13  1   
 21  10  37  1   
 22  10  38  1   
 23  11  14  ar  
 24  11  39  1   
 25  12  14  ar  
 26  12  40  1   
 27  13  15  1   
 28  13  41  1   
 29  14  42  1   
 30  15  16  2   
 31  15  17  am  
 32  17  18  1   
 33  17  19  1   
 34  18  20  1   
 35  18  43  1   
 36  18  44  1   
 37  19  21  1   
 38  19  45  1   
 39  19  46  1   
 40  20  21  1   
 41  20  22  1   
 42  20  47  1   
 43  21  23  1   
 44  21  48  1   
 45  22  49  1   
 46  23  24  1   
 47  23  50  1   
 48  23  51  1   
 49  24  25  1   
 50  24  26  2   
 51  25  27  1   
 52  26  28  1   
 53  26  52  1   
 54  27  28  2   
 55  28  29  1   
 56  29  53  1   
 57  29  54  1   
 58  29  55  1   
@<TRIPOS>SUBSTRUCTURE
  1 ****  18 GROUP 4 **** **** 0

# MOE 2024.06 (io_trps.svl 2023.06)
