@<TRIPOS>MOLECULE
NONAME
49 51 1 0 0 
SMALL
USER_CHARGES


@<TRIPOS>ATOM
  1 S       -1.1160    -0.3460    -0.3870 S.o2  1 <1>   1.3330 
  2 O       -1.7870    -0.6670    -1.6240 O.2   1 <1>  -0.6500 
  3 O       -1.1440     0.9810     0.1730 O.2   1 <1>  -0.6500 
  4 N       -1.7370    -1.3600     0.7990 N.am  1 <1>  -0.9140 
  5 C        0.5900    -0.8420    -0.5250 C.3   1 <1>  -0.1350 
  6 C       -1.7520    -2.7780     0.4850 C.3   1 <1>   0.1960 
  7 C       -2.5380    -3.5210     1.5560 C.3   1 <1>  -0.0990 
  8 C       -2.6020    -4.9850     1.1830 C.2   1 <1>   0.5690 
  9 O       -1.6260    -5.6550     1.4140 O.2   1 <1>  -0.5700 
 10 N       -3.7080    -5.5120     0.5770 N.am  1 <1>  -0.6600 
 11 C       -4.9200    -4.7790     0.1300 C.3   1 <1>   0.1400 
 12 C       -3.7810    -6.9390     0.1850 C.3   1 <1>   0.1400 
 13 C       -5.6960    -5.7830    -0.7240 C.3   1 <1>   0.2000 
 14 C       -5.2220    -7.1640    -0.2730 C.3   1 <1>  -0.0800 
 15 O       -7.0640    -5.6680    -0.5310 O.3   1 <1>  -0.6800 
 16 C       -5.3560    -8.2270    -1.3760 C.3   1 <1>  -0.0160 
 17 C       -4.9170    -9.5990    -0.8740 C.ar  1 <1>  -0.1440 
 18 C       -5.7470   -10.4100    -0.0630 C.ar  1 <1>   0.0000 
 19 C       -3.6830   -10.0840    -1.1960 C.ar  1 <1>  -0.1500 
 20 C       -5.2300   -11.6570     0.3650 C.ar  1 <1>   0.3100 
 21 C       -7.0550   -10.0600     0.3450 C.ar  1 <1>  -0.1500 
 22 C       -3.2720   -11.3360    -0.7250 C.ar  1 <1>   0.1600 
 23 N       -3.9950   -12.1050     0.0250 N.ar  1 <1>  -0.6200 
 24 C       -6.0250   -12.4780     1.1810 C.ar  1 <1>  -0.1500 
 25 C       -7.8050   -10.8850     1.1390 C.ar  1 <1>  -0.1500 
 26 C       -7.2860   -12.1090     1.5650 C.ar  1 <1>  -0.1500 
 27 H       -1.2610    -1.1480     1.6730 H     1 <1>   0.4200 
 28 H        0.6630    -1.8540    -0.8720 H     1 <1>   0.0800 
 29 H        1.0830    -0.7560     0.4230 H     1 <1>   0.0800 
 30 H        1.0930    -0.2080    -1.2290 H     1 <1>   0.0800 
 31 H       -2.2280    -2.9290    -0.4720 H     1 <1>   0.0800 
 32 H       -0.7480    -3.1670     0.4340 H     1 <1>   0.0800 
 33 H       -3.5220    -3.1060     1.6530 H     1 <1>   0.0800 
 34 H       -2.0360    -3.4340     2.5020 H     1 <1>   0.0800 
 35 H       -5.4940    -4.4840     0.9910 H     1 <1>   0.0800 
 36 H       -4.6500    -3.9160    -0.4530 H     1 <1>   0.0800 
 37 H       -3.0860    -7.1120    -0.6190 H     1 <1>   0.0800 
 38 H       -3.5270    -7.5780     1.0150 H     1 <1>   0.0800 
 39 H       -5.4840    -5.6140    -1.7660 H     1 <1>   0.0800 
 40 H       -5.7820    -7.4670     0.5940 H     1 <1>   0.0800 
 41 H       -7.2970    -5.8510     0.3990 H     1 <1>   0.4000 
 42 H       -4.7540    -7.9430    -2.2210 H     1 <1>   0.0800 
 43 H       -6.3730    -8.2730    -1.7240 H     1 <1>   0.0800 
 44 H       -2.9990    -9.5260    -1.8100 H     1 <1>   0.1500 
 45 H       -7.4770    -9.1260     0.0260 H     1 <1>   0.1500 
 46 H       -2.2900   -11.6800    -1.0030 H     1 <1>   0.1500 
 47 H       -5.6050   -13.4160     1.4940 H     1 <1>   0.1500 
 48 H       -8.8000   -10.6060     1.4430 H     1 <1>   0.1500 
 49 H       -7.8840   -12.7490     2.1900 H     1 <1>   0.1500 
@<TRIPOS>BOND
  1   1   2  2   
  2   1   3  2   
  3   1   4  am  
  4   1   5  1   
  5   4   6  1   
  6   4  27  1   
  7   5  28  1   
  8   5  29  1   
  9   5  30  1   
 10   6   7  1   
 11   6  31  1   
 12   6  32  1   
 13   7   8  1   
 14   7  33  1   
 15   7  34  1   
 16   8   9  2   
 17   8  10  am  
 18  10  11  1   
 19  10  12  1   
 20  11  13  1   
 21  11  35  1   
 22  11  36  1   
 23  12  14  1   
 24  12  37  1   
 25  12  38  1   
 26  13  14  1   
 27  13  15  1   
 28  13  39  1   
 29  14  16  1   
 30  14  40  1   
 31  15  41  1   
 32  16  17  1   
 33  16  42  1   
 34  16  43  1   
 35  17  18  ar  
 36  17  19  ar  
 37  18  20  ar  
 38  18  21  ar  
 39  19  22  ar  
 40  19  44  1   
 41  20  23  ar  
 42  20  24  ar  
 43  21  25  ar  
 44  21  45  1   
 45  22  23  ar  
 46  22  46  1   
 47  24  26  ar  
 48  24  47  1   
 49  25  26  ar  
 50  25  48  1   
 51  26  49  1   
@<TRIPOS>SUBSTRUCTURE
  1 ****  12 GROUP 4 **** **** 0

# MOE 2024.06 (io_trps.svl 2023.06)
