@<TRIPOS>MOLECULE
NONAME
42 43 1 0 0 
SMALL
USER_CHARGES


@<TRIPOS>ATOM
  1 S        0.9770    -1.1120     1.7140 S.o2  1 <1>   1.4470 
  2 O        0.7480    -0.6890     3.0730 O.2   1 <1>  -0.6500 
  3 O        2.1930    -1.8130     1.3660 O.2   1 <1>  -0.6500 
  4 N       -0.3010    -2.1470     1.3840 N.am  1 <1>  -0.9140 
  5 C        0.6740     0.2580     0.5650 C.ar  1 <1>  -0.0090 
  6 C       -0.0250    -3.1660     0.3790 C.3   1 <1>   0.2760 
  7 C       -0.5410     0.9320     0.5750 C.ar  1 <1>  -0.1500 
  8 C        1.6390     0.6640    -0.3550 C.ar  1 <1>  -0.1500 
  9 C       -1.3380    -3.7450    -0.1300 C.3   1 <1>  -0.0800 
 10 C        0.5730    -4.4030     1.0450 C.3   1 <1>   0.1200 
 11 C       -0.7600     1.9630    -0.3170 C.ar  1 <1>   0.1900 
 12 C        1.4080     1.7040    -1.2450 C.ar  1 <1>  -0.1500 
 13 C       -1.6700    -4.8270     0.9080 C.3   1 <1>   0.1200 
 14 C       -2.4640    -2.7140    -0.3530 C.3   1 <1>  -0.0550 
 15 O       -0.5100    -5.0200     1.6660 O.3   1 <1>  -0.5600 
 16 F       -1.9120     2.5770    -0.2950 F     1 <1>  -0.1900 
 17 C        0.1930     2.3650    -1.2310 C.ar  1 <1>  -0.1500 
 18 S       -3.9140    -3.4210    -1.1290 S.o2  1 <1>   1.3330 
 19 O       -4.5710    -4.3040    -0.1920 O.2   1 <1>  -0.6500 
 20 O       -3.5080    -3.9230    -2.4220 O.2   1 <1>  -0.6500 
 21 N       -4.9130    -2.0700    -1.3690 N.am  1 <1>  -0.8490 
 22 C       -5.6690    -1.6830    -0.1730 C.3   1 <1>   0.1160 
 23 C       -5.8290    -2.2530    -2.5000 C.3   1 <1>   0.1160 
 24 H       -0.4410    -2.6600     2.2580 H     1 <1>   0.4200 
 25 H        0.5840    -2.7800    -0.4230 H     1 <1>   0.0800 
 26 H       -1.3130     0.6560     1.2730 H     1 <1>   0.1500 
 27 H        2.5910     0.1580    -0.3780 H     1 <1>   0.1500 
 28 H       -1.1410    -4.2420    -1.0650 H     1 <1>   0.0800 
 29 H        1.3310    -4.1790     1.7750 H     1 <1>   0.0800 
 30 H        0.9670    -5.0830     0.3090 H     1 <1>   0.0800 
 31 H        2.1730     1.9970    -1.9450 H     1 <1>   0.1500 
 32 H       -1.9420    -5.7590     0.4420 H     1 <1>   0.0800 
 33 H       -2.4520    -4.5180     1.5810 H     1 <1>   0.0800 
 34 H       -2.0900    -1.9290    -0.9810 H     1 <1>   0.0800 
 35 H       -2.7440    -2.2760     0.5840 H     1 <1>   0.0800 
 36 H       -0.0140     3.1730    -1.9090 H     1 <1>   0.1500 
 37 H       -6.2170    -0.7750    -0.3600 H     1 <1>   0.0800 
 38 H       -4.9990    -1.5100     0.6510 H     1 <1>   0.0800 
 39 H       -6.3630    -2.4610     0.1030 H     1 <1>   0.0800 
 40 H       -6.4340    -1.3730    -2.6380 H     1 <1>   0.0800 
 41 H       -6.4710    -3.1020    -2.3290 H     1 <1>   0.0800 
 42 H       -5.2700    -2.4200    -3.4050 H     1 <1>   0.0800 
@<TRIPOS>BOND
  1   1   2  2   
  2   1   3  2   
  3   1   4  am  
  4   1   5  1   
  5   4   6  1   
  6   4  24  1   
  7   5   7  ar  
  8   5   8  ar  
  9   6   9  1   
 10   6  10  1   
 11   6  25  1   
 12   7  11  ar  
 13   7  26  1   
 14   8  12  ar  
 15   8  27  1   
 16   9  13  1   
 17   9  14  1   
 18   9  28  1   
 19  10  15  1   
 20  10  29  1   
 21  10  30  1   
 22  11  16  1   
 23  11  17  ar  
 24  12  17  ar  
 25  12  31  1   
 26  13  15  1   
 27  13  32  1   
 28  13  33  1   
 29  14  18  1   
 30  14  34  1   
 31  14  35  1   
 32  17  36  1   
 33  18  19  2   
 34  18  20  2   
 35  18  21  am  
 36  21  22  1   
 37  21  23  1   
 38  22  37  1   
 39  22  38  1   
 40  22  39  1   
 41  23  40  1   
 42  23  41  1   
 43  23  42  1   
@<TRIPOS>SUBSTRUCTURE
  1 ****  14 GROUP 4 **** **** 0

# MOE 2024.06 (io_trps.svl 2023.06)
