@<TRIPOS>MOLECULE
NONAME
55 58 1 0 0 
SMALL
USER_CHARGES


@<TRIPOS>ATOM
  1 O        0.1690     0.1400     1.2120 O.3   1 <1>  -0.5600 
  2 C        0.3540    -1.2520     1.1890 C.3   1 <1>   0.1200 
  3 C        0.8510     0.8430     0.2100 C.3   1 <1>   0.1200 
  4 C        1.8520    -1.6080     1.3430 C.3   1 <1>   0.5660 
  5 C        2.3730     0.5860     0.2990 C.3   1 <1>   0.4230 
  6 N        2.6830    -0.8930     0.3270 N.4   1 <1>  -0.9590 
  7 C        2.1670    -3.1020     1.2890 C.ar  1 <1>  -0.1430 
  8 C        3.1420     1.3050    -0.8400 C.3   1 <1>   0.1100 
  9 C        2.6740    -1.4970    -1.0500 C.3   1 <1>   0.3430 
 10 C        3.3060    -3.5520     1.9450 C.ar  1 <1>  -0.1500 
 11 C        1.3780    -4.0240     0.6070 C.ar  1 <1>  -0.1500 
 12 N        4.2280     0.4490    -1.3720 N.3   1 <1>  -0.8100 
 13 C        3.6960    -0.7910    -1.9760 C.3   1 <1>   0.1100 
 14 C        3.6550    -4.8900     1.9170 C.ar  1 <1>  -0.1500 
 15 C        1.7280    -5.3630     0.5810 C.ar  1 <1>  -0.1500 
 16 C        5.2020     1.1600    -2.2390 C.3   1 <1>   0.2530 
 17 C        2.8660    -5.7970     1.2340 C.ar  1 <1>  -0.1500 
 18 C        5.8410     2.3720    -1.5520 C.ar  1 <1>   0.1670 
 19 N        6.4070     2.2030    -0.3730 N.ar  1 <1>  -0.6200 
 20 C        5.8150     3.6080    -2.1570 C.ar  1 <1>  -0.1500 
 21 C        6.9410     3.2790     0.1860 C.ar  1 <1>   0.4770 
 22 C        6.3930     4.6580    -1.4880 C.ar  1 <1>   0.1600 
 23 N        6.9560     4.5080    -0.3120 N.ar  1 <1>  -0.6200 
 24 C        7.6040     3.0690     1.5540 C.3   1 <1>   0.0630 
 25 C        6.9100     3.8830     2.6590 C.3   1 <1>  -0.2400 
 26 C        9.1060     3.3980     1.5180 C.3   1 <1>  -0.2400 
 27 H       -0.2060    -1.6700     2.0070 H     1 <1>   0.0800 
 28 H       -0.0500    -1.6280     0.2680 H     1 <1>   0.0800 
 29 H        0.4600     0.5440    -0.7470 H     1 <1>   0.0800 
 30 H        0.6450     1.8900     0.3510 H     1 <1>   0.0800 
 31 H        2.1440    -1.2610     2.3210 H     1 <1>   0.0800 
 32 H        2.7080     1.0190     1.2260 H     1 <1>   0.0800 
 33 H        3.6710    -0.9400     0.6070 H     1 <1>   0.4500 
 34 H        3.5470     2.2180    -0.4360 H     1 <1>   0.0800 
 35 H        2.4730     1.5740    -1.6390 H     1 <1>   0.0800 
 36 H        2.9220    -2.5450    -1.0000 H     1 <1>   0.0800 
 37 H        1.6900    -1.4130    -1.4780 H     1 <1>   0.0800 
 38 H        3.9390    -2.8700     2.4880 H     1 <1>   0.1500 
 39 H        0.4830    -3.7350     0.0860 H     1 <1>   0.1500 
 40 H        3.2270    -0.5740    -2.9210 H     1 <1>   0.0800 
 41 H        4.5130    -1.4660    -2.1650 H     1 <1>   0.0800 
 42 H        4.5400    -5.2310     2.4280 H     1 <1>   0.1500 
 43 H        1.1130    -6.0740     0.0550 H     1 <1>   0.1500 
 44 H        5.9940     0.4800    -2.5020 H     1 <1>   0.0800 
 45 H        4.7160     1.4720    -3.1470 H     1 <1>   0.0800 
 46 H        3.1360    -6.8390     1.2140 H     1 <1>   0.1500 
 47 H        5.3620     3.7590    -3.1180 H     1 <1>   0.1500 
 48 H        6.3950     5.6430    -1.9240 H     1 <1>   0.1500 
 49 H        7.5090     2.0280     1.8080 H     1 <1>   0.0800 
 50 H        7.0070     4.9370     2.4630 H     1 <1>   0.0800 
 51 H        7.3480     3.6670     3.6170 H     1 <1>   0.0800 
 52 H        5.8640     3.6370     2.6940 H     1 <1>   0.0800 
 53 H        9.2560     4.4390     1.2930 H     1 <1>   0.0800 
 54 H        9.5900     2.8110     0.7580 H     1 <1>   0.0800 
 55 H        9.5630     3.1780     2.4660 H     1 <1>   0.0800 
@<TRIPOS>BOND
  1   1   2  1   
  2   1   3  1   
  3   2   4  1   
  4   2  27  1   
  5   2  28  1   
  6   3   5  1   
  7   3  29  1   
  8   3  30  1   
  9   4   6  1   
 10   4   7  1   
 11   4  31  1   
 12   5   6  1   
 13   5   8  1   
 14   5  32  1   
 15   6   9  1   
 16   6  33  1   
 17   7  10  ar  
 18   7  11  ar  
 19   8  12  1   
 20   8  34  1   
 21   8  35  1   
 22   9  13  1   
 23   9  36  1   
 24   9  37  1   
 25  10  14  ar  
 26  10  38  1   
 27  11  15  ar  
 28  11  39  1   
 29  12  13  1   
 30  12  16  1   
 31  13  40  1   
 32  13  41  1   
 33  14  17  ar  
 34  14  42  1   
 35  15  17  ar  
 36  15  43  1   
 37  16  18  1   
 38  16  44  1   
 39  16  45  1   
 40  17  46  1   
 41  18  19  ar  
 42  18  20  ar  
 43  19  21  ar  
 44  20  22  ar  
 45  20  47  1   
 46  21  23  ar  
 47  21  24  1   
 48  22  23  ar  
 49  22  48  1   
 50  24  25  1   
 51  24  26  1   
 52  24  49  1   
 53  25  50  1   
 54  25  51  1   
 55  25  52  1   
 56  26  53  1   
 57  26  54  1   
 58  26  55  1   
@<TRIPOS>SUBSTRUCTURE
  1 ****  12 GROUP 4 **** **** 0

# MOE 2024.06 (io_trps.svl 2023.06)
