@<TRIPOS>MOLECULE
NONAME
56 58 1 0 0 
SMALL
USER_CHARGES


@<TRIPOS>ATOM
  1 F       -0.4530     0.7580    -0.4280 F     1 <1>  -0.1900 
  2 C       -1.7510     0.9220    -0.4520 C.ar  1 <1>   0.1900 
  3 C       -2.3920     1.8880     0.3320 C.ar  1 <1>   0.0830 
  4 C       -2.4610     0.0860    -1.2930 C.ar  1 <1>  -0.1500 
  5 O       -1.8080     2.7660     1.1960 O.3   1 <1>  -0.3630 
  6 C       -3.7710     1.9790     0.2390 C.ar  1 <1>  -0.1500 
  7 C       -3.8370     0.2030    -1.3620 C.ar  1 <1>  -0.1500 
  8 C       -0.4130     2.8420     1.3880 C.3   1 <1>   0.0400 
  9 C       -4.5220     1.1450    -0.5920 C.ar  1 <1>   0.0530 
 10 C       -5.9570     1.2560    -0.6410 C.2   1 <1>   0.0870 
 11 O       -6.5530     2.4080    -0.4630 O.3   1 <1>  -0.0190 
 12 C       -6.9380     0.3350    -0.8100 C.2   1 <1>  -0.0860 
 13 N       -7.8580     2.3180    -0.5130 N.2   1 <1>  -0.4100 
 14 C       -8.1180     1.0800    -0.7440 C.2   1 <1>   0.3720 
 15 C       -6.8920    -1.0810    -0.9250 C.2   1 <1>   0.7160 
 16 N       -9.4190     0.5520    -0.9020 N.pl3 1 <1>  -0.8210 
 17 O       -6.6800    -1.6030    -2.0020 O.2   1 <1>  -0.5700 
 18 N       -7.1810    -1.8820     0.1580 N.am  1 <1>  -0.6600 
 19 C      -10.4970     1.4990    -0.4630 C.3   1 <1>   0.1290 
 20 C       -9.6660     0.1540    -2.3240 C.3   1 <1>   0.1290 
 21 C       -7.8380    -3.2050    -0.0570 C.3   1 <1>   0.1400 
 22 C       -7.4170    -1.3430     1.5390 C.3   1 <1>   0.1400 
 23 C       -9.3860    -3.0890     0.0780 C.3   1 <1>   0.4230 
 24 C       -8.8940    -1.5080     1.9700 C.3   1 <1>   0.3430 
 25 N       -9.7870    -1.8130     0.8010 N.4   1 <1>  -0.9590 
 26 C       -9.9520    -4.3650     0.7410 C.3   1 <1>  -0.1600 
 27 C      -11.2280    -1.6810     1.1530 C.3   1 <1>   0.2630 
 28 C      -11.3700    -4.7530     0.2840 C.3   1 <1>  -0.2400 
 29 H       -1.9390    -0.6430    -1.8880 H     1 <1>   0.1500 
 30 H       -4.2710     2.7220     0.8350 H     1 <1>   0.1500 
 31 H       -4.3800    -0.4440    -2.0290 H     1 <1>   0.1500 
 32 H       -0.2150     3.6250     2.0980 H     1 <1>   0.0800 
 33 H        0.0580     3.0740     0.4500 H     1 <1>   0.0800 
 34 H       -0.0600     1.9030     1.7760 H     1 <1>   0.0800 
 35 H      -10.3220     1.8150     0.5520 H     1 <1>   0.0800 
 36 H      -11.4610     1.0240    -0.5190 H     1 <1>   0.0800 
 37 H      -10.5040     2.3730    -1.0940 H     1 <1>   0.0800 
 38 H       -9.0140    -0.6520    -2.6130 H     1 <1>   0.0800 
 39 H       -9.4810     0.9910    -2.9780 H     1 <1>   0.0800 
 40 H      -10.6850    -0.1680    -2.4550 H     1 <1>   0.0800 
 41 H       -7.4510    -3.8950     0.6730 H     1 <1>   0.0800 
 42 H       -7.5930    -3.6070    -1.0250 H     1 <1>   0.0800 
 43 H       -7.1480    -0.3030     1.5990 H     1 <1>   0.0800 
 44 H       -6.7840    -1.8660     2.2350 H     1 <1>   0.0800 
 45 H       -9.7810    -3.0450    -0.9240 H     1 <1>   0.0800 
 46 H       -9.2150    -0.6010     2.4550 H     1 <1>   0.0800 
 47 H       -8.9610    -2.3050     2.6920 H     1 <1>   0.0800 
 48 H       -9.5780    -1.0440     0.1190 H     1 <1>   0.4500 
 49 H       -9.9080    -4.2890     1.8130 H     1 <1>   0.0800 
 50 H       -9.3230    -5.1940     0.4630 H     1 <1>   0.0800 
 51 H      -11.4990    -2.4080     1.9010 H     1 <1>   0.0800 
 52 H      -11.8380    -1.8370     0.2780 H     1 <1>   0.0800 
 53 H      -11.4270    -0.6950     1.5390 H     1 <1>   0.0800 
 54 H      -12.1230    -4.0740     0.6350 H     1 <1>   0.0800 
 55 H      -11.6160    -5.7290     0.6690 H     1 <1>   0.0800 
 56 H      -11.4230    -4.8030    -0.7900 H     1 <1>   0.0800 
@<TRIPOS>BOND
  1   1   2  1   
  2   2   3  ar  
  3   2   4  ar  
  4   3   5  1   
  5   3   6  ar  
  6   4   7  ar  
  7   4  29  1   
  8   5   8  1   
  9   6   9  ar  
 10   6  30  1   
 11   7   9  ar  
 12   7  31  1   
 13   8  32  1   
 14   8  33  1   
 15   8  34  1   
 16   9  10  1   
 17  10  11  1   
 18  10  12  2   
 19  11  13  1   
 20  12  14  1   
 21  12  15  1   
 22  13  14  2   
 23  14  16  1   
 24  15  17  2   
 25  15  18  am  
 26  16  19  1   
 27  16  20  1   
 28  18  21  1   
 29  18  22  1   
 30  19  35  1   
 31  19  36  1   
 32  19  37  1   
 33  20  38  1   
 34  20  39  1   
 35  20  40  1   
 36  21  23  1   
 37  21  41  1   
 38  21  42  1   
 39  22  24  1   
 40  22  43  1   
 41  22  44  1   
 42  23  25  1   
 43  23  26  1   
 44  23  45  1   
 45  24  25  1   
 46  24  46  1   
 47  24  47  1   
 48  25  27  1   
 49  25  48  1   
 50  26  28  1   
 51  26  49  1   
 52  26  50  1   
 53  27  51  1   
 54  27  52  1   
 55  27  53  1   
 56  28  54  1   
 57  28  55  1   
 58  28  56  1   
@<TRIPOS>SUBSTRUCTURE
  1 ****  12 GROUP 4 **** **** 0

# MOE 2024.06 (io_trps.svl 2023.06)
