@<TRIPOS>MOLECULE
NONAME
53 56 1 0 0 
SMALL
USER_CHARGES


@<TRIPOS>ATOM
  1 S       -0.4910    -0.5930    -1.3670 S.o2  1 <1>   1.5760 
  2 O        0.7430    -0.8580    -2.0730 O.2   1 <1>  -0.6500 
  3 O       -1.7350    -0.4490    -2.0910 O.2   1 <1>  -0.6500 
  4 N       -0.7100    -1.7610    -0.1680 N.am  1 <1>  -0.8490 
  5 N       -0.2540     0.7750    -0.4070 N.am  1 <1>  -0.8490 
  6 C       -1.9680    -1.5120     0.5670 C.3   1 <1>   0.1960 
  7 C       -0.6560    -3.1110    -0.7390 C.3   1 <1>   0.1960 
  8 C        1.0340     0.7230     0.2890 C.3   1 <1>   0.1960 
  9 C       -0.3720     1.9950    -1.2050 C.3   1 <1>   0.1960 
 10 C       -2.2050    -2.4560     1.7570 C.3   1 <1>   0.2090 
 11 C       -0.2780    -4.1330     0.3380 C.3   1 <1>  -0.1600 
 12 C        1.1560     1.9030     1.2590 C.3   1 <1>  -0.1600 
 13 C       -0.2970     3.2280    -0.2980 C.3   1 <1>  -0.1600 
 14 N       -2.5840    -3.8240     1.2940 N.pl3 1 <1>  -0.8220 
 15 C       -1.4740    -4.7800     1.0470 C.3   1 <1>   0.2090 
 16 C        0.9950     3.2410     0.5290 C.3   1 <1>  -0.1600 
 17 C       -3.8840    -4.1790     0.9880 C.2   1 <1>   0.4620 
 18 S       -5.1810    -3.0030     1.1680 S.3   1 <1>  -0.0800 
 19 N       -4.2950    -5.3150     0.5560 N.2   1 <1>  -0.5650 
 20 C       -6.3160    -4.1910     0.6070 C.2   1 <1>  -0.1100 
 21 C       -5.6700    -5.3440     0.3370 C.2   1 <1>   0.1730 
 22 C       -6.2810    -6.5690    -0.1500 C.ar  1 <1>   0.0540 
 23 C       -5.5480    -7.4960    -0.8980 C.ar  1 <1>  -0.1500 
 24 C       -7.6230    -6.8570     0.1120 C.ar  1 <1>  -0.1500 
 25 C       -6.1250    -8.6620    -1.3710 C.ar  1 <1>  -0.1500 
 26 C       -8.2180    -8.0170    -0.3540 C.ar  1 <1>  -0.1500 
 27 C       -7.4550    -8.9020    -1.0900 C.ar  1 <1>   0.1900 
 28 F       -8.0090    -9.9970    -1.5330 F     1 <1>  -0.1900 
 29 H       -2.8100    -1.5770    -0.1030 H     1 <1>   0.0800 
 30 H       -1.9470    -0.5100     0.9580 H     1 <1>   0.0800 
 31 H        0.1150    -3.1470    -1.4920 H     1 <1>   0.0800 
 32 H       -1.5890    -3.3660    -1.2160 H     1 <1>   0.0800 
 33 H        1.8420     0.7510    -0.4240 H     1 <1>   0.0800 
 34 H        1.1110    -0.1970     0.8450 H     1 <1>   0.0800 
 35 H       -1.3180     2.0030    -1.7210 H     1 <1>   0.0800 
 36 H        0.4140     2.0280    -1.9430 H     1 <1>   0.0800 
 37 H       -2.9880    -2.0540     2.3740 H     1 <1>   0.0800 
 38 H       -1.3180    -2.4990     2.3650 H     1 <1>   0.0800 
 39 H        0.3780    -3.6780     1.0580 H     1 <1>   0.0800 
 40 H        0.2780    -4.9250    -0.1280 H     1 <1>   0.0800 
 41 H        2.1140     1.8680     1.7450 H     1 <1>   0.0800 
 42 H        0.3980     1.8060     2.0170 H     1 <1>   0.0800 
 43 H       -1.1490     3.2240     0.3590 H     1 <1>   0.0800 
 44 H       -0.3510     4.1170    -0.9000 H     1 <1>   0.0800 
 45 H       -1.1560    -5.2020     1.9850 H     1 <1>   0.0800 
 46 H       -1.8290    -5.5910     0.4330 H     1 <1>   0.0800 
 47 H        1.8360     3.3930    -0.1260 H     1 <1>   0.0800 
 48 H        0.9710     4.0490     1.2390 H     1 <1>   0.0800 
 49 H       -7.3470    -3.9030     0.5350 H     1 <1>   0.1500 
 50 H       -4.5120    -7.2960    -1.1100 H     1 <1>   0.1500 
 51 H       -8.2100    -6.1690     0.6930 H     1 <1>   0.1500 
 52 H       -5.5580    -9.3720    -1.9460 H     1 <1>   0.1500 
 53 H       -9.2500    -8.2380    -0.1510 H     1 <1>   0.1500 
@<TRIPOS>BOND
  1   1   2  2   
  2   1   3  2   
  3   1   4  am  
  4   1   5  am  
  5   4   6  1   
  6   4   7  1   
  7   5   8  1   
  8   5   9  1   
  9   6  10  1   
 10   6  29  1   
 11   6  30  1   
 12   7  11  1   
 13   7  31  1   
 14   7  32  1   
 15   8  12  1   
 16   8  33  1   
 17   8  34  1   
 18   9  13  1   
 19   9  35  1   
 20   9  36  1   
 21  10  14  1   
 22  10  37  1   
 23  10  38  1   
 24  11  15  1   
 25  11  39  1   
 26  11  40  1   
 27  12  16  1   
 28  12  41  1   
 29  12  42  1   
 30  13  16  1   
 31  13  43  1   
 32  13  44  1   
 33  14  15  1   
 34  14  17  1   
 35  15  45  1   
 36  15  46  1   
 37  16  47  1   
 38  16  48  1   
 39  17  18  1   
 40  17  19  2   
 41  18  20  1   
 42  19  21  1   
 43  20  21  2   
 44  20  49  1   
 45  21  22  1   
 46  22  23  ar  
 47  22  24  ar  
 48  23  25  ar  
 49  23  50  1   
 50  24  26  ar  
 51  24  51  1   
 52  25  27  ar  
 53  25  52  1   
 54  26  27  ar  
 55  26  53  1   
 56  27  28  1   
@<TRIPOS>SUBSTRUCTURE
  1 ****  14 GROUP 4 **** **** 0

# MOE 2024.06 (io_trps.svl 2023.06)
