@<TRIPOS>MOLECULE
NONAME
47 48 1 0 0 
SMALL
USER_CHARGES


@<TRIPOS>ATOM
  1 F       -1.2420    -3.5380    -1.3680 F     1 <1>  -0.1900 
  2 C       -2.3580    -3.2620    -0.7490 C.ar  1 <1>   0.1900 
  3 C       -2.6440    -3.9150     0.4340 C.ar  1 <1>  -0.1500 
  4 C       -3.2110    -2.3250    -1.2980 C.ar  1 <1>  -0.1500 
  5 C       -3.8310    -3.6200     1.0830 C.ar  1 <1>  -0.1500 
  6 C       -4.3960    -2.0390    -0.6400 C.ar  1 <1>  -0.1500 
  7 C       -4.7150    -2.6900     0.5470 C.ar  1 <1>  -0.1430 
  8 C       -6.0290    -2.3800     1.2600 C.3   1 <1>   0.0440 
  9 C       -6.7480    -3.6200     1.7850 C.2   1 <1>   0.5690 
 10 O       -6.9630    -3.6700     2.9710 O.2   1 <1>  -0.5700 
 11 N       -7.1700    -4.6370     0.9660 N.am  1 <1>  -0.6600 
 12 C       -7.5140    -5.9460     1.6330 C.3   1 <1>   0.3210 
 13 C       -7.2280    -4.5370    -0.5350 C.3   1 <1>   0.1400 
 14 C       -7.8380    -7.1020     0.6850 C.2   1 <1>   0.0460 
 15 C       -8.5420    -3.9090    -1.0560 C.3   1 <1>   0.3430 
 16 N       -9.0500    -7.2150     0.0940 N.2   1 <1>  -0.5650 
 17 C       -7.0330    -8.1290     0.3230 C.2   1 <1>  -0.3320 
 18 N       -9.7760    -4.4760    -0.4210 N.4   1 <1>  -0.9590 
 19 C       -8.9600    -8.3100    -0.5900 C.2   1 <1>   0.0360 
 20 N       -7.7580    -8.9130    -0.4940 N.pl3 1 <1>   0.0330 
 21 C       -5.5950    -8.4540     0.6970 C.3   1 <1>  -0.0600 
 22 C      -10.9160    -4.5600    -1.3760 C.3   1 <1>   0.2630 
 23 C      -10.1730    -3.7650     0.8320 C.3   1 <1>   0.2630 
 24 H       -1.9510    -4.6320     0.8340 H     1 <1>   0.1500 
 25 H       -2.9470    -1.8330    -2.2170 H     1 <1>   0.1500 
 26 H       -4.0570    -4.1200     2.0110 H     1 <1>   0.1500 
 27 H       -5.0590    -1.3010    -1.0590 H     1 <1>   0.1500 
 28 H       -6.6940    -1.8450     0.6100 H     1 <1>   0.0800 
 29 H       -5.8110    -1.7350     2.0930 H     1 <1>   0.0800 
 30 H       -8.3550    -5.7970     2.2870 H     1 <1>   0.0800 
 31 H       -6.6850    -6.2340     2.2550 H     1 <1>   0.0800 
 32 H       -7.0960    -5.5030    -0.9860 H     1 <1>   0.0800 
 33 H       -6.4080    -3.9450    -0.8940 H     1 <1>   0.0800 
 34 H       -8.5810    -4.0740    -2.1200 H     1 <1>   0.0800 
 35 H       -8.5140    -2.8450    -0.8970 H     1 <1>   0.0800 
 36 H       -9.5300    -5.4580    -0.1510 H     1 <1>   0.4500 
 37 H       -9.7550    -8.7290    -1.1840 H     1 <1>   0.1500 
 38 H       -7.4670    -9.7890    -0.9400 H     1 <1>   0.2700 
 39 H       -5.1740    -7.6820     1.3170 H     1 <1>   0.0800 
 40 H       -4.9910    -8.5400    -0.1880 H     1 <1>   0.0800 
 41 H       -5.5530    -9.3830     1.2370 H     1 <1>   0.0800 
 42 H      -11.2110    -3.5750    -1.6980 H     1 <1>   0.0800 
 43 H      -11.7590    -5.0390    -0.9050 H     1 <1>   0.0800 
 44 H      -10.6350    -5.1410    -2.2400 H     1 <1>   0.0800 
 45 H      -10.4360    -2.7420     0.6180 H     1 <1>   0.0800 
 46 H       -9.3660    -3.7720     1.5450 H     1 <1>   0.0800 
 47 H      -11.0220    -4.2540     1.2820 H     1 <1>   0.0800 
@<TRIPOS>BOND
  1   1   2  1   
  2   2   3  ar  
  3   2   4  ar  
  4   3   5  ar  
  5   3  24  1   
  6   4   6  ar  
  7   4  25  1   
  8   5   7  ar  
  9   5  26  1   
 10   6   7  ar  
 11   6  27  1   
 12   7   8  1   
 13   8   9  1   
 14   8  28  1   
 15   8  29  1   
 16   9  10  2   
 17   9  11  am  
 18  11  12  1   
 19  11  13  1   
 20  12  14  1   
 21  12  30  1   
 22  12  31  1   
 23  13  15  1   
 24  13  32  1   
 25  13  33  1   
 26  14  16  1   
 27  14  17  2   
 28  15  18  1   
 29  15  34  1   
 30  15  35  1   
 31  16  19  2   
 32  17  20  1   
 33  17  21  1   
 34  18  22  1   
 35  18  23  1   
 36  18  36  1   
 37  19  20  1   
 38  19  37  1   
 39  20  38  1   
 40  21  39  1   
 41  21  40  1   
 42  21  41  1   
 43  22  42  1   
 44  22  43  1   
 45  22  44  1   
 46  23  45  1   
 47  23  46  1   
 48  23  47  1   
@<TRIPOS>SUBSTRUCTURE
  1 ****  11 GROUP 4 **** **** 0

# MOE 2024.06 (io_trps.svl 2023.06)
