@<TRIPOS>MOLECULE
NONAME
48 51 1 0 0 
SMALL
USER_CHARGES


@<TRIPOS>ATOM
  1 O       -0.1250    -0.6970    -1.1080 O.3   1 <1>  -0.3630 
  2 C       -1.1060    -0.8480    -0.1850 C.ar  1 <1>   0.0830 
  3 C        0.6730     0.4690    -1.0060 C.3   1 <1>   0.1200 
  4 C       -1.5210     0.2180     0.6130 C.ar  1 <1>   0.0830 
  5 C       -1.6960    -2.0910    -0.0410 C.ar  1 <1>  -0.1500 
  6 C       -0.2010     1.6900    -0.6850 C.3   1 <1>   0.1200 
  7 O       -0.9760     1.4520     0.4760 O.3   1 <1>  -0.3630 
  8 C       -2.5090     0.0230     1.5610 C.ar  1 <1>  -0.1500 
  9 C       -2.7010    -2.2840     0.8980 C.ar  1 <1>  -0.1430 
 10 C       -3.0960    -1.2240     1.7040 C.ar  1 <1>  -0.1500 
 11 C       -3.3600    -3.6410     1.0330 C.3   1 <1>   0.4860 
 12 N       -4.0990    -3.8930    -0.2350 N.4   1 <1>  -0.9590 
 13 C       -5.5770    -3.8520    -0.0650 C.3   1 <1>   0.4230 
 14 C       -3.6220    -5.1570    -0.8790 C.3   1 <1>   0.2630 
 15 C       -6.3040    -4.0110    -1.3990 C.3   1 <1>  -0.1600 
 16 C       -6.0610    -2.4980     0.4520 C.3   1 <1>  -0.1600 
 17 C       -7.6730    -3.3520    -1.1960 C.3   1 <1>  -0.0800 
 18 C       -7.5180    -2.3870    -0.0110 C.3   1 <1>  -0.0800 
 19 C       -8.7850    -4.3380    -0.8090 C.3   1 <1>  -0.1600 
 20 C       -8.5410    -2.8290     1.0460 C.3   1 <1>  -0.1600 
 21 C       -9.5830    -3.6100     0.2610 C.3   1 <1>   0.2000 
 22 O      -10.2250    -4.5110     1.0790 O.3   1 <1>  -0.6800 
 23 H        1.3960     0.3130    -0.2240 H     1 <1>   0.0800 
 24 H        1.1880     0.6020    -1.9400 H     1 <1>   0.0800 
 25 H       -1.3450    -2.8890    -0.6710 H     1 <1>   0.1500 
 26 H       -0.8730     1.8930    -1.5000 H     1 <1>   0.0800 
 27 H        0.4060     2.5590    -0.5060 H     1 <1>   0.0800 
 28 H       -2.8110     0.8510     2.1790 H     1 <1>   0.1500 
 29 H       -3.8620    -1.3470     2.4520 H     1 <1>   0.1500 
 30 H       -4.0310    -3.6490     1.8760 H     1 <1>   0.0800 
 31 H       -2.6020    -4.3910     1.1890 H     1 <1>   0.0800 
 32 H       -3.8490    -3.0970    -0.8400 H     1 <1>   0.4500 
 33 H       -5.9070    -4.6270     0.6090 H     1 <1>   0.0800 
 34 H       -3.8800    -6.0090    -0.2720 H     1 <1>   0.0800 
 35 H       -2.5510    -5.1330    -1.0030 H     1 <1>   0.0800 
 36 H       -4.0720    -5.2770    -1.8510 H     1 <1>   0.0800 
 37 H       -5.7820    -3.4670    -2.1680 H     1 <1>   0.0800 
 38 H       -6.3990    -5.0410    -1.6930 H     1 <1>   0.0800 
 39 H       -5.9790    -2.4130     1.5210 H     1 <1>   0.0800 
 40 H       -5.5010    -1.7050    -0.0140 H     1 <1>   0.0800 
 41 H       -7.9690    -2.8080    -2.0790 H     1 <1>   0.0800 
 42 H       -7.7420    -1.3790    -0.3240 H     1 <1>   0.0800 
 43 H       -8.3690    -5.2420    -0.4000 H     1 <1>   0.0800 
 44 H       -9.4070    -4.5800    -1.6540 H     1 <1>   0.0800 
 45 H       -8.9860    -1.9840     1.5410 H     1 <1>   0.0800 
 46 H       -8.0800    -3.4720     1.7760 H     1 <1>   0.0800 
 47 H      -10.3140    -2.9510    -0.1790 H     1 <1>   0.0800 
 48 H       -9.5920    -5.1290     1.4850 H     1 <1>   0.4000 
@<TRIPOS>BOND
  1   1   2  1   
  2   1   3  1   
  3   2   4  ar  
  4   2   5  ar  
  5   3   6  1   
  6   3  23  1   
  7   3  24  1   
  8   4   7  1   
  9   4   8  ar  
 10   5   9  ar  
 11   5  25  1   
 12   6   7  1   
 13   6  26  1   
 14   6  27  1   
 15   8  10  ar  
 16   8  28  1   
 17   9  10  ar  
 18   9  11  1   
 19  10  29  1   
 20  11  12  1   
 21  11  30  1   
 22  11  31  1   
 23  12  13  1   
 24  12  14  1   
 25  12  32  1   
 26  13  15  1   
 27  13  16  1   
 28  13  33  1   
 29  14  34  1   
 30  14  35  1   
 31  14  36  1   
 32  15  17  1   
 33  15  37  1   
 34  15  38  1   
 35  16  18  1   
 36  16  39  1   
 37  16  40  1   
 38  17  18  1   
 39  17  19  1   
 40  17  41  1   
 41  18  20  1   
 42  18  42  1   
 43  19  21  1   
 44  19  43  1   
 45  19  44  1   
 46  20  21  1   
 47  20  45  1   
 48  20  46  1   
 49  21  22  1   
 50  21  47  1   
 51  22  48  1   
@<TRIPOS>SUBSTRUCTURE
  1 ****  12 GROUP 4 **** **** 0

# MOE 2024.06 (io_trps.svl 2023.06)
