@<TRIPOS>MOLECULE
NONAME
56 60 1 0 0 
SMALL
USER_CHARGES


@<TRIPOS>ATOM
  1 N        0.7180    -0.1200     0.0440 N.ar  1 <1>  -0.6200 
  2 C       -0.2360     0.8030     0.2410 C.ar  1 <1>   0.6200 
  3 C        1.6420     0.2030    -0.8250 C.ar  1 <1>   0.1660 
  4 N       -0.2900     1.9960    -0.3680 N.ar  1 <1>  -0.6200 
  5 C       -1.2880     0.4860     1.1950 C.ar  1 <1>   0.0000 
  6 C        1.6690     1.3890    -1.4880 C.ar  1 <1>  -0.1430 
  7 C        2.8110    -0.6770    -1.1990 C.3   1 <1>   0.1440 
  8 C        0.6610     2.2810    -1.2300 C.ar  1 <1>   0.1600 
  9 C       -1.7380    -0.8250     1.3800 C.ar  1 <1>  -0.1500 
 10 C       -1.8970     1.4780     1.9690 C.ar  1 <1>  -0.1500 
 11 C        2.8580     1.4880    -2.4100 C.3   1 <1>  -0.0160 
 12 C        3.4470    -1.2210     0.0910 C.3   1 <1>   0.3430 
 13 C        2.3440    -1.8450    -2.0940 C.3   1 <1>  -0.1600 
 14 C        3.7410     0.3080    -1.9590 C.3   1 <1>  -0.1600 
 15 C       -2.7350    -1.1300     2.2900 C.ar  1 <1>  -0.1500 
 16 C       -2.8940     1.1800     2.8810 C.ar  1 <1>  -0.1500 
 17 N        4.5530    -2.1870    -0.2130 N.4   1 <1>  -0.9590 
 18 C        3.4570    -2.8890    -2.3080 C.3   1 <1>  -0.1600 
 19 C       -3.3150    -0.1270     3.0440 C.ar  1 <1>  -0.1500 
 20 C        4.0770    -3.3620    -0.9890 C.3   1 <1>   0.3430 
 21 C        5.3680    -2.5730     0.9750 C.3   1 <1>   0.3430 
 22 C        6.1540    -1.3800     1.5500 C.3   1 <1>   0.0200 
 23 C        6.9600    -0.5990     0.5120 C.2   1 <1>   0.0060 
 24 N        6.9260    -0.8250    -0.7660 N.2   1 <1>  -0.5650 
 25 N        7.7920     0.4170     0.8560 N.pl3 1 <1>   0.0480 
 26 C        7.7790     0.0790    -1.2810 C.2   1 <1>   0.0770 
 27 C        8.3110     0.8450    -0.3070 C.2   1 <1>  -0.3020 
 28 C        8.1070     0.9630     2.1900 C.3   1 <1>   0.0160 
 29 H        0.6310     3.2350    -1.7290 H     1 <1>   0.1500 
 30 H       -1.3020    -1.6180     0.7990 H     1 <1>   0.1500 
 31 H       -1.5840     2.5010     1.8540 H     1 <1>   0.1500 
 32 H        3.3690     2.4300    -2.3060 H     1 <1>   0.0800 
 33 H        2.5370     1.3580    -3.4300 H     1 <1>   0.0800 
 34 H        2.6840    -1.7130     0.6720 H     1 <1>   0.0800 
 35 H        3.8220    -0.3910     0.6640 H     1 <1>   0.0800 
 36 H        2.0010    -1.4690    -3.0430 H     1 <1>   0.0800 
 37 H        1.5040    -2.3280    -1.6220 H     1 <1>   0.0800 
 38 H        4.2450    -0.1430    -2.7950 H     1 <1>   0.0800 
 39 H        4.4880     0.6930    -1.2860 H     1 <1>   0.0800 
 40 H       -3.0610    -2.1480     2.4110 H     1 <1>   0.1500 
 41 H       -3.3430     1.9660     3.4620 H     1 <1>   0.1500 
 42 H        5.2400    -1.6760    -0.8110 H     1 <1>   0.4500 
 43 H        4.2330    -2.4850    -2.9350 H     1 <1>   0.0800 
 44 H        3.0470    -3.7400    -2.8240 H     1 <1>   0.0800 
 45 H       -4.0910    -0.3610     3.7520 H     1 <1>   0.1500 
 46 H        3.3390    -3.9020    -0.4170 H     1 <1>   0.0800 
 47 H        4.9010    -4.0250    -1.1990 H     1 <1>   0.0800 
 48 H        6.0830    -3.3220     0.6740 H     1 <1>   0.0800 
 49 H        4.7360    -2.9990     1.7370 H     1 <1>   0.0800 
 50 H        6.8310    -1.7600     2.2940 H     1 <1>   0.0800 
 51 H        5.4760    -0.7120     2.0500 H     1 <1>   0.0800 
 52 H        7.9750     0.1370    -2.3400 H     1 <1>   0.1500 
 53 H        9.0200     1.6500    -0.3830 H     1 <1>   0.1500 
 54 H        7.2000     1.2710     2.6780 H     1 <1>   0.0800 
 55 H        8.7580     1.8130     2.0870 H     1 <1>   0.0800 
 56 H        8.6010     0.2110     2.7780 H     1 <1>   0.0800 
@<TRIPOS>BOND
  1   1   2  ar  
  2   1   3  ar  
  3   2   4  ar  
  4   2   5  1   
  5   3   6  ar  
  6   3   7  1   
  7   4   8  ar  
  8   5   9  ar  
  9   5  10  ar  
 10   6   8  ar  
 11   6  11  1   
 12   7  12  1   
 13   7  13  1   
 14   7  14  1   
 15   8  29  1   
 16   9  15  ar  
 17   9  30  1   
 18  10  16  ar  
 19  10  31  1   
 20  11  14  1   
 21  11  32  1   
 22  11  33  1   
 23  12  17  1   
 24  12  34  1   
 25  12  35  1   
 26  13  18  1   
 27  13  36  1   
 28  13  37  1   
 29  14  38  1   
 30  14  39  1   
 31  15  19  ar  
 32  15  40  1   
 33  16  19  ar  
 34  16  41  1   
 35  17  20  1   
 36  17  21  1   
 37  17  42  1   
 38  18  20  1   
 39  18  43  1   
 40  18  44  1   
 41  19  45  1   
 42  20  46  1   
 43  20  47  1   
 44  21  22  1   
 45  21  48  1   
 46  21  49  1   
 47  22  23  1   
 48  22  50  1   
 49  22  51  1   
 50  23  24  2   
 51  23  25  1   
 52  24  26  1   
 53  25  27  1   
 54  25  28  1   
 55  26  27  2   
 56  26  52  1   
 57  27  53  1   
 58  28  54  1   
 59  28  55  1   
 60  28  56  1   
@<TRIPOS>SUBSTRUCTURE
  1 ****  12 GROUP 4 **** **** 0

# MOE 2024.06 (io_trps.svl 2023.06)
