@<TRIPOS>MOLECULE
NONAME
33 34 1 0 0 
SMALL
USER_CHARGES


@<TRIPOS>ATOM
  1 N        0.1660    -0.6820     1.1230 N.ar  1 <1>  -0.6200 
  2 C       -0.3490    -1.8470     0.7670 C.ar  1 <1>   0.7200 
  3 C        0.8950    -0.0820     0.2160 C.ar  1 <1>   0.1670 
  4 N       -0.2070    -2.4780    -0.3960 N.ar  1 <1>  -0.6200 
  5 N       -1.0990    -2.4330     1.7290 N.pl3 1 <1>  -0.8690 
  6 C        1.1090    -0.6390    -1.0240 C.ar  1 <1>  -0.1500 
  7 C        1.4960     1.2560     0.5920 C.3   1 <1>  -0.0970 
  8 C        0.5270    -1.8580    -1.2860 C.ar  1 <1>   0.1670 
  9 C       -1.3630    -3.8860     1.8000 C.3   1 <1>   0.2090 
 10 C        0.7130    -2.5390    -2.6250 C.3   1 <1>  -0.0970 
 11 C       -2.6820    -4.2060     1.0970 C.3   1 <1>   0.0200 
 12 C       -2.7190    -5.6690     0.7010 C.2   1 <1>   0.0060 
 13 N       -3.3220    -6.5850     1.3670 N.2   1 <1>  -0.5650 
 14 N       -2.1150    -6.1720    -0.3860 N.pl3 1 <1>   0.3140 
 15 C       -3.0540    -7.6700     0.6290 C.2   1 <1>   0.3660 
 16 N       -2.3350    -7.4760    -0.4260 N.2   1 <1>  -0.7070 
 17 C       -1.3080    -5.4840    -1.4050 C.3   1 <1>   0.0160 
 18 H       -1.0380    -1.9320     2.6140 H     1 <1>   0.4000 
 19 H        1.7080    -0.1380    -1.7600 H     1 <1>   0.1500 
 20 H        2.1340     1.1360     1.4490 H     1 <1>   0.0800 
 21 H        0.7100     1.9450     0.8410 H     1 <1>   0.0800 
 22 H        2.0730     1.6640    -0.2170 H     1 <1>   0.0800 
 23 H       -1.4110    -4.2040     2.8280 H     1 <1>   0.0800 
 24 H       -0.5540    -4.4160     1.3270 H     1 <1>   0.0800 
 25 H        1.1890    -3.4910    -2.4820 H     1 <1>   0.0800 
 26 H        1.3200    -1.9420    -3.2800 H     1 <1>   0.0800 
 27 H       -0.2460    -2.6930    -3.0860 H     1 <1>   0.0800 
 28 H       -2.7920    -3.5970     0.2180 H     1 <1>   0.0800 
 29 H       -3.5000    -3.9900     1.7600 H     1 <1>   0.0800 
 30 H       -3.4280    -8.6380     0.9200 H     1 <1>   0.1500 
 31 H       -1.8050    -4.5830    -1.7100 H     1 <1>   0.0800 
 32 H       -1.1840    -6.1320    -2.2530 H     1 <1>   0.0800 
 33 H       -0.3460    -5.2450    -0.9900 H     1 <1>   0.0800 
@<TRIPOS>BOND
  1   1   2  ar  
  2   1   3  ar  
  3   2   4  ar  
  4   2   5  1   
  5   3   6  ar  
  6   3   7  1   
  7   4   8  ar  
  8   5   9  1   
  9   5  18  1   
 10   6   8  ar  
 11   6  19  1   
 12   7  20  1   
 13   7  21  1   
 14   7  22  1   
 15   8  10  1   
 16   9  11  1   
 17   9  23  1   
 18   9  24  1   
 19  10  25  1   
 20  10  26  1   
 21  10  27  1   
 22  11  12  1   
 23  11  28  1   
 24  11  29  1   
 25  12  13  2   
 26  12  14  1   
 27  13  15  1   
 28  14  16  1   
 29  14  17  1   
 30  15  16  2   
 31  15  30  1   
 32  17  31  1   
 33  17  32  1   
 34  17  33  1   
@<TRIPOS>SUBSTRUCTURE
  1 ****   4 GROUP 4 **** **** 0

# MOE 2024.06 (io_trps.svl 2023.06)
