@<TRIPOS>MOLECULE
NONAME
49 51 1 0 0 
SMALL
USER_CHARGES


@<TRIPOS>ATOM
  1 N       -1.1810    -0.0810     1.0860 N.ar  1 <1>  -0.6200 
  2 C       -0.0910     0.3650     1.6790 C.ar  1 <1>   0.7710 
  3 C       -1.8480     0.7680     0.3250 C.ar  1 <1>   0.4100 
  4 N        0.3660     1.6190     1.5380 N.ar  1 <1>  -0.1790 
  5 N        0.5640    -0.4970     2.4520 N.pl3 1 <1>  -0.9000 
  6 N       -2.9930     0.2790    -0.2200 N.pl3 1 <1>  -0.8380 
  7 C       -1.3990     2.0960     0.0900 C.ar  1 <1>  -0.1430 
  8 C       -0.2720     2.5020     0.7350 C.ar  1 <1>   0.2110 
  9 C       -2.9580    -0.9480    -1.0760 C.3   1 <1>   0.2090 
 10 C       -4.3200     0.9100     0.0180 C.3   1 <1>   0.2090 
 11 C       -2.1500     3.0170    -0.8820 C.3   1 <1>  -0.0170 
 12 C       -3.1090    -2.2390    -0.2430 C.3   1 <1>   0.3430 
 13 C       -5.3700    -0.1070     0.4740 C.3   1 <1>  -0.1600 
 14 C       -1.3320     4.1990    -1.4170 C.3   1 <1>  -0.2400 
 15 N       -4.4390    -2.4040     0.4560 N.4   1 <1>  -0.9590 
 16 C       -4.8010    -1.2440     1.3240 C.3   1 <1>   0.3430 
 17 C       -4.4670    -3.6710     1.2430 C.3   1 <1>   0.4860 
 18 C       -4.2670    -4.8450     0.3090 C.ar  1 <1>  -0.1430 
 19 C       -5.2990    -5.2530    -0.5240 C.ar  1 <1>   0.1600 
 20 C       -3.0640    -5.5230     0.2610 C.ar  1 <1>  -0.1500 
 21 N       -5.2160    -6.2370    -1.3980 N.ar  1 <1>  -0.6200 
 22 C       -2.9690    -6.5630    -0.6390 C.ar  1 <1>  -0.1500 
 23 C       -4.0570    -6.8740    -1.4360 C.ar  1 <1>   0.1600 
 24 H        1.2140     1.8680     2.0410 H     1 <1>   0.4570 
 25 H        1.4210    -0.3420     2.9880 H     1 <1>   0.4000 
 26 H        0.2000    -1.4490     2.5450 H     1 <1>   0.4000 
 27 H        0.1480     3.4900     0.6350 H     1 <1>   0.1500 
 28 H       -2.0080    -0.9850    -1.5820 H     1 <1>   0.0800 
 29 H       -3.7210    -0.8990    -1.8330 H     1 <1>   0.0800 
 30 H       -4.6560     1.4020    -0.8800 H     1 <1>   0.0800 
 31 H       -4.2130     1.6600     0.7840 H     1 <1>   0.0800 
 32 H       -3.0330     3.4020    -0.4020 H     1 <1>   0.0800 
 33 H       -2.4690     2.4370    -1.7330 H     1 <1>   0.0800 
 34 H       -2.3160    -2.2540     0.4860 H     1 <1>   0.0800 
 35 H       -2.9540    -3.0760    -0.9040 H     1 <1>   0.0800 
 36 H       -5.9040    -0.4930    -0.3760 H     1 <1>   0.0800 
 37 H       -6.0900     0.4300     1.0670 H     1 <1>   0.0800 
 38 H       -1.1000     4.9000    -0.6350 H     1 <1>   0.0800 
 39 H       -1.9070     4.7230    -2.1620 H     1 <1>   0.0800 
 40 H       -0.4230     3.8590    -1.8810 H     1 <1>   0.0800 
 41 H       -5.1570    -2.4880    -0.2720 H     1 <1>   0.4500 
 42 H       -5.5580    -1.5500     2.0270 H     1 <1>   0.0800 
 43 H       -3.9410    -0.9010     1.8790 H     1 <1>   0.0800 
 44 H       -5.4160    -3.7750     1.7450 H     1 <1>   0.0800 
 45 H       -3.6900    -3.6620     1.9900 H     1 <1>   0.0800 
 46 H       -6.2500    -4.7490    -0.4810 H     1 <1>   0.1500 
 47 H       -2.2270    -5.2720     0.8910 H     1 <1>   0.1500 
 48 H       -2.0620    -7.1360    -0.7270 H     1 <1>   0.1500 
 49 H       -3.9710    -7.6880    -2.1380 H     1 <1>   0.1500 
@<TRIPOS>BOND
  1   1   2  ar  
  2   1   3  ar  
  3   2   4  ar  
  4   2   5  1   
  5   3   6  1   
  6   3   7  ar  
  7   4   8  ar  
  8   4  24  1   
  9   5  25  1   
 10   5  26  1   
 11   6   9  1   
 12   6  10  1   
 13   7   8  ar  
 14   7  11  1   
 15   8  27  1   
 16   9  12  1   
 17   9  28  1   
 18   9  29  1   
 19  10  13  1   
 20  10  30  1   
 21  10  31  1   
 22  11  14  1   
 23  11  32  1   
 24  11  33  1   
 25  12  15  1   
 26  12  34  1   
 27  12  35  1   
 28  13  16  1   
 29  13  36  1   
 30  13  37  1   
 31  14  38  1   
 32  14  39  1   
 33  14  40  1   
 34  15  16  1   
 35  15  17  1   
 36  15  41  1   
 37  16  42  1   
 38  16  43  1   
 39  17  18  1   
 40  17  44  1   
 41  17  45  1   
 42  18  19  ar  
 43  18  20  ar  
 44  19  21  ar  
 45  19  46  1   
 46  20  22  ar  
 47  20  47  1   
 48  21  23  ar  
 49  22  23  ar  
 50  22  48  1   
 51  23  49  1   
@<TRIPOS>SUBSTRUCTURE
  1 ****  12 GROUP 4 **** **** 0

# MOE 2024.06 (io_trps.svl 2023.06)
