@<TRIPOS>MOLECULE
NONAME
55 58 1 0 0 
SMALL
USER_CHARGES


@<TRIPOS>ATOM
  1 O       -0.1940     0.5470    -2.4080 O.2   1 <1>  -0.5700 
  2 C       -0.7340     0.6400    -1.3290 C.2   1 <1>   0.5690 
  3 N       -2.0420     0.2570    -1.1440 N.am  1 <1>  -0.6600 
  4 C        0.1220     1.1850    -0.1980 C.3   1 <1>   0.1570 
  5 C       -2.8700    -0.2370    -2.2830 C.3   1 <1>   0.1400 
  6 C       -2.8110     0.3760     0.1280 C.3   1 <1>   0.1400 
  7 N       -0.3660     2.4870     0.3100 N.pl3 1 <1>   0.0480 
  8 C       -3.4510    -1.6100    -1.9340 C.3   1 <1>  -0.1600 
  9 C       -3.3870    -0.9910     0.5020 C.3   1 <1>  -0.1600 
 10 C       -0.7150     3.6160    -0.3600 C.2   1 <1>   0.0060 
 11 C       -0.5420     2.7960     1.6100 C.2   1 <1>  -0.3020 
 12 C       -4.2540    -1.5770    -0.6260 C.3   1 <1>   0.4240 
 13 N       -1.0980     4.5790     0.4130 N.2   1 <1>  -0.5650 
 14 C       -0.6660     3.7630    -1.8690 C.3   1 <1>  -0.0600 
 15 C       -0.9890     4.0690     1.6510 C.2   1 <1>   0.0770 
 16 O       -5.3180    -0.6870    -0.8670 O.3   1 <1>  -0.5600 
 17 C       -4.7590    -2.9900    -0.2650 C.ar  1 <1>  -0.1430 
 18 C       -6.4450    -0.7930    -0.0530 C.3   1 <1>   0.1200 
 19 C       -6.1130    -3.2580    -0.1200 C.ar  1 <1>  -0.1430 
 20 C       -3.8600    -4.0300    -0.0660 C.ar  1 <1>  -0.1500 
 21 C       -7.1170    -2.1380    -0.3120 C.3   1 <1>  -0.0170 
 22 C       -6.5500    -4.5340     0.1960 C.ar  1 <1>  -0.1500 
 23 C       -4.2740    -5.3090     0.2640 C.ar  1 <1>   0.0820 
 24 C       -5.6480    -5.5780     0.3840 C.ar  1 <1>   0.0820 
 25 O       -3.2550    -6.2000     0.4400 O.3   1 <1>  -0.3630 
 26 O       -6.0820    -6.8420     0.6660 O.3   1 <1>  -0.3620 
 27 C       -3.4010    -7.3650     1.2210 C.3   1 <1>   0.0400 
 28 C       -7.4370    -7.2160     0.5400 C.3   1 <1>   0.0400 
 29 H        1.1270     1.3170    -0.5500 H     1 <1>   0.0800 
 30 H        0.1350     0.4730     0.6040 H     1 <1>   0.0800 
 31 H       -2.2830    -0.3150    -3.1820 H     1 <1>   0.0800 
 32 H       -3.6670     0.4630    -2.4680 H     1 <1>   0.0800 
 33 H       -3.6090     1.0870    -0.0100 H     1 <1>   0.0800 
 34 H       -2.1930     0.7250     0.9330 H     1 <1>   0.0800 
 35 H       -2.6380    -2.3060    -1.8570 H     1 <1>   0.0800 
 36 H       -4.0890    -1.9480    -2.7290 H     1 <1>   0.0800 
 37 H       -3.9630    -0.9140     1.4040 H     1 <1>   0.0800 
 38 H       -2.5690    -1.6560     0.7070 H     1 <1>   0.0800 
 39 H       -0.3450     2.1190     2.4200 H     1 <1>   0.1500 
 40 H        0.2790     3.4230    -2.2500 H     1 <1>   0.0800 
 41 H       -0.7930     4.7960    -2.1370 H     1 <1>   0.0800 
 42 H       -1.4580     3.1940    -2.3210 H     1 <1>   0.0800 
 43 H       -1.2390     4.6570     2.5190 H     1 <1>   0.1500 
 44 H       -7.1100     0.0150    -0.3050 H     1 <1>   0.0800 
 45 H       -6.1500    -0.6980     0.9770 H     1 <1>   0.0800 
 46 H       -2.8030    -3.8620    -0.1610 H     1 <1>   0.1500 
 47 H       -7.4970    -2.1600    -1.3180 H     1 <1>   0.0800 
 48 H       -7.9430    -2.2570     0.3660 H     1 <1>   0.0800 
 49 H       -7.6050    -4.6960     0.2930 H     1 <1>   0.1500 
 50 H       -2.4210    -7.7460     1.4410 H     1 <1>   0.0800 
 51 H       -3.9560    -8.0930     0.6560 H     1 <1>   0.0800 
 52 H       -3.9140    -7.1150     2.1320 H     1 <1>   0.0800 
 53 H       -7.5060    -8.2760     0.7030 H     1 <1>   0.0800 
 54 H       -7.7750    -6.9760    -0.4530 H     1 <1>   0.0800 
 55 H       -8.0140    -6.6960     1.2830 H     1 <1>   0.0800 
@<TRIPOS>BOND
  1   1   2  2   
  2   2   3  am  
  3   2   4  1   
  4   3   5  1   
  5   3   6  1   
  6   4   7  1   
  7   4  29  1   
  8   4  30  1   
  9   5   8  1   
 10   5  31  1   
 11   5  32  1   
 12   6   9  1   
 13   6  33  1   
 14   6  34  1   
 15   7  10  1   
 16   7  11  1   
 17   8  12  1   
 18   8  35  1   
 19   8  36  1   
 20   9  12  1   
 21   9  37  1   
 22   9  38  1   
 23  10  13  2   
 24  10  14  1   
 25  11  15  2   
 26  11  39  1   
 27  12  16  1   
 28  12  17  1   
 29  13  15  1   
 30  14  40  1   
 31  14  41  1   
 32  14  42  1   
 33  15  43  1   
 34  16  18  1   
 35  17  19  ar  
 36  17  20  ar  
 37  18  21  1   
 38  18  44  1   
 39  18  45  1   
 40  19  21  1   
 41  19  22  ar  
 42  20  23  ar  
 43  20  46  1   
 44  21  47  1   
 45  21  48  1   
 46  22  24  ar  
 47  22  49  1   
 48  23  24  ar  
 49  23  25  1   
 50  24  26  1   
 51  25  27  1   
 52  26  28  1   
 53  27  50  1   
 54  27  51  1   
 55  27  52  1   
 56  28  53  1   
 57  28  54  1   
 58  28  55  1   
@<TRIPOS>SUBSTRUCTURE
  1 ****   9 GROUP 4 **** **** 0

# MOE 2024.06 (io_trps.svl 2023.06)
