@<TRIPOS>MOLECULE
NONAME
45 46 1 0 0 
SMALL
USER_CHARGES


@<TRIPOS>ATOM
  1 O       -1.5840     0.5260     2.1790 O.2   1 <1>  -0.5700 
  2 C       -1.7070     0.8550     1.0220 C.2   1 <1>   0.5690 
  3 N       -2.0340    -0.0740     0.0590 N.am  1 <1>  -0.6600 
  4 C       -1.5010     2.3480     0.7270 C.3   1 <1>  -0.0190 
  5 C       -2.3260    -1.4830     0.4550 C.3   1 <1>   0.3210 
  6 C       -2.2240     0.1820    -1.4000 C.3   1 <1>   0.0600 
  7 C       -2.7600     3.0470     0.1670 C.3   1 <1>  -0.1600 
  8 C       -0.2180     2.6420    -0.0910 C.3   1 <1>  -0.1600 
  9 C       -3.7860    -1.7990     0.1870 C.2   1 <1>  -0.1810 
 10 C       -2.5850     4.5760     0.0580 C.3   1 <1>   0.2000 
 11 C       -0.3040     3.9390    -0.9150 C.3   1 <1>  -0.1600 
 12 C       -4.3500    -2.5740    -0.7540 C.2   1 <1>  -0.0400 
 13 C       -4.8820    -1.3160     0.9020 C.2   1 <1>   0.1080 
 14 O       -3.3730     5.0240    -1.0180 O.3   1 <1>  -0.5600 
 15 C       -1.1110     5.0060    -0.1710 C.3   1 <1>   0.2000 
 16 O       -5.6440    -2.5280    -0.5900 O.3   1 <1>  -0.0190 
 17 C       -3.7790    -3.4140    -1.8780 C.3   1 <1>  -0.0600 
 18 N       -5.9800    -1.7670     0.4100 N.2   1 <1>  -0.4100 
 19 C       -4.8220    -0.3880     2.0960 C.3   1 <1>  -0.0590 
 20 C       -4.7290     5.1840    -0.7360 C.3   1 <1>   0.0400 
 21 O       -1.0860     6.1600    -0.9260 O.3   1 <1>  -0.6800 
 22 H       -1.3390     2.8040     1.6890 H     1 <1>   0.0800 
 23 H       -1.6960    -2.1440    -0.1130 H     1 <1>   0.0800 
 24 H       -2.1130    -1.6530     1.4960 H     1 <1>   0.0800 
 25 H       -1.7860    -0.6170    -1.9710 H     1 <1>   0.0800 
 26 H       -1.7640     1.1010    -1.7090 H     1 <1>   0.0800 
 27 H       -3.2770     0.2310    -1.6230 H     1 <1>   0.0800 
 28 H       -3.5950     2.8340     0.8100 H     1 <1>   0.0800 
 29 H       -2.9870     2.6610    -0.8080 H     1 <1>   0.0800 
 30 H        0.6030     2.7220     0.6020 H     1 <1>   0.0800 
 31 H        0.0210     1.8260    -0.7480 H     1 <1>   0.0800 
 32 H       -2.9270     5.0530     0.9610 H     1 <1>   0.0800 
 33 H       -0.7880     3.7330    -1.8550 H     1 <1>   0.0800 
 34 H        0.6880     4.3040    -1.1170 H     1 <1>   0.0800 
 35 H       -0.6340     5.2180     0.7700 H     1 <1>   0.0800 
 36 H       -2.7070    -3.3500    -1.8960 H     1 <1>   0.0800 
 37 H       -4.1660    -3.0680    -2.8200 H     1 <1>   0.0800 
 38 H       -4.0650    -4.4410    -1.7420 H     1 <1>   0.0800 
 39 H       -4.0700    -0.7210     2.7880 H     1 <1>   0.0800 
 40 H       -5.7720    -0.3730     2.5980 H     1 <1>   0.0800 
 41 H       -4.5840     0.6060     1.7700 H     1 <1>   0.0800 
 42 H       -5.2150     5.5430    -1.6260 H     1 <1>   0.0800 
 43 H       -4.8450     5.9060     0.0540 H     1 <1>   0.0800 
 44 H       -5.1540     4.2370    -0.4520 H     1 <1>   0.0800 
 45 H       -1.9120     6.1440    -1.4620 H     1 <1>   0.4000 
@<TRIPOS>BOND
  1   1   2  2   
  2   2   3  am  
  3   2   4  1   
  4   3   5  1   
  5   3   6  1   
  6   4   7  1   
  7   4   8  1   
  8   4  22  1   
  9   5   9  1   
 10   5  23  1   
 11   5  24  1   
 12   6  25  1   
 13   6  26  1   
 14   6  27  1   
 15   7  10  1   
 16   7  28  1   
 17   7  29  1   
 18   8  11  1   
 19   8  30  1   
 20   8  31  1   
 21   9  12  2   
 22   9  13  1   
 23  10  14  1   
 24  10  15  1   
 25  10  32  1   
 26  11  15  1   
 27  11  33  1   
 28  11  34  1   
 29  12  16  1   
 30  12  17  1   
 31  13  18  2   
 32  13  19  1   
 33  14  20  1   
 34  15  21  1   
 35  15  35  1   
 36  16  18  1   
 37  17  36  1   
 38  17  37  1   
 39  17  38  1   
 40  19  39  1   
 41  19  40  1   
 42  19  41  1   
 43  20  42  1   
 44  20  43  1   
 45  20  44  1   
 46  21  45  1   
@<TRIPOS>SUBSTRUCTURE
  1 ****   3 GROUP 4 **** **** 0

# MOE 2024.06 (io_trps.svl 2023.06)
