@<TRIPOS>MOLECULE
NONAME
44 47 1 0 0 
SMALL
USER_CHARGES


@<TRIPOS>ATOM
  1 O        0.3580    -0.2920     1.4850 O.2   1 <1>  -0.5700 
  2 C        1.3060     0.2980     0.9950 C.2   1 <1>   0.5440 
  3 N        1.0730     1.4840     0.3360 N.am  1 <1>  -0.6600 
  4 C        2.6360    -0.2470     1.1090 C.ar  1 <1>   0.0860 
  5 C        2.0090     2.0970    -0.6330 C.3   1 <1>   0.1400 
  6 C       -0.2850     2.0510     0.1910 C.3   1 <1>   0.1400 
  7 C        2.9270    -1.5390     0.6360 C.ar  1 <1>   0.4100 
  8 C        3.6660     0.4830     1.6850 C.ar  1 <1>  -0.1500 
  9 C        1.1180     2.8790    -1.5900 C.3   1 <1>  -0.1600 
 10 C       -0.1200     3.2250    -0.7680 C.3   1 <1>  -0.1600 
 11 N        4.1370    -2.0950     0.6990 N.ar  1 <1>  -0.6200 
 12 N        1.9470    -2.3040     0.0550 N.pl3 1 <1>  -0.8690 
 13 C        4.9130    -0.0940     1.7530 C.ar  1 <1>  -0.1500 
 14 C        5.0900    -1.3710     1.2490 C.ar  1 <1>   0.1600 
 15 C        1.9530    -3.7710     0.1020 C.3   1 <1>   0.4330 
 16 C        0.5420    -4.2620     0.3160 C.ar  1 <1>  -0.1430 
 17 C        2.3390    -4.3580    -1.2630 C.3   1 <1>  -0.1600 
 18 C        0.2020    -5.2220    -0.6050 C.ar  1 <1>  -0.1430 
 19 C       -0.3660    -3.8580     1.2810 C.ar  1 <1>  -0.1500 
 20 C        1.3390    -5.4910    -1.5600 C.3   1 <1>  -0.0170 
 21 C       -1.0500    -5.8100    -0.5860 C.ar  1 <1>  -0.1500 
 22 C       -1.6230    -4.4400     1.3070 C.ar  1 <1>  -0.1500 
 23 C       -1.9630    -5.4130     0.3780 C.ar  1 <1>  -0.1500 
 24 H        2.6710     2.7660    -0.1090 H     1 <1>   0.0800 
 25 H        2.5820     1.3480    -1.1540 H     1 <1>   0.0800 
 26 H       -0.9350     1.3040    -0.2320 H     1 <1>   0.0800 
 27 H       -0.6710     2.3640     1.1470 H     1 <1>   0.0800 
 28 H        3.4830     1.4710     2.0700 H     1 <1>   0.1500 
 29 H        1.6120     3.7520    -1.9780 H     1 <1>   0.0800 
 30 H        0.8420     2.2380    -2.4100 H     1 <1>   0.0800 
 31 H       -0.9940     3.3660    -1.3790 H     1 <1>   0.0800 
 32 H        0.0570     4.1200    -0.1970 H     1 <1>   0.0800 
 33 H        0.9890    -1.9560     0.1940 H     1 <1>   0.4000 
 34 H        5.7420     0.4330     2.1910 H     1 <1>   0.1500 
 35 H        6.0690    -1.8160     1.3040 H     1 <1>   0.1500 
 36 H        2.5920    -4.1420     0.8860 H     1 <1>   0.0800 
 37 H        2.2430    -3.5990    -2.0190 H     1 <1>   0.0800 
 38 H        3.3510    -4.7170    -1.2490 H     1 <1>   0.0800 
 39 H       -0.0990    -3.0980     1.9970 H     1 <1>   0.1500 
 40 H        1.7740    -6.4500    -1.3410 H     1 <1>   0.0800 
 41 H        1.0070    -5.4630    -2.5830 H     1 <1>   0.0800 
 42 H       -1.3110    -6.5610    -1.3100 H     1 <1>   0.1500 
 43 H       -2.3370    -4.1320     2.0510 H     1 <1>   0.1500 
 44 H       -2.9410    -5.8600     0.4050 H     1 <1>   0.1500 
@<TRIPOS>BOND
  1   1   2  2   
  2   2   3  am  
  3   2   4  1   
  4   3   5  1   
  5   3   6  1   
  6   4   7  ar  
  7   4   8  ar  
  8   5   9  1   
  9   5  24  1   
 10   5  25  1   
 11   6  10  1   
 12   6  26  1   
 13   6  27  1   
 14   7  11  ar  
 15   7  12  1   
 16   8  13  ar  
 17   8  28  1   
 18   9  10  1   
 19   9  29  1   
 20   9  30  1   
 21  10  31  1   
 22  10  32  1   
 23  11  14  ar  
 24  12  15  1   
 25  12  33  1   
 26  13  14  ar  
 27  13  34  1   
 28  14  35  1   
 29  15  16  1   
 30  15  17  1   
 31  15  36  1   
 32  16  18  ar  
 33  16  19  ar  
 34  17  20  1   
 35  17  37  1   
 36  17  38  1   
 37  18  20  1   
 38  18  21  ar  
 39  19  22  ar  
 40  19  39  1   
 41  20  40  1   
 42  20  41  1   
 43  21  23  ar  
 44  21  42  1   
 45  22  23  ar  
 46  22  43  1   
 47  23  44  1   
@<TRIPOS>SUBSTRUCTURE
  1 ****  12 GROUP 4 **** **** 0

# MOE 2024.06 (io_trps.svl 2023.06)
