@<TRIPOS>MOLECULE
NONAME
46 47 1 0 0 
SMALL
USER_CHARGES


@<TRIPOS>ATOM
  1 O        0.2900     0.8220     0.6260 O.2   1 <1>  -0.5700 
  2 C        0.1500     1.9510     0.2180 C.2   1 <1>   0.5690 
  3 N       -0.5390     2.9060     0.9170 N.am  1 <1>  -0.6600 
  4 C        0.7510     2.3080    -1.1420 C.3   1 <1>   0.1810 
  5 C       -0.7400     4.2850     0.3600 C.3   1 <1>   0.3640 
  6 C       -1.0730     2.6640     2.2890 C.3   1 <1>   0.0600 
  7 O        1.0000     3.6850    -1.2740 O.3   1 <1>  -0.5600 
  8 C       -2.2220     4.6940     0.4150 C.ar  1 <1>  -0.1430 
  9 C       -0.1430     4.5020    -1.0550 C.3   1 <1>   0.2610 
 10 C       -3.2800     3.9290    -0.0880 C.ar  1 <1>  -0.1430 
 11 C       -2.5060     5.9180     1.0100 C.ar  1 <1>  -0.1500 
 12 C        0.2270     5.9780    -1.2170 C.2   1 <1>   0.5690 
 13 C       -4.5790     4.4030     0.0290 C.ar  1 <1>  -0.1500 
 14 C       -3.0990     2.5750    -0.7650 C.3   1 <1>  -0.0960 
 15 C       -3.8030     6.3810     1.1180 C.ar  1 <1>  -0.1500 
 16 O       -0.6290     6.7810    -1.4990 O.2   1 <1>  -0.5700 
 17 N        1.5190     6.3540    -1.0170 N.am  1 <1>  -0.7300 
 18 C       -4.8440     5.6200     0.6270 C.ar  1 <1>  -0.1500 
 19 C        2.0370     7.7410    -1.0500 C.3   1 <1>   0.1400 
 20 C        2.6810     8.1090     0.2970 C.3   1 <1>  -0.0800 
 21 C        1.6700     8.0500     1.4530 C.3   1 <1>  -0.2400 
 22 C        3.2880     9.5160     0.2200 C.3   1 <1>  -0.2400 
 23 H        0.0850     2.0010    -1.9270 H     1 <1>   0.0800 
 24 H        1.6870     1.7940    -1.2600 H     1 <1>   0.0800 
 25 H       -0.1990     4.9440     1.0170 H     1 <1>   0.0800 
 26 H       -0.6970     3.4100     2.9650 H     1 <1>   0.0800 
 27 H       -0.7750     1.6930     2.6470 H     1 <1>   0.0800 
 28 H       -2.1490     2.7090     2.2780 H     1 <1>   0.0800 
 29 H       -0.8710     4.2620    -1.8070 H     1 <1>   0.0800 
 30 H       -1.7120     6.5370     1.3920 H     1 <1>   0.1500 
 31 H       -5.4040     3.8240    -0.3480 H     1 <1>   0.1500 
 32 H       -3.9960     2.2790    -1.2790 H     1 <1>   0.0800 
 33 H       -2.8760     1.8230    -0.0300 H     1 <1>   0.0800 
 34 H       -2.3090     2.6050    -1.4890 H     1 <1>   0.0800 
 35 H       -4.0010     7.3330     1.5780 H     1 <1>   0.1500 
 36 H        2.2090     5.6080    -0.8840 H     1 <1>   0.3700 
 37 H       -5.8570     5.9730     0.7080 H     1 <1>   0.1500 
 38 H        2.7640     7.8210    -1.8400 H     1 <1>   0.0800 
 39 H        1.2330     8.4250    -1.2680 H     1 <1>   0.0800 
 40 H        3.4790     7.4130     0.4950 H     1 <1>   0.0800 
 41 H        0.8360     8.7020     1.2570 H     1 <1>   0.0800 
 42 H        2.1350     8.3510     2.3750 H     1 <1>   0.0800 
 43 H        1.2970     7.0490     1.5800 H     1 <1>   0.0800 
 44 H        2.5240    10.2480     0.0250 H     1 <1>   0.0800 
 45 H        4.0210     9.5660    -0.5660 H     1 <1>   0.0800 
 46 H        3.7730     9.7650     1.1470 H     1 <1>   0.0800 
@<TRIPOS>BOND
  1   1   2  2   
  2   2   3  am  
  3   2   4  1   
  4   3   5  1   
  5   3   6  1   
  6   4   7  1   
  7   4  23  1   
  8   4  24  1   
  9   5   8  1   
 10   5   9  1   
 11   5  25  1   
 12   6  26  1   
 13   6  27  1   
 14   6  28  1   
 15   7   9  1   
 16   8  10  ar  
 17   8  11  ar  
 18   9  12  1   
 19   9  29  1   
 20  10  13  ar  
 21  10  14  1   
 22  11  15  ar  
 23  11  30  1   
 24  12  16  2   
 25  12  17  am  
 26  13  18  ar  
 27  13  31  1   
 28  14  32  1   
 29  14  33  1   
 30  14  34  1   
 31  15  18  ar  
 32  15  35  1   
 33  17  19  1   
 34  17  36  1   
 35  18  37  1   
 36  19  20  1   
 37  19  38  1   
 38  19  39  1   
 39  20  21  1   
 40  20  22  1   
 41  20  40  1   
 42  21  41  1   
 43  21  42  1   
 44  21  43  1   
 45  22  44  1   
 46  22  45  1   
 47  22  46  1   
@<TRIPOS>SUBSTRUCTURE
  1 ****   5 GROUP 4 **** **** 0

# MOE 2024.06 (io_trps.svl 2023.06)
