@<TRIPOS>MOLECULE
NONAME
54 56 1 0 0 
SMALL
USER_CHARGES


@<TRIPOS>ATOM
  1 O        0.0630    -0.2240     0.3320 O.2   1 <1>  -0.5700 
  2 C        1.1150    -0.8080     0.2170 C.2   1 <1>   0.5690 
  3 N        2.2900    -0.1270     0.0350 N.am  1 <1>  -0.6600 
  4 C        1.1160    -2.3290     0.2730 C.3   1 <1>  -0.0990 
  5 C        3.6210    -0.7850    -0.1830 C.3   1 <1>   0.1400 
  6 C        2.3010     1.3730     0.0590 C.3   1 <1>   0.1400 
  7 C       -0.1980    -2.9340     0.7880 C.3   1 <1>  -0.0160 
  8 C        4.6180     0.1350    -0.9140 C.3   1 <1>   0.2090 
  9 C        3.6330     1.9320     0.5870 C.3   1 <1>   0.2090 
 10 C       -0.0950    -4.4500     0.8330 C.ar  1 <1>  -0.1440 
 11 N        4.8160     1.4450    -0.2060 N.pl3 1 <1>  -0.8380 
 12 C       -0.4750    -5.2110    -0.2600 C.ar  1 <1>  -0.1500 
 13 C        0.3880    -5.0820     1.9670 C.ar  1 <1>  -0.1500 
 14 C        5.9150     2.2180    -0.4190 C.ar  1 <1>   0.1000 
 15 C       -0.3750    -6.6010    -0.2270 C.ar  1 <1>   0.0820 
 16 C        0.4920    -6.4620     2.0060 C.ar  1 <1>  -0.1500 
 17 C        6.6910     2.7730     0.6190 C.ar  1 <1>  -0.1440 
 18 C        6.3190     2.4910    -1.7330 C.ar  1 <1>  -0.1500 
 19 O       -0.7380    -7.3910    -1.2730 O.3   1 <1>  -0.3630 
 20 C        0.1150    -7.2280     0.9160 C.ar  1 <1>  -0.1440 
 21 C        7.7760     3.5590     0.3150 C.ar  1 <1>   0.2110 
 22 C        6.3670     2.4920     2.0850 C.3   1 <1>  -0.0970 
 23 C        7.4080     3.2770    -1.9930 C.ar  1 <1>   0.2110 
 24 C       -1.3180    -6.8550    -2.4410 C.3   1 <1>   0.0400 
 25 C        0.2350    -8.7440     0.9770 C.3   1 <1>  -0.0970 
 26 N        8.1240     3.8060    -0.9720 N.ar  1 <1>  -0.1790 
 27 H        1.9110    -2.6520     0.9200 H     1 <1>   0.0800 
 28 H        1.3080    -2.7050    -0.7140 H     1 <1>   0.0800 
 29 H        3.4940    -1.6800    -0.7650 H     1 <1>   0.0800 
 30 H        4.0370    -1.0590     0.7700 H     1 <1>   0.0800 
 31 H        1.5020     1.7330     0.6840 H     1 <1>   0.0800 
 32 H        2.1290     1.7420    -0.9370 H     1 <1>   0.0800 
 33 H       -1.0110    -2.6430     0.1440 H     1 <1>   0.0800 
 34 H       -0.4130    -2.5530     1.7720 H     1 <1>   0.0800 
 35 H        4.2450     0.3200    -1.9060 H     1 <1>   0.0800 
 36 H        5.5650    -0.3680    -1.0000 H     1 <1>   0.0800 
 37 H        3.7400     1.6250     1.6120 H     1 <1>   0.0800 
 38 H        3.6010     3.0070     0.5600 H     1 <1>   0.0800 
 39 H       -0.8470    -4.7070    -1.1300 H     1 <1>   0.1500 
 40 H        0.6850    -4.5050     2.8240 H     1 <1>   0.1500 
 41 H        0.8690    -6.9350     2.8950 H     1 <1>   0.1500 
 42 H        5.7440     2.0790    -2.5430 H     1 <1>   0.1500 
 43 H        8.3790     3.9930     1.0970 H     1 <1>   0.1500 
 44 H        6.1380     1.4490     2.2190 H     1 <1>   0.0800 
 45 H        5.5210     3.0770     2.3970 H     1 <1>   0.0800 
 46 H        7.1980     2.7310     2.7250 H     1 <1>   0.0800 
 47 H        7.7110     3.4880    -3.0060 H     1 <1>   0.1500 
 48 H       -1.5500    -7.6700    -3.1020 H     1 <1>   0.0800 
 49 H       -0.6110    -6.1940    -2.9090 H     1 <1>   0.0800 
 50 H       -2.2190    -6.3320    -2.1740 H     1 <1>   0.0800 
 51 H        0.8880    -9.0870     0.1950 H     1 <1>   0.0800 
 52 H       -0.7330    -9.1900     0.8380 H     1 <1>   0.0800 
 53 H        0.6300    -9.0660     1.9230 H     1 <1>   0.0800 
 54 H        8.9390     4.3960    -1.1730 H     1 <1>   0.4570 
@<TRIPOS>BOND
  1   1   2  2   
  2   2   3  am  
  3   2   4  1   
  4   3   5  1   
  5   3   6  1   
  6   4   7  1   
  7   4  27  1   
  8   4  28  1   
  9   5   8  1   
 10   5  29  1   
 11   5  30  1   
 12   6   9  1   
 13   6  31  1   
 14   6  32  1   
 15   7  10  1   
 16   7  33  1   
 17   7  34  1   
 18   8  11  1   
 19   8  35  1   
 20   8  36  1   
 21   9  11  1   
 22   9  37  1   
 23   9  38  1   
 24  10  12  ar  
 25  10  13  ar  
 26  11  14  1   
 27  12  15  ar  
 28  12  39  1   
 29  13  16  ar  
 30  13  40  1   
 31  14  17  ar  
 32  14  18  ar  
 33  15  19  1   
 34  15  20  ar  
 35  16  20  ar  
 36  16  41  1   
 37  17  21  ar  
 38  17  22  1   
 39  18  23  ar  
 40  18  42  1   
 41  19  24  1   
 42  20  25  1   
 43  21  26  ar  
 44  21  43  1   
 45  22  44  1   
 46  22  45  1   
 47  22  46  1   
 48  23  26  ar  
 49  23  47  1   
 50  24  48  1   
 51  24  49  1   
 52  24  50  1   
 53  25  51  1   
 54  25  52  1   
 55  25  53  1   
 56  26  54  1   
@<TRIPOS>SUBSTRUCTURE
  1 ****   5 GROUP 4 **** **** 0

# MOE 2024.06 (io_trps.svl 2023.06)
