@<TRIPOS>MOLECULE
NONAME
53 56 1 0 0 
SMALL
USER_CHARGES


@<TRIPOS>ATOM
  1 O       -2.6060     0.6510    -2.0980 O.2   1 <1>  -0.5700 
  2 C       -2.3320     1.0750    -0.9930 C.2   1 <1>   0.5440 
  3 N       -2.4460     0.1880     0.0550 N.am  1 <1>  -0.6600 
  4 C       -2.0110     2.4670    -0.8010 C.ar  1 <1>   0.0860 
  5 C       -3.3080     0.5050     1.2330 C.3   1 <1>   0.1400 
  6 C       -2.2870    -1.2750    -0.1950 C.3   1 <1>   0.1400 
  7 C       -1.0100     2.9530     0.0320 C.ar  1 <1>   0.1660 
  8 C       -2.7400     3.4370    -1.4640 C.ar  1 <1>   0.1600 
  9 C       -4.6920    -0.1860     1.1200 C.3   1 <1>   0.4230 
 10 C       -3.6660    -1.9350    -0.3620 C.3   1 <1>   0.3430 
 11 N       -0.8210     4.2330     0.2260 N.ar  1 <1>  -0.6200 
 12 C       -0.0450     2.0430     0.7750 C.3   1 <1>  -0.0960 
 13 N       -2.5640     4.7220    -1.2920 N.ar  1 <1>  -0.6200 
 14 N       -4.5710    -1.6730     0.8230 N.4   1 <1>  -0.9590 
 15 C       -5.5720     0.5170     0.0590 C.3   1 <1>   0.1200 
 16 C       -1.6020     5.0820    -0.4430 C.ar  1 <1>   0.7200 
 17 C       -5.9420    -2.2670     0.6450 C.3   1 <1>   0.5180 
 18 O       -6.8210    -0.1080    -0.0220 O.3   1 <1>  -0.5600 
 19 N       -1.3980     6.4270    -0.2440 N.pl3 1 <1>  -0.8380 
 20 C       -5.8140    -3.7700     0.3280 C.3   1 <1>  -0.1950 
 21 C       -6.7770    -1.4610    -0.3820 C.3   1 <1>   0.1200 
 22 C       -2.0120     7.4650    -1.1190 C.3   1 <1>   0.1290 
 23 C       -0.4970     6.9510     0.8220 C.3   1 <1>   0.1290 
 24 C       -5.6610    -4.3460    -1.0510 C.3   1 <1>  -0.2000 
 25 C       -6.9280    -4.5720    -0.2760 C.3   1 <1>  -0.2000 
 26 H       -2.8130     0.1740     2.1300 H     1 <1>   0.0800 
 27 H       -3.4440     1.5710     1.3190 H     1 <1>   0.0800 
 28 H       -1.7060    -1.4330    -1.0890 H     1 <1>   0.0800 
 29 H       -1.7540    -1.7270     0.6230 H     1 <1>   0.0800 
 30 H       -3.5030     3.1300    -2.1590 H     1 <1>   0.1500 
 31 H       -5.1930    -0.0590     2.0650 H     1 <1>   0.0800 
 32 H       -3.5280    -2.9950    -0.4960 H     1 <1>   0.0800 
 33 H       -4.1160    -1.5450    -1.2620 H     1 <1>   0.0800 
 34 H        0.1480     1.1440     0.2200 H     1 <1>   0.0800 
 35 H       -0.4450     1.7930     1.7390 H     1 <1>   0.0800 
 36 H        0.8950     2.5490     0.9190 H     1 <1>   0.0800 
 37 H       -4.1530    -2.1300     1.6390 H     1 <1>   0.4500 
 38 H       -5.1130     0.5000    -0.9150 H     1 <1>   0.0800 
 39 H       -5.7430     1.5430     0.3350 H     1 <1>   0.0800 
 40 H       -6.4680    -2.1900     1.5840 H     1 <1>   0.0800 
 41 H       -5.3000    -4.2780     1.1270 H     1 <1>   0.1000 
 42 H       -7.7910    -1.8190    -0.3970 H     1 <1>   0.0800 
 43 H       -6.3720    -1.5420    -1.3750 H     1 <1>   0.0800 
 44 H       -1.3410     8.2990    -1.2310 H     1 <1>   0.0800 
 45 H       -2.9330     7.8070    -0.6810 H     1 <1>   0.0800 
 46 H       -2.2180     7.0670    -2.0980 H     1 <1>   0.0800 
 47 H       -0.8650     7.8940     1.1870 H     1 <1>   0.0800 
 48 H        0.4920     7.0860     0.4220 H     1 <1>   0.0800 
 49 H       -0.4490     6.2660     1.6510 H     1 <1>   0.0800 
 50 H       -5.7330    -3.7340    -1.9350 H     1 <1>   0.1000 
 51 H       -5.0120    -5.1940    -1.2020 H     1 <1>   0.1000 
 52 H       -7.1210    -5.5630     0.1020 H     1 <1>   0.1000 
 53 H       -7.8270    -4.1060    -0.6440 H     1 <1>   0.1000 
@<TRIPOS>BOND
  1   1   2  2   
  2   2   3  am  
  3   2   4  1   
  4   3   5  1   
  5   3   6  1   
  6   4   7  ar  
  7   4   8  ar  
  8   5   9  1   
  9   5  26  1   
 10   5  27  1   
 11   6  10  1   
 12   6  28  1   
 13   6  29  1   
 14   7  11  ar  
 15   7  12  1   
 16   8  13  ar  
 17   8  30  1   
 18   9  14  1   
 19   9  15  1   
 20   9  31  1   
 21  10  14  1   
 22  10  32  1   
 23  10  33  1   
 24  11  16  ar  
 25  12  34  1   
 26  12  35  1   
 27  12  36  1   
 28  13  16  ar  
 29  14  17  1   
 30  14  37  1   
 31  15  18  1   
 32  15  38  1   
 33  15  39  1   
 34  16  19  1   
 35  17  20  1   
 36  17  21  1   
 37  17  40  1   
 38  18  21  1   
 39  19  22  1   
 40  19  23  1   
 41  20  24  1   
 42  20  25  1   
 43  20  41  1   
 44  21  42  1   
 45  21  43  1   
 46  22  44  1   
 47  22  45  1   
 48  22  46  1   
 49  23  47  1   
 50  23  48  1   
 51  23  49  1   
 52  24  25  1   
 53  24  50  1   
 54  24  51  1   
 55  25  52  1   
 56  25  53  1   
@<TRIPOS>SUBSTRUCTURE
  1 ****   3 GROUP 4 **** **** 0

# MOE 2024.06 (io_trps.svl 2023.06)
