@<TRIPOS>MOLECULE
NONAME
43 44 1 0 0 
SMALL
USER_CHARGES


@<TRIPOS>ATOM
  1 O       -1.0740     0.8290     1.6200 O.2   1 <1>  -0.5700 
  2 C       -1.4930    -0.2610     1.3260 C.2   1 <1>   0.5690 
  3 N       -0.7230    -1.3510     1.5180 N.am  1 <1>  -0.8000 
  4 C       -2.8950    -0.3850     0.7380 C.3   1 <1>   0.1810 
  5 O       -3.2570    -1.7450     0.5130 O.3   1 <1>  -0.3630 
  6 C       -4.4490    -2.0690    -0.0430 C.ar  1 <1>   0.0830 
  7 C       -4.6700    -3.4130    -0.2940 C.ar  1 <1>  -0.1500 
  8 C       -5.4350    -1.1410    -0.3650 C.ar  1 <1>  -0.1500 
  9 C       -5.8620    -3.8440    -0.8560 C.ar  1 <1>  -0.1430 
 10 C       -6.6220    -1.5660    -0.9340 C.ar  1 <1>  -0.1500 
 11 C       -6.8370    -2.9110    -1.1810 C.ar  1 <1>  -0.1500 
 12 C       -6.0960    -5.3200    -1.1040 C.3   1 <1>   0.4860 
 13 N       -6.3330    -5.9740     0.2020 N.4   1 <1>  -0.9590 
 14 C       -6.3590    -7.4580     0.1370 C.3   1 <1>   0.5610 
 15 C       -7.5570    -5.4730     0.9060 C.3   1 <1>   0.4810 
 16 C       -7.4070    -7.7930     1.1580 C.2   1 <1>  -0.2880 
 17 C       -4.9710    -8.0000     0.4900 C.3   1 <1>  -0.1600 
 18 C       -8.0570    -6.7160     1.5750 C.2   1 <1>  -0.2880 
 19 C       -4.8790    -9.5270     0.3450 C.3   1 <1>  -0.1600 
 20 C       -3.4590   -10.0180     0.6400 C.3   1 <1>  -0.2400 
 21 H        0.2140    -1.2540     1.9100 H     1 <1>   0.3700 
 22 H       -1.0400    -2.2910     1.2800 H     1 <1>   0.3700 
 23 H       -2.9280     0.1370    -0.2000 H     1 <1>   0.0800 
 24 H       -3.6010     0.0460     1.4230 H     1 <1>   0.0800 
 25 H       -3.8860    -4.1060    -0.0440 H     1 <1>   0.1500 
 26 H       -5.3010    -0.0900    -0.1850 H     1 <1>   0.1500 
 27 H       -7.3800    -0.8430    -1.1880 H     1 <1>   0.1500 
 28 H       -7.7680    -3.2110    -1.6310 H     1 <1>   0.1500 
 29 H       -5.2260    -5.7430    -1.5810 H     1 <1>   0.0800 
 30 H       -6.9460    -5.4580    -1.7530 H     1 <1>   0.0800 
 31 H       -5.5540    -5.7350     0.8200 H     1 <1>   0.4500 
 32 H       -6.6690    -7.8000    -0.8380 H     1 <1>   0.0800 
 33 H       -8.2900    -5.1000     0.2090 H     1 <1>   0.0800 
 34 H       -7.3040    -4.7060     1.6220 H     1 <1>   0.0800 
 35 H       -7.5510    -8.8220     1.4440 H     1 <1>   0.1500 
 36 H       -4.7280    -7.7320     1.5040 H     1 <1>   0.0800 
 37 H       -4.2430    -7.5570    -0.1670 H     1 <1>   0.0800 
 38 H       -8.8630    -6.6350     2.2880 H     1 <1>   0.1500 
 39 H       -5.1480    -9.8220    -0.6560 H     1 <1>   0.0800 
 40 H       -5.5570   -10.0110     1.0280 H     1 <1>   0.0800 
 41 H       -2.7520    -9.5840    -0.0460 H     1 <1>   0.0800 
 42 H       -3.4120   -11.0890     0.5390 H     1 <1>   0.0800 
 43 H       -3.1680    -9.7630     1.6450 H     1 <1>   0.0800 
@<TRIPOS>BOND
  1   1   2  2   
  2   2   3  am  
  3   2   4  1   
  4   3  21  1   
  5   3  22  1   
  6   4   5  1   
  7   4  23  1   
  8   4  24  1   
  9   5   6  1   
 10   6   7  ar  
 11   6   8  ar  
 12   7   9  ar  
 13   7  25  1   
 14   8  10  ar  
 15   8  26  1   
 16   9  11  ar  
 17   9  12  1   
 18  10  11  ar  
 19  10  27  1   
 20  11  28  1   
 21  12  13  1   
 22  12  29  1   
 23  12  30  1   
 24  13  14  1   
 25  13  15  1   
 26  13  31  1   
 27  14  16  1   
 28  14  17  1   
 29  14  32  1   
 30  15  18  1   
 31  15  33  1   
 32  15  34  1   
 33  16  18  2   
 34  16  35  1   
 35  17  19  1   
 36  17  36  1   
 37  17  37  1   
 38  18  38  1   
 39  19  20  1   
 40  19  39  1   
 41  19  40  1   
 42  20  41  1   
 43  20  42  1   
 44  20  43  1   
@<TRIPOS>SUBSTRUCTURE
  1 ****   7 GROUP 4 **** **** 0

# MOE 2024.06 (io_trps.svl 2023.06)
