@<TRIPOS>MOLECULE
NONAME
40 42 1 0 0 
SMALL
USER_CHARGES


@<TRIPOS>ATOM
  1 S       -0.4540    -0.1970     0.4580 S.o2  1 <1>   1.3330 
  2 O        0.0280    -1.3910     1.1150 O.2   1 <1>  -0.6500 
  3 O       -1.1290     0.8270     1.2230 O.2   1 <1>  -0.6500 
  4 N       -1.4330    -0.6350    -0.8560 N.am  1 <1>  -0.8490 
  5 C        0.9230     0.5660    -0.3690 C.3   1 <1>  -0.1350 
  6 C       -2.8020    -0.0790    -0.8050 C.3   1 <1>   0.1960 
  7 C       -1.4970    -2.0900    -1.1130 C.3   1 <1>   0.1960 
  8 C       -3.6980    -0.8080     0.2220 C.3   1 <1>   0.1900 
  9 C       -2.4230    -2.8390    -0.1270 C.3   1 <1>   0.1100 
 10 N       -3.7800    -2.2520    -0.1090 N.3   1 <1>  -0.8100 
 11 C       -5.1070    -0.1850     0.2590 C.3   1 <1>   0.1200 
 12 C       -4.6720    -2.9330     0.8570 C.3   1 <1>   0.3330 
 13 O       -5.9220    -0.8620     1.1750 O.3   1 <1>  -0.5600 
 14 C       -4.8610    -4.4030     0.4840 C.ar  1 <1>  -0.1440 
 15 C       -6.0480    -2.2340     0.9050 C.3   1 <1>   0.1200 
 16 C       -4.7020    -5.3910     1.4460 C.ar  1 <1>  -0.1500 
 17 C       -5.1940    -4.7730    -0.8120 C.ar  1 <1>  -0.1500 
 18 C       -4.8760    -6.7250     1.1190 C.ar  1 <1>  -0.1500 
 19 C       -5.3680    -6.1060    -1.1410 C.ar  1 <1>  -0.1500 
 20 C       -5.2090    -7.0830    -0.1750 C.ar  1 <1>  -0.1500 
 21 H        1.3970    -0.1390    -1.0230 H     1 <1>   0.0800 
 22 H        1.6400     0.9080     0.3500 H     1 <1>   0.0800 
 23 H        0.5860     1.4040    -0.9470 H     1 <1>   0.0800 
 24 H       -2.7640     0.9720    -0.5790 H     1 <1>   0.0800 
 25 H       -3.2530    -0.1790    -1.7780 H     1 <1>   0.0800 
 26 H       -1.8740    -2.2490    -2.1080 H     1 <1>   0.0800 
 27 H       -0.5090    -2.5150    -1.0740 H     1 <1>   0.0800 
 28 H       -3.2650    -0.6840     1.2010 H     1 <1>   0.0800 
 29 H       -1.9990    -2.8190     0.8620 H     1 <1>   0.0800 
 30 H       -2.4800    -3.8690    -0.4350 H     1 <1>   0.0800 
 31 H       -5.5690    -0.2320    -0.7120 H     1 <1>   0.0800 
 32 H       -5.0520     0.8420     0.5710 H     1 <1>   0.0800 
 33 H       -4.2360    -2.8730     1.8390 H     1 <1>   0.0800 
 34 H       -6.6520    -2.6670     1.6810 H     1 <1>   0.0800 
 35 H       -6.5590    -2.3510    -0.0340 H     1 <1>   0.0800 
 36 H       -4.4420    -5.1270     2.4570 H     1 <1>   0.1500 
 37 H       -5.3120    -4.0160    -1.5680 H     1 <1>   0.1500 
 38 H       -4.7510    -7.4840     1.8710 H     1 <1>   0.1500 
 39 H       -5.6270    -6.3820    -2.1490 H     1 <1>   0.1500 
 40 H       -5.3430    -8.1190    -0.4300 H     1 <1>   0.1500 
@<TRIPOS>BOND
  1   1   2  2   
  2   1   3  2   
  3   1   4  am  
  4   1   5  1   
  5   4   6  1   
  6   4   7  1   
  7   5  21  1   
  8   5  22  1   
  9   5  23  1   
 10   6   8  1   
 11   6  24  1   
 12   6  25  1   
 13   7   9  1   
 14   7  26  1   
 15   7  27  1   
 16   8  10  1   
 17   8  11  1   
 18   8  28  1   
 19   9  10  1   
 20   9  29  1   
 21   9  30  1   
 22  10  12  1   
 23  11  13  1   
 24  11  31  1   
 25  11  32  1   
 26  12  14  1   
 27  12  15  1   
 28  12  33  1   
 29  13  15  1   
 30  14  16  ar  
 31  14  17  ar  
 32  15  34  1   
 33  15  35  1   
 34  16  18  ar  
 35  16  36  1   
 36  17  19  ar  
 37  17  37  1   
 38  18  20  ar  
 39  18  38  1   
 40  19  20  ar  
 41  19  39  1   
 42  20  40  1   
@<TRIPOS>SUBSTRUCTURE
  1 ****  10 GROUP 4 **** **** 0

# MOE 2024.06 (io_trps.svl 2023.06)
