@<TRIPOS>MOLECULE
NONAME
53 55 1 0 0 
SMALL
USER_CHARGES


@<TRIPOS>ATOM
  1 O        2.5660    -0.4420     1.2230 O.2   1 <1>  -0.5700 
  2 C        2.0760    -0.9870     0.2510 C.2   1 <1>   0.5440 
  3 N        1.7910    -0.2190    -0.8450 N.am  1 <1>  -0.7300 
  4 C        1.7960    -2.4100     0.2600 C.ar  1 <1>   0.0860 
  5 C        1.9960     1.2490    -0.9080 C.3   1 <1>   0.1400 
  6 C        1.7540    -3.1670    -0.9140 C.ar  1 <1>  -0.1500 
  7 C        1.5580    -3.0820     1.4610 C.ar  1 <1>  -0.1500 
  8 C        3.4570     1.5690    -1.2280 C.3   1 <1>   0.0200 
  9 C        1.4710    -4.5190    -0.8880 C.ar  1 <1>  -0.1500 
 10 C        1.2770    -4.4350     1.4960 C.ar  1 <1>  -0.1500 
 11 C        3.7790     2.9860    -0.7980 C.2   1 <1>   0.0060 
 12 C        1.2260    -5.1640     0.3120 C.ar  1 <1>   0.0830 
 13 N        3.8100     3.9850    -1.6200 N.2   1 <1>  -0.5650 
 14 N        4.0510     3.3260     0.4870 N.pl3 1 <1>   0.0480 
 15 O        0.9480    -6.4830     0.2510 O.3   1 <1>  -0.3630 
 16 C        4.1200     5.0340    -0.8370 C.2   1 <1>   0.0770 
 17 C        4.2690     4.6520     0.4490 C.2   1 <1>  -0.3020 
 18 C        4.0890     2.4610     1.6840 C.3   1 <1>   0.0160 
 19 C        0.6320    -7.2310     1.4150 C.3   1 <1>   0.1810 
 20 C        0.2710    -8.6720     1.0690 C.2   1 <1>   0.5690 
 21 O        0.9830    -9.5360     1.5300 O.2   1 <1>  -0.5700 
 22 N       -0.8290    -8.9770     0.2990 N.am  1 <1>  -0.6600 
 23 C       -1.1690   -10.3890    -0.0350 C.3   1 <1>   0.1400 
 24 C       -1.7460    -7.9740    -0.3160 C.3   1 <1>   0.1400 
 25 C       -2.6060   -10.6940     0.4020 C.3   1 <1>  -0.1600 
 26 C       -3.1880    -8.2570     0.1190 C.3   1 <1>  -0.1600 
 27 C       -3.6050    -9.6990    -0.2030 C.3   1 <1>  -0.1600 
 28 H        1.3100    -0.6360    -1.6430 H     1 <1>   0.3700 
 29 H        1.7320     1.6750     0.0450 H     1 <1>   0.0800 
 30 H        1.3530     1.6850    -1.6540 H     1 <1>   0.0800 
 31 H        1.9530    -2.6970    -1.8600 H     1 <1>   0.1500 
 32 H        1.5980    -2.5250     2.3820 H     1 <1>   0.1500 
 33 H        3.6240     1.4690    -2.2850 H     1 <1>   0.0800 
 34 H        4.1130     0.8900    -0.7140 H     1 <1>   0.0800 
 35 H        1.4420    -5.0900    -1.8000 H     1 <1>   0.1500 
 36 H        1.1050    -4.8990     2.4490 H     1 <1>   0.1500 
 37 H        4.2210     6.0250    -1.2470 H     1 <1>   0.1500 
 38 H        4.5130     5.2390     1.3150 H     1 <1>   0.1500 
 39 H        4.6840     1.5890     1.4810 H     1 <1>   0.0800 
 40 H        3.0900     2.1560     1.9370 H     1 <1>   0.0800 
 41 H        4.5190     3.0010     2.5070 H     1 <1>   0.0800 
 42 H       -0.2000    -6.7660     1.9100 H     1 <1>   0.0800 
 43 H        1.4920    -7.2250     2.0600 H     1 <1>   0.0800 
 44 H       -0.4940   -11.0710     0.4520 H     1 <1>   0.0800 
 45 H       -1.0720   -10.5290    -1.0980 H     1 <1>   0.0800 
 46 H       -1.6680    -8.0460    -1.3880 H     1 <1>   0.0800 
 47 H       -1.4830    -6.9720    -0.0330 H     1 <1>   0.0800 
 48 H       -2.6540   -10.6530     1.4760 H     1 <1>   0.0800 
 49 H       -2.8630   -11.6940     0.1010 H     1 <1>   0.0800 
 50 H       -3.8500    -7.5710    -0.3790 H     1 <1>   0.0800 
 51 H       -3.2730    -8.0840     1.1780 H     1 <1>   0.0800 
 52 H       -4.5910    -9.8890     0.1860 H     1 <1>   0.0800 
 53 H       -3.6370    -9.8310    -1.2720 H     1 <1>   0.0800 
@<TRIPOS>BOND
  1   1   2  2   
  2   2   3  am  
  3   2   4  1   
  4   3   5  1   
  5   3  28  1   
  6   4   6  ar  
  7   4   7  ar  
  8   5   8  1   
  9   5  29  1   
 10   5  30  1   
 11   6   9  ar  
 12   6  31  1   
 13   7  10  ar  
 14   7  32  1   
 15   8  11  1   
 16   8  33  1   
 17   8  34  1   
 18   9  12  ar  
 19   9  35  1   
 20  10  12  ar  
 21  10  36  1   
 22  11  13  2   
 23  11  14  1   
 24  12  15  1   
 25  13  16  1   
 26  14  17  1   
 27  14  18  1   
 28  15  19  1   
 29  16  17  2   
 30  16  37  1   
 31  17  38  1   
 32  18  39  1   
 33  18  40  1   
 34  18  41  1   
 35  19  20  1   
 36  19  42  1   
 37  19  43  1   
 38  20  21  2   
 39  20  22  am  
 40  22  23  1   
 41  22  24  1   
 42  23  25  1   
 43  23  44  1   
 44  23  45  1   
 45  24  26  1   
 46  24  46  1   
 47  24  47  1   
 48  25  27  1   
 49  25  48  1   
 50  25  49  1   
 51  26  27  1   
 52  26  50  1   
 53  26  51  1   
 54  27  52  1   
 55  27  53  1   
@<TRIPOS>SUBSTRUCTURE
  1 ****   4 GROUP 4 **** **** 0

# MOE 2024.06 (io_trps.svl 2023.06)
