@<TRIPOS>MOLECULE
NONAME
25 25 1 0 0 
SMALL
USER_CHARGES


@<TRIPOS>ATOM
  1 S       -0.1940    -0.0170     0.7990 S.3   1 <1>  -0.3320 
  2 C       -0.0090     1.7410     0.4440 C.ar  1 <1>   0.1020 
  3 C        1.2010    -0.9190    -0.0090 C.3   1 <1>   1.2500 
  4 C        1.0340     2.2730    -0.2980 C.ar  1 <1>  -0.1500 
  5 C       -0.9870     2.5690     0.9620 C.ar  1 <1>  -0.1500 
  6 F        2.3600    -0.4940     0.4750 F     1 <1>  -0.3400 
  7 F        1.0910    -2.2180     0.2240 F     1 <1>  -0.3400 
  8 F        1.1790    -0.7160    -1.3190 F     1 <1>  -0.3400 
  9 C        1.0900     3.6390    -0.5150 C.ar  1 <1>  -0.1500 
 10 C       -0.9290     3.9340     0.7430 C.ar  1 <1>  -0.1500 
 11 C        0.1140     4.4820     0.0030 C.ar  1 <1>  -0.1440 
 12 C        0.2290     5.9770    -0.2490 C.3   1 <1>   0.5670 
 13 N        0.5410     6.6040     1.0320 N.4   1 <1>  -0.8530 
 14 C       -1.0500     6.5930    -0.8030 C.3   1 <1>  -0.2400 
 15 H        1.8060     1.6550    -0.7170 H     1 <1>   0.1500 
 16 H       -1.7940     2.1400     1.5330 H     1 <1>   0.1500 
 17 H        1.9080     4.0280    -1.1000 H     1 <1>   0.1500 
 18 H       -1.7150     4.5430     1.1560 H     1 <1>   0.1500 
 19 H        1.0340     6.1530    -0.9460 H     1 <1>   0.0800 
 20 H       -0.2260     6.4270     1.6860 H     1 <1>   0.4500 
 21 H        0.6810     7.6130     0.9310 H     1 <1>   0.4500 
 22 H        1.3840     6.1700     1.4190 H     1 <1>   0.4500 
 23 H       -1.8730     6.4980    -0.1190 H     1 <1>   0.0800 
 24 H       -1.3180     6.0860    -1.7140 H     1 <1>   0.0800 
 25 H       -0.8990     7.6310    -1.0400 H     1 <1>   0.0800 
@<TRIPOS>BOND
  1   1   2  1   
  2   1   3  1   
  3   2   4  ar  
  4   2   5  ar  
  5   3   6  1   
  6   3   7  1   
  7   3   8  1   
  8   4   9  ar  
  9   4  15  1   
 10   5  10  ar  
 11   5  16  1   
 12   9  11  ar  
 13   9  17  1   
 14  10  11  ar  
 15  10  18  1   
 16  11  12  1   
 17  12  13  1   
 18  12  14  1   
 19  12  19  1   
 20  13  20  1   
 21  13  21  1   
 22  13  22  1   
 23  14  23  1   
 24  14  24  1   
 25  14  25  1   
@<TRIPOS>SUBSTRUCTURE
  1 ****   4 GROUP 4 **** **** 0

# MOE 2024.06 (io_trps.svl 2023.06)
