@<TRIPOS>MOLECULE
NONAME
49 52 1 0 0 
SMALL
USER_CHARGES


@<TRIPOS>ATOM
  1 F       -1.7350     1.8850     0.6730 F     1 <1>  -0.3400 
  2 C       -2.6720     1.1870     1.3060 C.3   1 <1>   1.1640 
  3 F       -2.0390     0.4240     2.1870 F     1 <1>  -0.3400 
  4 F       -3.3740     2.0670     2.0110 F     1 <1>  -0.3400 
  5 C       -3.5550     0.3610     0.3580 C.ar  1 <1>  -0.1440 
  6 C       -4.8350    -0.0250     0.7430 C.ar  1 <1>  -0.1500 
  7 C       -3.0950    -0.0270    -0.8970 C.ar  1 <1>  -0.1500 
  8 C       -5.6560    -0.7760    -0.0910 C.ar  1 <1>   0.1170 
  9 C       -3.8990    -0.7730    -1.7400 C.ar  1 <1>  -0.1500 
 10 N       -6.9430    -1.1120     0.3490 N.am  1 <1>  -0.5470 
 11 C       -5.1690    -1.1420    -1.3400 C.ar  1 <1>  -0.1500 
 12 C       -7.7980    -2.1060    -0.0350 C.2   1 <1>   0.6900 
 13 O       -7.4140    -3.0280    -0.7290 O.2   1 <1>  -0.5700 
 14 N       -9.1020    -2.0500     0.3890 N.am  1 <1>  -0.6600 
 15 C       -9.8130    -0.7760     0.7260 C.3   1 <1>   0.1400 
 16 C      -10.0140    -3.2200     0.2350 C.3   1 <1>   0.1400 
 17 C      -10.8620    -0.4290    -0.3480 C.3   1 <1>   0.1440 
 18 C      -11.0760    -2.9220    -0.8310 C.3   1 <1>  -0.1600 
 19 C      -11.5670     0.8460     0.0760 C.ar  1 <1>   0.1670 
 20 C      -11.8330    -1.6150    -0.5320 C.3   1 <1>  -0.1600 
 21 C      -10.1970    -0.0090    -1.6890 C.3   1 <1>  -0.1600 
 22 N      -12.4440     0.9440     1.0510 N.ar  1 <1>  -0.6200 
 23 C      -11.1650     1.9140    -0.6670 C.ar  1 <1>  -0.1430 
 24 C      -10.1380     1.5280    -1.7020 C.3   1 <1>  -0.0170 
 25 C      -12.9170     2.1680     1.2420 C.ar  1 <1>   0.4770 
 26 C      -11.7160     3.1380    -0.3810 C.ar  1 <1>   0.1600 
 27 N      -12.6030     3.2760     0.5830 N.ar  1 <1>  -0.6200 
 28 C      -13.9370     2.3290     2.3420 C.3   1 <1>  -0.0970 
 29 H       -5.2080     0.2570     1.7120 H     1 <1>   0.1500 
 30 H       -2.1060     0.2470    -1.2300 H     1 <1>   0.1500 
 31 H       -3.5360    -1.0700    -2.7090 H     1 <1>   0.1500 
 32 H       -7.2790    -0.6140     1.1650 H     1 <1>   0.3700 
 33 H       -5.7830    -1.7200    -2.0070 H     1 <1>   0.1500 
 34 H       -9.1230     0.0440     0.8190 H     1 <1>   0.0800 
 35 H      -10.3080    -0.8960     1.6740 H     1 <1>   0.0800 
 36 H      -10.4910    -3.4150     1.1800 H     1 <1>   0.0800 
 37 H       -9.4580    -4.1010    -0.0410 H     1 <1>   0.0800 
 38 H      -11.7730    -3.7400    -0.8710 H     1 <1>   0.0800 
 39 H      -10.5930    -2.8610    -1.7910 H     1 <1>   0.0800 
 40 H      -12.5340    -1.4020    -1.3210 H     1 <1>   0.0800 
 41 H      -12.4000    -1.7430     0.3740 H     1 <1>   0.0800 
 42 H      -10.8180    -0.3230    -2.5090 H     1 <1>   0.0800 
 43 H       -9.2220    -0.4430    -1.8270 H     1 <1>   0.0800 
 44 H      -10.3820     1.9240    -2.6730 H     1 <1>   0.0800 
 45 H       -9.1660     1.8750    -1.3980 H     1 <1>   0.0800 
 46 H      -11.4300     4.0120    -0.9410 H     1 <1>   0.1500 
 47 H      -14.0340     1.4190     2.9040 H     1 <1>   0.0800 
 48 H      -14.8880     2.5790     1.9100 H     1 <1>   0.0800 
 49 H      -13.6320     3.1180     3.0030 H     1 <1>   0.0800 
@<TRIPOS>BOND
  1   1   2  1   
  2   2   3  1   
  3   2   4  1   
  4   2   5  1   
  5   5   6  ar  
  6   5   7  ar  
  7   6   8  ar  
  8   6  29  1   
  9   7   9  ar  
 10   7  30  1   
 11   8  10  1   
 12   8  11  ar  
 13   9  11  ar  
 14   9  31  1   
 15  10  12  am  
 16  10  32  1   
 17  11  33  1   
 18  12  13  2   
 19  12  14  am  
 20  14  15  1   
 21  14  16  1   
 22  15  17  1   
 23  15  34  1   
 24  15  35  1   
 25  16  18  1   
 26  16  36  1   
 27  16  37  1   
 28  17  19  1   
 29  17  20  1   
 30  17  21  1   
 31  18  20  1   
 32  18  38  1   
 33  18  39  1   
 34  19  22  ar  
 35  19  23  ar  
 36  20  40  1   
 37  20  41  1   
 38  21  24  1   
 39  21  42  1   
 40  21  43  1   
 41  22  25  ar  
 42  23  24  1   
 43  23  26  ar  
 44  24  44  1   
 45  24  45  1   
 46  25  27  ar  
 47  25  28  1   
 48  26  27  ar  
 49  26  46  1   
 50  28  47  1   
 51  28  48  1   
 52  28  49  1   
@<TRIPOS>SUBSTRUCTURE
  1 ****  10 GROUP 4 **** **** 0

# MOE 2024.06 (io_trps.svl 2023.06)
