@<TRIPOS>MOLECULE
NONAME
61 64 1 0 0 
SMALL
USER_CHARGES


@<TRIPOS>ATOM
  1 O       -0.2130     0.5910     0.0120 O.2   1 <1>  -0.5700 
  2 C       -1.0550     1.4440     0.1470 C.2   1 <1>   0.5690 
  3 N       -2.4110     1.2850     0.1110 N.am  1 <1>  -0.4770 
  4 C       -0.6780     2.8780     0.3940 C.3   1 <1>  -0.0990 
  5 C       -3.1550     0.0990    -0.0520 C.ar  1 <1>   0.1170 
  6 C       -3.0850     2.5840     0.3180 C.3   1 <1>   0.1400 
  7 C       -1.9940     3.5030     0.8850 C.3   1 <1>  -0.0190 
  8 C       -2.7010    -1.1140     0.4550 C.ar  1 <1>  -0.1500 
  9 C       -4.3780     0.1070    -0.7170 C.ar  1 <1>  -0.1500 
 10 C       -2.1720     4.9670     0.5110 C.2   1 <1>   0.5690 
 11 C       -3.4420    -2.2730     0.3110 C.ar  1 <1>  -0.1500 
 12 C       -5.1210    -1.0500    -0.8610 C.ar  1 <1>  -0.1500 
 13 O       -3.2360     5.3260     0.0620 O.2   1 <1>  -0.5700 
 14 N       -1.1120     5.7960     0.7070 N.am  1 <1>  -0.4930 
 15 C       -4.6620    -2.2550    -0.3480 C.ar  1 <1>  -0.1430 
 16 C       -0.8860     7.1330     0.2990 C.2   1 <1>   0.0630 
 17 C       -5.4670    -3.5440    -0.4990 C.3   1 <1>   0.0630 
 18 C        0.3840     7.5730    -0.0870 C.2   1 <1>   0.3720 
 19 C       -1.6810     8.2190     0.1830 C.2   1 <1>  -0.3320 
 20 C       -5.6460    -3.9070    -1.9760 C.3   1 <1>  -0.2400 
 21 C       -6.8250    -3.4260     0.2010 C.3   1 <1>  -0.2400 
 22 N        0.3940     8.8170    -0.4440 N.2   1 <1>  -0.7070 
 23 N        1.5270     6.7470    -0.0870 N.pl3 1 <1>  -0.8210 
 24 N       -0.8880     9.2170    -0.2850 N.pl3 1 <1>   0.3140 
 25 C       -3.1600     8.3880     0.5000 C.3   1 <1>  -0.0600 
 26 C        2.0960     6.6080    -1.4570 C.3   1 <1>   0.2090 
 27 C        2.6000     7.2750     0.8020 C.3   1 <1>   0.2090 
 28 C       -1.2870    10.5940    -0.6010 C.3   1 <1>   0.0160 
 29 C        3.4890     7.2200    -1.4140 C.3   1 <1>  -0.1600 
 30 C        3.9040     7.0930     0.0410 C.3   1 <1>  -0.1600 
 31 H       -0.3570     3.3100    -0.5380 H     1 <1>   0.0800 
 32 H        0.1050     2.9480     1.1260 H     1 <1>   0.0800 
 33 H       -3.9120     2.4870     1.0010 H     1 <1>   0.0800 
 34 H       -3.4390     2.9450    -0.6340 H     1 <1>   0.0800 
 35 H       -2.0350     3.4290     1.9570 H     1 <1>   0.0800 
 36 H       -1.7590    -1.1530     0.9700 H     1 <1>   0.1500 
 37 H       -4.7560     1.0210    -1.1340 H     1 <1>   0.1500 
 38 H       -3.0570    -3.1920     0.7160 H     1 <1>   0.1500 
 39 H       -6.0620    -1.0100    -1.3800 H     1 <1>   0.1500 
 40 H       -0.2190     5.3570     0.9370 H     1 <1>   0.3700 
 41 H       -4.9250    -4.3460    -0.0280 H     1 <1>   0.0800 
 42 H       -6.2260    -3.1600    -2.4870 H     1 <1>   0.0800 
 43 H       -6.1450    -4.8540    -2.0700 H     1 <1>   0.0800 
 44 H       -4.6840    -3.9780    -2.4520 H     1 <1>   0.0800 
 45 H       -7.4300    -2.6680    -0.2620 H     1 <1>   0.0800 
 46 H       -6.6800    -3.1640     1.2350 H     1 <1>   0.0800 
 47 H       -7.3500    -4.3630     0.1550 H     1 <1>   0.0800 
 48 H       -3.4990     7.5950     1.1400 H     1 <1>   0.0800 
 49 H       -3.7360     8.3640    -0.4080 H     1 <1>   0.0800 
 50 H       -3.3370     9.3190     1.0080 H     1 <1>   0.0800 
 51 H        1.4840     7.0960    -2.1980 H     1 <1>   0.0800 
 52 H        2.1610     5.5600    -1.6950 H     1 <1>   0.0800 
 53 H        2.6150     6.7360     1.7330 H     1 <1>   0.0800 
 54 H        2.4410     8.3220     1.0060 H     1 <1>   0.0800 
 55 H       -2.1510    10.5740    -1.2380 H     1 <1>   0.0800 
 56 H       -0.4780    11.0870    -1.1080 H     1 <1>   0.0800 
 57 H       -1.5110    11.1130     0.3110 H     1 <1>   0.0800 
 58 H        3.4150     8.2600    -1.6840 H     1 <1>   0.0800 
 59 H        4.1680     6.7260    -2.0860 H     1 <1>   0.0800 
 60 H        4.2900     6.1070     0.2330 H     1 <1>   0.0800 
 61 H        4.6380     7.8260     0.3260 H     1 <1>   0.0800 
@<TRIPOS>BOND
  1   1   2  2   
  2   2   3  am  
  3   2   4  1   
  4   3   5  1   
  5   3   6  1   
  6   4   7  1   
  7   4  31  1   
  8   4  32  1   
  9   5   8  ar  
 10   5   9  ar  
 11   6   7  1   
 12   6  33  1   
 13   6  34  1   
 14   7  10  1   
 15   7  35  1   
 16   8  11  ar  
 17   8  36  1   
 18   9  12  ar  
 19   9  37  1   
 20  10  13  2   
 21  10  14  am  
 22  11  15  ar  
 23  11  38  1   
 24  12  15  ar  
 25  12  39  1   
 26  14  16  1   
 27  14  40  1   
 28  15  17  1   
 29  16  18  1   
 30  16  19  2   
 31  17  20  1   
 32  17  21  1   
 33  17  41  1   
 34  18  22  2   
 35  18  23  1   
 36  19  24  1   
 37  19  25  1   
 38  20  42  1   
 39  20  43  1   
 40  20  44  1   
 41  21  45  1   
 42  21  46  1   
 43  21  47  1   
 44  22  24  1   
 45  23  26  1   
 46  23  27  1   
 47  24  28  1   
 48  25  48  1   
 49  25  49  1   
 50  25  50  1   
 51  26  29  1   
 52  26  51  1   
 53  26  52  1   
 54  27  30  1   
 55  27  53  1   
 56  27  54  1   
 57  28  55  1   
 58  28  56  1   
 59  28  57  1   
 60  29  30  1   
 61  29  58  1   
 62  29  59  1   
 63  30  60  1   
 64  30  61  1   
@<TRIPOS>SUBSTRUCTURE
  1 ****   7 GROUP 4 **** **** 0

# MOE 2024.06 (io_trps.svl 2023.06)
