@<TRIPOS>MOLECULE
NONAME
34 35 1 0 0 
SMALL
USER_CHARGES


@<TRIPOS>ATOM
  1 CL       1.0850     0.2950    -1.3970 Cl    1 <1>  -0.1770 
  2 C        0.5760     1.7550    -0.5760 C.ar  1 <1>   0.1770 
  3 C        1.4310     2.4490     0.2770 C.ar  1 <1>  -0.1440 
  4 C       -0.7150     2.1880    -0.8150 C.ar  1 <1>  -0.1500 
  5 C        0.9490     3.6030     0.8830 C.ar  1 <1>  -0.1500 
  6 C        2.8630     2.0090     0.5710 C.3   1 <1>   0.3640 
  7 C       -1.1780     3.3370    -0.2000 C.ar  1 <1>  -0.1500 
  8 C       -0.3430     4.0430     0.6480 C.ar  1 <1>  -0.1500 
  9 N        2.8480     0.6580     1.1810 N.am  1 <1>  -0.7300 
 10 C        3.7910     2.1040    -0.6680 C.3   1 <1>   0.2610 
 11 C        3.6630    -0.3450     0.7850 C.2   1 <1>   0.5690 
 12 O        4.9350     1.2690    -0.5390 O.3   1 <1>  -0.5600 
 13 C        4.1480     3.5790    -0.9070 C.2   1 <1>   0.5690 
 14 O        3.6240    -1.4200     1.3280 O.2   1 <1>  -0.5700 
 15 C        4.6320    -0.0990    -0.3750 C.3   1 <1>   0.1810 
 16 O        3.5160     4.1470    -1.7690 O.2   1 <1>  -0.5700 
 17 N        5.1020     4.2560    -0.1670 N.am  1 <1>  -0.6600 
 18 C        6.0090     3.6240     0.8330 C.3   1 <1>   0.0600 
 19 C        5.4300     5.6830    -0.4520 C.3   1 <1>   0.0600 
 20 H       -1.3500     1.6290    -1.4790 H     1 <1>   0.1500 
 21 H        1.5770     4.1780     1.5440 H     1 <1>   0.1500 
 22 H        3.2610     2.6750     1.3150 H     1 <1>   0.0800 
 23 H       -2.1820     3.6820    -0.3820 H     1 <1>   0.1500 
 24 H       -0.7000     4.9410     1.1240 H     1 <1>   0.1500 
 25 H        2.1610     0.4690     1.9110 H     1 <1>   0.3700 
 26 H        3.2630     1.7690    -1.5400 H     1 <1>   0.0800 
 27 H        4.2000    -0.4660    -1.2890 H     1 <1>   0.0800 
 28 H        5.5520    -0.6210    -0.1900 H     1 <1>   0.0800 
 29 H        6.3120     4.3490     1.5690 H     1 <1>   0.0800 
 30 H        6.8830     3.2450     0.3330 H     1 <1>   0.0800 
 31 H        5.5230     2.8130     1.3430 H     1 <1>   0.0800 
 32 H        5.3510     6.2630     0.4500 H     1 <1>   0.0800 
 33 H        4.7570     6.0990    -1.1830 H     1 <1>   0.0800 
 34 H        6.4330     5.7540    -0.8340 H     1 <1>   0.0800 
@<TRIPOS>BOND
  1   1   2  1   
  2   2   3  ar  
  3   2   4  ar  
  4   3   5  ar  
  5   3   6  1   
  6   4   7  ar  
  7   4  20  1   
  8   5   8  ar  
  9   5  21  1   
 10   6   9  1   
 11   6  10  1   
 12   6  22  1   
 13   7   8  ar  
 14   7  23  1   
 15   8  24  1   
 16   9  11  am  
 17   9  25  1   
 18  10  12  1   
 19  10  13  1   
 20  10  26  1   
 21  11  14  2   
 22  11  15  1   
 23  12  15  1   
 24  13  16  2   
 25  13  17  am  
 26  15  27  1   
 27  15  28  1   
 28  17  18  1   
 29  17  19  1   
 30  18  29  1   
 31  18  30  1   
 32  18  31  1   
 33  19  32  1   
 34  19  33  1   
 35  19  34  1   
@<TRIPOS>SUBSTRUCTURE
  1 ****   6 GROUP 4 **** **** 0

# MOE 2024.06 (io_trps.svl 2023.06)
