@<TRIPOS>MOLECULE
NONAME
38 40 1 0 0 
SMALL
USER_CHARGES


@<TRIPOS>ATOM
  1 O       -0.2700     0.2210    -0.1550 O.2   1 <1>  -0.5700 
  2 C       -1.3130     0.7990     0.0750 C.2   1 <1>   0.5440 
  3 N       -2.4720     0.0660     0.1730 N.am  1 <1>  -0.6600 
  4 C       -1.3180     2.2350     0.2330 C.ar  1 <1>   0.0860 
  5 C       -3.8450     0.6270     0.0800 C.3   1 <1>   0.1400 
  6 C       -2.4950    -1.4060    -0.0160 C.3   1 <1>   0.1400 
  7 C       -1.8290     2.8210     1.3900 C.ar  1 <1>   0.1600 
  8 C       -0.8250     3.0830    -0.7470 C.ar  1 <1>  -0.1500 
  9 C       -4.7280    -0.5580    -0.3120 C.3   1 <1>   0.2000 
 10 C       -3.9660    -1.8050     0.1310 C.3   1 <1>  -0.0800 
 11 N       -1.9150     4.1210     1.6340 N.ar  1 <1>  -0.6200 
 12 C       -0.8960     4.4390    -0.5180 C.ar  1 <1>   0.0820 
 13 O       -5.9610    -0.5070     0.3190 O.3   1 <1>  -0.6800 
 14 C       -4.3650    -3.0560    -0.6710 C.3   1 <1>  -0.0170 
 15 C       -1.4450     4.9030     0.6730 C.ar  1 <1>   0.1600 
 16 O       -0.4310     5.2810    -1.4600 O.3   1 <1>  -0.5320 
 17 C       -3.6450    -4.3000    -0.1760 C.ar  1 <1>   0.1670 
 18 N       -2.4150    -4.4890    -0.6240 N.ar  1 <1>  -0.6200 
 19 C       -4.2830    -5.1700     0.7070 C.ar  1 <1>   0.1600 
 20 C       -1.8700    -5.5900    -0.1360 C.ar  1 <1>   0.1600 
 21 N       -3.7390    -6.2710     1.1990 N.ar  1 <1>  -0.6200 
 22 C       -2.5100    -6.4520     0.7460 C.ar  1 <1>   0.1600 
 23 H       -4.1350     1.0180     1.0390 H     1 <1>   0.0800 
 24 H       -3.8900     1.3990    -0.6680 H     1 <1>   0.0800 
 25 H       -2.1280    -1.6390    -1.0020 H     1 <1>   0.0800 
 26 H       -1.8740    -1.8970     0.7140 H     1 <1>   0.0800 
 27 H       -2.1880     2.1620     2.1630 H     1 <1>   0.1500 
 28 H       -0.4010     2.6930    -1.6550 H     1 <1>   0.1500 
 29 H       -4.8890    -0.5550    -1.3770 H     1 <1>   0.0800 
 30 H       -4.1420    -1.9790     1.1780 H     1 <1>   0.0800 
 31 H       -5.8500    -0.5020     1.2890 H     1 <1>   0.4000 
 32 H       -4.1400    -2.9130    -1.7130 H     1 <1>   0.0800 
 33 H       -5.4280    -3.2020    -0.5890 H     1 <1>   0.0800 
 34 H       -1.4980     5.9630     0.8430 H     1 <1>   0.1500 
 35 H       -0.4870     6.2250    -1.2240 H     1 <1>   0.4500 
 36 H       -5.2860    -4.9460     1.0220 H     1 <1>   0.1500 
 37 H       -0.8670    -5.8230    -0.4490 H     1 <1>   0.1500 
 38 H       -1.9840    -7.3250     1.0900 H     1 <1>   0.1500 
@<TRIPOS>BOND
  1   1   2  2   
  2   2   3  am  
  3   2   4  1   
  4   3   5  1   
  5   3   6  1   
  6   4   7  ar  
  7   4   8  ar  
  8   5   9  1   
  9   5  23  1   
 10   5  24  1   
 11   6  10  1   
 12   6  25  1   
 13   6  26  1   
 14   7  11  ar  
 15   7  27  1   
 16   8  12  ar  
 17   8  28  1   
 18   9  10  1   
 19   9  13  1   
 20   9  29  1   
 21  10  14  1   
 22  10  30  1   
 23  11  15  ar  
 24  12  15  ar  
 25  12  16  1   
 26  13  31  1   
 27  14  17  1   
 28  14  32  1   
 29  14  33  1   
 30  15  34  1   
 31  16  35  1   
 32  17  18  ar  
 33  17  19  ar  
 34  18  20  ar  
 35  19  21  ar  
 36  19  36  1   
 37  20  22  ar  
 38  20  37  1   
 39  21  22  ar  
 40  22  38  1   
@<TRIPOS>SUBSTRUCTURE
  1 ****   3 GROUP 4 **** **** 0

# MOE 2024.06 (io_trps.svl 2023.06)
