@<TRIPOS>MOLECULE
NONAME
54 57 1 0 0 
SMALL
USER_CHARGES


@<TRIPOS>ATOM
  1 O       -0.8460     0.5840    -1.0330 O.2   1 <1>  -0.5700 
  2 C       -0.7260     1.7510    -0.7390 C.2   1 <1>   0.5690 
  3 N       -1.7200     2.4860    -0.1370 N.am  1 <1>  -0.6600 
  4 C        0.6100     2.4130    -1.0880 C.3   1 <1>   0.1810 
  5 C       -1.4850     3.9290     0.2180 C.3   1 <1>   0.3640 
  6 C       -2.9560     1.8940     0.4530 C.3   1 <1>   0.2200 
  7 O        0.8760     3.5690    -0.3330 O.3   1 <1>  -0.5600 
  8 C       -2.6480     4.7990    -0.2670 C.ar  1 <1>  -0.1440 
  9 C       -0.1740     4.5130    -0.3610 C.3   1 <1>   0.2610 
 10 C       -2.5930     0.9190     1.5730 C.3   1 <1>  -0.2400 
 11 C       -3.8270     1.2340    -0.6170 C.3   1 <1>  -0.2400 
 12 C       -3.1680     4.6600    -1.5480 C.ar  1 <1>  -0.1500 
 13 C       -3.1860     5.7600     0.5770 C.ar  1 <1>  -0.1500 
 14 C        0.2200     5.8120     0.3600 C.2   1 <1>   0.5690 
 15 C       -4.2080     5.4660    -1.9750 C.ar  1 <1>  -0.1500 
 16 C       -4.2260     6.5670     0.1500 C.ar  1 <1>  -0.1500 
 17 O       -0.0680     5.9330     1.5340 O.2   1 <1>  -0.5700 
 18 N        0.8600     6.8110    -0.3390 N.am  1 <1>  -0.5090 
 19 C       -4.7380     6.4210    -1.1260 C.ar  1 <1>  -0.1500 
 20 C        1.0210     8.1790     0.2060 C.3   1 <1>   0.0540 
 21 C        1.6990     6.5340    -1.5470 C.3   1 <1>   0.1400 
 22 C        2.4600     8.4290     0.6810 C.3   1 <1>  -0.0650 
 23 C       -0.1390     8.8910     0.8280 C.3   1 <1>  -0.2000 
 24 C        0.3050     9.2510    -0.5560 C.3   1 <1>  -0.2000 
 25 C        2.9450     7.4380    -1.6130 C.3   1 <1>  -0.1600 
 26 C        3.5060     7.7320    -0.2120 C.3   1 <1>  -0.1600 
 27 H        0.6170     2.6760    -2.1300 H     1 <1>   0.0800 
 28 H        1.4060     1.7150    -0.9030 H     1 <1>   0.0800 
 29 H       -1.4370     3.9800     1.2920 H     1 <1>   0.0800 
 30 H       -3.5420     2.6820     0.8960 H     1 <1>   0.0800 
 31 H       -0.3500     4.7580    -1.3920 H     1 <1>   0.0800 
 32 H       -2.0740     0.0620     1.1840 H     1 <1>   0.0800 
 33 H       -3.4870     0.5770     2.0610 H     1 <1>   0.0800 
 34 H       -1.9730     1.4080     2.3030 H     1 <1>   0.0800 
 35 H       -3.3440     0.3720    -1.0380 H     1 <1>   0.0800 
 36 H       -4.0500     1.9350    -1.4000 H     1 <1>   0.0800 
 37 H       -4.7550     0.9150    -0.1790 H     1 <1>   0.0800 
 38 H       -2.7670     3.9200    -2.2180 H     1 <1>   0.1500 
 39 H       -2.7930     5.8920     1.5720 H     1 <1>   0.1500 
 40 H       -4.6070     5.3500    -2.9680 H     1 <1>   0.1500 
 41 H       -4.6340     7.3110     0.8130 H     1 <1>   0.1500 
 42 H       -5.5470     7.0480    -1.4570 H     1 <1>   0.1500 
 43 H        2.0320     5.5110    -1.5140 H     1 <1>   0.0800 
 44 H        1.1030     6.6700    -2.4330 H     1 <1>   0.0800 
 45 H        2.6460     9.4880     0.7020 H     1 <1>   0.0800 
 46 H        2.5580     8.0670     1.6900 H     1 <1>   0.0800 
 47 H       -1.0630     8.3570     0.9590 H     1 <1>   0.1000 
 48 H        0.0520     9.5850     1.6270 H     1 <1>   0.1000 
 49 H        0.7700    10.2100    -0.6980 H     1 <1>   0.1000 
 50 H       -0.3310     8.9730    -1.3770 H     1 <1>   0.1000 
 51 H        3.6960     6.9640    -2.2200 H     1 <1>   0.0800 
 52 H        2.6830     8.3650    -2.0940 H     1 <1>   0.0800 
 53 H        4.3900     8.3420    -0.2830 H     1 <1>   0.0800 
 54 H        3.7850     6.7990     0.2460 H     1 <1>   0.0800 
@<TRIPOS>BOND
  1   1   2  2   
  2   2   3  am  
  3   2   4  1   
  4   3   5  1   
  5   3   6  1   
  6   4   7  1   
  7   4  27  1   
  8   4  28  1   
  9   5   8  1   
 10   5   9  1   
 11   5  29  1   
 12   6  10  1   
 13   6  11  1   
 14   6  30  1   
 15   7   9  1   
 16   8  12  ar  
 17   8  13  ar  
 18   9  14  1   
 19   9  31  1   
 20  10  32  1   
 21  10  33  1   
 22  10  34  1   
 23  11  35  1   
 24  11  36  1   
 25  11  37  1   
 26  12  15  ar  
 27  12  38  1   
 28  13  16  ar  
 29  13  39  1   
 30  14  17  2   
 31  14  18  am  
 32  15  19  ar  
 33  15  40  1   
 34  16  19  ar  
 35  16  41  1   
 36  18  20  1   
 37  18  21  1   
 38  19  42  1   
 39  20  22  1   
 40  20  23  1   
 41  20  24  1   
 42  21  25  1   
 43  21  43  1   
 44  21  44  1   
 45  22  26  1   
 46  22  45  1   
 47  22  46  1   
 48  23  24  1   
 49  23  47  1   
 50  23  48  1   
 51  24  49  1   
 52  24  50  1   
 53  25  26  1   
 54  25  51  1   
 55  25  52  1   
 56  26  53  1   
 57  26  54  1   
@<TRIPOS>SUBSTRUCTURE
  1 ****   9 GROUP 4 **** **** 0

# MOE 2024.06 (io_trps.svl 2023.06)
