@<TRIPOS>MOLECULE
NONAME
46 47 1 0 0 
SMALL
USER_CHARGES


@<TRIPOS>ATOM
  1 O       -0.5060     0.5160     0.3780 O.2   1 <1>  -0.5700 
  2 C       -1.6110     1.0020     0.3630 C.2   1 <1>   0.5690 
  3 N       -2.7260     0.2250     0.2220 N.am  1 <1>  -0.6600 
  4 C       -1.7650     2.5130     0.4970 C.3   1 <1>  -0.0990 
  5 C       -4.1320     0.6920     0.1280 C.3   1 <1>   0.1400 
  6 C       -2.6550    -1.2520     0.1090 C.3   1 <1>   0.1400 
  7 C       -0.4460     3.2630     0.7710 C.3   1 <1>  -0.1600 
  8 C       -4.9270    -0.5480    -0.2800 C.3   1 <1>   0.2000 
  9 C       -4.1030    -1.7340     0.2120 C.3   1 <1>  -0.0800 
 10 C       -0.6760     4.7670     0.9190 C.3   1 <1>   0.1400 
 11 O       -6.1850    -0.5600     0.3000 O.3   1 <1>  -0.6800 
 12 C       -4.3780    -3.0300    -0.5660 C.3   1 <1>   0.0210 
 13 N        0.6190     5.4290     1.1770 N.am  1 <1>  -0.7300 
 14 C       -3.4670    -4.1460    -0.0970 C.2   1 <1>   0.1080 
 15 C        1.1880     6.4800     0.5440 C.2   1 <1>   0.5690 
 16 N       -3.4910    -4.6100     1.1140 N.2   1 <1>  -0.7070 
 17 C       -2.5120    -4.7810    -0.8850 C.2   1 <1>  -0.1500 
 18 O        2.2560     6.8960     0.9070 O.2   1 <1>  -0.5700 
 19 C        0.5000     7.1490    -0.6200 C.3   1 <1>  -0.1790 
 20 N       -2.5410    -5.5640     1.1310 N.pl3 1 <1>   0.3000 
 21 C       -1.9330    -5.6860    -0.0680 C.2   1 <1>  -0.3320 
 22 C       -0.8190    -6.6720    -0.3630 C.3   1 <1>  -0.0600 
 23 H       -2.1970     2.8840    -0.4140 H     1 <1>   0.0800 
 24 H       -2.4500     2.7070     1.3020 H     1 <1>   0.0800 
 25 H       -4.4520     1.0480     1.0920 H     1 <1>   0.0800 
 26 H       -4.2300     1.4660    -0.6120 H     1 <1>   0.0800 
 27 H       -2.2270    -1.5090    -0.8460 H     1 <1>   0.0800 
 28 H       -2.0450    -1.6710     0.8930 H     1 <1>   0.0800 
 29 H        0.2360     3.0850    -0.0430 H     1 <1>   0.0800 
 30 H       -0.0050     2.8760     1.6740 H     1 <1>   0.0800 
 31 H       -5.0450    -0.5650    -1.3500 H     1 <1>   0.0800 
 32 H       -4.3010    -1.9040     1.2560 H     1 <1>   0.0800 
 33 H       -1.3370     4.9600     1.7470 H     1 <1>   0.0800 
 34 H       -1.1260     5.1580     0.0230 H     1 <1>   0.0800 
 35 H       -6.1170    -0.7650     1.2530 H     1 <1>   0.4000 
 36 H       -4.2330    -2.8690    -1.6190 H     1 <1>   0.0800 
 37 H       -5.3990    -3.3310    -0.4110 H     1 <1>   0.0800 
 38 H        1.1760     5.0380     1.9410 H     1 <1>   0.3700 
 39 H       -2.3000    -4.5740    -1.9180 H     1 <1>   0.1500 
 40 H        0.3780     6.4460    -1.4220 H     1 <1>   0.0800 
 41 H        1.0970     7.9720    -0.9670 H     1 <1>   0.0800 
 42 H       -0.4580     7.5220    -0.3110 H     1 <1>   0.0800 
 43 H       -2.3320    -6.1120     1.9740 H     1 <1>   0.2700 
 44 H       -0.5020    -6.5760    -1.3860 H     1 <1>   0.0800 
 45 H       -1.1610    -7.6790    -0.2040 H     1 <1>   0.0800 
 46 H        0.0250    -6.4820     0.2760 H     1 <1>   0.0800 
@<TRIPOS>BOND
  1   1   2  2   
  2   2   3  am  
  3   2   4  1   
  4   3   5  1   
  5   3   6  1   
  6   4   7  1   
  7   4  23  1   
  8   4  24  1   
  9   5   8  1   
 10   5  25  1   
 11   5  26  1   
 12   6   9  1   
 13   6  27  1   
 14   6  28  1   
 15   7  10  1   
 16   7  29  1   
 17   7  30  1   
 18   8   9  1   
 19   8  11  1   
 20   8  31  1   
 21   9  12  1   
 22   9  32  1   
 23  10  13  1   
 24  10  33  1   
 25  10  34  1   
 26  11  35  1   
 27  12  14  1   
 28  12  36  1   
 29  12  37  1   
 30  13  15  am  
 31  13  38  1   
 32  14  16  2   
 33  14  17  1   
 34  15  18  2   
 35  15  19  1   
 36  16  20  1   
 37  17  21  2   
 38  17  39  1   
 39  19  40  1   
 40  19  41  1   
 41  19  42  1   
 42  20  21  1   
 43  20  43  1   
 44  21  22  1   
 45  22  44  1   
 46  22  45  1   
 47  22  46  1   
@<TRIPOS>SUBSTRUCTURE
  1 ****   3 GROUP 4 **** **** 0

# MOE 2024.06 (io_trps.svl 2023.06)
