@<TRIPOS>MOLECULE
NONAME
41 42 1 0 0 
SMALL
USER_CHARGES


@<TRIPOS>ATOM
  1 S       -0.3330     0.2510     0.5350 S.o2  1 <1>   1.3330 
  2 O       -0.1330    -0.4710     1.7710 O.2   1 <1>  -0.6500 
  3 O       -0.9600     1.5530     0.5620 O.2   1 <1>  -0.6500 
  4 N       -1.2210    -0.7480    -0.5120 N.am  1 <1>  -0.8490 
  5 C        1.2320     0.4200    -0.3260 C.3   1 <1>  -0.0550 
  6 C       -2.6610    -0.4800    -0.4500 C.3   1 <1>   0.1160 
  7 C       -0.9700    -2.1790    -0.3050 C.3   1 <1>   0.1160 
  8 C        2.2230     1.3710     0.3750 C.3   1 <1>  -0.0800 
  9 C        3.4330     1.6440    -0.5040 C.3   1 <1>   0.2200 
 10 C        2.8550     0.7360     1.6220 C.3   1 <1>   0.1200 
 11 N        4.0310     2.9400    -0.1140 N.am  1 <1>  -0.7300 
 12 C        4.3690     0.5140    -0.0990 C.3   1 <1>   0.1200 
 13 O        4.1350     0.3040     1.2600 O.3   1 <1>  -0.5600 
 14 C        4.1460     4.0330    -0.9230 C.2   1 <1>   0.5440 
 15 O        3.7300     3.9520    -2.0610 O.2   1 <1>  -0.5700 
 16 C        4.7610     5.2600    -0.4450 C.ar  1 <1>   0.0860 
 17 C        4.8270     5.5750     0.9170 C.ar  1 <1>  -0.1500 
 18 C        5.3130     6.1790    -1.3420 C.ar  1 <1>  -0.1500 
 19 C        5.4290     6.7480     1.3350 C.ar  1 <1>   0.1900 
 20 C        5.9050     7.3410    -0.8830 C.ar  1 <1>   0.1900 
 21 F        5.4750     7.0060     2.6130 F     1 <1>  -0.1900 
 22 C        5.9810     7.6570     0.4570 C.ar  1 <1>  -0.1500 
 23 F        6.4130     8.1730    -1.7510 F     1 <1>  -0.1900 
 24 H        1.6820    -0.5470    -0.4440 H     1 <1>   0.0800 
 25 H        1.0260     0.8070    -1.3050 H     1 <1>   0.0800 
 26 H       -3.1900    -1.1190    -1.1360 H     1 <1>   0.0800 
 27 H       -2.8580     0.5430    -0.7260 H     1 <1>   0.0800 
 28 H       -3.0300    -0.6460     0.5490 H     1 <1>   0.0800 
 29 H       -1.4840    -2.7570    -1.0540 H     1 <1>   0.0800 
 30 H       -1.3140    -2.4840     0.6710 H     1 <1>   0.0800 
 31 H        0.0830    -2.3870    -0.3790 H     1 <1>   0.0800 
 32 H        1.7090     2.2860     0.6190 H     1 <1>   0.0800 
 33 H        3.2090     1.6270    -1.5580 H     1 <1>   0.0800 
 34 H        2.3050    -0.1090     1.9990 H     1 <1>   0.0800 
 35 H        2.9680     1.4630     2.4080 H     1 <1>   0.0800 
 36 H        4.4800     2.9230     0.8050 H     1 <1>   0.3700 
 37 H        5.4050     0.7550    -0.2570 H     1 <1>   0.0800 
 38 H        4.1220    -0.3940    -0.6200 H     1 <1>   0.0800 
 39 H        4.4050     4.9180     1.6550 H     1 <1>   0.1500 
 40 H        5.2790     5.9840    -2.4010 H     1 <1>   0.1500 
 41 H        6.4460     8.5630     0.7980 H     1 <1>   0.1500 
@<TRIPOS>BOND
  1   1   2  2   
  2   1   3  2   
  3   1   4  am  
  4   1   5  1   
  5   4   6  1   
  6   4   7  1   
  7   5   8  1   
  8   5  24  1   
  9   5  25  1   
 10   6  26  1   
 11   6  27  1   
 12   6  28  1   
 13   7  29  1   
 14   7  30  1   
 15   7  31  1   
 16   8   9  1   
 17   8  10  1   
 18   8  32  1   
 19   9  11  1   
 20   9  12  1   
 21   9  33  1   
 22  10  13  1   
 23  10  34  1   
 24  10  35  1   
 25  11  14  am  
 26  11  36  1   
 27  12  13  1   
 28  12  37  1   
 29  12  38  1   
 30  14  15  2   
 31  14  16  1   
 32  16  17  ar  
 33  16  18  ar  
 34  17  19  ar  
 35  17  39  1   
 36  18  20  ar  
 37  18  40  1   
 38  19  21  1   
 39  19  22  ar  
 40  20  22  ar  
 41  20  23  1   
 42  22  41  1   
@<TRIPOS>SUBSTRUCTURE
  1 ****  11 GROUP 4 **** **** 0

# MOE 2024.06 (io_trps.svl 2023.06)
