@<TRIPOS>MOLECULE
NONAME
49 52 1 0 0 
SMALL
USER_CHARGES


@<TRIPOS>ATOM
  1 O        0.1960     0.4330     0.0050 O.3   1 <1>  -0.6800 
  2 C        1.1870    -0.0870    -0.8190 C.3   1 <1>   0.2000 
  3 C        1.6530    -1.4110    -0.2150 C.3   1 <1>  -0.0800 
  4 C        2.4270     0.8180    -0.7070 C.3   1 <1>   0.3430 
  5 C        2.5230    -0.9070     0.9390 C.3   1 <1>   0.3430 
  6 C        2.4330    -2.2490    -1.2630 C.3   1 <1>  -0.0170 
  7 N        3.3100     0.1920     0.3340 N.4   1 <1>  -0.9590 
  8 C        3.6200    -3.0080    -0.6910 C.ar  1 <1>   0.1670 
  9 C        3.8730     1.1460     1.3260 C.3   1 <1>   0.4860 
 10 N        4.7320    -2.3040    -0.5080 N.ar  1 <1>  -0.6200 
 11 C        3.4940    -4.3580    -0.3990 C.ar  1 <1>  -0.1500 
 12 C        4.5020     2.3220     0.5970 C.ar  1 <1>  -0.1440 
 13 C        5.7660    -2.9910    -0.0380 C.ar  1 <1>   0.1600 
 14 C        4.5730    -5.0490     0.1050 C.ar  1 <1>  -0.1500 
 15 C        5.7090     2.1170    -0.1230 C.ar  1 <1>   0.0000 
 16 C        3.9000     3.5620     0.6270 C.ar  1 <1>  -0.1440 
 17 C        5.7380    -4.3370     0.2830 C.ar  1 <1>  -0.1500 
 18 C        6.2560     3.1950    -0.8590 C.ar  1 <1>   0.3100 
 19 C        6.4230     0.8980    -0.1600 C.ar  1 <1>  -0.1500 
 20 C        4.4740     4.6250    -0.0800 C.ar  1 <1>  -0.1500 
 21 C        2.6210     3.8610     1.4040 C.3   1 <1>  -0.0970 
 22 N        7.3740     3.0860    -1.6180 N.ar  1 <1>  -0.6200 
 23 C        5.6150     4.4380    -0.8060 C.ar  1 <1>  -0.1500 
 24 C        7.5500     0.8200    -0.9200 C.ar  1 <1>  -0.1500 
 25 C        7.9810     1.9420    -1.6360 C.ar  1 <1>   0.1600 
 26 H       -0.6740     0.0200    -0.1800 H     1 <1>   0.4000 
 27 H        0.8060    -0.1550    -1.8240 H     1 <1>   0.0800 
 28 H        0.8330    -1.9950     0.1660 H     1 <1>   0.0800 
 29 H        2.1290     1.8160    -0.4350 H     1 <1>   0.0800 
 30 H        2.9520     0.8510    -1.6470 H     1 <1>   0.0800 
 31 H        3.1550    -1.6800     1.3450 H     1 <1>   0.0800 
 32 H        1.8860    -0.5160     1.7170 H     1 <1>   0.0800 
 33 H        2.8130    -1.6210    -2.0500 H     1 <1>   0.0800 
 34 H        1.7550    -2.9400    -1.7330 H     1 <1>   0.0800 
 35 H        4.0940    -0.2740    -0.1600 H     1 <1>   0.4500 
 36 H        3.0890     1.4940     1.9770 H     1 <1>   0.0800 
 37 H        4.6150     0.6550     1.9330 H     1 <1>   0.0800 
 38 H        2.5650    -4.8740    -0.5670 H     1 <1>   0.1500 
 39 H        6.6920    -2.4590     0.1010 H     1 <1>   0.1500 
 40 H        4.5130    -6.0990     0.3420 H     1 <1>   0.1500 
 41 H        6.6200    -4.8220     0.6640 H     1 <1>   0.1500 
 42 H        6.1010     0.0420     0.4000 H     1 <1>   0.1500 
 43 H        4.0130     5.5990    -0.0550 H     1 <1>   0.1500 
 44 H        2.1710     4.7770     1.0610 H     1 <1>   0.0800 
 45 H        2.8470     3.9750     2.4500 H     1 <1>   0.0800 
 46 H        1.8890     3.0840     1.2860 H     1 <1>   0.0800 
 47 H        6.0590     5.2470    -1.3580 H     1 <1>   0.1500 
 48 H        8.1270    -0.0850    -0.9880 H     1 <1>   0.1500 
 49 H        8.8730     1.8500    -2.2340 H     1 <1>   0.1500 
@<TRIPOS>BOND
  1   1   2  1   
  2   1  26  1   
  3   2   3  1   
  4   2   4  1   
  5   2  27  1   
  6   3   5  1   
  7   3   6  1   
  8   3  28  1   
  9   4   7  1   
 10   4  29  1   
 11   4  30  1   
 12   5   7  1   
 13   5  31  1   
 14   5  32  1   
 15   6   8  1   
 16   6  33  1   
 17   6  34  1   
 18   7   9  1   
 19   7  35  1   
 20   8  10  ar  
 21   8  11  ar  
 22   9  12  1   
 23   9  36  1   
 24   9  37  1   
 25  10  13  ar  
 26  11  14  ar  
 27  11  38  1   
 28  12  15  ar  
 29  12  16  ar  
 30  13  17  ar  
 31  13  39  1   
 32  14  17  ar  
 33  14  40  1   
 34  15  18  ar  
 35  15  19  ar  
 36  16  20  ar  
 37  16  21  1   
 38  17  41  1   
 39  18  22  ar  
 40  18  23  ar  
 41  19  24  ar  
 42  19  42  1   
 43  20  23  ar  
 44  20  43  1   
 45  21  44  1   
 46  21  45  1   
 47  21  46  1   
 48  22  25  ar  
 49  23  47  1   
 50  24  25  ar  
 51  24  48  1   
 52  25  49  1   
@<TRIPOS>SUBSTRUCTURE
  1 ****   7 GROUP 4 **** **** 0

# MOE 2024.06 (io_trps.svl 2023.06)
