@<TRIPOS>MOLECULE
NONAME
53 55 1 0 0 
SMALL
USER_CHARGES


@<TRIPOS>ATOM
  1 O        1.4590     0.2770    -0.3640 O.2   1 <1>  -0.5700 
  2 C        1.4030    -0.5910     0.4820 C.2   1 <1>   0.7800 
  3 O        0.4460    -0.5220     1.4110 O.3   1 <1>  -0.4300 
  4 N        2.2830    -1.6440     0.5560 N.am  1 <1>  -0.6600 
  5 C       -0.5270     0.5040     1.3920 C.3   1 <1>   0.0400 
  6 C        3.3600    -1.9070    -0.4720 C.3   1 <1>   0.2810 
  7 C        1.9730    -2.8430     1.3840 C.3   1 <1>   0.1400 
  8 C        3.9780    -0.6810    -1.2060 C.2   1 <1>   0.5690 
  9 C        2.8230    -2.9940    -1.4270 C.3   1 <1>  -0.1600 
 10 C        1.4300    -3.9460     0.4690 C.3   1 <1>  -0.1600 
 11 O        4.1180    -0.7390    -2.4080 O.2   1 <1>  -0.5700 
 12 N        4.4440     0.4290    -0.5310 N.am  1 <1>  -0.6600 
 13 C        2.4020    -4.2690    -0.6750 C.3   1 <1>  -0.1600 
 14 C        4.6290     0.5410     0.9480 C.3   1 <1>   0.1400 
 15 C        4.5200     1.7260    -1.2560 C.3   1 <1>   0.1400 
 16 C        6.1040     0.7610     1.3510 C.3   1 <1>   0.3430 
 17 C        5.9400     1.9670    -1.7700 C.3   1 <1>  -0.1600 
 18 N        6.8240     1.8030     0.5440 N.4   1 <1>  -0.9590 
 19 C        7.0420     1.4050    -0.8750 C.3   1 <1>   0.3430 
 20 C        8.0730     2.2950     1.1780 C.3   1 <1>   0.5230 
 21 C        8.1510     3.7920     0.9040 C.2   1 <1>   0.0060 
 22 N        7.1340     4.4900     0.4960 N.2   1 <1>  -0.5650 
 23 N        9.2770     4.5280     1.0660 N.pl3 1 <1>   0.0330 
 24 C        7.6210     5.7410     0.3850 C.2   1 <1>   0.0770 
 25 C        8.9260     5.7800     0.7280 C.2   1 <1>  -0.3020 
 26 H       -1.1950     0.3560     2.2210 H     1 <1>   0.0800 
 27 H       -1.0690     0.4510     0.4640 H     1 <1>   0.0800 
 28 H       -0.0320     1.4560     1.4790 H     1 <1>   0.0800 
 29 H        4.1870    -2.3490     0.0520 H     1 <1>   0.0800 
 30 H        1.2490    -2.6180     2.1480 H     1 <1>   0.0800 
 31 H        2.8700    -3.1820     1.8730 H     1 <1>   0.0800 
 32 H        3.5820    -3.2500    -2.1460 H     1 <1>   0.0800 
 33 H        1.9860    -2.5920    -1.9720 H     1 <1>   0.0800 
 34 H        0.4870    -3.6240     0.0610 H     1 <1>   0.0800 
 35 H        1.2470    -4.8330     1.0480 H     1 <1>   0.0800 
 36 H        3.2780    -4.7480    -0.2710 H     1 <1>   0.0800 
 37 H        1.9390    -4.9560    -1.3620 H     1 <1>   0.0800 
 38 H        4.2800    -0.3460     1.4420 H     1 <1>   0.0800 
 39 H        4.0290     1.3560     1.3150 H     1 <1>   0.0800 
 40 H        4.2220     2.5250    -0.5990 H     1 <1>   0.0800 
 41 H        3.8280     1.7250    -2.0840 H     1 <1>   0.0800 
 42 H        6.6240    -0.1780     1.2590 H     1 <1>   0.0800 
 43 H        6.1220     1.0380     2.3920 H     1 <1>   0.0800 
 44 H        6.0890     3.0220    -1.9190 H     1 <1>   0.0800 
 45 H        6.0270     1.5010    -2.7360 H     1 <1>   0.0800 
 46 H        6.2570     2.6720     0.5030 H     1 <1>   0.4500 
 47 H        7.9900     1.7760    -1.2290 H     1 <1>   0.0800 
 48 H        7.0480     0.3290    -0.9560 H     1 <1>   0.0800 
 49 H        8.9310     1.7840     0.7740 H     1 <1>   0.0800 
 50 H        8.0370     2.1400     2.2440 H     1 <1>   0.0800 
 51 H       10.2080     4.2290     1.3800 H     1 <1>   0.2700 
 52 H        7.0010     6.5630     0.0600 H     1 <1>   0.1500 
 53 H        9.6030     6.6170     0.7490 H     1 <1>   0.1500 
@<TRIPOS>BOND
  1   1   2  2   
  2   2   3  1   
  3   2   4  am  
  4   3   5  1   
  5   4   6  1   
  6   4   7  1   
  7   5  26  1   
  8   5  27  1   
  9   5  28  1   
 10   6   8  1   
 11   6   9  1   
 12   6  29  1   
 13   7  10  1   
 14   7  30  1   
 15   7  31  1   
 16   8  11  2   
 17   8  12  am  
 18   9  13  1   
 19   9  32  1   
 20   9  33  1   
 21  10  13  1   
 22  10  34  1   
 23  10  35  1   
 24  12  14  1   
 25  12  15  1   
 26  13  36  1   
 27  13  37  1   
 28  14  16  1   
 29  14  38  1   
 30  14  39  1   
 31  15  17  1   
 32  15  40  1   
 33  15  41  1   
 34  16  18  1   
 35  16  42  1   
 36  16  43  1   
 37  17  19  1   
 38  17  44  1   
 39  17  45  1   
 40  18  19  1   
 41  18  20  1   
 42  18  46  1   
 43  19  47  1   
 44  19  48  1   
 45  20  21  1   
 46  20  49  1   
 47  20  50  1   
 48  21  22  2   
 49  21  23  1   
 50  22  24  1   
 51  23  25  1   
 52  23  51  1   
 53  24  25  2   
 54  24  52  1   
 55  25  53  1   
@<TRIPOS>SUBSTRUCTURE
  1 ****  12 GROUP 4 **** **** 0

# MOE 2024.06 (io_trps.svl 2023.06)
