@<TRIPOS>MOLECULE
NONAME
47 50 1 0 0 
SMALL
USER_CHARGES


@<TRIPOS>ATOM
  1 S        0.0970     0.4770     0.2380 S.3   1 <1>  -0.0800 
  2 C        1.5890    -0.2690    -0.3440 C.ar  1 <1>   0.0400 
  3 C       -0.5510    -1.0800     0.7500 C.2   1 <1>  -0.1400 
  4 C        1.5570    -1.6390    -0.1250 C.ar  1 <1>   0.0000 
  5 C        2.6540     0.3880    -0.9290 C.ar  1 <1>  -0.1500 
  6 C        0.3200    -2.0710     0.4790 C.2   1 <1>  -0.1810 
  7 C       -1.9330    -1.0370     1.3760 C.3   1 <1>  -0.0600 
  8 C        2.6820    -2.3750    -0.4990 C.ar  1 <1>  -0.1500 
  9 C        3.7500    -0.3650    -1.3070 C.ar  1 <1>  -0.1500 
 10 C        0.0770    -3.5390     0.7420 C.3   1 <1>   0.5240 
 11 C        3.7620    -1.7390    -1.0880 C.ar  1 <1>  -0.1500 
 12 N       -0.1130    -4.2050    -0.5740 N.4   1 <1>  -0.9590 
 13 C       -1.4000    -3.7640    -1.2020 C.3   1 <1>   0.3430 
 14 C       -0.1890    -5.6900    -0.4210 C.3   1 <1>   0.3430 
 15 C       -2.4160    -4.8610    -0.8700 C.3   1 <1>   0.2000 
 16 C       -1.5580    -6.1220    -0.9600 C.3   1 <1>  -0.0800 
 17 O       -2.8500    -4.6760     0.4410 O.3   1 <1>  -0.6800 
 18 C       -2.1080    -7.3880    -0.2730 C.3   1 <1>   0.0200 
 19 C       -1.0530    -8.4770    -0.2590 C.2   1 <1>  -0.0400 
 20 O       -0.3800    -8.7420    -1.3470 O.3   1 <1>  -0.0190 
 21 C       -0.6040    -9.2860     0.7120 C.2   1 <1>  -0.1500 
 22 N        0.5080    -9.6690    -1.1520 N.2   1 <1>  -0.4100 
 23 C        0.3900   -10.0270     0.0770 C.2   1 <1>   0.1080 
 24 C        1.2230   -11.1070     0.7320 C.3   1 <1>  -0.0590 
 25 H        2.6230     1.4530    -1.0790 H     1 <1>   0.1500 
 26 H       -2.2690    -2.0210     1.6480 H     1 <1>   0.0800 
 27 H       -2.6370    -0.6100     0.6840 H     1 <1>   0.0800 
 28 H       -1.9120    -0.4250     2.2600 H     1 <1>   0.0800 
 29 H        2.7330    -3.4340    -0.3280 H     1 <1>   0.1500 
 30 H        4.5990     0.1130    -1.7660 H     1 <1>   0.1500 
 31 H       -0.8010    -3.6680     1.3530 H     1 <1>   0.0800 
 32 H        0.9250    -3.9550     1.2600 H     1 <1>   0.0800 
 33 H        4.6300    -2.3070    -1.3790 H     1 <1>   0.1500 
 34 H        0.6720    -3.9140    -1.1720 H     1 <1>   0.4500 
 35 H       -1.7290    -2.8030    -0.8430 H     1 <1>   0.0800 
 36 H       -1.2760    -3.7140    -2.2710 H     1 <1>   0.0800 
 37 H        0.6020    -6.1850    -0.9630 H     1 <1>   0.0800 
 38 H       -0.1160    -5.9580     0.6210 H     1 <1>   0.0800 
 39 H       -3.2660    -4.8540    -1.5320 H     1 <1>   0.0800 
 40 H       -1.4220    -6.3510    -2.0030 H     1 <1>   0.0800 
 41 H       -3.7020    -5.1380     0.5990 H     1 <1>   0.4000 
 42 H       -2.9730    -7.7440    -0.8070 H     1 <1>   0.0800 
 43 H       -2.3990    -7.1870     0.7430 H     1 <1>   0.0800 
 44 H       -0.9040    -9.3760     1.7400 H     1 <1>   0.1500 
 45 H        1.7490   -10.7050     1.5780 H     1 <1>   0.0800 
 46 H        1.9380   -11.4970     0.0300 H     1 <1>   0.0800 
 47 H        0.5870   -11.9100     1.0590 H     1 <1>   0.0800 
@<TRIPOS>BOND
  1   1   2  1   
  2   1   3  1   
  3   2   4  ar  
  4   2   5  ar  
  5   3   6  2   
  6   3   7  1   
  7   4   6  1   
  8   4   8  ar  
  9   5   9  ar  
 10   5  25  1   
 11   6  10  1   
 12   7  26  1   
 13   7  27  1   
 14   7  28  1   
 15   8  11  ar  
 16   8  29  1   
 17   9  11  ar  
 18   9  30  1   
 19  10  12  1   
 20  10  31  1   
 21  10  32  1   
 22  11  33  1   
 23  12  13  1   
 24  12  14  1   
 25  12  34  1   
 26  13  15  1   
 27  13  35  1   
 28  13  36  1   
 29  14  16  1   
 30  14  37  1   
 31  14  38  1   
 32  15  16  1   
 33  15  17  1   
 34  15  39  1   
 35  16  18  1   
 36  16  40  1   
 37  17  41  1   
 38  18  19  1   
 39  18  42  1   
 40  18  43  1   
 41  19  20  1   
 42  19  21  2   
 43  20  22  1   
 44  21  23  1   
 45  21  44  1   
 46  22  23  2   
 47  23  24  1   
 48  24  45  1   
 49  24  46  1   
 50  24  47  1   
@<TRIPOS>SUBSTRUCTURE
  1 ****  12 GROUP 4 **** **** 0

# MOE 2024.06 (io_trps.svl 2023.06)
