@<TRIPOS>MOLECULE
NONAME
57 59 1 0 0 
SMALL
USER_CHARGES


@<TRIPOS>ATOM
  1 O       -2.2210     0.4960    -2.0550 O.2   1 <1>  -0.5700 
  2 C       -1.9740     0.5200    -0.8730 C.2   1 <1>   0.5690 
  3 N       -1.8860    -0.6230    -0.1500 N.am  1 <1>  -0.7300 
  4 C       -1.7820     1.8560    -0.1560 C.3   1 <1>  -0.0190 
  5 C       -2.0430    -1.9880    -0.7020 C.3   1 <1>   0.2200 
  6 C       -3.1080     2.6300    -0.0660 C.3   1 <1>  -0.1600 
  7 C       -0.7040     2.7190    -0.8370 C.3   1 <1>  -0.1600 
  8 C       -3.4090    -2.5690    -0.3620 C.3   1 <1>  -0.0800 
  9 C       -1.1380    -2.9360     0.0710 C.3   1 <1>   0.1200 
 10 C       -2.9260     3.9750     0.6520 C.3   1 <1>  -0.1600 
 11 C       -0.5220     4.0670    -0.1240 C.3   1 <1>  -0.1600 
 12 C       -3.2010    -3.1450     1.0430 C.3   1 <1>   0.1200 
 13 C       -4.6020    -1.6010    -0.4820 C.3   1 <1>  -0.0170 
 14 O       -1.8200    -3.1950     1.2610 O.3   1 <1>  -0.5600 
 15 C       -1.8500     4.8420    -0.0240 C.3   1 <1>  -0.0800 
 16 C       -5.9140    -2.3220    -0.2160 C.ar  1 <1>  -0.1440 
 17 C       -1.6960     6.1680     0.7480 C.3   1 <1>  -0.1600 
 18 C       -6.5420    -2.2760     1.0120 C.ar  1 <1>  -0.1500 
 19 C       -6.5440    -3.0630    -1.1950 C.ar  1 <1>  -0.1500 
 20 C       -0.7760     7.1810     0.0490 C.3   1 <1>  -0.1600 
 21 C       -7.7330    -2.9590     1.1980 C.ar  1 <1>   0.1600 
 22 C       -7.7350    -3.7090    -0.9050 C.ar  1 <1>   0.1600 
 23 C       -0.7730     8.5240     0.7890 C.3   1 <1>  -0.1600 
 24 N       -8.3430    -3.6760     0.2690 N.ar  1 <1>  -0.6200 
 25 C        0.1480     9.5320     0.0960 C.3   1 <1>  -0.2400 
 26 H       -1.7120    -0.6010     0.8570 H     1 <1>   0.3700 
 27 H       -1.4500     1.6490     0.8460 H     1 <1>   0.0800 
 28 H       -1.8380    -1.9970    -1.7600 H     1 <1>   0.0800 
 29 H       -3.4830     2.8060    -1.0610 H     1 <1>   0.0800 
 30 H       -3.8380     2.0390     0.4590 H     1 <1>   0.0800 
 31 H        0.2310     2.1860    -0.8450 H     1 <1>   0.0800 
 32 H       -0.9870     2.8970    -1.8610 H     1 <1>   0.0800 
 33 H       -3.5850    -3.3980    -1.0250 H     1 <1>   0.0800 
 34 H       -0.1730    -2.5120     0.2870 H     1 <1>   0.0800 
 35 H       -1.0210    -3.8690    -0.4530 H     1 <1>   0.0800 
 36 H       -2.6500     3.7940     1.6770 H     1 <1>   0.0800 
 37 H       -3.8650     4.5010     0.6530 H     1 <1>   0.0800 
 38 H        0.2020     4.6420    -0.6730 H     1 <1>   0.0800 
 39 H       -0.1290     3.8970     0.8640 H     1 <1>   0.0800 
 40 H       -3.6050    -4.1390     1.1300 H     1 <1>   0.0800 
 41 H       -3.6260    -2.5120     1.8020 H     1 <1>   0.0800 
 42 H       -4.6200    -1.1800    -1.4720 H     1 <1>   0.0800 
 43 H       -4.4970    -0.7860     0.2120 H     1 <1>   0.0800 
 44 H       -2.1860     5.0690    -1.0230 H     1 <1>   0.0800 
 45 H       -2.6690     6.6140     0.8560 H     1 <1>   0.0800 
 46 H       -1.3200     5.9680     1.7370 H     1 <1>   0.0800 
 47 H       -6.1200    -1.7160     1.8260 H     1 <1>   0.1500 
 48 H       -6.1210    -3.1440    -2.1790 H     1 <1>   0.1500 
 49 H        0.2300     6.8020     0.0140 H     1 <1>   0.0800 
 50 H       -1.1140     7.3330    -0.9620 H     1 <1>   0.0800 
 51 H       -8.2090    -2.9120     2.1630 H     1 <1>   0.1500 
 52 H       -8.2120    -4.2820    -1.6820 H     1 <1>   0.1500 
 53 H       -1.7720     8.9230     0.8210 H     1 <1>   0.0800 
 54 H       -0.4390     8.3780     1.8020 H     1 <1>   0.0800 
 55 H       -0.1800     9.7100    -0.9130 H     1 <1>   0.0800 
 56 H        1.1590     9.1650     0.0730 H     1 <1>   0.0800 
 57 H        0.1360    10.4670     0.6290 H     1 <1>   0.0800 
@<TRIPOS>BOND
  1   1   2  2   
  2   2   3  am  
  3   2   4  1   
  4   3   5  1   
  5   3  26  1   
  6   4   6  1   
  7   4   7  1   
  8   4  27  1   
  9   5   8  1   
 10   5   9  1   
 11   5  28  1   
 12   6  10  1   
 13   6  29  1   
 14   6  30  1   
 15   7  11  1   
 16   7  31  1   
 17   7  32  1   
 18   8  12  1   
 19   8  13  1   
 20   8  33  1   
 21   9  14  1   
 22   9  34  1   
 23   9  35  1   
 24  10  15  1   
 25  10  36  1   
 26  10  37  1   
 27  11  15  1   
 28  11  38  1   
 29  11  39  1   
 30  12  14  1   
 31  12  40  1   
 32  12  41  1   
 33  13  16  1   
 34  13  42  1   
 35  13  43  1   
 36  15  17  1   
 37  15  44  1   
 38  16  18  ar  
 39  16  19  ar  
 40  17  20  1   
 41  17  45  1   
 42  17  46  1   
 43  18  21  ar  
 44  18  47  1   
 45  19  22  ar  
 46  19  48  1   
 47  20  23  1   
 48  20  49  1   
 49  20  50  1   
 50  21  24  ar  
 51  21  51  1   
 52  22  24  ar  
 53  22  52  1   
 54  23  25  1   
 55  23  53  1   
 56  23  54  1   
 57  25  55  1   
 58  25  56  1   
 59  25  57  1   
@<TRIPOS>SUBSTRUCTURE
  1 ****   2 GROUP 4 **** **** 0

# MOE 2024.06 (io_trps.svl 2023.06)
