@<TRIPOS>MOLECULE
NONAME
43 45 1 0 0 
SMALL
USER_CHARGES


@<TRIPOS>ATOM
  1 F       -1.8040    -1.3170    -2.4570 F     1 <1>  -0.1900 
  2 C       -2.6080    -1.6830    -1.4950 C.ar  1 <1>   0.1900 
  3 C       -2.2390    -2.7380    -0.6840 C.ar  1 <1>  -0.1500 
  4 C       -3.7970    -1.0020    -1.3240 C.ar  1 <1>  -0.1500 
  5 C       -3.0970    -3.1240     0.3320 C.ar  1 <1>  -0.1500 
  6 C       -4.6480    -1.3970    -0.3050 C.ar  1 <1>  -0.1500 
  7 C       -4.3040    -2.4610     0.5220 C.ar  1 <1>  -0.1430 
  8 C       -5.2490    -2.9050     1.6370 C.3   1 <1>   0.0440 
  9 C       -5.5130    -4.4050     1.6480 C.2   1 <1>   0.5690 
 10 O       -5.2340    -5.0200     2.6510 O.2   1 <1>  -0.5700 
 11 N       -6.0620    -5.0340     0.5630 N.am  1 <1>  -0.6600 
 12 C       -6.4260    -4.4170    -0.7390 C.3   1 <1>   0.1400 
 13 C       -6.2690    -6.5030     0.5060 C.3   1 <1>   0.1400 
 14 C       -7.3350    -5.4490    -1.4010 C.3   1 <1>   0.2000 
 15 C       -6.7610    -6.7840    -0.9190 C.3   1 <1>  -0.0800 
 16 O       -8.6140    -5.2800    -0.8890 O.3   1 <1>  -0.6800 
 17 C       -7.7080    -7.9940    -1.0230 C.3   1 <1>   0.0210 
 18 C       -7.0350    -9.2510    -0.5070 C.2   1 <1>   0.1080 
 19 N       -5.9600    -9.7430    -1.0390 N.2   1 <1>  -0.7070 
 20 C       -7.4740    -9.9990     0.5800 C.2   1 <1>  -0.1500 
 21 N       -5.6820   -10.8320    -0.2980 N.pl3 1 <1>   0.3000 
 22 C       -6.5850   -11.0080     0.6900 C.2   1 <1>  -0.3320 
 23 C       -6.5400   -12.1450     1.6940 C.3   1 <1>  -0.0600 
 24 H       -1.3030    -3.2430    -0.8450 H     1 <1>   0.1500 
 25 H       -4.0460    -0.1820    -1.9740 H     1 <1>   0.1500 
 26 H       -2.8230    -3.9460     0.9730 H     1 <1>   0.1500 
 27 H       -5.5760    -0.8710    -0.1620 H     1 <1>   0.1500 
 28 H       -6.1920    -2.4010     1.5550 H     1 <1>   0.0800 
 29 H       -4.8170    -2.6270     2.5810 H     1 <1>   0.0800 
 30 H       -6.9210    -3.4690    -0.6170 H     1 <1>   0.0800 
 31 H       -5.5330    -4.2870    -1.3250 H     1 <1>   0.0800 
 32 H       -5.3510    -7.0290     0.7120 H     1 <1>   0.0800 
 33 H       -7.0080    -6.7840     1.2360 H     1 <1>   0.0800 
 34 H       -7.3750    -5.3580    -2.4730 H     1 <1>   0.0800 
 35 H       -5.8910    -6.9980    -1.5150 H     1 <1>   0.0800 
 36 H       -8.5520    -5.2470     0.0870 H     1 <1>   0.4000 
 37 H       -7.9830    -8.1480    -2.0500 H     1 <1>   0.0800 
 38 H       -8.6070    -7.8220    -0.4600 H     1 <1>   0.0800 
 39 H       -8.3400    -9.7940     1.1850 H     1 <1>   0.1500 
 40 H       -4.8720   -11.4320    -0.4920 H     1 <1>   0.2700 
 41 H       -7.3660   -12.0660     2.3790 H     1 <1>   0.0800 
 42 H       -5.6240   -12.1090     2.2570 H     1 <1>   0.0800 
 43 H       -6.6050   -13.0910     1.1870 H     1 <1>   0.0800 
@<TRIPOS>BOND
  1   1   2  1   
  2   2   3  ar  
  3   2   4  ar  
  4   3   5  ar  
  5   3  24  1   
  6   4   6  ar  
  7   4  25  1   
  8   5   7  ar  
  9   5  26  1   
 10   6   7  ar  
 11   6  27  1   
 12   7   8  1   
 13   8   9  1   
 14   8  28  1   
 15   8  29  1   
 16   9  10  2   
 17   9  11  am  
 18  11  12  1   
 19  11  13  1   
 20  12  14  1   
 21  12  30  1   
 22  12  31  1   
 23  13  15  1   
 24  13  32  1   
 25  13  33  1   
 26  14  15  1   
 27  14  16  1   
 28  14  34  1   
 29  15  17  1   
 30  15  35  1   
 31  16  36  1   
 32  17  18  1   
 33  17  37  1   
 34  17  38  1   
 35  18  19  2   
 36  18  20  1   
 37  19  21  1   
 38  20  22  2   
 39  20  39  1   
 40  21  22  1   
 41  21  40  1   
 42  22  23  1   
 43  23  41  1   
 44  23  42  1   
 45  23  43  1   
@<TRIPOS>SUBSTRUCTURE
  1 ****  11 GROUP 4 **** **** 0

# MOE 2024.06 (io_trps.svl 2023.06)
