@<TRIPOS>MOLECULE
NONAME
46 48 1 0 0 
SMALL
USER_CHARGES


@<TRIPOS>ATOM
  1 S       -0.8790    -0.1650     1.5090 S.3   1 <1>  -0.0800 
  2 C       -1.7760     0.2380     0.0610 C.2   1 <1>   0.1980 
  3 C        0.5230     0.6060     0.8250 C.2   1 <1>  -0.1400 
  4 N       -1.1020     0.8690    -0.8130 N.2   1 <1>  -0.5650 
  5 C       -3.2290    -0.1860    -0.0110 C.3   1 <1>   0.0200 
  6 C        0.1990     1.0810    -0.3910 C.2   1 <1>   0.0460 
  7 C        1.7810     0.6030     1.6720 C.3   1 <1>  -0.0600 
  8 C       -3.3690    -1.7010    -0.2100 C.3   1 <1>  -0.1600 
  9 C        1.0940     1.8260    -1.3580 C.3   1 <1>  -0.0590 
 10 C       -4.8350    -2.1030    -0.3560 C.3   1 <1>   0.1400 
 11 N       -4.9230    -3.5700    -0.4820 N.am  1 <1>  -0.7300 
 12 C       -5.6550    -4.4190     0.3010 C.2   1 <1>   0.7160 
 13 O       -6.3180    -3.9530     1.2130 O.2   1 <1>  -0.5700 
 14 C       -5.6210    -5.8490     0.0280 C.2   1 <1>   0.2030 
 15 N       -4.9150    -6.4310    -0.9320 N.2   1 <1>  -0.7070 
 16 C       -6.3330    -6.8090     0.7430 C.2   1 <1>  -0.1500 
 17 N       -5.1800    -7.7360    -0.8250 N.pl3 1 <1>   0.3140 
 18 C       -6.0260    -8.0120     0.1970 C.2   1 <1>  -0.2370 
 19 C       -4.6810    -8.7040    -1.8250 C.3   1 <1>   0.0960 
 20 C       -6.4330    -9.3370     0.5620 C.2   1 <1>   0.7150 
 21 C       -3.7730    -9.7900    -1.2190 C.3   1 <1>   0.2000 
 22 O       -7.5090    -9.5690     1.0660 O.2   1 <1>  -0.5700 
 23 N       -5.5900   -10.3860     0.3870 N.am  1 <1>  -0.7300 
 24 O       -3.8770   -10.9150    -2.0240 O.3   1 <1>  -0.6800 
 25 C       -4.1230   -10.2130     0.2210 C.3   1 <1>   0.1400 
 26 H       -3.6890     0.3310    -0.8350 H     1 <1>   0.0800 
 27 H       -3.7260     0.1180     0.8940 H     1 <1>   0.0800 
 28 H        1.5940     1.1070     2.6020 H     1 <1>   0.0800 
 29 H        2.5850     1.1020     1.1640 H     1 <1>   0.0800 
 30 H        2.0790    -0.4090     1.8780 H     1 <1>   0.0800 
 31 H       -2.9440    -2.2110     0.6380 H     1 <1>   0.0800 
 32 H       -2.8260    -1.9890    -1.0930 H     1 <1>   0.0800 
 33 H        2.0810     1.9500    -0.9560 H     1 <1>   0.0800 
 34 H        0.6740     2.7940    -1.5590 H     1 <1>   0.0800 
 35 H        1.1590     1.2780    -2.2800 H     1 <1>   0.0800 
 36 H       -5.2630    -1.6470    -1.2330 H     1 <1>   0.0800 
 37 H       -5.3940    -1.7760     0.5050 H     1 <1>   0.0800 
 38 H       -4.3890    -4.0180    -1.2320 H     1 <1>   0.3700 
 39 H       -6.9890    -6.6080     1.5730 H     1 <1>   0.1500 
 40 H       -4.1400    -8.1670    -2.5820 H     1 <1>   0.0800 
 41 H       -5.5410    -9.1580    -2.2800 H     1 <1>   0.0800 
 42 H       -2.7470    -9.4670    -1.2590 H     1 <1>   0.0800 
 43 H       -5.9150   -11.2600     0.8070 H     1 <1>   0.3700 
 44 H       -4.7470   -11.3430    -1.8860 H     1 <1>   0.4000 
 45 H       -3.7820    -9.4530     0.9040 H     1 <1>   0.0800 
 46 H       -3.6100   -11.1270     0.4700 H     1 <1>   0.0800 
@<TRIPOS>BOND
  1   1   2  1   
  2   1   3  1   
  3   2   4  2   
  4   2   5  1   
  5   3   6  2   
  6   3   7  1   
  7   4   6  1   
  8   5   8  1   
  9   5  26  1   
 10   5  27  1   
 11   6   9  1   
 12   7  28  1   
 13   7  29  1   
 14   7  30  1   
 15   8  10  1   
 16   8  31  1   
 17   8  32  1   
 18   9  33  1   
 19   9  34  1   
 20   9  35  1   
 21  10  11  1   
 22  10  36  1   
 23  10  37  1   
 24  11  12  am  
 25  11  38  1   
 26  12  13  2   
 27  12  14  1   
 28  14  15  2   
 29  14  16  1   
 30  15  17  1   
 31  16  18  2   
 32  16  39  1   
 33  17  18  1   
 34  17  19  1   
 35  18  20  1   
 36  19  21  1   
 37  19  40  1   
 38  19  41  1   
 39  20  22  2   
 40  20  23  am  
 41  21  24  1   
 42  21  25  1   
 43  21  42  1   
 44  23  25  1   
 45  23  43  1   
 46  24  44  1   
 47  25  45  1   
 48  25  46  1   
@<TRIPOS>SUBSTRUCTURE
  1 ****  11 GROUP 4 **** **** 0

# MOE 2024.06 (io_trps.svl 2023.06)
