@<TRIPOS>MOLECULE
NONAME
54 57 1 0 0 
SMALL
USER_CHARGES


@<TRIPOS>ATOM
  1 O        0.3470     0.6490    -0.0230 O.3   1 <1>  -0.0190 
  2 N        0.4590    -0.4120    -0.7320 N.2   1 <1>  -0.4100 
  3 C        1.4160     1.3890    -0.1440 C.2   1 <1>   0.4250 
  4 C        1.6090    -0.2860    -1.2720 C.2   1 <1>   0.3350 
  5 N        2.2620     0.8300    -0.9390 N.2   1 <1>  -0.5650 
  6 C        1.5410     2.6450     0.5580 C.ar  1 <1>   0.0530 
  7 C        2.2270    -1.2870    -2.2170 C.3   1 <1>  -0.0590 
  8 C        2.6470     3.4630     0.4190 C.ar  1 <1>  -0.1500 
  9 C        0.5660     3.1320     1.4230 C.ar  1 <1>  -0.1500 
 10 C        2.7480     4.6650     1.1050 C.ar  1 <1>   0.4100 
 11 C        0.7480     4.3410     2.0640 C.ar  1 <1>   0.1600 
 12 N        1.8090     5.1150     1.9280 N.ar  1 <1>  -0.6200 
 13 N        3.8780     5.4410     0.9450 N.pl3 1 <1>  -0.8380 
 14 C        5.1150     4.9590     1.5980 C.3   1 <1>   0.2090 
 15 C        3.7260     6.9160     0.9900 C.3   1 <1>   0.2090 
 16 C        6.3290     5.5830     0.9070 C.3   1 <1>  -0.1600 
 17 C        4.9180     7.5720     0.2890 C.3   1 <1>  -0.1600 
 18 C        6.2680     7.1270     0.8920 C.3   1 <1>  -0.0800 
 19 C        7.4740     7.7280     0.1300 C.3   1 <1>   0.2000 
 20 O        8.6400     7.2910     0.7310 O.3   1 <1>  -0.6800 
 21 C        7.5040     9.2660     0.1070 C.3   1 <1>  -0.1600 
 22 C        8.7530     9.8440    -0.5770 C.3   1 <1>  -0.0170 
 23 C        8.6530    11.3590    -0.6490 C.ar  1 <1>  -0.1430 
 24 C        8.1060    11.9730    -1.7650 C.ar  1 <1>  -0.1500 
 25 C        9.1010    12.1390     0.4050 C.ar  1 <1>  -0.1500 
 26 C        8.0090    13.3530    -1.8270 C.ar  1 <1>  -0.1500 
 27 C        9.0050    13.5190     0.3450 C.ar  1 <1>  -0.1500 
 28 C        8.4580    14.1260    -0.7710 C.ar  1 <1>  -0.1500 
 29 H        1.5590    -2.1150    -2.3670 H     1 <1>   0.0800 
 30 H        3.1500    -1.6490    -1.8050 H     1 <1>   0.0800 
 31 H        2.4230    -0.8160    -3.1620 H     1 <1>   0.0800 
 32 H        3.4510     3.1790    -0.2330 H     1 <1>   0.1500 
 33 H       -0.3330     2.5700     1.5970 H     1 <1>   0.1500 
 34 H       -0.0230     4.6940     2.7280 H     1 <1>   0.1500 
 35 H        5.1710     3.8860     1.5350 H     1 <1>   0.0800 
 36 H        5.0970     5.2370     2.6390 H     1 <1>   0.0800 
 37 H        3.6710     7.2370     2.0160 H     1 <1>   0.0800 
 38 H        2.8110     7.1980     0.4970 H     1 <1>   0.0800 
 39 H        6.3750     5.2100    -0.1020 H     1 <1>   0.0800 
 40 H        7.2160     5.2500     1.4160 H     1 <1>   0.0800 
 41 H        4.7990     8.6360     0.3750 H     1 <1>   0.0800 
 42 H        4.8800     7.3160    -0.7560 H     1 <1>   0.0800 
 43 H        6.3000     7.4790     1.9090 H     1 <1>   0.0800 
 44 H        7.4810     7.3540    -0.8810 H     1 <1>   0.0800 
 45 H        8.6790     7.6140     1.6500 H     1 <1>   0.4000 
 46 H        7.4310     9.6470     1.1100 H     1 <1>   0.0800 
 47 H        6.6480     9.6230    -0.4360 H     1 <1>   0.0800 
 48 H        8.8450     9.4380    -1.5690 H     1 <1>   0.0800 
 49 H        9.6400     9.5710    -0.0320 H     1 <1>   0.0800 
 50 H        7.7540    11.3810    -2.5910 H     1 <1>   0.1500 
 51 H        9.5280    11.6750     1.2770 H     1 <1>   0.1500 
 52 H        7.5850    13.8240    -2.6960 H     1 <1>   0.1500 
 53 H        9.3550    14.1190     1.1670 H     1 <1>   0.1500 
 54 H        8.3820    15.1990    -0.8180 H     1 <1>   0.1500 
@<TRIPOS>BOND
  1   1   2  1   
  2   1   3  1   
  3   2   4  2   
  4   3   5  2   
  5   3   6  1   
  6   4   5  1   
  7   4   7  1   
  8   6   8  ar  
  9   6   9  ar  
 10   7  29  1   
 11   7  30  1   
 12   7  31  1   
 13   8  10  ar  
 14   8  32  1   
 15   9  11  ar  
 16   9  33  1   
 17  10  12  ar  
 18  10  13  1   
 19  11  12  ar  
 20  11  34  1   
 21  13  14  1   
 22  13  15  1   
 23  14  16  1   
 24  14  35  1   
 25  14  36  1   
 26  15  17  1   
 27  15  37  1   
 28  15  38  1   
 29  16  18  1   
 30  16  39  1   
 31  16  40  1   
 32  17  18  1   
 33  17  41  1   
 34  17  42  1   
 35  18  19  1   
 36  18  43  1   
 37  19  20  1   
 38  19  21  1   
 39  19  44  1   
 40  20  45  1   
 41  21  22  1   
 42  21  46  1   
 43  21  47  1   
 44  22  23  1   
 45  22  48  1   
 46  22  49  1   
 47  23  24  ar  
 48  23  25  ar  
 49  24  26  ar  
 50  24  50  1   
 51  25  27  ar  
 52  25  51  1   
 53  26  28  ar  
 54  26  52  1   
 55  27  28  ar  
 56  27  53  1   
 57  28  54  1   
@<TRIPOS>SUBSTRUCTURE
  1 ****  13 GROUP 4 **** **** 0

# MOE 2024.06 (io_trps.svl 2023.06)
