@<TRIPOS>MOLECULE
NONAME
51 52 1 0 0 
SMALL
USER_CHARGES


@<TRIPOS>ATOM
  1 S       -0.3420     1.9740    -1.2520 S.o2  1 <1>   1.3330 
  2 O       -1.1270     3.1820    -1.3420 O.2   1 <1>  -0.6500 
  3 O       -0.2730     1.0540    -2.3580 O.2   1 <1>  -0.6500 
  4 N        1.2470     2.4740    -0.9020 N.am  1 <1>  -0.8490 
  5 C       -0.8840     1.0870     0.2230 C.3   1 <1>  -0.0550 
  6 C        2.2200     1.3720    -1.0070 C.3   1 <1>   0.1160 
  7 C        1.6710     3.5260    -1.8460 C.3   1 <1>   0.1160 
  8 C       -0.9690     1.8480     1.5760 C.3   1 <1>  -0.0800 
  9 C       -1.8450     3.1060     1.5390 C.3   1 <1>   0.2000 
 10 C        0.3740     2.3640     2.0920 C.3   1 <1>   0.3430 
 11 O       -2.4910     3.2230     2.7650 O.3   1 <1>  -0.6800 
 12 C       -0.8800     4.2890     1.3580 C.3   1 <1>   0.3430 
 13 N        0.5020     3.7390     1.5600 N.4   1 <1>  -0.9590 
 14 C        1.4160     4.6240     2.3220 C.3   1 <1>   0.4860 
 15 C        1.8150     5.7830     1.4360 C.ar  1 <1>  -0.1440 
 16 C        2.9510     5.7060     0.6540 C.ar  1 <1>   0.1900 
 17 C        1.0710     6.9500     1.3750 C.ar  1 <1>  -0.1500 
 18 F        3.6690     4.6130     0.6960 F     1 <1>  -0.1900 
 19 C        3.3600     6.7280    -0.1790 C.ar  1 <1>  -0.1500 
 20 C        1.4440     8.0010     0.5500 C.ar  1 <1>   0.0820 
 21 C        2.6020     7.8940    -0.2470 C.ar  1 <1>   0.0820 
 22 O        0.5940     9.0660     0.6120 O.3   1 <1>  -0.3630 
 23 O        2.9640     8.9130    -1.0780 O.3   1 <1>  -0.3620 
 24 C        0.9460    10.3590     0.1680 C.3   1 <1>   0.0400 
 25 C        4.1590     8.8990    -1.8290 C.3   1 <1>   0.0400 
 26 H       -1.8650     0.7020     0.0160 H     1 <1>   0.0800 
 27 H       -0.2530     0.2290     0.3550 H     1 <1>   0.0800 
 28 H        3.2050     1.7170    -0.7380 H     1 <1>   0.0800 
 29 H        2.2550     0.9900    -2.0160 H     1 <1>   0.0800 
 30 H        1.9530     0.5640    -0.3480 H     1 <1>   0.0800 
 31 H        2.6910     3.8160    -1.6600 H     1 <1>   0.0800 
 32 H        1.0480     4.4000    -1.7440 H     1 <1>   0.0800 
 33 H        1.5930     3.1720    -2.8620 H     1 <1>   0.0800 
 34 H       -1.3680     1.1450     2.2880 H     1 <1>   0.0800 
 35 H       -2.6050     3.0820     0.7750 H     1 <1>   0.0800 
 36 H        1.1940     1.7400     1.7710 H     1 <1>   0.0800 
 37 H        0.3520     2.3930     3.1700 H     1 <1>   0.0800 
 38 H       -1.8860     3.2200     3.5300 H     1 <1>   0.4000 
 39 H       -1.1100     5.0620     2.0720 H     1 <1>   0.0800 
 40 H       -0.9690     4.6960     0.3630 H     1 <1>   0.0800 
 41 H        0.9190     3.6300     0.6090 H     1 <1>   0.4500 
 42 H        0.9330     4.9870     3.2150 H     1 <1>   0.0800 
 43 H        2.3020     4.0800     2.6090 H     1 <1>   0.0800 
 44 H        0.1840     7.0750     1.9720 H     1 <1>   0.1500 
 45 H        4.2550     6.5890    -0.7540 H     1 <1>   0.1500 
 46 H        0.2010    11.0490     0.5200 H     1 <1>   0.0800 
 47 H        0.9660    10.3650    -0.9070 H     1 <1>   0.0800 
 48 H        1.9090    10.6190     0.5720 H     1 <1>   0.0800 
 49 H        4.2250     9.8280    -2.3670 H     1 <1>   0.0800 
 50 H        4.1280     8.0800    -2.5250 H     1 <1>   0.0800 
 51 H        4.9950     8.8090    -1.1580 H     1 <1>   0.0800 
@<TRIPOS>BOND
  1   1   2  2   
  2   1   3  2   
  3   1   4  am  
  4   1   5  1   
  5   4   6  1   
  6   4   7  1   
  7   5   8  1   
  8   5  26  1   
  9   5  27  1   
 10   6  28  1   
 11   6  29  1   
 12   6  30  1   
 13   7  31  1   
 14   7  32  1   
 15   7  33  1   
 16   8   9  1   
 17   8  10  1   
 18   8  34  1   
 19   9  11  1   
 20   9  12  1   
 21   9  35  1   
 22  10  13  1   
 23  10  36  1   
 24  10  37  1   
 25  11  38  1   
 26  12  13  1   
 27  12  39  1   
 28  12  40  1   
 29  13  14  1   
 30  13  41  1   
 31  14  15  1   
 32  14  42  1   
 33  14  43  1   
 34  15  16  ar  
 35  15  17  ar  
 36  16  18  1   
 37  16  19  ar  
 38  17  20  ar  
 39  17  44  1   
 40  19  21  ar  
 41  19  45  1   
 42  20  21  ar  
 43  20  22  1   
 44  21  23  1   
 45  22  24  1   
 46  23  25  1   
 47  24  46  1   
 48  24  47  1   
 49  24  48  1   
 50  25  49  1   
 51  25  50  1   
 52  25  51  1   
@<TRIPOS>SUBSTRUCTURE
  1 ****  15 GROUP 4 **** **** 0

# MOE 2024.06 (io_trps.svl 2023.06)
