@<TRIPOS>MOLECULE
NONAME
52 55 1 0 0 
SMALL
USER_CHARGES


@<TRIPOS>ATOM
  1 F       -2.1070    -0.7560     1.4980 F     1 <1>  -0.1900 
  2 C       -2.5540     0.2890     0.8510 C.ar  1 <1>   0.1900 
  3 C       -3.1310     0.1060    -0.3950 C.ar  1 <1>  -0.1440 
  4 C       -2.4460     1.5310     1.4470 C.ar  1 <1>  -0.1500 
  5 C       -3.6150     1.2240    -1.0580 C.ar  1 <1>  -0.1500 
  6 C       -3.2310    -1.2750    -1.0070 C.3   1 <1>   0.4870 
  7 C       -2.9360     2.6370     0.7740 C.ar  1 <1>  -0.1500 
  8 C       -3.5230     2.4830    -0.4820 C.ar  1 <1>   0.0820 
  9 N       -4.1710    -2.0930    -0.1980 N.4   1 <1>  -0.9590 
 10 O       -4.0300     3.5090    -1.2070 O.3   1 <1>  -0.3630 
 11 C       -5.5660    -1.5140    -0.1900 C.3   1 <1>   0.3430 
 12 C       -4.1780    -3.5300    -0.6360 C.3   1 <1>   0.3430 
 13 C       -3.9090     4.8480    -0.7730 C.3   1 <1>   0.0400 
 14 C       -6.5520    -2.3880     0.6150 C.3   1 <1>   0.1900 
 15 C       -5.1870    -4.3690     0.1730 C.3   1 <1>   0.1100 
 16 N       -6.5410    -3.7810     0.1060 N.3   1 <1>  -0.8100 
 17 C       -7.9750    -1.8000     0.5430 C.3   1 <1>   0.1200 
 18 C       -7.5500    -4.6030     0.8270 C.3   1 <1>   0.3330 
 19 O       -8.8520    -2.5980     1.2790 O.3   1 <1>  -0.5600 
 20 C       -7.6460    -5.9920     0.2010 C.ar  1 <1>  -0.1430 
 21 C       -8.9340    -3.9200     0.8120 C.3   1 <1>   0.1200 
 22 C       -7.5190    -7.1230     0.9950 C.ar  1 <1>  -0.1500 
 23 C       -7.8530    -6.1450    -1.1640 C.ar  1 <1>  -0.1500 
 24 C       -7.5950    -8.3860     0.4330 C.ar  1 <1>  -0.1500 
 25 C       -7.9300    -7.4070    -1.7260 C.ar  1 <1>  -0.1500 
 26 C       -7.8000    -8.5290    -0.9270 C.ar  1 <1>  -0.1500 
 27 H       -1.9880     1.6310     2.4160 H     1 <1>   0.1500 
 28 H       -4.0670     1.1480    -2.0330 H     1 <1>   0.1500 
 29 H       -2.2530    -1.7310    -1.0100 H     1 <1>   0.0800 
 30 H       -3.5790    -1.2040    -2.0250 H     1 <1>   0.0800 
 31 H       -2.8550     3.6030     1.2370 H     1 <1>   0.1500 
 32 H       -3.8200    -2.0590     0.7690 H     1 <1>   0.4500 
 33 H       -5.5490    -0.5230     0.2340 H     1 <1>   0.0800 
 34 H       -5.9320    -1.4370    -1.2000 H     1 <1>   0.0800 
 35 H       -4.4520    -3.5930    -1.6770 H     1 <1>   0.0800 
 36 H       -3.1950    -3.9560    -0.5240 H     1 <1>   0.0800 
 37 H       -4.3460     5.4830    -1.5230 H     1 <1>   0.0800 
 38 H       -2.8670     5.0870    -0.6580 H     1 <1>   0.0800 
 39 H       -4.4380     4.9650     0.1560 H     1 <1>   0.0800 
 40 H       -6.2500    -2.3780     1.6490 H     1 <1>   0.0800 
 41 H       -4.8640    -4.4440     1.1980 H     1 <1>   0.0800 
 42 H       -5.2020    -5.3640    -0.2410 H     1 <1>   0.0800 
 43 H       -8.3260    -1.7510    -0.4730 H     1 <1>   0.0800 
 44 H       -8.0030    -0.8140     0.9720 H     1 <1>   0.0800 
 45 H       -7.2500    -4.7050     1.8560 H     1 <1>   0.0800 
 46 H       -9.6150    -4.4540     1.4500 H     1 <1>   0.0800 
 47 H       -9.3400    -3.9080    -0.1850 H     1 <1>   0.0800 
 48 H       -7.3620    -7.0330     2.0560 H     1 <1>   0.1500 
 49 H       -7.9530    -5.2780    -1.7930 H     1 <1>   0.1500 
 50 H       -7.4960    -9.2590     1.0550 H     1 <1>   0.1500 
 51 H       -8.0930    -7.5180    -2.7840 H     1 <1>   0.1500 
 52 H       -7.8600    -9.5110    -1.3630 H     1 <1>   0.1500 
@<TRIPOS>BOND
  1   1   2  1   
  2   2   3  ar  
  3   2   4  ar  
  4   3   5  ar  
  5   3   6  1   
  6   4   7  ar  
  7   4  27  1   
  8   5   8  ar  
  9   5  28  1   
 10   6   9  1   
 11   6  29  1   
 12   6  30  1   
 13   7   8  ar  
 14   7  31  1   
 15   8  10  1   
 16   9  11  1   
 17   9  12  1   
 18   9  32  1   
 19  10  13  1   
 20  11  14  1   
 21  11  33  1   
 22  11  34  1   
 23  12  15  1   
 24  12  35  1   
 25  12  36  1   
 26  13  37  1   
 27  13  38  1   
 28  13  39  1   
 29  14  16  1   
 30  14  17  1   
 31  14  40  1   
 32  15  16  1   
 33  15  41  1   
 34  15  42  1   
 35  16  18  1   
 36  17  19  1   
 37  17  43  1   
 38  17  44  1   
 39  18  20  1   
 40  18  21  1   
 41  18  45  1   
 42  19  21  1   
 43  20  22  ar  
 44  20  23  ar  
 45  21  46  1   
 46  21  47  1   
 47  22  24  ar  
 48  22  48  1   
 49  23  25  ar  
 50  23  49  1   
 51  24  26  ar  
 52  24  50  1   
 53  25  26  ar  
 54  25  51  1   
 55  26  52  1   
@<TRIPOS>SUBSTRUCTURE
  1 ****  11 GROUP 4 **** **** 0

# MOE 2024.06 (io_trps.svl 2023.06)
