@<TRIPOS>MOLECULE
NONAME
50 53 1 0 0 
SMALL
USER_CHARGES


@<TRIPOS>ATOM
  1 O       -2.4800     0.7670    -1.0330 O.2   1 <1>  -0.5700 
  2 C       -2.2600     0.8890     0.1560 C.2   1 <1>   0.7160 
  3 N       -2.1470    -0.2340     0.9140 N.am  1 <1>  -0.7300 
  4 C       -2.1260     2.1820     0.7740 C.2   1 <1>  -0.0860 
  5 C       -2.3690    -1.6130     0.4320 C.3   1 <1>   0.2200 
  6 C       -1.4950     3.3040     0.2550 C.2   1 <1>   0.1080 
  7 C       -2.5440     2.6490     1.9720 C.2   1 <1>  -0.0400 
  8 C       -3.8380    -1.9650     0.6080 C.3   1 <1>  -0.0800 
  9 C       -1.7000    -2.6000     1.3790 C.3   1 <1>   0.1200 
 10 N       -1.5500     4.2740     1.0880 N.2   1 <1>  -0.4100 
 11 C       -0.8120     3.4120    -1.0990 C.3   1 <1>   0.0210 
 12 O       -2.1940     3.8970     2.1670 O.3   1 <1>  -0.0190 
 13 C       -3.3450     1.9730     3.0700 C.3   1 <1>  -0.0600 
 14 C       -3.8940    -2.5150     2.0410 C.3   1 <1>   0.1200 
 15 C       -4.2990    -2.9980    -0.4380 C.3   1 <1>  -0.0160 
 16 O       -2.5740    -2.7200     2.4570 O.3   1 <1>  -0.5600 
 17 C        0.5250     2.6620    -1.1180 C.3   1 <1>  -0.2400 
 18 C       -5.7970    -3.2660    -0.3320 C.ar  1 <1>  -0.1440 
 19 C       -6.7640    -2.3440    -0.7990 C.ar  1 <1>   0.0000 
 20 C       -6.2490    -4.4250     0.2290 C.ar  1 <1>  -0.1500 
 21 C       -8.1290    -2.6810    -0.6270 C.ar  1 <1>   0.3100 
 22 C       -6.4610    -1.1130    -1.4270 C.ar  1 <1>  -0.1500 
 23 C       -7.6230    -4.6640     0.3430 C.ar  1 <1>   0.1600 
 24 N       -8.5400    -3.8410    -0.0550 N.ar  1 <1>  -0.6200 
 25 C       -9.1130    -1.7810    -1.0670 C.ar  1 <1>  -0.1500 
 26 C       -7.4440    -0.2580    -1.8460 C.ar  1 <1>  -0.1500 
 27 C       -8.7880    -0.5930    -1.6630 C.ar  1 <1>  -0.1500 
 28 H       -1.9880    -0.1500     1.9190 H     1 <1>   0.3700 
 29 H       -2.0200    -1.7150    -0.5820 H     1 <1>   0.0800 
 30 H       -4.4540    -1.0880     0.5250 H     1 <1>   0.0800 
 31 H       -0.7390    -2.2630     1.7250 H     1 <1>   0.0800 
 32 H       -1.6060    -3.5690     0.9210 H     1 <1>   0.0800 
 33 H       -1.4620     3.0240    -1.8630 H     1 <1>   0.0800 
 34 H       -0.6370     4.4510    -1.3180 H     1 <1>   0.0800 
 35 H       -3.6910     1.0040     2.7640 H     1 <1>   0.0800 
 36 H       -4.2010     2.5770     3.3120 H     1 <1>   0.0800 
 37 H       -2.7380     1.8690     3.9520 H     1 <1>   0.0800 
 38 H       -4.4220    -3.4500     2.1060 H     1 <1>   0.0800 
 39 H       -4.3430    -1.8040     2.7120 H     1 <1>   0.0800 
 40 H       -3.7550    -3.9170    -0.3050 H     1 <1>   0.0800 
 41 H       -4.0760    -2.6440    -1.4300 H     1 <1>   0.0800 
 42 H        0.3700     1.6120    -0.9480 H     1 <1>   0.0800 
 43 H        1.1730     3.0470    -0.3500 H     1 <1>   0.0800 
 44 H        1.0050     2.7890    -2.0720 H     1 <1>   0.0800 
 45 H       -5.5740    -5.1760     0.5980 H     1 <1>   0.1500 
 46 H       -5.4350    -0.8330    -1.5850 H     1 <1>   0.1500 
 47 H       -7.9370    -5.5910     0.7930 H     1 <1>   0.1500 
 48 H      -10.1390    -2.0610    -0.9190 H     1 <1>   0.1500 
 49 H       -7.1970     0.6760    -2.3200 H     1 <1>   0.1500 
 50 H       -9.5520     0.0880    -1.9960 H     1 <1>   0.1500 
@<TRIPOS>BOND
  1   1   2  2   
  2   2   3  am  
  3   2   4  1   
  4   3   5  1   
  5   3  28  1   
  6   4   6  1   
  7   4   7  2   
  8   5   8  1   
  9   5   9  1   
 10   5  29  1   
 11   6  10  2   
 12   6  11  1   
 13   7  12  1   
 14   7  13  1   
 15   8  14  1   
 16   8  15  1   
 17   8  30  1   
 18   9  16  1   
 19   9  31  1   
 20   9  32  1   
 21  10  12  1   
 22  11  17  1   
 23  11  33  1   
 24  11  34  1   
 25  13  35  1   
 26  13  36  1   
 27  13  37  1   
 28  14  16  1   
 29  14  38  1   
 30  14  39  1   
 31  15  18  1   
 32  15  40  1   
 33  15  41  1   
 34  17  42  1   
 35  17  43  1   
 36  17  44  1   
 37  18  19  ar  
 38  18  20  ar  
 39  19  21  ar  
 40  19  22  ar  
 41  20  23  ar  
 42  20  45  1   
 43  21  24  ar  
 44  21  25  ar  
 45  22  26  ar  
 46  22  46  1   
 47  23  24  ar  
 48  23  47  1   
 49  25  27  ar  
 50  25  48  1   
 51  26  27  ar  
 52  26  49  1   
 53  27  50  1   
@<TRIPOS>SUBSTRUCTURE
  1 ****   8 GROUP 4 **** **** 0

# MOE 2024.06 (io_trps.svl 2023.06)
