@<TRIPOS>MOLECULE
NONAME
66 68 1 0 0 
SMALL
USER_CHARGES


@<TRIPOS>ATOM
  1 O        0.2870     0.0400    -1.4230 O.3   1 <1>  -0.6800 
  2 C        0.8980    -1.1610    -1.8040 C.3   1 <1>   0.1200 
  3 C        2.4240    -0.9630    -1.9080 C.3   1 <1>   0.3430 
  4 N        2.8640     0.0050    -0.8600 N.4   1 <1>  -0.9590 
  5 C        3.5450     1.1900    -1.4280 C.3   1 <1>   0.4860 
  6 C        3.5920    -0.6220     0.2870 C.3   1 <1>   0.5240 
  7 C        3.7760     2.2180    -0.3250 C.ar  1 <1>  -0.1430 
  8 C        2.7780    -1.7370     0.9340 C.2   1 <1>   0.0460 
  9 C        5.0480     2.5990     0.1050 C.ar  1 <1>  -0.1430 
 10 C        2.6500     2.7780     0.2590 C.ar  1 <1>  -0.1500 
 11 N        2.6710    -2.9510     0.3550 N.2   1 <1>  -0.5650 
 12 C        2.0970    -1.7030     2.1020 C.2   1 <1>  -0.3020 
 13 C        5.1640     3.5430     1.1290 C.ar  1 <1>  -0.1430 
 14 C        6.2790     1.9760    -0.5580 C.3   1 <1>  -0.0970 
 15 C        2.7650     3.6940     1.2850 C.ar  1 <1>  -0.1430 
 16 C        1.9410    -3.6290     1.1790 C.2   1 <1>   0.0060 
 17 N        1.5560    -2.9230     2.2650 N.pl3 1 <1>   0.0330 
 18 C        4.0210     4.0670     1.7150 C.ar  1 <1>  -0.1500 
 19 C        6.4980     4.0590     1.6560 C.3   1 <1>   0.4860 
 20 C        1.5210     4.2880     1.9250 C.3   1 <1>  -0.0970 
 21 C        1.5510    -5.0770     0.9680 C.3   1 <1>  -0.0600 
 22 N        7.0400     5.0720     0.7090 N.4   1 <1>  -0.9590 
 23 C        8.4490     5.4330     1.0380 C.3   1 <1>   0.3430 
 24 C        6.1640     6.2790     0.6230 C.3   1 <1>   0.3430 
 25 C        9.0110     6.3510    -0.0470 C.3   1 <1>  -0.1600 
 26 C        6.6840     7.2150    -0.4680 C.3   1 <1>  -0.1600 
 27 C        8.1490     7.6090    -0.2280 C.3   1 <1>  -0.0800 
 28 C        8.6750     8.4630    -1.3860 C.3   1 <1>  -0.2400 
 29 H       -0.6910    -0.0600    -1.4150 H     1 <1>   0.4000 
 30 H        0.4940    -1.4760    -2.7510 H     1 <1>   0.0800 
 31 H        0.6660    -1.9070    -1.0620 H     1 <1>   0.0800 
 32 H        2.6500    -0.5780    -2.8870 H     1 <1>   0.0800 
 33 H        2.9270    -1.9110    -1.8000 H     1 <1>   0.0800 
 34 H        1.9590     0.3390    -0.4850 H     1 <1>   0.4500 
 35 H        2.9230     1.6310    -2.1910 H     1 <1>   0.0800 
 36 H        4.4770     0.8980    -1.8800 H     1 <1>   0.0800 
 37 H        3.7980     0.1250     1.0350 H     1 <1>   0.0800 
 38 H        4.5290    -1.0320    -0.0500 H     1 <1>   0.0800 
 39 H        1.6630     2.5040    -0.0800 H     1 <1>   0.1500 
 40 H        1.9710    -0.9080     2.8160 H     1 <1>   0.1500 
 41 H        6.2220     0.9020    -0.5170 H     1 <1>   0.0800 
 42 H        7.2010     2.2550    -0.0870 H     1 <1>   0.0800 
 43 H        6.3330     2.2760    -1.5910 H     1 <1>   0.0800 
 44 H        0.9860    -3.2600     3.0480 H     1 <1>   0.2700 
 45 H        4.0960     4.7820     2.5180 H     1 <1>   0.1500 
 46 H        7.1850     3.2360     1.7580 H     1 <1>   0.0800 
 47 H        6.3590     4.5010     2.6290 H     1 <1>   0.0800 
 48 H        0.7080     3.5830     1.9000 H     1 <1>   0.0800 
 49 H        1.2230     5.1740     1.3950 H     1 <1>   0.0800 
 50 H        1.7070     4.5460     2.9520 H     1 <1>   0.0800 
 51 H        1.9700    -5.4390     0.0460 H     1 <1>   0.0800 
 52 H        0.4820    -5.1720     0.9210 H     1 <1>   0.0800 
 53 H        1.9260    -5.6810     1.7730 H     1 <1>   0.0800 
 54 H        7.0260     4.6430    -0.2230 H     1 <1>   0.4500 
 55 H        9.0570     4.5450     1.1030 H     1 <1>   0.0800 
 56 H        8.4840     5.9400     1.9890 H     1 <1>   0.0800 
 57 H        6.1580     6.7970     1.5690 H     1 <1>   0.0800 
 58 H        5.1520     5.9900     0.3870 H     1 <1>   0.0800 
 59 H        9.0780     5.8080    -0.9740 H     1 <1>   0.0800 
 60 H       10.0100     6.6420     0.2280 H     1 <1>   0.0800 
 61 H        6.0740     8.1010    -0.4830 H     1 <1>   0.0800 
 62 H        6.5780     6.7360    -1.4260 H     1 <1>   0.0800 
 63 H        8.2040     8.1980     0.6740 H     1 <1>   0.0800 
 64 H        8.6420     7.9190    -2.3150 H     1 <1>   0.0800 
 65 H        9.6920     8.7600    -1.2020 H     1 <1>   0.0800 
 66 H        8.0820     9.3550    -1.4940 H     1 <1>   0.0800 
@<TRIPOS>BOND
  1   1   2  1   
  2   1  29  1   
  3   2   3  1   
  4   2  30  1   
  5   2  31  1   
  6   3   4  1   
  7   3  32  1   
  8   3  33  1   
  9   4   5  1   
 10   4   6  1   
 11   4  34  1   
 12   5   7  1   
 13   5  35  1   
 14   5  36  1   
 15   6   8  1   
 16   6  37  1   
 17   6  38  1   
 18   7   9  ar  
 19   7  10  ar  
 20   8  11  1   
 21   8  12  2   
 22   9  13  ar  
 23   9  14  1   
 24  10  15  ar  
 25  10  39  1   
 26  11  16  2   
 27  12  17  1   
 28  12  40  1   
 29  13  18  ar  
 30  13  19  1   
 31  14  41  1   
 32  14  42  1   
 33  14  43  1   
 34  15  18  ar  
 35  15  20  1   
 36  16  17  1   
 37  16  21  1   
 38  17  44  1   
 39  18  45  1   
 40  19  22  1   
 41  19  46  1   
 42  19  47  1   
 43  20  48  1   
 44  20  49  1   
 45  20  50  1   
 46  21  51  1   
 47  21  52  1   
 48  21  53  1   
 49  22  23  1   
 50  22  24  1   
 51  22  54  1   
 52  23  25  1   
 53  23  55  1   
 54  23  56  1   
 55  24  26  1   
 56  24  57  1   
 57  24  58  1   
 58  25  27  1   
 59  25  59  1   
 60  25  60  1   
 61  26  27  1   
 62  26  61  1   
 63  26  62  1   
 64  27  28  1   
 65  27  63  1   
 66  28  64  1   
 67  28  65  1   
 68  28  66  1   
@<TRIPOS>SUBSTRUCTURE
  1 ****   7 GROUP 4 **** **** 0

# MOE 2024.06 (io_trps.svl 2023.06)
