@<TRIPOS>MOLECULE
Untitled Document
29 31 1 0 0 
SMALL
USER_CHARGES


@<TRIPOS>ATOM
  1 CL       0.0970    -0.0900    -1.4810 Cl    1 <1>  -0.1770 
  2 C        0.2280    -1.7560    -0.9550 C.ar  1 <1>   0.1770 
  3 C       -0.8840    -2.5830    -0.9980 C.ar  1 <1>   0.1770 
  4 C        1.4460    -2.2310    -0.5000 C.ar  1 <1>  -0.1440 
  5 CL      -2.4240    -1.9830    -1.5730 Cl    1 <1>  -0.1770 
  6 C       -0.7960    -3.9000    -0.5870 C.ar  1 <1>  -0.1500 
  7 C        1.5370    -3.5600    -0.0840 C.ar  1 <1>   0.1000 
  8 C        2.6640    -1.3110    -0.4570 C.3   1 <1>   0.3530 
  9 C        0.4180    -4.3850    -0.1300 C.ar  1 <1>  -0.1500 
 10 N        2.7610    -4.0460     0.3750 N.pl3 1 <1>  -0.5500 
 11 N        3.8550    -2.0260     0.0620 N.pl3 1 <1>  -0.7880 
 12 C        3.8830    -3.3130     0.4490 C.2   1 <1>   0.5500 
 13 C        5.1960    -1.4820     0.2480 C.3   1 <1>   0.4300 
 14 N        5.0030    -3.7810     0.8760 N.2   1 <1>  -0.6610 
 15 C        5.8710    -2.7540     0.7980 C.2   1 <1>   0.7200 
 16 C        5.1520    -0.3340     1.2630 C.3   1 <1>  -0.2400 
 17 C        5.7640    -1.0330    -1.1040 C.3   1 <1>  -0.2400 
 18 O        7.0420    -2.8050     1.1150 O.2   1 <1>  -0.5700 
 19 H       -1.6660    -4.5320    -0.6250 H     1 <1>   0.1500 
 20 H        2.4520    -0.4690     0.1790 H     1 <1>   0.0800 
 21 H        2.8720    -0.9500    -1.4490 H     1 <1>   0.0800 
 22 H        0.4960    -5.4080     0.1930 H     1 <1>   0.1500 
 23 H        2.8570    -5.0110     0.6850 H     1 <1>   0.4000 
 24 H        4.6900    -0.6650     2.1760 H     1 <1>   0.0800 
 25 H        4.6110     0.5060     0.8700 H     1 <1>   0.0800 
 26 H        6.1550    -0.0180     1.4890 H     1 <1>   0.0800 
 27 H        5.7200    -1.8420    -1.8110 H     1 <1>   0.0800 
 28 H        6.7930    -0.7480    -0.9820 H     1 <1>   0.0800 
 29 H        5.2200    -0.1900    -1.4880 H     1 <1>   0.0800 
@<TRIPOS>BOND
  1   1   2  1   
  2   2   3  ar  
  3   2   4  ar  
  4   3   5  1   
  5   3   6  ar  
  6   4   7  ar  
  7   4   8  1   
  8   6   9  ar  
  9   6  19  1   
 10   7   9  ar  
 11   7  10  1   
 12   8  11  1   
 13   8  20  1   
 14   8  21  1   
 15   9  22  1   
 16  10  12  1   
 17  10  23  1   
 18  11  12  1   
 19  11  13  1   
 20  12  14  2   
 21  13  15  1   
 22  13  16  1   
 23  13  17  1   
 24  14  15  1   
 25  15  18  2   
 26  16  24  1   
 27  16  25  1   
 28  16  26  1   
 29  17  27  1   
 30  17  28  1   
 31  17  29  1   
@<TRIPOS>SUBSTRUCTURE
  1 ****   8 GROUP 4 **** **** 0

# MOE 2024.06 (io_trps.svl 2023.06)
