@<TRIPOS>MOLECULE
NONAME
53 54 1 0 0 
SMALL
USER_CHARGES


@<TRIPOS>ATOM
  1 S       -0.2700     0.0220    -1.0710 S.o2  1 <1>   1.3330 
  2 O       -1.6000    -0.4730    -0.8090 O.2   1 <1>  -0.6500 
  3 O        0.1900     0.2320    -2.4250 O.2   1 <1>  -0.6500 
  4 N        0.8460    -0.9810    -0.2760 N.am  1 <1>  -0.8490 
  5 C       -0.0550     1.5870    -0.2140 C.3   1 <1>  -0.0550 
  6 C        0.2910    -1.6250     0.9220 C.3   1 <1>   0.1160 
  7 C        1.3920    -2.0120    -1.1680 C.3   1 <1>   0.1160 
  8 C        1.3620     2.1750    -0.3740 C.3   1 <1>  -0.1600 
  9 C        1.4860     3.5450     0.2910 C.3   1 <1>   0.3430 
 10 N        2.8060     4.1580    -0.0360 N.4   1 <1>  -0.9590 
 11 C        3.9380     3.4510     0.6670 C.3   1 <1>   0.3430 
 12 C        2.7970     5.6170     0.2810 C.3   1 <1>   0.3430 
 13 C        5.3100     4.0720     0.3660 C.3   1 <1>   0.2000 
 14 C        4.1190     6.2540    -0.1480 C.3   1 <1>  -0.1600 
 15 O        6.2130     3.4820     1.2300 O.3   1 <1>  -0.6800 
 16 C        5.3040     5.6030     0.5700 C.3   1 <1>   0.2200 
 17 N        6.5540     6.2290     0.0700 N.am  1 <1>  -0.7300 
 18 C        7.7530     6.2250     0.7270 C.2   1 <1>   0.5440 
 19 O        7.8360     5.5510     1.7340 O.2   1 <1>  -0.5700 
 20 C        8.8940     6.9650     0.2160 C.ar  1 <1>   0.0860 
 21 C       10.1960     6.5190     0.4500 C.ar  1 <1>  -0.1500 
 22 C        8.7430     8.1400    -0.5240 C.ar  1 <1>  -0.1500 
 23 C       11.2940     7.2000    -0.0430 C.ar  1 <1>  -0.1500 
 24 C        9.8370     8.8250    -1.0210 C.ar  1 <1>  -0.1500 
 25 C       11.1150     8.3550    -0.7830 C.ar  1 <1>  -0.1500 
 26 H       -0.7720     2.2830    -0.6070 H     1 <1>   0.0800 
 27 H       -0.2730     1.4470     0.8270 H     1 <1>   0.0800 
 28 H        1.0590    -2.1810     1.4340 H     1 <1>   0.0800 
 29 H       -0.5060    -2.2990     0.6530 H     1 <1>   0.0800 
 30 H       -0.1000    -0.8850     1.5980 H     1 <1>   0.0800 
 31 H        2.0990    -2.6290    -0.6400 H     1 <1>   0.0800 
 32 H        1.9020    -1.5530    -1.9980 H     1 <1>   0.0800 
 33 H        0.5990    -2.6330    -1.5530 H     1 <1>   0.0800 
 34 H        2.0660     1.4840     0.0570 H     1 <1>   0.0800 
 35 H        1.5730     2.2660    -1.4260 H     1 <1>   0.0800 
 36 H        1.3730     3.4510     1.3600 H     1 <1>   0.0800 
 37 H        0.6950     4.1800    -0.0770 H     1 <1>   0.0800 
 38 H        2.9500     4.0530    -1.0510 H     1 <1>   0.4500 
 39 H        3.7790     3.4960     1.7310 H     1 <1>   0.0800 
 40 H        3.9670     2.4150     0.3740 H     1 <1>   0.0800 
 41 H        1.9830     6.1010    -0.2360 H     1 <1>   0.0800 
 42 H        2.6560     5.7610     1.3410 H     1 <1>   0.0800 
 43 H        5.6110     3.8310    -0.6390 H     1 <1>   0.0800 
 44 H        4.0900     7.3000     0.1020 H     1 <1>   0.0800 
 45 H        4.2270     6.1650    -1.2150 H     1 <1>   0.0800 
 46 H        6.9560     4.1200     1.4310 H     1 <1>   0.4000 
 47 H        5.2160     5.8040     1.6260 H     1 <1>   0.0800 
 48 H        6.5150     6.6780    -0.8470 H     1 <1>   0.3700 
 49 H       10.3460     5.6230     1.0280 H     1 <1>   0.1500 
 50 H        7.7600     8.5330    -0.7090 H     1 <1>   0.1500 
 51 H       12.2870     6.8330     0.1490 H     1 <1>   0.1500 
 52 H        9.6990     9.7290    -1.5910 H     1 <1>   0.1500 
 53 H       11.9690     8.8860    -1.1680 H     1 <1>   0.1500 
@<TRIPOS>BOND
  1   1   2  2   
  2   1   3  2   
  3   1   4  am  
  4   1   5  1   
  5   4   6  1   
  6   4   7  1   
  7   5   8  1   
  8   5  26  1   
  9   5  27  1   
 10   6  28  1   
 11   6  29  1   
 12   6  30  1   
 13   7  31  1   
 14   7  32  1   
 15   7  33  1   
 16   8   9  1   
 17   8  34  1   
 18   8  35  1   
 19   9  10  1   
 20   9  36  1   
 21   9  37  1   
 22  10  11  1   
 23  10  12  1   
 24  10  38  1   
 25  11  13  1   
 26  11  39  1   
 27  11  40  1   
 28  12  14  1   
 29  12  41  1   
 30  12  42  1   
 31  13  15  1   
 32  13  16  1   
 33  13  43  1   
 34  14  16  1   
 35  14  44  1   
 36  14  45  1   
 37  15  46  1   
 38  16  17  1   
 39  16  47  1   
 40  17  18  am  
 41  17  48  1   
 42  18  19  2   
 43  18  20  1   
 44  20  21  ar  
 45  20  22  ar  
 46  21  23  ar  
 47  21  49  1   
 48  22  24  ar  
 49  22  50  1   
 50  23  25  ar  
 51  23  51  1   
 52  24  25  ar  
 53  24  52  1   
 54  25  53  1   
@<TRIPOS>SUBSTRUCTURE
  1 ****  13 GROUP 4 **** **** 0

# MOE 2024.06 (io_trps.svl 2023.06)
