@<TRIPOS>MOLECULE
NONAME
41 44 1 0 0 
SMALL
USER_CHARGES


@<TRIPOS>ATOM
  1 S        0.0420     0.5620     1.0560 S.3   1 <1>  -0.0800 
  2 C        1.0720    -0.7370     0.4360 C.2   1 <1>  -0.0450 
  3 C        0.8910     1.7790     0.1330 C.2   1 <1>  -0.1100 
  4 C        1.9900    -0.1950    -0.4110 C.2   1 <1>  -0.1810 
  5 C        0.8360    -2.0840     0.9030 C.2   1 <1>   0.7150 
  6 C        1.8820     1.2180    -0.5820 C.2   1 <1>  -0.1500 
  7 C        3.0760    -0.9590    -1.1490 C.3   1 <1>  -0.0590 
  8 O        1.7830    -2.7730     1.2410 O.2   1 <1>  -0.5700 
  9 N       -0.4290    -2.6360     0.9600 N.am  1 <1>  -0.6600 
 10 C       -1.5620    -2.1850     0.1070 C.3   1 <1>   0.1400 
 11 C       -0.7280    -3.8340     1.7910 C.3   1 <1>   0.1400 
 12 C       -1.9870    -3.3320    -0.8110 C.3   1 <1>  -0.1600 
 13 C       -1.1460    -4.9910     0.8820 C.3   1 <1>  -0.1600 
 14 C       -2.3230    -4.6040    -0.0190 C.3   1 <1>   0.4610 
 15 O       -3.4090    -4.3330     0.8500 O.3   1 <1>  -0.5600 
 16 C       -2.6820    -5.7600    -0.9560 C.2   1 <1>  -0.1810 
 17 C       -4.7150    -4.3460     0.3230 C.3   1 <1>   0.1200 
 18 C       -3.9280    -6.2490    -1.0020 C.2   1 <1>  -0.1400 
 19 C       -1.7850    -6.4300    -1.8540 C.2   1 <1>  -0.1500 
 20 C       -5.0930    -5.7440    -0.1950 C.3   1 <1>   0.0200 
 21 S       -4.0690    -7.5750    -2.1360 S.3   1 <1>  -0.0800 
 22 C       -2.3680    -7.4230    -2.5550 C.2   1 <1>  -0.1100 
 23 H        0.5570     2.7970     0.2230 H     1 <1>   0.1500 
 24 H        2.5530     1.7530    -1.2300 H     1 <1>   0.1500 
 25 H        3.0040    -2.0140    -0.9580 H     1 <1>   0.0800 
 26 H        4.0430    -0.6200    -0.8240 H     1 <1>   0.0800 
 27 H        2.9860    -0.7960    -2.2070 H     1 <1>   0.0800 
 28 H       -1.2770    -1.3420    -0.4970 H     1 <1>   0.0800 
 29 H       -2.3830    -1.8900     0.7390 H     1 <1>   0.0800 
 30 H       -1.5250    -3.5970     2.4740 H     1 <1>   0.0800 
 31 H        0.1320    -4.1200     2.3730 H     1 <1>   0.0800 
 32 H       -1.1790    -3.5440    -1.4860 H     1 <1>   0.0800 
 33 H       -2.8270    -3.0360    -1.4100 H     1 <1>   0.0800 
 34 H       -1.4210    -5.8430     1.4770 H     1 <1>   0.0800 
 35 H       -0.3010    -5.2720     0.2830 H     1 <1>   0.0800 
 36 H       -4.7690    -3.6250    -0.4730 H     1 <1>   0.0800 
 37 H       -5.3890    -4.0460     1.1060 H     1 <1>   0.0800 
 38 H       -0.7520    -6.1410    -1.9330 H     1 <1>   0.1500 
 39 H       -5.9750    -5.6810    -0.8050 H     1 <1>   0.0800 
 40 H       -5.2850    -6.4080     0.6280 H     1 <1>   0.0800 
 41 H       -1.9810    -8.1030    -3.2920 H     1 <1>   0.1500 
@<TRIPOS>BOND
  1   1   2  1   
  2   1   3  1   
  3   2   4  2   
  4   2   5  1   
  5   3   6  2   
  6   3  23  1   
  7   4   6  1   
  8   4   7  1   
  9   5   8  2   
 10   5   9  am  
 11   6  24  1   
 12   7  25  1   
 13   7  26  1   
 14   7  27  1   
 15   9  10  1   
 16   9  11  1   
 17  10  12  1   
 18  10  28  1   
 19  10  29  1   
 20  11  13  1   
 21  11  30  1   
 22  11  31  1   
 23  12  14  1   
 24  12  32  1   
 25  12  33  1   
 26  13  14  1   
 27  13  34  1   
 28  13  35  1   
 29  14  15  1   
 30  14  16  1   
 31  15  17  1   
 32  16  18  2   
 33  16  19  1   
 34  17  20  1   
 35  17  36  1   
 36  17  37  1   
 37  18  20  1   
 38  18  21  1   
 39  19  22  2   
 40  19  38  1   
 41  20  39  1   
 42  20  40  1   
 43  21  22  1   
 44  22  41  1   
@<TRIPOS>SUBSTRUCTURE
  1 ****  12 GROUP 4 **** **** 0

# MOE 2024.06 (io_trps.svl 2023.06)
