@<TRIPOS>MOLECULE
NONAME
54 56 1 0 0 
SMALL
USER_CHARGES


@<TRIPOS>ATOM
  1 O       -0.9750     0.0940     1.4430 O.2   1 <1>  -0.5700 
  2 C       -1.9110     0.4720     0.7650 C.2   1 <1>   0.5440 
  3 N       -1.7170     1.5320    -0.0970 N.am  1 <1>  -0.6600 
  4 C       -3.1780    -0.2080     0.8820 C.ar  1 <1>   0.0860 
  5 C       -2.5700     1.8350    -1.2850 C.3   1 <1>   0.1400 
  6 C       -0.4840     2.3720    -0.0400 C.3   1 <1>   0.1400 
  7 C       -3.2400    -1.5960     0.7990 C.ar  1 <1>   0.1600 
  8 C       -4.3790     0.4620     1.0940 C.ar  1 <1>  -0.1500 
  9 C       -2.8090     3.3500    -1.4020 C.3   1 <1>   0.1200 
 10 C       -0.8320     3.8570    -0.2380 C.3   1 <1>   0.1200 
 11 N       -4.3370    -2.3310     0.8720 N.ar  1 <1>  -0.6200 
 12 C       -5.5290    -0.2860     1.1800 C.ar  1 <1>  -0.1500 
 13 O       -1.5930     4.0430    -1.4000 O.3   1 <1>  -0.5600 
 14 C       -5.4730    -1.6730     1.0630 C.ar  1 <1>   0.4100 
 15 N       -6.6290    -2.4050     1.1420 N.pl3 1 <1>  -0.8690 
 16 C       -6.6650    -3.8840     1.2780 C.3   1 <1>   0.2090 
 17 C       -6.7190    -4.5340    -0.1040 C.3   1 <1>  -0.0170 
 18 C       -6.7890    -6.0470     0.0250 C.ar  1 <1>  -0.1440 
 19 C       -8.0030    -6.7110    -0.0720 C.ar  1 <1>  -0.1500 
 20 C       -5.6280    -6.7720     0.2460 C.ar  1 <1>  -0.1500 
 21 C       -8.0600    -8.0970     0.0520 C.ar  1 <1>   0.0820 
 22 C       -5.6790    -8.1500     0.3720 C.ar  1 <1>  -0.1500 
 23 O       -9.2030    -8.8280    -0.0290 O.3   1 <1>  -0.3620 
 24 C       -6.8910    -8.8070     0.2750 C.ar  1 <1>  -0.1500 
 25 C      -10.4600    -8.2710    -0.3400 C.3   1 <1>   0.2000 
 26 C      -11.5180    -9.2690     0.1230 C.3   1 <1>  -0.2400 
 27 C      -10.5430    -8.0450    -1.8520 C.3   1 <1>  -0.2400 
 28 H       -3.5130     1.3240    -1.2290 H     1 <1>   0.0800 
 29 H       -2.0660     1.4950    -2.1720 H     1 <1>   0.0800 
 30 H        0.1950     2.0570    -0.8120 H     1 <1>   0.0800 
 31 H        0.0110     2.2500     0.9080 H     1 <1>   0.0800 
 32 H       -2.3120    -2.1240     0.6600 H     1 <1>   0.1500 
 33 H       -4.3940     1.5330     1.1900 H     1 <1>   0.1500 
 34 H       -3.4100     3.7060    -0.5830 H     1 <1>   0.0800 
 35 H       -3.3130     3.5760    -2.3250 H     1 <1>   0.0800 
 36 H        0.0680     4.4380    -0.3390 H     1 <1>   0.0800 
 37 H       -1.3900     4.2280     0.6030 H     1 <1>   0.0800 
 38 H       -6.4790     0.1860     1.3390 H     1 <1>   0.1500 
 39 H       -7.4840    -1.9230     1.4210 H     1 <1>   0.4000 
 40 H       -7.5310    -4.1710     1.8490 H     1 <1>   0.0800 
 41 H       -5.7900    -4.2270     1.8060 H     1 <1>   0.0800 
 42 H       -5.8370    -4.2620    -0.6560 H     1 <1>   0.0800 
 43 H       -7.5760    -4.1690    -0.6390 H     1 <1>   0.0800 
 44 H       -8.8910    -6.1370    -0.2450 H     1 <1>   0.1500 
 45 H       -4.6820    -6.2650     0.3220 H     1 <1>   0.1500 
 46 H       -4.7750    -8.7080     0.5440 H     1 <1>   0.1500 
 47 H       -6.9400    -9.8760     0.3710 H     1 <1>   0.1500 
 48 H      -10.5810    -7.3520     0.2060 H     1 <1>   0.0800 
 49 H      -11.3940   -10.2090    -0.3850 H     1 <1>   0.0800 
 50 H      -12.5010    -8.8900    -0.0870 H     1 <1>   0.0800 
 51 H      -11.4320    -9.4250     1.1830 H     1 <1>   0.0800 
 52 H      -10.4040    -8.9750    -2.3740 H     1 <1>   0.0800 
 53 H       -9.7920    -7.3480    -2.1740 H     1 <1>   0.0800 
 54 H      -11.5070    -7.6460    -2.1110 H     1 <1>   0.0800 
@<TRIPOS>BOND
  1   1   2  2   
  2   2   3  am  
  3   2   4  1   
  4   3   5  1   
  5   3   6  1   
  6   4   7  ar  
  7   4   8  ar  
  8   5   9  1   
  9   5  28  1   
 10   5  29  1   
 11   6  10  1   
 12   6  30  1   
 13   6  31  1   
 14   7  11  ar  
 15   7  32  1   
 16   8  12  ar  
 17   8  33  1   
 18   9  13  1   
 19   9  34  1   
 20   9  35  1   
 21  10  13  1   
 22  10  36  1   
 23  10  37  1   
 24  11  14  ar  
 25  12  14  ar  
 26  12  38  1   
 27  14  15  1   
 28  15  16  1   
 29  15  39  1   
 30  16  17  1   
 31  16  40  1   
 32  16  41  1   
 33  17  18  1   
 34  17  42  1   
 35  17  43  1   
 36  18  19  ar  
 37  18  20  ar  
 38  19  21  ar  
 39  19  44  1   
 40  20  22  ar  
 41  20  45  1   
 42  21  23  1   
 43  21  24  ar  
 44  22  24  ar  
 45  22  46  1   
 46  23  25  1   
 47  24  47  1   
 48  25  26  1   
 49  25  27  1   
 50  25  48  1   
 51  26  49  1   
 52  26  50  1   
 53  26  51  1   
 54  27  52  1   
 55  27  53  1   
 56  27  54  1   
@<TRIPOS>SUBSTRUCTURE
  1 ****  11 GROUP 4 **** **** 0

# MOE 2024.06 (io_trps.svl 2023.06)
