@<TRIPOS>MOLECULE
NONAME
45 46 1 0 0 
SMALL
USER_CHARGES


@<TRIPOS>ATOM
  1 O       -1.6580     0.0480    -1.4120 O.2   1 <1>  -0.5700 
  2 C       -2.5070     0.8290    -1.0410 C.2   1 <1>   0.5690 
  3 N       -3.8320     0.6140    -1.3410 N.am  1 <1>  -0.6600 
  4 C       -2.0610     2.0480    -0.2130 C.3   1 <1>  -0.0190 
  5 C       -4.2280    -0.5860    -2.1270 C.3   1 <1>   0.3200 
  6 C       -4.9720     1.4660    -0.8870 C.3   1 <1>   0.1400 
  7 C       -1.8320     3.2590    -1.1440 C.3   1 <1>  -0.1600 
  8 C       -0.8390     1.7160     0.6730 C.3   1 <1>  -0.1600 
  9 C       -4.3020    -1.7770    -1.1980 C.2   1 <1>  -0.3320 
 10 C       -5.5650     0.9250     0.4190 C.3   1 <1>   0.1200 
 11 C       -1.8410     4.6020    -0.3970 C.3   1 <1>  -0.1600 
 12 C       -0.3430     2.8660     1.5650 C.3   1 <1>  -0.1600 
 13 N       -3.2170    -2.2440    -0.5590 N.pl3 1 <1>   0.0330 
 14 C       -5.3310    -2.5690    -0.8250 C.2   1 <1>   0.0770 
 15 O       -6.5210     1.8160     0.8860 O.3   1 <1>  -0.6800 
 16 C       -0.4800     5.0410     0.1650 C.3   1 <1>  -0.1600 
 17 C        0.4070     3.9410     0.7670 C.3   1 <1>  -0.1600 
 18 C       -3.6540    -3.2910     0.1710 C.2   1 <1>   0.0060 
 19 N       -4.9200    -3.5180     0.0380 N.2   1 <1>  -0.5650 
 20 C       -2.7380    -4.1080     1.0550 C.3   1 <1>  -0.0600 
 21 H       -2.8550     2.2850     0.4670 H     1 <1>   0.0800 
 22 H       -3.5010    -0.7740    -2.9000 H     1 <1>   0.0800 
 23 H       -5.1800    -0.4270    -2.6020 H     1 <1>   0.0800 
 24 H       -5.7370     1.4770    -1.6430 H     1 <1>   0.0800 
 25 H       -4.6420     2.4780    -0.7460 H     1 <1>   0.0800 
 26 H       -2.6330     3.2840    -1.8620 H     1 <1>   0.0800 
 27 H       -0.9190     3.1360    -1.7010 H     1 <1>   0.0800 
 28 H       -0.0260     1.3780     0.0530 H     1 <1>   0.0800 
 29 H       -1.1080     0.8910     1.3090 H     1 <1>   0.0800 
 30 H       -4.8090     0.8090     1.1770 H     1 <1>   0.0800 
 31 H       -6.0510    -0.0200     0.2500 H     1 <1>   0.0800 
 32 H       -2.5610     4.5670     0.4020 H     1 <1>   0.0800 
 33 H       -2.1730     5.3690    -1.0750 H     1 <1>   0.0800 
 34 H        0.3480     2.4460     2.2760 H     1 <1>   0.0800 
 35 H       -1.1530     3.2990     2.1270 H     1 <1>   0.0800 
 36 H       -2.2700    -1.8450    -0.6260 H     1 <1>   0.2700 
 37 H       -6.3620    -2.5100    -1.1310 H     1 <1>   0.1500 
 38 H       -6.1050     2.5950     1.3040 H     1 <1>   0.4000 
 39 H       -0.6600     5.7890     0.9180 H     1 <1>   0.0800 
 40 H        0.0790     5.5190    -0.6210 H     1 <1>   0.0800 
 41 H        0.9760     3.4720    -0.0180 H     1 <1>   0.0800 
 42 H        1.1200     4.4170     1.4180 H     1 <1>   0.0800 
 43 H       -2.2920    -3.4800     1.8040 H     1 <1>   0.0800 
 44 H       -1.9660    -4.5630     0.4630 H     1 <1>   0.0800 
 45 H       -3.3020    -4.8830     1.5440 H     1 <1>   0.0800 
@<TRIPOS>BOND
  1   1   2  2   
  2   2   3  am  
  3   2   4  1   
  4   3   5  1   
  5   3   6  1   
  6   4   7  1   
  7   4   8  1   
  8   4  21  1   
  9   5   9  1   
 10   5  22  1   
 11   5  23  1   
 12   6  10  1   
 13   6  24  1   
 14   6  25  1   
 15   7  11  1   
 16   7  26  1   
 17   7  27  1   
 18   8  12  1   
 19   8  28  1   
 20   8  29  1   
 21   9  13  1   
 22   9  14  2   
 23  10  15  1   
 24  10  30  1   
 25  10  31  1   
 26  11  16  1   
 27  11  32  1   
 28  11  33  1   
 29  12  17  1   
 30  12  34  1   
 31  12  35  1   
 32  13  18  1   
 33  13  36  1   
 34  14  19  1   
 35  14  37  1   
 36  15  38  1   
 37  16  17  1   
 38  16  39  1   
 39  16  40  1   
 40  17  41  1   
 41  17  42  1   
 42  18  19  2   
 43  18  20  1   
 44  20  43  1   
 45  20  44  1   
 46  20  45  1   
@<TRIPOS>SUBSTRUCTURE
  1 ****   2 GROUP 4 **** **** 0

# MOE 2024.06 (io_trps.svl 2023.06)
