@<TRIPOS>MOLECULE
NONAME
46 48 1 0 0 
SMALL
USER_CHARGES


@<TRIPOS>ATOM
  1 CL      -4.0360     3.3990    -3.4540 Cl    1 <1>  -0.1770 
  2 C       -3.8170     2.6930    -1.8700 C.ar  1 <1>   0.1770 
  3 C       -2.7370     3.0340    -1.0750 C.ar  1 <1>   0.1900 
  4 C       -4.7480     1.7790    -1.4110 C.ar  1 <1>  -0.1500 
  5 F       -1.8550     3.8980    -1.5020 F     1 <1>  -0.1900 
  6 C       -2.5670     2.4780     0.1800 C.ar  1 <1>  -0.1500 
  7 C       -4.5970     1.2130    -0.1480 C.ar  1 <1>  -0.1440 
  8 C       -3.5040     1.5650     0.6400 C.ar  1 <1>  -0.1500 
  9 C       -5.6240     0.2200     0.3720 C.3   1 <1>   0.4870 
 10 N       -6.9180     0.9240     0.5550 N.4   1 <1>  -0.9590 
 11 C       -6.8600     2.0580     1.5220 C.3   1 <1>   0.3430 
 12 C       -8.0720     0.0310     0.8130 C.3   1 <1>   0.3430 
 13 C       -8.2320     2.7350     1.6480 C.3   1 <1>  -0.1600 
 14 C       -9.3780     0.7990     0.5590 C.3   1 <1>  -0.1600 
 15 C       -9.2200     2.3340     0.5390 C.3   1 <1>   0.2800 
 16 O       -8.5960     2.6570    -0.6850 O.3   1 <1>  -0.5600 
 17 C      -10.5680     3.0670     0.7240 C.3   1 <1>  -0.1600 
 18 C       -9.2700     3.4490    -1.6270 C.3   1 <1>   0.1200 
 19 C      -11.4850     3.0150    -0.5110 C.3   1 <1>   0.2800 
 20 C      -10.6880     2.9140    -1.8180 C.3   1 <1>  -0.1600 
 21 O      -12.1720     4.2040    -0.5390 O.3   1 <1>  -0.6800 
 22 C      -12.5580     1.9290    -0.4200 C.3   1 <1>  -0.2400 
 23 H       -5.5760     1.5260    -2.0500 H     1 <1>   0.1500 
 24 H       -1.7160     2.7590     0.7770 H     1 <1>   0.1500 
 25 H       -3.3640     1.1320     1.6170 H     1 <1>   0.1500 
 26 H       -5.2940    -0.2010     1.3070 H     1 <1>   0.0800 
 27 H       -5.7370    -0.5800    -0.3430 H     1 <1>   0.0800 
 28 H       -7.1530     1.3990    -0.3380 H     1 <1>   0.4500 
 29 H       -6.1460     2.7850     1.1680 H     1 <1>   0.0800 
 30 H       -6.5340     1.7110     2.4890 H     1 <1>   0.0800 
 31 H       -8.0420    -0.3080     1.8360 H     1 <1>   0.0800 
 32 H       -8.0340    -0.8310     0.1670 H     1 <1>   0.0800 
 33 H       -8.0940     3.8010     1.6500 H     1 <1>   0.0800 
 34 H       -8.6520     2.4770     2.6030 H     1 <1>   0.0800 
 35 H      -10.0720     0.5160     1.3300 H     1 <1>   0.0800 
 36 H       -9.8000     0.4680    -0.3720 H     1 <1>   0.0800 
 37 H      -10.3480     4.0940     0.9560 H     1 <1>   0.0800 
 38 H      -11.0860     2.6700     1.5790 H     1 <1>   0.0800 
 39 H       -8.7200     3.4030    -2.5510 H     1 <1>   0.0800 
 40 H       -9.2770     4.4680    -1.2790 H     1 <1>   0.0800 
 41 H      -10.6150     1.8900    -2.1330 H     1 <1>   0.0800 
 42 H      -11.1890     3.4490    -2.6070 H     1 <1>   0.0800 
 43 H      -11.5620     4.9500    -0.6830 H     1 <1>   0.4000 
 44 H      -12.1190     0.9520    -0.3850 H     1 <1>   0.0800 
 45 H      -13.2030     1.9760    -1.2800 H     1 <1>   0.0800 
 46 H      -13.1550     2.0670     0.4640 H     1 <1>   0.0800 
@<TRIPOS>BOND
  1   1   2  1   
  2   2   3  ar  
  3   2   4  ar  
  4   3   5  1   
  5   3   6  ar  
  6   4   7  ar  
  7   4  23  1   
  8   6   8  ar  
  9   6  24  1   
 10   7   8  ar  
 11   7   9  1   
 12   8  25  1   
 13   9  10  1   
 14   9  26  1   
 15   9  27  1   
 16  10  11  1   
 17  10  12  1   
 18  10  28  1   
 19  11  13  1   
 20  11  29  1   
 21  11  30  1   
 22  12  14  1   
 23  12  31  1   
 24  12  32  1   
 25  13  15  1   
 26  13  33  1   
 27  13  34  1   
 28  14  15  1   
 29  14  35  1   
 30  14  36  1   
 31  15  16  1   
 32  15  17  1   
 33  16  18  1   
 34  17  19  1   
 35  17  37  1   
 36  17  38  1   
 37  18  20  1   
 38  18  39  1   
 39  18  40  1   
 40  19  20  1   
 41  19  21  1   
 42  19  22  1   
 43  20  41  1   
 44  20  42  1   
 45  21  43  1   
 46  22  44  1   
 47  22  45  1   
 48  22  46  1   
@<TRIPOS>SUBSTRUCTURE
  1 ****  16 GROUP 4 **** **** 0

# MOE 2024.06 (io_trps.svl 2023.06)
