@<TRIPOS>MOLECULE
NONAME
41 43 1 0 0 
SMALL
USER_CHARGES


@<TRIPOS>ATOM
  1 F        1.6620    -1.1210     1.6370 F     1 <1>  -0.1900 
  2 C        1.5440    -1.0710     0.3270 C.ar  1 <1>   0.1900 
  3 C        0.9940    -2.1520    -0.3550 C.ar  1 <1>   0.4100 
  4 C        1.9630     0.0320    -0.3770 C.ar  1 <1>   0.1660 
  5 N        0.8790    -2.1140    -1.6700 N.ar  1 <1>  -0.6200 
  6 N        0.5540    -3.2850     0.2960 N.pl3 1 <1>  -0.8690 
  7 N        1.8460     0.0680    -1.6960 N.ar  1 <1>  -0.6200 
  8 C        2.5750     1.2550     0.2960 C.3   1 <1>  -0.0170 
  9 C        1.3110    -1.0080    -2.2550 C.ar  1 <1>   0.4700 
 10 C        0.1900    -4.5710    -0.3520 C.3   1 <1>   0.2890 
 11 C        4.1050     1.2430     0.1970 C.3   1 <1>  -0.2400 
 12 C       -1.1810    -4.9990     0.1380 C.3   1 <1>  -0.0800 
 13 C        1.0860    -5.6920     0.1770 C.3   1 <1>   0.1200 
 14 C       -0.8330    -5.6950     1.4540 C.3   1 <1>   0.1200 
 15 C       -1.8690    -5.9490    -0.8610 C.3   1 <1>  -0.0160 
 16 O        0.4390    -6.2480     1.2870 O.3   1 <1>  -0.5600 
 17 C       -3.2370    -6.3920    -0.3630 C.ar  1 <1>  -0.1430 
 18 C       -3.4560    -7.6570     0.1440 C.ar  1 <1>  -0.1500 
 19 C       -4.3300    -5.5510    -0.3950 C.ar  1 <1>  -0.1500 
 20 C       -4.7210    -8.0080     0.5860 C.ar  1 <1>   0.1600 
 21 C       -5.5540    -6.0010     0.0720 C.ar  1 <1>   0.1600 
 22 N       -5.7760    -7.2090     0.5640 N.ar  1 <1>  -0.6200 
 23 H        0.7620    -3.3620     1.2970 H     1 <1>   0.4000 
 24 H        2.1930     2.1410    -0.1820 H     1 <1>   0.0800 
 25 H        2.2840     1.2970     1.3300 H     1 <1>   0.0800 
 26 H        1.2160    -0.9780    -3.3280 H     1 <1>   0.1500 
 27 H        0.2440    -4.4930    -1.4240 H     1 <1>   0.0800 
 28 H        4.4080     1.2300    -0.8350 H     1 <1>   0.0800 
 29 H        4.5030     0.3710     0.6850 H     1 <1>   0.0800 
 30 H        4.5140     2.1210     0.6660 H     1 <1>   0.0800 
 31 H       -1.8170    -4.1470     0.3070 H     1 <1>   0.0800 
 32 H        2.0580    -5.3350     0.4670 H     1 <1>   0.0800 
 33 H        1.1900    -6.4690    -0.5590 H     1 <1>   0.0800 
 34 H       -1.5250    -6.4730     1.7260 H     1 <1>   0.0800 
 35 H       -0.7710    -4.9790     2.2550 H     1 <1>   0.0800 
 36 H       -1.2540    -6.8140    -1.0350 H     1 <1>   0.0800 
 37 H       -1.9930    -5.4450    -1.8040 H     1 <1>   0.0800 
 38 H       -2.6570    -8.3730     0.2020 H     1 <1>   0.1500 
 39 H       -4.2420    -4.5500    -0.7780 H     1 <1>   0.1500 
 40 H       -4.8730    -8.9980     0.9800 H     1 <1>   0.1500 
 41 H       -6.3960    -5.3300     0.0400 H     1 <1>   0.1500 
@<TRIPOS>BOND
  1   1   2  1   
  2   2   3  ar  
  3   2   4  ar  
  4   3   5  ar  
  5   3   6  1   
  6   4   7  ar  
  7   4   8  1   
  8   5   9  ar  
  9   6  10  1   
 10   6  23  1   
 11   7   9  ar  
 12   8  11  1   
 13   8  24  1   
 14   8  25  1   
 15   9  26  1   
 16  10  12  1   
 17  10  13  1   
 18  10  27  1   
 19  11  28  1   
 20  11  29  1   
 21  11  30  1   
 22  12  14  1   
 23  12  15  1   
 24  12  31  1   
 25  13  16  1   
 26  13  32  1   
 27  13  33  1   
 28  14  16  1   
 29  14  34  1   
 30  14  35  1   
 31  15  17  1   
 32  15  36  1   
 33  15  37  1   
 34  17  18  ar  
 35  17  19  ar  
 36  18  20  ar  
 37  18  38  1   
 38  19  21  ar  
 39  19  39  1   
 40  20  22  ar  
 41  20  40  1   
 42  21  22  ar  
 43  21  41  1   
@<TRIPOS>SUBSTRUCTURE
  1 ****  10 GROUP 4 **** **** 0

# MOE 2024.06 (io_trps.svl 2023.06)
