@<TRIPOS>MOLECULE
NONAME
46 49 1 0 0 
SMALL
USER_CHARGES


@<TRIPOS>ATOM
  1 S       -0.4060     0.9840    -2.4420 S.3   1 <1>  -0.0800 
  2 C       -0.2190     2.0330    -1.0520 C.2   1 <1>  -0.1400 
  3 C        1.1570     1.4960    -3.0610 C.2   1 <1>  -0.1100 
  4 C        0.9450     2.6930    -1.0760 C.2   1 <1>  -0.1810 
  5 C       -1.2680     2.1550     0.0200 C.3   1 <1>   0.0200 
  6 C        1.7360     2.3900    -2.2350 C.2   1 <1>  -0.1500 
  7 C        1.3290     3.6560     0.0500 C.3   1 <1>   0.4610 
  8 C       -0.9780     3.4520     0.7920 C.3   1 <1>   0.1200 
  9 O        0.3910     3.5640     1.1080 O.3   1 <1>  -0.5600 
 10 C        2.6810     3.2580     0.6540 C.3   1 <1>  -0.1600 
 11 C        1.3680     5.1060    -0.4530 C.3   1 <1>  -0.1600 
 12 C        3.1420     4.2510     1.7230 C.3   1 <1>   0.1400 
 13 C        1.8350     6.0650     0.6430 C.3   1 <1>   0.1400 
 14 N        3.1700     5.6170     1.1280 N.am  1 <1>  -0.6600 
 15 C        4.3420     6.3210     1.0130 C.2   1 <1>   0.5690 
 16 O        5.3860     5.8950     1.4500 O.2   1 <1>  -0.5700 
 17 C        4.3520     7.6690     0.3070 C.3   1 <1>  -0.0990 
 18 C        5.7540     8.2620     0.1090 C.3   1 <1>  -0.0170 
 19 C        5.6600     9.5640    -0.6700 C.ar  1 <1>  -0.1430 
 20 C        5.6540     9.5570    -2.0580 C.ar  1 <1>   0.1600 
 21 C        5.5650    10.7740    -0.0120 C.ar  1 <1>  -0.1500 
 22 N        5.5560    10.6320    -2.8240 N.ar  1 <1>  -0.6200 
 23 C        5.4680    11.9050    -0.7930 C.ar  1 <1>  -0.1500 
 24 C        5.4670    11.7800    -2.1720 C.ar  1 <1>   0.1600 
 25 H        1.4820     1.0660    -3.9920 H     1 <1>   0.1500 
 26 H       -1.2200     1.3080     0.6800 H     1 <1>   0.0800 
 27 H       -2.2490     2.2020    -0.4170 H     1 <1>   0.0800 
 28 H        2.6940     2.8510    -2.3960 H     1 <1>   0.1500 
 29 H       -1.5300     3.4650     1.7150 H     1 <1>   0.0800 
 30 H       -1.2640     4.3070     0.2070 H     1 <1>   0.0800 
 31 H        3.4300     3.2210    -0.1150 H     1 <1>   0.0800 
 32 H        2.6030     2.2730     1.0780 H     1 <1>   0.0800 
 33 H        0.4020     5.3980    -0.8160 H     1 <1>   0.0800 
 34 H        2.0500     5.1740    -1.2810 H     1 <1>   0.0800 
 35 H        4.1150     3.9690     2.0860 H     1 <1>   0.0800 
 36 H        2.4600     4.2410     2.5570 H     1 <1>   0.0800 
 37 H        1.1400     6.0460     1.4650 H     1 <1>   0.0800 
 38 H        1.8660     7.0690     0.2620 H     1 <1>   0.0800 
 39 H        3.7600     8.3580     0.8810 H     1 <1>   0.0800 
 40 H        3.8960     7.5480    -0.6570 H     1 <1>   0.0800 
 41 H        6.3730     7.5630    -0.4270 H     1 <1>   0.0800 
 42 H        6.2150     8.4370     1.0660 H     1 <1>   0.0800 
 43 H        5.7310     8.6120    -2.5690 H     1 <1>   0.1500 
 44 H        5.5670    10.8360     1.0620 H     1 <1>   0.1500 
 45 H        5.3930    12.8770    -0.3410 H     1 <1>   0.1500 
 46 H        5.3890    12.6710    -2.7710 H     1 <1>   0.1500 
@<TRIPOS>BOND
  1   1   2  1   
  2   1   3  1   
  3   2   4  2   
  4   2   5  1   
  5   3   6  2   
  6   3  25  1   
  7   4   6  1   
  8   4   7  1   
  9   5   8  1   
 10   5  26  1   
 11   5  27  1   
 12   6  28  1   
 13   7   9  1   
 14   7  10  1   
 15   7  11  1   
 16   8   9  1   
 17   8  29  1   
 18   8  30  1   
 19  10  12  1   
 20  10  31  1   
 21  10  32  1   
 22  11  13  1   
 23  11  33  1   
 24  11  34  1   
 25  12  14  1   
 26  12  35  1   
 27  12  36  1   
 28  13  14  1   
 29  13  37  1   
 30  13  38  1   
 31  14  15  am  
 32  15  16  2   
 33  15  17  1   
 34  17  18  1   
 35  17  39  1   
 36  17  40  1   
 37  18  19  1   
 38  18  41  1   
 39  18  42  1   
 40  19  20  ar  
 41  19  21  ar  
 42  20  22  ar  
 43  20  43  1   
 44  21  23  ar  
 45  21  44  1   
 46  22  24  ar  
 47  23  24  ar  
 48  23  45  1   
 49  24  46  1   
@<TRIPOS>SUBSTRUCTURE
  1 ****  13 GROUP 4 **** **** 0

# MOE 2024.06 (io_trps.svl 2023.06)
