@<TRIPOS>MOLECULE
NONAME
56 59 1 0 0 
SMALL
USER_CHARGES


@<TRIPOS>ATOM
  1 N        0.6180     0.4690     0.5430 N.ar  1 <1>  -0.6200 
  2 C       -0.3440     1.3600     0.8040 C.ar  1 <1>   0.7200 
  3 C        1.3400     0.7350    -0.5150 C.ar  1 <1>   0.1660 
  4 N       -0.6070     2.4650     0.0990 N.ar  1 <1>  -0.6200 
  5 N       -1.1340     1.1160     1.9080 N.pl3 1 <1>  -0.8380 
  6 C        1.1550     1.8300    -1.2990 C.ar  1 <1>  -0.1440 
  7 C        2.4860    -0.1190    -0.9980 C.3   1 <1>   0.1430 
  8 C        0.1460     2.6920    -0.9520 C.ar  1 <1>   0.1600 
  9 C       -2.0070     2.1730     2.4910 C.3   1 <1>   0.1290 
 10 C       -1.3360    -0.2510     2.4600 C.3   1 <1>   0.1290 
 11 C        2.1440     1.8770    -2.4370 C.3   1 <1>  -0.0160 
 12 C        3.3920    -0.4290     0.2040 C.3   1 <1>   0.3430 
 13 C        1.9520    -1.4270    -1.6220 C.3   1 <1>  -0.1600 
 14 C        3.1730     0.7980    -2.0470 C.3   1 <1>  -0.1600 
 15 N        4.4790    -1.3940    -0.1640 N.4   1 <1>  -0.9590 
 16 C        3.0800    -2.4400    -1.9000 C.3   1 <1>  -0.1600 
 17 C        3.9530    -2.6900    -0.6660 C.3   1 <1>   0.3430 
 18 C        5.4840    -1.5290     0.9290 C.3   1 <1>   0.4860 
 19 C        6.3860    -0.2960     0.9120 C.ar  1 <1>   0.1670 
 20 N        6.6730     0.2040    -0.2880 N.ar  1 <1>  -0.6200 
 21 C        6.8450     0.2380     2.1060 C.ar  1 <1>  -0.1500 
 22 C        7.4590     1.2720    -0.2870 C.ar  1 <1>   0.1600 
 23 C        7.6560     1.3520     2.0840 C.ar  1 <1>  -0.1500 
 24 C        7.9690     1.8810     0.8490 C.ar  1 <1>  -0.1440 
 25 C        8.8640     3.1060     0.7410 C.3   1 <1>  -0.0170 
 26 C       10.3320     2.6910     0.6270 C.3   1 <1>  -0.2400 
 27 H       -0.0470     3.5750    -1.5370 H     1 <1>   0.1500 
 28 H       -1.5600     3.1440     2.3620 H     1 <1>   0.0800 
 29 H       -2.1450     2.0010     3.5440 H     1 <1>   0.0800 
 30 H       -2.9640     2.1620     1.9990 H     1 <1>   0.0800 
 31 H       -1.0380    -0.9990     1.7460 H     1 <1>   0.0800 
 32 H       -2.3760    -0.4040     2.6910 H     1 <1>   0.0800 
 33 H       -0.7530    -0.3670     3.3560 H     1 <1>   0.0800 
 34 H        2.6000     2.8480    -2.5300 H     1 <1>   0.0800 
 35 H        1.6470     1.6180    -3.3570 H     1 <1>   0.0800 
 36 H        2.7850    -0.8470     0.9900 H     1 <1>   0.0800 
 37 H        3.8180     0.4930     0.5650 H     1 <1>   0.0800 
 38 H        1.4160    -1.2100    -2.5310 H     1 <1>   0.0800 
 39 H        1.2490    -1.8730    -0.9390 H     1 <1>   0.0800 
 40 H        3.5170     0.2620    -2.9140 H     1 <1>   0.0800 
 41 H        4.0190     1.2920    -1.5990 H     1 <1>   0.0800 
 42 H        5.0360    -0.9350    -0.9090 H     1 <1>   0.4500 
 43 H        3.7010    -2.0960    -2.7080 H     1 <1>   0.0800 
 44 H        2.6440    -3.3730    -2.2120 H     1 <1>   0.0800 
 45 H        3.3630    -3.1660     0.1010 H     1 <1>   0.0800 
 46 H        4.7680    -3.3460    -0.9290 H     1 <1>   0.0800 
 47 H        6.0990    -2.3950     0.7540 H     1 <1>   0.0800 
 48 H        4.9990    -1.6320     1.8850 H     1 <1>   0.0800 
 49 H        6.5830    -0.2020     3.0520 H     1 <1>   0.1500 
 50 H        7.7170     1.6880    -1.2470 H     1 <1>   0.1500 
 51 H        8.0320     1.7890     2.9940 H     1 <1>   0.1500 
 52 H        8.7340     3.7310     1.6080 H     1 <1>   0.0800 
 53 H        8.5870     3.6880    -0.1220 H     1 <1>   0.0800 
 54 H       10.6290     2.1280     1.4940 H     1 <1>   0.0800 
 55 H       10.9580     3.5620     0.5520 H     1 <1>   0.0800 
 56 H       10.4840     2.0820    -0.2470 H     1 <1>   0.0800 
@<TRIPOS>BOND
  1   1   2  ar  
  2   1   3  ar  
  3   2   4  ar  
  4   2   5  1   
  5   3   6  ar  
  6   3   7  1   
  7   4   8  ar  
  8   5   9  1   
  9   5  10  1   
 10   6   8  ar  
 11   6  11  1   
 12   7  12  1   
 13   7  13  1   
 14   7  14  1   
 15   8  27  1   
 16   9  28  1   
 17   9  29  1   
 18   9  30  1   
 19  10  31  1   
 20  10  32  1   
 21  10  33  1   
 22  11  14  1   
 23  11  34  1   
 24  11  35  1   
 25  12  15  1   
 26  12  36  1   
 27  12  37  1   
 28  13  16  1   
 29  13  38  1   
 30  13  39  1   
 31  14  40  1   
 32  14  41  1   
 33  15  17  1   
 34  15  18  1   
 35  15  42  1   
 36  16  17  1   
 37  16  43  1   
 38  16  44  1   
 39  17  45  1   
 40  17  46  1   
 41  18  19  1   
 42  18  47  1   
 43  18  48  1   
 44  19  20  ar  
 45  19  21  ar  
 46  20  22  ar  
 47  21  23  ar  
 48  21  49  1   
 49  22  24  ar  
 50  22  50  1   
 51  23  24  ar  
 52  23  51  1   
 53  24  25  1   
 54  25  26  1   
 55  25  52  1   
 56  25  53  1   
 57  26  54  1   
 58  26  55  1   
 59  26  56  1   
@<TRIPOS>SUBSTRUCTURE
  1 ****  12 GROUP 4 **** **** 0

# MOE 2024.06 (io_trps.svl 2023.06)
