@<TRIPOS>MOLECULE
NONAME
45 46 1 0 0 
SMALL
USER_CHARGES


@<TRIPOS>ATOM
  1 S        0.3970     0.0500     0.5140 S.o2  1 <1>   1.3330 
  2 O        0.5150    -1.3880     0.4180 O.2   1 <1>  -0.6500 
  3 O        0.2260     0.6600     1.8140 O.2   1 <1>  -0.6500 
  4 N       -0.9070     0.5200    -0.4650 N.am  1 <1>  -0.8490 
  5 C        1.8140     0.8050    -0.2810 C.3   1 <1>  -0.0550 
  6 C       -2.1780     0.5050     0.2640 C.3   1 <1>   0.1160 
  7 C       -1.0270    -0.2640    -1.6980 C.3   1 <1>   0.1160 
  8 C        3.1180     0.6560     0.5230 C.3   1 <1>  -0.0800 
  9 C        4.3180     1.2010    -0.2230 C.3   1 <1>   0.2200 
 10 C        3.5530    -0.7780     0.7990 C.3   1 <1>   0.1200 
 11 N        4.4540     2.6560     0.0000 N.am  1 <1>  -0.7300 
 12 C        5.4840     0.3860     0.3310 C.3   1 <1>   0.1200 
 13 O        4.9310    -0.7140     0.9950 O.3   1 <1>  -0.5600 
 14 C        4.0400     3.6190    -0.8750 C.2   1 <1>   0.5440 
 15 O        3.5010     3.2570    -1.9040 O.2   1 <1>  -0.5700 
 16 C        4.2270     5.0200    -0.5750 C.ar  1 <1>   0.0860 
 17 C        3.1700     5.9250    -0.6740 C.ar  1 <1>   0.1900 
 18 C        5.4640     5.5470    -0.1710 C.ar  1 <1>   0.0820 
 19 F        1.9810     5.4980    -1.0040 F     1 <1>  -0.1900 
 20 C        3.2950     7.2760    -0.4200 C.ar  1 <1>  -0.1500 
 21 O        6.5110     4.6930    -0.0470 O.3   1 <1>  -0.3630 
 22 C        5.6010     6.9110     0.0910 C.ar  1 <1>  -0.1500 
 23 C        4.5260     7.7730    -0.0350 C.ar  1 <1>  -0.1500 
 24 C        7.8360     5.1310     0.1740 C.3   1 <1>   0.0400 
 25 H        1.9460     0.3750    -1.2540 H     1 <1>   0.0800 
 26 H        1.6180     1.8520    -0.4160 H     1 <1>   0.0800 
 27 H       -2.9800     0.8290    -0.3770 H     1 <1>   0.0800 
 28 H       -2.1280     1.1780     1.1040 H     1 <1>   0.0800 
 29 H       -2.3900    -0.4870     0.6270 H     1 <1>   0.0800 
 30 H       -1.8190     0.1320    -2.3110 H     1 <1>   0.0800 
 31 H       -1.2420    -1.2950    -1.4700 H     1 <1>   0.0800 
 32 H       -0.1100    -0.2160    -2.2600 H     1 <1>   0.0800 
 33 H        3.0160     1.1550     1.4720 H     1 <1>   0.0800 
 34 H        4.2330     0.9950    -1.2780 H     1 <1>   0.0800 
 35 H        3.3680    -1.4180    -0.0470 H     1 <1>   0.0800 
 36 H        3.0880    -1.1900     1.6790 H     1 <1>   0.0800 
 37 H        5.0030     2.9440     0.8120 H     1 <1>   0.3700 
 38 H        6.0600     0.9450     1.0460 H     1 <1>   0.0800 
 39 H        6.1180     0.0240    -0.4590 H     1 <1>   0.0800 
 40 H        2.4420     7.9250    -0.5190 H     1 <1>   0.1500 
 41 H        6.5420     7.3270     0.3980 H     1 <1>   0.1500 
 42 H        4.6440     8.8250     0.1670 H     1 <1>   0.1500 
 43 H        8.4810     4.2710     0.1530 H     1 <1>   0.0800 
 44 H        7.8930     5.6060     1.1380 H     1 <1>   0.0800 
 45 H        8.1140     5.8130    -0.6100 H     1 <1>   0.0800 
@<TRIPOS>BOND
  1   1   2  2   
  2   1   3  2   
  3   1   4  am  
  4   1   5  1   
  5   4   6  1   
  6   4   7  1   
  7   5   8  1   
  8   5  25  1   
  9   5  26  1   
 10   6  27  1   
 11   6  28  1   
 12   6  29  1   
 13   7  30  1   
 14   7  31  1   
 15   7  32  1   
 16   8   9  1   
 17   8  10  1   
 18   8  33  1   
 19   9  11  1   
 20   9  12  1   
 21   9  34  1   
 22  10  13  1   
 23  10  35  1   
 24  10  36  1   
 25  11  14  am  
 26  11  37  1   
 27  12  13  1   
 28  12  38  1   
 29  12  39  1   
 30  14  15  2   
 31  14  16  1   
 32  16  17  ar  
 33  16  18  ar  
 34  17  19  1   
 35  17  20  ar  
 36  18  21  1   
 37  18  22  ar  
 38  20  23  ar  
 39  20  40  1   
 40  21  24  1   
 41  22  23  ar  
 42  22  41  1   
 43  23  42  1   
 44  24  43  1   
 45  24  44  1   
 46  24  45  1   
@<TRIPOS>SUBSTRUCTURE
  1 ****  11 GROUP 4 **** **** 0

# MOE 2024.06 (io_trps.svl 2023.06)
