@<TRIPOS>MOLECULE
NONAME
46 48 1 0 0 
SMALL
USER_CHARGES


@<TRIPOS>ATOM
  1 CL      -0.2510    -0.1090     0.8220 Cl    1 <1>  -0.1230 
  2 C       -1.2920    -1.4580     0.4060 C.2   1 <1>   0.1230 
  3 C       -0.9980    -2.4620    -0.5020 C.2   1 <1>   0.1390 
  4 C       -2.5170    -1.7280     0.8910 C.2   1 <1>  -0.3020 
  5 N       -1.9780    -3.3180    -0.5860 N.2   1 <1>  -0.7070 
  6 N       -2.9150    -2.8610     0.2750 N.pl3 1 <1>   0.3140 
  7 C       -4.1950    -3.5620     0.4590 C.3   1 <1>   0.0960 
  8 C       -4.0120    -5.0390     0.0840 C.3   1 <1>   0.3430 
  9 N       -5.2780    -5.8370     0.1880 N.4   1 <1>  -0.9590 
 10 C       -5.0140    -7.3000    -0.0150 C.3   1 <1>   0.3430 
 11 C       -6.3200    -5.4670    -0.8050 C.3   1 <1>   0.3430 
 12 C       -6.1640    -7.8600    -0.8590 C.3   1 <1>   0.0630 
 13 C       -7.1780    -6.7130    -0.9050 C.3   1 <1>  -0.1600 
 14 C       -6.6550    -9.2130    -0.3310 C.ar  1 <1>  -0.1430 
 15 C       -5.7410   -10.2590    -0.1810 C.ar  1 <1>   0.0830 
 16 C       -7.9880    -9.4440    -0.0120 C.ar  1 <1>  -0.1500 
 17 O       -4.4440   -10.0290    -0.5340 O.3   1 <1>  -0.3620 
 18 C       -6.1660   -11.4920     0.3100 C.ar  1 <1>  -0.1500 
 19 C       -8.4110   -10.6680     0.4760 C.ar  1 <1>   0.0830 
 20 C       -3.5260   -11.0940    -0.6790 C.3   1 <1>   0.0400 
 21 C       -7.4920   -11.6970     0.6400 C.ar  1 <1>  -0.1500 
 22 O       -9.7330   -10.7780     0.7670 O.3   1 <1>  -0.3620 
 23 C      -10.2770   -11.9920     1.2370 C.3   1 <1>   0.0400 
 24 H       -0.0810    -2.5260    -1.0630 H     1 <1>   0.1500 
 25 H       -3.0990    -1.1860     1.6140 H     1 <1>   0.1500 
 26 H       -4.9200    -3.0940    -0.1790 H     1 <1>   0.0800 
 27 H       -4.4920    -3.4680     1.4870 H     1 <1>   0.0800 
 28 H       -3.2650    -5.4640     0.7360 H     1 <1>   0.0800 
 29 H       -3.6370    -5.0970    -0.9260 H     1 <1>   0.0800 
 30 H       -5.6830    -5.7470     1.1310 H     1 <1>   0.4500 
 31 H       -4.9750    -7.8100     0.9350 H     1 <1>   0.0800 
 32 H       -4.0830    -7.4630    -0.5320 H     1 <1>   0.0800 
 33 H       -5.8640    -5.2650    -1.7620 H     1 <1>   0.0800 
 34 H       -6.8940    -4.6110    -0.4890 H     1 <1>   0.0800 
 35 H       -5.7850    -8.0190    -1.8550 H     1 <1>   0.0800 
 36 H       -7.7670    -6.7280    -1.8060 H     1 <1>   0.0800 
 37 H       -7.8330    -6.7290    -0.0520 H     1 <1>   0.0800 
 38 H       -8.7460    -8.6950    -0.1340 H     1 <1>   0.1500 
 39 H       -5.4820   -12.3070     0.4470 H     1 <1>   0.1500 
 40 H       -2.6090   -10.6970    -1.0750 H     1 <1>   0.0800 
 41 H       -3.9330   -11.8180    -1.3630 H     1 <1>   0.0800 
 42 H       -3.3440   -11.5360     0.2850 H     1 <1>   0.0800 
 43 H       -7.7900   -12.6560     1.0180 H     1 <1>   0.1500 
 44 H      -11.3320   -11.8490     1.3840 H     1 <1>   0.0800 
 45 H       -9.8090   -12.2460     2.1710 H     1 <1>   0.0800 
 46 H      -10.1120   -12.7580     0.5000 H     1 <1>   0.0800 
@<TRIPOS>BOND
  1   1   2  1   
  2   2   3  1   
  3   2   4  2   
  4   3   5  2   
  5   3  24  1   
  6   4   6  1   
  7   4  25  1   
  8   5   6  1   
  9   6   7  1   
 10   7   8  1   
 11   7  26  1   
 12   7  27  1   
 13   8   9  1   
 14   8  28  1   
 15   8  29  1   
 16   9  10  1   
 17   9  11  1   
 18   9  30  1   
 19  10  12  1   
 20  10  31  1   
 21  10  32  1   
 22  11  13  1   
 23  11  33  1   
 24  11  34  1   
 25  12  13  1   
 26  12  14  1   
 27  12  35  1   
 28  13  36  1   
 29  13  37  1   
 30  14  15  ar  
 31  14  16  ar  
 32  15  17  1   
 33  15  18  ar  
 34  16  19  ar  
 35  16  38  1   
 36  17  20  1   
 37  18  21  ar  
 38  18  39  1   
 39  19  21  ar  
 40  19  22  1   
 41  20  40  1   
 42  20  41  1   
 43  20  42  1   
 44  21  43  1   
 45  22  23  1   
 46  23  44  1   
 47  23  45  1   
 48  23  46  1   
@<TRIPOS>SUBSTRUCTURE
  1 ****  10 GROUP 4 **** **** 0

# MOE 2024.06 (io_trps.svl 2023.06)
