@<TRIPOS>MOLECULE
NONAME
53 57 1 0 0 
SMALL
USER_CHARGES


@<TRIPOS>ATOM
  1 O       -3.7740    -0.6840     0.2470 O.2   1 <1>  -0.5700 
  2 C       -2.7200    -1.2150     0.5160 C.2   1 <1>   0.6900 
  3 N       -2.5880    -2.4000     1.1730 N.am  1 <1>  -0.4200 
  4 N       -1.5160    -0.7010     0.1920 N.am  1 <1>  -0.7300 
  5 C       -1.2690    -2.7230     1.2850 C.2   1 <1>   0.5690 
  6 C       -3.7100    -3.3210     1.4710 C.3   1 <1>   0.2010 
  7 C       -0.4430    -1.6410     0.6050 C.3   1 <1>   0.2010 
  8 O       -0.8100    -3.6850     1.8490 O.2   1 <1>  -0.5700 
  9 C       -4.2140    -4.0500     0.2220 C.2   1 <1>   0.5690 
 10 O       -3.4340    -4.8000    -0.3190 O.2   1 <1>  -0.5700 
 11 N       -5.5030    -3.9140    -0.2450 N.am  1 <1>  -0.6600 
 12 C       -6.4640    -2.8330     0.1650 C.3   1 <1>   0.1400 
 13 C       -6.0890    -4.9630    -1.1360 C.3   1 <1>   0.1400 
 14 C       -7.2030    -2.2080    -1.0380 C.3   1 <1>   0.1430 
 15 C       -6.7820    -4.3370    -2.3480 C.3   1 <1>  -0.1600 
 16 C       -8.2480    -1.2410    -0.5110 C.ar  1 <1>   0.1670 
 17 C       -7.8350    -3.3080    -1.9140 C.3   1 <1>  -0.1600 
 18 C       -6.2760    -1.2810    -1.8710 C.3   1 <1>  -0.1600 
 19 N       -9.3550    -1.5830     0.1050 N.ar  1 <1>  -0.6200 
 20 C       -7.9000     0.0540    -0.7380 C.ar  1 <1>  -0.1440 
 21 C       -6.5710     0.1670    -1.4390 C.3   1 <1>  -0.0170 
 22 C      -10.1480    -0.5730     0.4880 C.ar  1 <1>   0.6200 
 23 C       -8.7600     1.0310    -0.3100 C.ar  1 <1>   0.1600 
 24 N       -9.8840     0.7280     0.2990 N.ar  1 <1>  -0.6200 
 25 C      -11.3930    -0.9170     1.1640 C.ar  1 <1>   0.0000 
 26 C      -11.5370    -2.1090     1.8810 C.ar  1 <1>  -0.1500 
 27 C      -12.5060    -0.0700     1.1280 C.ar  1 <1>  -0.1500 
 28 C      -12.7180    -2.4380     2.5230 C.ar  1 <1>  -0.1500 
 29 C      -13.6900    -0.3910     1.7670 C.ar  1 <1>  -0.1500 
 30 C      -13.7990    -1.5780     2.4670 C.ar  1 <1>  -0.1500 
 31 H       -1.3990     0.0720    -0.4640 H     1 <1>   0.3700 
 32 H       -4.4970    -2.7760     1.9520 H     1 <1>   0.0800 
 33 H       -3.3660    -4.0670     2.1650 H     1 <1>   0.0800 
 34 H        0.2350    -1.1790     1.3010 H     1 <1>   0.0800 
 35 H        0.0780    -2.0390    -0.2470 H     1 <1>   0.0800 
 36 H       -5.9560    -2.0440     0.6890 H     1 <1>   0.0800 
 37 H       -7.1920    -3.2600     0.8340 H     1 <1>   0.0800 
 38 H       -6.8040    -5.5330    -0.5690 H     1 <1>   0.0800 
 39 H       -5.3270    -5.6430    -1.4780 H     1 <1>   0.0800 
 40 H       -7.2560    -5.1150    -2.9200 H     1 <1>   0.0800 
 41 H       -6.0400    -3.8780    -2.9770 H     1 <1>   0.0800 
 42 H       -8.3070    -2.8710    -2.7760 H     1 <1>   0.0800 
 43 H       -8.6010    -3.8100    -1.3480 H     1 <1>   0.0800 
 44 H       -6.5160    -1.3690    -2.9150 H     1 <1>   0.0800 
 45 H       -5.2360    -1.5290    -1.7490 H     1 <1>   0.0800 
 46 H       -6.6220     0.8280    -2.2870 H     1 <1>   0.0800 
 47 H       -5.8270     0.5220    -0.7470 H     1 <1>   0.0800 
 48 H       -8.5250     2.0690    -0.4670 H     1 <1>   0.1500 
 49 H      -10.7080    -2.7930     1.9370 H     1 <1>   0.1500 
 50 H      -12.4420     0.8580     0.5880 H     1 <1>   0.1500 
 51 H      -12.7960    -3.3640     3.0660 H     1 <1>   0.1500 
 52 H      -14.5260     0.2840     1.7200 H     1 <1>   0.1500 
 53 H      -14.7180    -1.8310     2.9660 H     1 <1>   0.1500 
@<TRIPOS>BOND
  1   1   2  2   
  2   2   3  am  
  3   2   4  am  
  4   3   5  am  
  5   3   6  1   
  6   4   7  1   
  7   4  31  1   
  8   5   7  1   
  9   5   8  2   
 10   6   9  1   
 11   6  32  1   
 12   6  33  1   
 13   7  34  1   
 14   7  35  1   
 15   9  10  2   
 16   9  11  am  
 17  11  12  1   
 18  11  13  1   
 19  12  14  1   
 20  12  36  1   
 21  12  37  1   
 22  13  15  1   
 23  13  38  1   
 24  13  39  1   
 25  14  16  1   
 26  14  17  1   
 27  14  18  1   
 28  15  17  1   
 29  15  40  1   
 30  15  41  1   
 31  16  19  ar  
 32  16  20  ar  
 33  17  42  1   
 34  17  43  1   
 35  18  21  1   
 36  18  44  1   
 37  18  45  1   
 38  19  22  ar  
 39  20  21  1   
 40  20  23  ar  
 41  21  46  1   
 42  21  47  1   
 43  22  24  ar  
 44  22  25  1   
 45  23  24  ar  
 46  23  48  1   
 47  25  26  ar  
 48  25  27  ar  
 49  26  28  ar  
 50  26  49  1   
 51  27  29  ar  
 52  27  50  1   
 53  28  30  ar  
 54  28  51  1   
 55  29  30  ar  
 56  29  52  1   
 57  30  53  1   
@<TRIPOS>SUBSTRUCTURE
  1 ****  12 GROUP 4 **** **** 0

# MOE 2024.06 (io_trps.svl 2023.06)
