@<TRIPOS>MOLECULE
NONAME
51 54 1 0 0 
SMALL
USER_CHARGES


@<TRIPOS>ATOM
  1 O        0.2440    -1.1490    -1.3030 O.2   1 <1>  -0.5700 
  2 C        0.9670    -1.9370    -0.7530 C.2   1 <1>   0.5690 
  3 N        0.4920    -2.8330     0.1370 N.am  1 <1>  -0.7300 
  4 C        2.4530    -1.9510    -1.0320 C.3   1 <1>  -0.0990 
  5 C        1.3420    -3.7860     0.8740 C.3   1 <1>   0.1400 
  6 C        2.9650    -3.4000    -1.1550 C.3   1 <1>  -0.0800 
  7 C        2.4320    -4.3580    -0.0590 C.3   1 <1>  -0.0800 
  8 C        4.4970    -3.4930    -1.1220 C.3   1 <1>  -0.1600 
  9 C        3.6700    -4.8600     0.6970 C.3   1 <1>  -0.1600 
 10 C        4.7950    -4.7600    -0.3300 C.3   1 <1>   0.4230 
 11 N        6.1830    -4.8290     0.2230 N.4   1 <1>  -0.9590 
 12 C        6.5150    -4.0260     1.4490 C.3   1 <1>   0.4860 
 13 C        6.5790    -6.2550     0.4220 C.3   1 <1>   0.2630 
 14 C        6.7590    -2.5740     1.0740 C.ar  1 <1>  -0.1440 
 15 C        7.8210    -2.2830     0.1730 C.ar  1 <1>   0.0000 
 16 C        5.9520    -1.5690     1.5640 C.ar  1 <1>  -0.1440 
 17 C        7.9380    -0.9660    -0.3250 C.ar  1 <1>   0.0000 
 18 C        8.7880    -3.2260    -0.2610 C.ar  1 <1>  -0.1500 
 19 C        6.1220    -0.2610     1.0950 C.ar  1 <1>  -0.1500 
 20 C        4.8430    -1.7580     2.5940 C.3   1 <1>  -0.0970 
 21 C        7.0770     0.0280     0.1660 C.ar  1 <1>  -0.1500 
 22 C        8.9210    -0.6720    -1.2920 C.ar  1 <1>  -0.1500 
 23 C        9.7400    -2.9110    -1.1900 C.ar  1 <1>  -0.1500 
 24 C        9.8000    -1.6220    -1.7230 C.ar  1 <1>  -0.1500 
 25 H       -0.5090    -2.7950     0.3460 H     1 <1>   0.3700 
 26 H        2.6490    -1.4090    -1.9400 H     1 <1>   0.0800 
 27 H        2.9400    -1.4380    -0.2240 H     1 <1>   0.0800 
 28 H        1.7870    -3.2610     1.7020 H     1 <1>   0.0800 
 29 H        0.7350    -4.5850     1.2660 H     1 <1>   0.0800 
 30 H        2.6180    -3.7780    -2.1040 H     1 <1>   0.0800 
 31 H        1.9950    -5.2020    -0.5670 H     1 <1>   0.0800 
 32 H        4.8920    -2.6220    -0.6410 H     1 <1>   0.0800 
 33 H        4.8990    -3.5520    -2.1190 H     1 <1>   0.0800 
 34 H        3.5300    -5.8690     1.0410 H     1 <1>   0.0800 
 35 H        3.8490    -4.2120     1.5310 H     1 <1>   0.0800 
 36 H        4.6640    -5.5790    -1.0200 H     1 <1>   0.0800 
 37 H        6.7820    -4.4180    -0.5100 H     1 <1>   0.4500 
 38 H        5.7320    -4.1160     2.1790 H     1 <1>   0.0800 
 39 H        7.4180    -4.4040     1.8980 H     1 <1>   0.0800 
 40 H        5.9690    -6.7100     1.1860 H     1 <1>   0.0800 
 41 H        7.6130    -6.3220     0.7200 H     1 <1>   0.0800 
 42 H        6.4520    -6.8100    -0.4940 H     1 <1>   0.0800 
 43 H        8.8060    -4.2150     0.1510 H     1 <1>   0.1500 
 44 H        5.4860     0.5260     1.4670 H     1 <1>   0.1500 
 45 H        4.7890    -0.8940     3.2340 H     1 <1>   0.0800 
 46 H        5.0140    -2.6040     3.2310 H     1 <1>   0.0800 
 47 H        3.8940    -1.8630     2.1010 H     1 <1>   0.0800 
 48 H        7.1900     1.0340    -0.2000 H     1 <1>   0.1500 
 49 H        8.9720     0.3290    -1.6840 H     1 <1>   0.1500 
 50 H       10.4650    -3.6370    -1.5190 H     1 <1>   0.1500 
 51 H       10.5500    -1.3900    -2.4610 H     1 <1>   0.1500 
@<TRIPOS>BOND
  1   1   2  2   
  2   2   3  am  
  3   2   4  1   
  4   3   5  1   
  5   3  25  1   
  6   4   6  1   
  7   4  26  1   
  8   4  27  1   
  9   5   7  1   
 10   5  28  1   
 11   5  29  1   
 12   6   7  1   
 13   6   8  1   
 14   6  30  1   
 15   7   9  1   
 16   7  31  1   
 17   8  10  1   
 18   8  32  1   
 19   8  33  1   
 20   9  10  1   
 21   9  34  1   
 22   9  35  1   
 23  10  11  1   
 24  10  36  1   
 25  11  12  1   
 26  11  13  1   
 27  11  37  1   
 28  12  14  1   
 29  12  38  1   
 30  12  39  1   
 31  13  40  1   
 32  13  41  1   
 33  13  42  1   
 34  14  15  ar  
 35  14  16  ar  
 36  15  17  ar  
 37  15  18  ar  
 38  16  19  ar  
 39  16  20  1   
 40  17  21  ar  
 41  17  22  ar  
 42  18  23  ar  
 43  18  43  1   
 44  19  21  ar  
 45  19  44  1   
 46  20  45  1   
 47  20  46  1   
 48  20  47  1   
 49  21  48  1   
 50  22  24  ar  
 51  22  49  1   
 52  23  24  ar  
 53  23  50  1   
 54  24  51  1   
@<TRIPOS>SUBSTRUCTURE
  1 ****   8 GROUP 4 **** **** 0

# MOE 2024.06 (io_trps.svl 2023.06)
