@<TRIPOS>MOLECULE
NONAME
40 41 1 0 0 
SMALL
USER_CHARGES


@<TRIPOS>ATOM
  1 S        0.2900     0.1530    -0.6690 S.o2  1 <1>   1.3330 
  2 O       -0.8270    -0.0190    -1.5710 O.2   1 <1>  -0.6500 
  3 O        1.6210     0.3100    -1.2090 O.2   1 <1>  -0.6500 
  4 N        0.3220    -1.1830     0.3790 N.am  1 <1>  -0.8490 
  5 C       -0.0940     1.5140     0.4270 C.3   1 <1>  -0.0550 
  6 C        0.0440    -2.4400    -0.3210 C.3   1 <1>   0.1160 
  7 C        1.5750    -1.2990     1.1330 C.3   1 <1>   0.1160 
  8 C       -0.1790     2.8730    -0.2940 C.3   1 <1>  -0.0800 
  9 C       -0.7120     4.0080     0.5840 C.3   1 <1>   0.2000 
 10 C        1.1810     3.3840    -0.7990 C.3   1 <1>   0.2090 
 11 O       -0.1020     3.9240     1.8300 O.3   1 <1>  -0.6800 
 12 C       -0.1770     5.2550    -0.1090 C.3   1 <1>   0.2090 
 13 N        1.1860     4.8450    -0.5200 N.pl3 1 <1>  -0.8380 
 14 C        2.2150     5.4680     0.1520 C.ar  1 <1>   0.4100 
 15 N        2.7540     4.7530     1.1430 N.ar  1 <1>  -0.6200 
 16 C        2.6110     6.7710    -0.1750 C.ar  1 <1>  -0.1790 
 17 C        3.7560     5.3190     1.7880 C.ar  1 <1>   0.1600 
 18 C        1.9390     7.5390    -1.1920 C.2   1 <1>   0.9790 
 19 C        3.6770     7.3240     0.5190 C.ar  1 <1>  -0.1500 
 20 C        4.2570     6.5790     1.5180 C.ar  1 <1>  -0.1500 
 21 O        2.5680     7.9320    -2.1930 O.co2 1 <1>  -0.9000 
 22 O        0.7640     7.9300    -1.0380 O.co2 1 <1>  -0.9000 
 23 H       -1.0370     1.3190     0.9000 H     1 <1>   0.0800 
 24 H        0.6480     1.5730     1.1990 H     1 <1>   0.0800 
 25 H        0.0550    -3.2630     0.3720 H     1 <1>   0.0800 
 26 H        0.7800    -2.6110    -1.0900 H     1 <1>   0.0800 
 27 H       -0.9310    -2.3990    -0.7780 H     1 <1>   0.0800 
 28 H        1.5080    -2.1100     1.8380 H     1 <1>   0.0800 
 29 H        1.7680    -0.3920     1.6790 H     1 <1>   0.0800 
 30 H        2.4020    -1.4820     0.4660 H     1 <1>   0.0800 
 31 H       -0.8300     2.7790    -1.1450 H     1 <1>   0.0800 
 32 H       -1.7800     4.0060     0.7100 H     1 <1>   0.0800 
 33 H        1.2850     3.2170    -1.8570 H     1 <1>   0.0800 
 34 H        1.9980     2.8970    -0.2950 H     1 <1>   0.0800 
 35 H        0.8380     4.2180     1.6910 H     1 <1>   0.4000 
 36 H       -0.1670     6.1080     0.5490 H     1 <1>   0.0800 
 37 H       -0.7520     5.4970    -0.9860 H     1 <1>   0.0800 
 38 H        4.2070     4.7470     2.5780 H     1 <1>   0.1500 
 39 H        4.0210     8.3120     0.2670 H     1 <1>   0.1500 
 40 H        5.0830     6.9710     2.0810 H     1 <1>   0.1500 
@<TRIPOS>BOND
  1   1   2  2   
  2   1   3  2   
  3   1   4  am  
  4   1   5  1   
  5   4   6  1   
  6   4   7  1   
  7   5   8  1   
  8   5  23  1   
  9   5  24  1   
 10   6  25  1   
 11   6  26  1   
 12   6  27  1   
 13   7  28  1   
 14   7  29  1   
 15   7  30  1   
 16   8   9  1   
 17   8  10  1   
 18   8  31  1   
 19   9  11  1   
 20   9  12  1   
 21   9  32  1   
 22  10  13  1   
 23  10  33  1   
 24  10  34  1   
 25  11  35  1   
 26  12  13  1   
 27  12  36  1   
 28  12  37  1   
 29  13  14  1   
 30  14  15  ar  
 31  14  16  ar  
 32  15  17  ar  
 33  16  18  1   
 34  16  19  ar  
 35  17  20  ar  
 36  17  38  1   
 37  18  21  ar  
 38  18  22  ar  
 39  19  20  ar  
 40  19  39  1   
 41  20  40  1   
@<TRIPOS>SUBSTRUCTURE
  1 ****  10 GROUP 4 **** **** 0

# MOE 2024.06 (io_trps.svl 2023.06)
