@<TRIPOS>MOLECULE
NONAME
47 48 1 0 0 
SMALL
USER_CHARGES


@<TRIPOS>ATOM
  1 O        2.0510     0.0810    -2.3940 O.2   1 <1>  -0.5700 
  2 C        1.6380    -0.4980    -1.4160 C.2   1 <1>   0.5690 
  3 N        1.5390     0.0750    -0.1820 N.am  1 <1>  -0.5470 
  4 C        1.1900    -1.9550    -1.5380 C.3   1 <1>   0.1710 
  5 C        1.8560     1.3700     0.2750 C.ar  1 <1>   0.1170 
  6 N        0.1730    -2.3680    -0.5160 N.3   1 <1>  -0.8100 
  7 C        3.0340     2.0530    -0.0760 C.ar  1 <1>   0.1170 
  8 C        0.9590     1.9830     1.1410 C.ar  1 <1>  -0.1500 
  9 C        0.0970    -3.8400    -0.4440 C.3   1 <1>   0.1100 
 10 C       -1.1390    -1.7760    -0.8440 C.3   1 <1>   0.0300 
 11 N        3.9860     1.4640    -0.9250 N.am  1 <1>  -0.5470 
 12 C        3.2530     3.3310     0.4220 C.ar  1 <1>  -0.1500 
 13 C        1.1980     3.2500     1.6420 C.ar  1 <1>  -0.1500 
 14 C       -0.5840    -4.3010     0.8480 C.3   1 <1>   0.0960 
 15 C        5.3070     1.2120    -0.7460 C.2   1 <1>   0.5690 
 16 C        2.3460     3.9280     1.2790 C.ar  1 <1>  -0.1500 
 17 N       -0.5860    -5.7750     0.9040 N.pl3 1 <1>   0.0480 
 18 O        5.9330     0.6090    -1.5780 O.2   1 <1>  -0.5700 
 19 C        6.0170     1.6570     0.5110 C.3   1 <1>  -0.1790 
 20 C       -1.5160    -6.6450     0.4390 C.2   1 <1>   0.0060 
 21 C        0.3830    -6.5530     1.4180 C.2   1 <1>  -0.3020 
 22 N       -1.2030    -7.8850     0.6210 N.2   1 <1>  -0.5650 
 23 C       -2.8060    -6.2210    -0.2340 C.3   1 <1>  -0.0600 
 24 C       -0.0090    -7.8320     1.2380 C.2   1 <1>   0.0770 
 25 H        1.0470    -0.5370     0.4760 H     1 <1>   0.3700 
 26 H        2.0750    -2.5560    -1.4280 H     1 <1>   0.0800 
 27 H        0.8050    -2.1190    -2.5300 H     1 <1>   0.0800 
 28 H        0.0590     1.4680     1.4240 H     1 <1>   0.1500 
 29 H        1.0940    -4.2480    -0.4490 H     1 <1>   0.0800 
 30 H       -0.4290    -4.2260    -1.3020 H     1 <1>   0.0800 
 31 H       -1.0590    -0.7050    -0.9250 H     1 <1>   0.0800 
 32 H       -1.8550    -1.9930    -0.0710 H     1 <1>   0.0800 
 33 H       -1.5060    -2.1630    -1.7800 H     1 <1>   0.0800 
 34 H        3.5810     0.9900    -1.7440 H     1 <1>   0.3700 
 35 H        4.1390     3.8670     0.1330 H     1 <1>   0.1500 
 36 H        0.4890     3.7100     2.3100 H     1 <1>   0.1500 
 37 H       -1.5980    -3.9530     0.8920 H     1 <1>   0.0800 
 38 H       -0.0450    -3.9240     1.6970 H     1 <1>   0.0800 
 39 H        2.5320     4.9170     1.6590 H     1 <1>   0.1500 
 40 H        5.3940     1.4930     1.3690 H     1 <1>   0.0800 
 41 H        6.2640     2.6980     0.4350 H     1 <1>   0.0800 
 42 H        6.9240     1.0930     0.6300 H     1 <1>   0.0800 
 43 H        1.2780    -6.1700     1.8740 H     1 <1>   0.1500 
 44 H       -2.5950    -5.6430    -1.1140 H     1 <1>   0.0800 
 45 H       -3.4040    -5.6420     0.4440 H     1 <1>   0.0800 
 46 H       -3.3660    -7.0930    -0.5240 H     1 <1>   0.0800 
 47 H        0.5100    -8.7310     1.5240 H     1 <1>   0.1500 
@<TRIPOS>BOND
  1   1   2  2   
  2   2   3  am  
  3   2   4  1   
  4   3   5  1   
  5   3  25  1   
  6   4   6  1   
  7   4  26  1   
  8   4  27  1   
  9   5   7  ar  
 10   5   8  ar  
 11   6   9  1   
 12   6  10  1   
 13   7  11  1   
 14   7  12  ar  
 15   8  13  ar  
 16   8  28  1   
 17   9  14  1   
 18   9  29  1   
 19   9  30  1   
 20  10  31  1   
 21  10  32  1   
 22  10  33  1   
 23  11  15  am  
 24  11  34  1   
 25  12  16  ar  
 26  12  35  1   
 27  13  16  ar  
 28  13  36  1   
 29  14  17  1   
 30  14  37  1   
 31  14  38  1   
 32  15  18  2   
 33  15  19  1   
 34  16  39  1   
 35  17  20  1   
 36  17  21  1   
 37  19  40  1   
 38  19  41  1   
 39  19  42  1   
 40  20  22  2   
 41  20  23  1   
 42  21  24  2   
 43  21  43  1   
 44  22  24  1   
 45  23  44  1   
 46  23  45  1   
 47  23  46  1   
 48  24  47  1   
@<TRIPOS>SUBSTRUCTURE
  1 ****   3 GROUP 4 **** **** 0

# MOE 2024.06 (io_trps.svl 2023.06)
