@<TRIPOS>MOLECULE
NONAME
57 60 1 0 0 
SMALL
USER_CHARGES


@<TRIPOS>ATOM
  1 S       -1.3130     0.7040     0.8230 S.3   1 <1>  -0.4600 
  2 C       -2.0390     1.6060    -0.5520 C.3   1 <1>   0.0700 
  3 C        0.4200     1.1650     0.6950 C.3   1 <1>   0.0700 
  4 C       -1.7540     3.0910    -0.3220 C.3   1 <1>  -0.1600 
  5 C        0.5060     2.6890     0.8080 C.3   1 <1>  -0.1600 
  6 C       -0.2490     3.4380    -0.3140 C.3   1 <1>   0.4230 
  7 N       -0.1100     4.9320    -0.1670 N.4   1 <1>  -0.9590 
  8 C       -0.5760     5.6560    -1.3980 C.3   1 <1>   0.3430 
  9 C        1.2650     5.4030     0.2120 C.3   1 <1>   0.3430 
 10 C       -0.6150     7.1590    -1.1520 C.3   1 <1>  -0.1600 
 11 C        1.2600     6.9010     0.4830 C.3   1 <1>  -0.1600 
 12 C        0.7610     7.6590    -0.7390 C.3   1 <1>   0.2890 
 13 N        0.6590     9.0780    -0.4040 N.pl3 1 <1>  -0.8690 
 14 C        1.7280     9.9450    -0.3630 C.ar  1 <1>   0.4100 
 15 N        2.8360     9.5310    -0.9760 N.ar  1 <1>  -0.6200 
 16 C        1.6120    11.1760     0.3100 C.ar  1 <1>   0.0860 
 17 C        3.8710    10.3450    -0.9280 C.ar  1 <1>   0.1600 
 18 C        0.3710    11.5590     0.9440 C.2   1 <1>   0.5440 
 19 C        2.7310    11.9970     0.3500 C.ar  1 <1>  -0.1500 
 20 C        3.8750    11.5700    -0.2850 C.ar  1 <1>  -0.1500 
 21 O       -0.2240    10.7660     1.6570 O.2   1 <1>  -0.5700 
 22 N       -0.1810    12.8080     0.7580 N.am  1 <1>  -0.6600 
 23 C       -1.4310    13.2260     1.4340 C.3   1 <1>   0.1400 
 24 C        0.1170    13.6950    -0.3890 C.3   1 <1>   0.1400 
 25 C       -1.8050    14.5540     0.7860 C.3   1 <1>  -0.1600 
 26 C       -1.1570    14.5060    -0.5940 C.3   1 <1>  -0.1600 
 27 H       -3.0950     1.3960    -0.5420 H     1 <1>   0.0800 
 28 H       -1.5990     1.2320    -1.4600 H     1 <1>   0.0800 
 29 H        0.7870     0.7980    -0.2480 H     1 <1>   0.0800 
 30 H        0.9350     0.6750     1.5040 H     1 <1>   0.0800 
 31 H       -2.2000     3.3770     0.6140 H     1 <1>   0.0800 
 32 H       -2.2640     3.6140    -1.1080 H     1 <1>   0.0800 
 33 H        1.5550     2.9150     0.7710 H     1 <1>   0.0800 
 34 H        0.1240     2.9810     1.7710 H     1 <1>   0.0800 
 35 H        0.1780     3.1380    -1.2570 H     1 <1>   0.0800 
 36 H       -0.7330     5.2040     0.6040 H     1 <1>   0.4500 
 37 H       -1.5640     5.3350    -1.6790 H     1 <1>   0.0800 
 38 H        0.0910     5.4450    -2.2180 H     1 <1>   0.0800 
 39 H        1.9620     5.1820    -0.5810 H     1 <1>   0.0800 
 40 H        1.6000     4.9050     1.1070 H     1 <1>   0.0800 
 41 H       -1.3430     7.3850    -0.3930 H     1 <1>   0.0800 
 42 H       -0.9090     7.6570    -2.0590 H     1 <1>   0.0800 
 43 H        2.2640     7.2180     0.7050 H     1 <1>   0.0800 
 44 H        0.6450     7.1160     1.3390 H     1 <1>   0.0800 
 45 H        1.4480     7.5290    -1.5610 H     1 <1>   0.0800 
 46 H       -0.0750     9.3190     0.2820 H     1 <1>   0.4000 
 47 H        4.7710    10.0230    -1.4250 H     1 <1>   0.1500 
 48 H        2.7000    12.9380     0.8690 H     1 <1>   0.1500 
 49 H        4.7650    12.1750    -0.2840 H     1 <1>   0.1500 
 50 H       -1.2730    13.3270     2.4940 H     1 <1>   0.0800 
 51 H       -2.1940    12.4880     1.2530 H     1 <1>   0.0800 
 52 H        0.3680    13.1290    -1.2710 H     1 <1>   0.0800 
 53 H        0.9320    14.3480    -0.1280 H     1 <1>   0.0800 
 54 H       -1.3800    15.3560     1.3640 H     1 <1>   0.0800 
 55 H       -2.8710    14.6860     0.7360 H     1 <1>   0.0800 
 56 H       -1.7990    13.9810    -1.2800 H     1 <1>   0.0800 
 57 H       -0.9510    15.4860    -0.9870 H     1 <1>   0.0800 
@<TRIPOS>BOND
  1   1   2  1   
  2   1   3  1   
  3   2   4  1   
  4   2  27  1   
  5   2  28  1   
  6   3   5  1   
  7   3  29  1   
  8   3  30  1   
  9   4   6  1   
 10   4  31  1   
 11   4  32  1   
 12   5   6  1   
 13   5  33  1   
 14   5  34  1   
 15   6   7  1   
 16   6  35  1   
 17   7   8  1   
 18   7   9  1   
 19   7  36  1   
 20   8  10  1   
 21   8  37  1   
 22   8  38  1   
 23   9  11  1   
 24   9  39  1   
 25   9  40  1   
 26  10  12  1   
 27  10  41  1   
 28  10  42  1   
 29  11  12  1   
 30  11  43  1   
 31  11  44  1   
 32  12  13  1   
 33  12  45  1   
 34  13  14  1   
 35  13  46  1   
 36  14  15  ar  
 37  14  16  ar  
 38  15  17  ar  
 39  16  18  1   
 40  16  19  ar  
 41  17  20  ar  
 42  17  47  1   
 43  18  21  2   
 44  18  22  am  
 45  19  20  ar  
 46  19  48  1   
 47  20  49  1   
 48  22  23  1   
 49  22  24  1   
 50  23  25  1   
 51  23  50  1   
 52  23  51  1   
 53  24  26  1   
 54  24  52  1   
 55  24  53  1   
 56  25  26  1   
 57  25  54  1   
 58  25  55  1   
 59  26  56  1   
 60  26  57  1   
@<TRIPOS>SUBSTRUCTURE
  1 ****  13 GROUP 4 **** **** 0

# MOE 2024.06 (io_trps.svl 2023.06)
