@<TRIPOS>MOLECULE
NONAME
59 62 1 0 0 
SMALL
USER_CHARGES


@<TRIPOS>ATOM
  1 O        0.4310    -3.4010     1.0380 O.2   1 <1>  -0.5700 
  2 C        1.2430    -2.6360     0.5380 C.2   1 <1>   0.5440 
  3 N        1.6600    -2.9260    -0.7370 N.am  1 <1>  -0.6600 
  4 C        1.8030    -1.5210     1.2880 C.ar  1 <1>   0.0860 
  5 C        2.9430    -3.6240    -0.9360 C.3   1 <1>   0.1400 
  6 C        0.6980    -3.1800    -1.8300 C.3   1 <1>   0.1400 
  7 C        1.5930    -1.3940     2.6620 C.ar  1 <1>  -0.1500 
  8 C        2.5730    -0.5320     0.6720 C.ar  1 <1>  -0.1500 
  9 C        2.6760    -5.1170    -0.7560 C.3   1 <1>  -0.1600 
 10 C        0.3030    -4.6560    -1.8220 C.3   1 <1>  -0.1600 
 11 C        2.1320    -0.3460     3.3860 C.ar  1 <1>  -0.1500 
 12 C        3.1150     0.5170     1.3910 C.ar  1 <1>  -0.1500 
 13 C        1.4830    -5.6270    -1.5930 C.3   1 <1>   0.2890 
 14 C        2.9010     0.6150     2.7550 C.ar  1 <1>  -0.1440 
 15 N        0.9700    -6.8650    -0.9670 N.pl3 1 <1>  -0.8690 
 16 C        3.4930     1.7680     3.5460 C.3   1 <1>  -0.0970 
 17 C        0.3710    -7.0950     0.2110 C.ar  1 <1>   0.7710 
 18 N        0.0830    -8.3550     0.4650 N.ar  1 <1>  -0.6200 
 19 N        0.0880    -6.0970     1.0700 N.ar  1 <1>  -0.1790 
 20 C       -0.5190    -8.6380     1.6070 C.ar  1 <1>   0.4100 
 21 C       -0.5090    -6.3430     2.2550 C.ar  1 <1>   0.2110 
 22 N       -0.8380    -9.9390     1.8480 N.pl3 1 <1>  -0.8380 
 23 C       -0.8190    -7.6290     2.5440 C.ar  1 <1>  -0.1500 
 24 C       -2.0400   -10.3800     2.6170 C.3   1 <1>   0.2090 
 25 C       -0.0810   -11.0720     1.2310 C.3   1 <1>   0.2090 
 26 C       -2.9800   -11.1500     1.6870 C.3   1 <1>  -0.1600 
 27 C       -0.9970   -11.8350     0.2760 C.3   1 <1>  -0.1600 
 28 C       -2.2460   -12.3090     1.0160 C.3   1 <1>   0.2000 
 29 O       -3.0960   -12.8960     0.1070 O.3   1 <1>  -0.6800 
 30 H        3.6700    -3.2840    -0.2170 H     1 <1>   0.0800 
 31 H        3.3200    -3.4190    -1.9250 H     1 <1>   0.0800 
 32 H        1.1550    -2.9200    -2.7700 H     1 <1>   0.0800 
 33 H       -0.1750    -2.5600    -1.7000 H     1 <1>   0.0800 
 34 H        0.9960    -2.1270     3.1760 H     1 <1>   0.1500 
 35 H        2.7520    -0.5790    -0.3870 H     1 <1>   0.1500 
 36 H        2.5230    -5.2900     0.2920 H     1 <1>   0.0800 
 37 H        3.5590    -5.6620    -1.0390 H     1 <1>   0.0800 
 38 H       -0.1550    -4.8880    -2.7670 H     1 <1>   0.0800 
 39 H       -0.4630    -4.7730    -1.0830 H     1 <1>   0.0800 
 40 H        1.9500    -0.2790     4.4450 H     1 <1>   0.1500 
 41 H        3.7050     1.2620     0.8840 H     1 <1>   0.1500 
 42 H        1.8730    -5.8750    -2.5670 H     1 <1>   0.0800 
 43 H        1.1200    -7.7120    -1.5240 H     1 <1>   0.4000 
 44 H        3.7060     1.4620     4.5550 H     1 <1>   0.0800 
 45 H        2.7980     2.5870     3.5710 H     1 <1>   0.0800 
 46 H        4.4100     2.1030     3.0950 H     1 <1>   0.0800 
 47 H        0.3310    -5.1330     0.7950 H     1 <1>   0.4570 
 48 H       -0.7100    -5.5160     2.9190 H     1 <1>   0.1500 
 49 H       -1.2760    -7.8940     3.4780 H     1 <1>   0.1500 
 50 H       -2.5730    -9.5410     3.0250 H     1 <1>   0.0800 
 51 H       -1.7290   -11.0130     3.4320 H     1 <1>   0.0800 
 52 H        0.2630   -11.7310     2.0110 H     1 <1>   0.0800 
 53 H        0.7860   -10.7180     0.7000 H     1 <1>   0.0800 
 54 H       -3.3580   -10.4690     0.9450 H     1 <1>   0.0800 
 55 H       -3.8070   -11.5320     2.2580 H     1 <1>   0.0800 
 56 H       -0.4680   -12.6830    -0.1190 H     1 <1>   0.0800 
 57 H       -1.2620   -11.1820    -0.5360 H     1 <1>   0.0800 
 58 H       -1.9840   -13.0560     1.7470 H     1 <1>   0.0800 
 59 H       -3.3310   -12.2580    -0.5920 H     1 <1>   0.4000 
@<TRIPOS>BOND
  1   1   2  2   
  2   2   3  am  
  3   2   4  1   
  4   3   5  1   
  5   3   6  1   
  6   4   7  ar  
  7   4   8  ar  
  8   5   9  1   
  9   5  30  1   
 10   5  31  1   
 11   6  10  1   
 12   6  32  1   
 13   6  33  1   
 14   7  11  ar  
 15   7  34  1   
 16   8  12  ar  
 17   8  35  1   
 18   9  13  1   
 19   9  36  1   
 20   9  37  1   
 21  10  13  1   
 22  10  38  1   
 23  10  39  1   
 24  11  14  ar  
 25  11  40  1   
 26  12  14  ar  
 27  12  41  1   
 28  13  15  1   
 29  13  42  1   
 30  14  16  1   
 31  15  17  1   
 32  15  43  1   
 33  16  44  1   
 34  16  45  1   
 35  16  46  1   
 36  17  18  ar  
 37  17  19  ar  
 38  18  20  ar  
 39  19  21  ar  
 40  19  47  1   
 41  20  22  1   
 42  20  23  ar  
 43  21  23  ar  
 44  21  48  1   
 45  22  24  1   
 46  22  25  1   
 47  23  49  1   
 48  24  26  1   
 49  24  50  1   
 50  24  51  1   
 51  25  27  1   
 52  25  52  1   
 53  25  53  1   
 54  26  28  1   
 55  26  54  1   
 56  26  55  1   
 57  27  28  1   
 58  27  56  1   
 59  27  57  1   
 60  28  29  1   
 61  28  58  1   
 62  29  59  1   
@<TRIPOS>SUBSTRUCTURE
  1 ****  19 GROUP 4 **** **** 0

# MOE 2024.06 (io_trps.svl 2023.06)
