@<TRIPOS>MOLECULE
NONAME
47 48 1 0 0 
SMALL
USER_CHARGES


@<TRIPOS>ATOM
  1 O       -0.8730     0.4430    -1.5610 O.2   1 <1>  -0.5700 
  2 C       -1.7940     1.0020    -0.9960 C.2   1 <1>   0.6160 
  3 N       -2.9290     0.2730    -0.6950 N.am  1 <1>  -0.6600 
  4 C       -1.6640     2.3990    -0.6750 C.2   1 <1>  -0.1360 
  5 C       -3.1890    -1.0470    -1.3510 C.3   1 <1>   0.1400 
  6 C       -3.9830     0.6990     0.2640 C.3   1 <1>   0.1400 
  7 C       -0.5150     3.1140    -0.6220 C.2   1 <1>  -0.1780 
  8 C       -3.4030    -2.2110    -0.3520 C.3   1 <1>   0.0000 
  9 C       -4.1560    -0.3640     1.3470 C.3   1 <1>  -0.1600 
 10 C       -0.3280     4.5110    -0.3140 C.ar  1 <1>   0.0280 
 11 C       -4.4100    -1.7470     0.7390 C.3   1 <1>   0.2000 
 12 C       -4.1060    -3.3620    -1.1190 C.3   1 <1>   0.1200 
 13 C       -2.0430    -2.7710     0.1850 C.3   1 <1>  -0.1600 
 14 C        0.9610     5.0140    -0.1460 C.ar  1 <1>  -0.1500 
 15 C       -1.3890     5.4070    -0.1750 C.ar  1 <1>  -0.1500 
 16 O       -4.4630    -2.6660     1.7700 O.3   1 <1>  -0.6800 
 17 O       -3.3280    -3.8520    -2.1650 O.3   1 <1>  -0.6800 
 18 C       -1.2450    -1.9470     1.2090 C.3   1 <1>  -0.1600 
 19 C        1.1850     6.3450     0.1530 C.ar  1 <1>  -0.1500 
 20 C       -1.1720     6.7390     0.1240 C.ar  1 <1>  -0.1500 
 21 C        0.1300    -2.5730     1.4570 C.3   1 <1>  -0.2400 
 22 C        0.1170     7.2130     0.2900 C.ar  1 <1>  -0.1500 
 23 H       -2.5920     2.8870    -0.4760 H     1 <1>   0.1500 
 24 H       -4.0730    -0.9330    -1.9540 H     1 <1>   0.0800 
 25 H       -2.3850    -1.2980    -2.0210 H     1 <1>   0.0800 
 26 H       -3.7270     1.6270     0.7410 H     1 <1>   0.0800 
 27 H       -4.9090     0.8350    -0.2690 H     1 <1>   0.0800 
 28 H        0.4030     2.5910    -0.8320 H     1 <1>   0.1500 
 29 H       -4.9970    -0.0940     1.9600 H     1 <1>   0.0800 
 30 H       -3.2860    -0.3560     1.9720 H     1 <1>   0.0800 
 31 H       -5.3960    -1.7210     0.3060 H     1 <1>   0.0800 
 32 H       -5.0430    -3.0340    -1.5350 H     1 <1>   0.0800 
 33 H       -4.3050    -4.1860    -0.4550 H     1 <1>   0.0800 
 34 H       -2.2180    -3.7410     0.6170 H     1 <1>   0.0800 
 35 H       -1.4000    -2.9360    -0.6630 H     1 <1>   0.0800 
 36 H        1.8030     4.3530    -0.2480 H     1 <1>   0.1500 
 37 H       -2.3980     5.0690    -0.3050 H     1 <1>   0.1500 
 38 H       -3.5590    -2.8240     2.1060 H     1 <1>   0.4000 
 39 H       -3.0900    -3.1490    -2.7990 H     1 <1>   0.4000 
 40 H       -1.1000    -0.9440     0.8520 H     1 <1>   0.0800 
 41 H       -1.7650    -1.9080     2.1470 H     1 <1>   0.0800 
 42 H        2.1910     6.7080     0.2800 H     1 <1>   0.1500 
 43 H       -2.0060     7.4120     0.2270 H     1 <1>   0.1500 
 44 H        0.7020    -2.5900     0.5450 H     1 <1>   0.0800 
 45 H        0.0280    -3.5800     1.8220 H     1 <1>   0.0800 
 46 H        0.6720    -1.9960     2.1850 H     1 <1>   0.0800 
 47 H        0.2880     8.2490     0.5230 H     1 <1>   0.1500 
@<TRIPOS>BOND
  1   1   2  2   
  2   2   3  am  
  3   2   4  1   
  4   3   5  1   
  5   3   6  1   
  6   4   7  2   
  7   4  23  1   
  8   5   8  1   
  9   5  24  1   
 10   5  25  1   
 11   6   9  1   
 12   6  26  1   
 13   6  27  1   
 14   7  10  1   
 15   7  28  1   
 16   8  11  1   
 17   8  12  1   
 18   8  13  1   
 19   9  11  1   
 20   9  29  1   
 21   9  30  1   
 22  10  14  ar  
 23  10  15  ar  
 24  11  16  1   
 25  11  31  1   
 26  12  17  1   
 27  12  32  1   
 28  12  33  1   
 29  13  18  1   
 30  13  34  1   
 31  13  35  1   
 32  14  19  ar  
 33  14  36  1   
 34  15  20  ar  
 35  15  37  1   
 36  16  38  1   
 37  17  39  1   
 38  18  21  1   
 39  18  40  1   
 40  18  41  1   
 41  19  22  ar  
 42  19  42  1   
 43  20  22  ar  
 44  20  43  1   
 45  21  44  1   
 46  21  45  1   
 47  21  46  1   
 48  22  47  1   
@<TRIPOS>SUBSTRUCTURE
  1 ****   2 GROUP 4 **** **** 0

# MOE 2024.06 (io_trps.svl 2023.06)
