@<TRIPOS>MOLECULE
NONAME
46 48 1 0 0 
SMALL
USER_CHARGES


@<TRIPOS>ATOM
  1 S        0.5150     0.3000     2.1230 S.3   1 <1>  -0.0800 
  2 C        0.8290    -1.0680     1.0430 C.2   1 <1>  -0.0450 
  3 C        0.9820     1.4520     0.8950 C.2   1 <1>  -0.1400 
  4 C        0.6200    -2.4160     1.5090 C.2   1 <1>   0.7150 
  5 C        1.2790    -0.5920    -0.1470 C.2   1 <1>  -0.1500 
  6 C        1.3620     0.8280    -0.2280 C.2   1 <1>  -0.1810 
  7 C        0.9390     2.9410     1.1560 C.3   1 <1>   0.0200 
  8 O        1.5360    -3.2150     1.4070 O.2   1 <1>  -0.5700 
  9 N       -0.5730    -2.8380     2.0590 N.am  1 <1>  -0.6600 
 10 C        1.8260     1.5930    -1.4540 C.3   1 <1>   0.0210 
 11 C        1.0970     3.6920    -0.1800 C.3   1 <1>  -0.1600 
 12 C       -0.7160    -4.2360     2.5710 C.3   1 <1>   0.3210 
 13 C       -1.8540    -2.0640     1.9570 C.3   1 <1>   0.1400 
 14 C        2.1750     3.0550    -1.0880 C.3   1 <1>  -0.0800 
 15 C       -1.4400    -5.1210     1.5590 C.2   1 <1>   0.0460 
 16 C       -2.2800    -1.7390     0.5110 C.3   1 <1>   0.1200 
 17 C        2.3790     3.8970    -2.3550 C.3   1 <1>  -0.2400 
 18 N       -2.7880    -5.1160     1.4700 N.2   1 <1>  -0.5650 
 19 C       -0.9050    -5.9660     0.6450 C.2   1 <1>  -0.3320 
 20 O       -2.1760    -2.8520    -0.3090 O.3   1 <1>  -0.6800 
 21 C       -3.0410    -5.9490     0.5140 C.2   1 <1>   0.0360 
 22 N       -1.9380    -6.5000    -0.0310 N.pl3 1 <1>   0.0330 
 23 C        0.5430    -6.3050     0.3310 C.3   1 <1>  -0.0600 
 24 H        1.5560    -1.2180    -0.9780 H     1 <1>   0.1500 
 25 H        1.7440     3.1980     1.8220 H     1 <1>   0.0800 
 26 H        0.0080     3.2100     1.6220 H     1 <1>   0.0800 
 27 H        1.0380     1.5710    -2.1860 H     1 <1>   0.0800 
 28 H        2.6910     1.1110    -1.8740 H     1 <1>   0.0800 
 29 H        1.3420     4.7200     0.0230 H     1 <1>   0.0800 
 30 H        0.1540     3.6740    -0.6980 H     1 <1>   0.0800 
 31 H       -1.2740    -4.2250     3.4900 H     1 <1>   0.0800 
 32 H        0.2480    -4.6580     2.7890 H     1 <1>   0.0800 
 33 H       -1.7650    -1.1490     2.5130 H     1 <1>   0.0800 
 34 H       -2.6480    -2.6230     2.4210 H     1 <1>   0.0800 
 35 H        3.1030     3.0440    -0.5400 H     1 <1>   0.0800 
 36 H       -1.6730    -0.9580     0.0900 H     1 <1>   0.0800 
 37 H       -3.3060    -1.4150     0.4990 H     1 <1>   0.0800 
 38 H        1.4690     3.9470    -2.9270 H     1 <1>   0.0800 
 39 H        3.1480     3.4640    -2.9700 H     1 <1>   0.0800 
 40 H        2.6770     4.8970    -2.0950 H     1 <1>   0.0800 
 41 H       -2.2750    -3.6740     0.2380 H     1 <1>   0.4000 
 42 H       -4.0310    -6.1930     0.1680 H     1 <1>   0.1500 
 43 H       -1.8980    -7.1700    -0.8030 H     1 <1>   0.2700 
 44 H        1.2080    -5.8110     1.0160 H     1 <1>   0.0800 
 45 H        0.7890    -5.9790    -0.6640 H     1 <1>   0.0800 
 46 H        0.7040    -7.3650     0.4060 H     1 <1>   0.0800 
@<TRIPOS>BOND
  1   1   2  1   
  2   1   3  1   
  3   2   4  1   
  4   2   5  2   
  5   3   6  2   
  6   3   7  1   
  7   4   8  2   
  8   4   9  am  
  9   5   6  1   
 10   5  24  1   
 11   6  10  1   
 12   7  11  1   
 13   7  25  1   
 14   7  26  1   
 15   9  12  1   
 16   9  13  1   
 17  10  14  1   
 18  10  27  1   
 19  10  28  1   
 20  11  14  1   
 21  11  29  1   
 22  11  30  1   
 23  12  15  1   
 24  12  31  1   
 25  12  32  1   
 26  13  16  1   
 27  13  33  1   
 28  13  34  1   
 29  14  17  1   
 30  14  35  1   
 31  15  18  1   
 32  15  19  2   
 33  16  20  1   
 34  16  36  1   
 35  16  37  1   
 36  17  38  1   
 37  17  39  1   
 38  17  40  1   
 39  18  21  2   
 40  19  22  1   
 41  19  23  1   
 42  20  41  1   
 43  21  22  1   
 44  21  42  1   
 45  22  43  1   
 46  23  44  1   
 47  23  45  1   
 48  23  46  1   
@<TRIPOS>SUBSTRUCTURE
  1 ****   2 GROUP 4 **** **** 0

# MOE 2024.06 (io_trps.svl 2023.06)
