@<TRIPOS>MOLECULE
NONAME
52 55 1 0 0 
SMALL
USER_CHARGES


@<TRIPOS>ATOM
  1 O       -3.2430     0.4660    -3.0020 O.2   1 <1>  -0.5700 
  2 C       -2.4580     0.7030    -2.1020 C.2   1 <1>   0.5440 
  3 N       -1.8560    -0.3560    -1.4910 N.am  1 <1>  -0.7300 
  4 C       -2.1710     2.0690    -1.7010 C.ar  1 <1>   0.0860 
  5 C       -2.0360    -1.7900    -1.8220 C.3   1 <1>   0.2200 
  6 C       -1.8310     2.4370    -0.3870 C.ar  1 <1>   0.0820 
  7 C       -2.2200     3.0850    -2.6560 C.ar  1 <1>  -0.1500 
  8 C       -3.0480    -2.4560    -0.8980 C.3   1 <1>  -0.0800 
  9 C       -0.7700    -2.5400    -1.4270 C.3   1 <1>   0.1200 
 10 O       -1.8270     1.5060     0.5930 O.3   1 <1>  -0.3630 
 11 C       -1.4920     3.7530    -0.0690 C.ar  1 <1>  -0.1440 
 12 C       -1.9160     4.3940    -2.3420 C.ar  1 <1>  -0.1500 
 13 C       -2.2110    -2.7060     0.3600 C.3   1 <1>   0.1200 
 14 C       -4.3470    -1.6570    -0.6670 C.3   1 <1>  -0.0170 
 15 O       -0.8760    -2.7680    -0.0520 O.3   1 <1>  -0.5600 
 16 C       -2.9850     1.4210     1.3960 C.3   1 <1>   0.0400 
 17 C       -1.5450     4.7250    -1.0520 C.ar  1 <1>  -0.1500 
 18 C       -1.0540     4.1590     1.3320 C.3   1 <1>  -0.0970 
 19 C       -5.3890    -2.2840     0.2650 C.ar  1 <1>  -0.1440 
 20 C       -6.4490    -1.4870     0.7660 C.ar  1 <1>   0.0000 
 21 C       -5.3620    -3.5950     0.6510 C.ar  1 <1>  -0.1500 
 22 C       -7.3590    -2.0870     1.6710 C.ar  1 <1>   0.3100 
 23 C       -6.6650    -0.1330     0.4160 C.ar  1 <1>  -0.1500 
 24 C       -6.3250    -4.0930     1.5360 C.ar  1 <1>   0.1600 
 25 N       -7.2830    -3.3880     2.0450 N.ar  1 <1>  -0.6200 
 26 C       -8.3970    -1.3100     2.2090 C.ar  1 <1>  -0.1500 
 27 C       -7.6910     0.5950     0.9540 C.ar  1 <1>  -0.1500 
 28 C       -8.5670     0.0040     1.8670 C.ar  1 <1>  -0.1500 
 29 H       -1.3130    -0.1700    -0.6400 H     1 <1>   0.3700 
 30 H       -2.2770    -1.9090    -2.8650 H     1 <1>   0.0800 
 31 H       -2.4990     2.8350    -3.6660 H     1 <1>   0.1500 
 32 H       -3.3020    -3.4080    -1.3300 H     1 <1>   0.0800 
 33 H        0.1260    -1.9830    -1.6350 H     1 <1>   0.0800 
 34 H       -0.7290    -3.4980    -1.9160 H     1 <1>   0.0800 
 35 H       -1.9620     5.1560    -3.1010 H     1 <1>   0.1500 
 36 H       -2.4670    -3.6280     0.8520 H     1 <1>   0.0800 
 37 H       -2.2980    -1.8880     1.0540 H     1 <1>   0.0800 
 38 H       -4.8100    -1.4670    -1.6210 H     1 <1>   0.0800 
 39 H       -4.0730    -0.7090    -0.2480 H     1 <1>   0.0800 
 40 H       -2.9190     0.5290     1.9920 H     1 <1>   0.0800 
 41 H       -3.8530     1.3790     0.7610 H     1 <1>   0.0800 
 42 H       -3.0360     2.2850     2.0330 H     1 <1>   0.0800 
 43 H       -1.2980     5.7470    -0.8210 H     1 <1>   0.1500 
 44 H       -0.4210     5.0270     1.2940 H     1 <1>   0.0800 
 45 H       -0.4990     3.3650     1.8000 H     1 <1>   0.0800 
 46 H       -1.9140     4.3880     1.9350 H     1 <1>   0.0800 
 47 H       -4.6210    -4.2870     0.3030 H     1 <1>   0.1500 
 48 H       -6.0180     0.3430    -0.2980 H     1 <1>   0.1500 
 49 H       -6.2610    -5.1310     1.8150 H     1 <1>   0.1500 
 50 H       -9.0620    -1.7890     2.9030 H     1 <1>   0.1500 
 51 H       -7.8410     1.6260     0.6790 H     1 <1>   0.1500 
 52 H       -9.3690     0.5870     2.2860 H     1 <1>   0.1500 
@<TRIPOS>BOND
  1   1   2  2   
  2   2   3  am  
  3   2   4  1   
  4   3   5  1   
  5   3  29  1   
  6   4   6  ar  
  7   4   7  ar  
  8   5   8  1   
  9   5   9  1   
 10   5  30  1   
 11   6  10  1   
 12   6  11  ar  
 13   7  12  ar  
 14   7  31  1   
 15   8  13  1   
 16   8  14  1   
 17   8  32  1   
 18   9  15  1   
 19   9  33  1   
 20   9  34  1   
 21  10  16  1   
 22  11  17  ar  
 23  11  18  1   
 24  12  17  ar  
 25  12  35  1   
 26  13  15  1   
 27  13  36  1   
 28  13  37  1   
 29  14  19  1   
 30  14  38  1   
 31  14  39  1   
 32  16  40  1   
 33  16  41  1   
 34  16  42  1   
 35  17  43  1   
 36  18  44  1   
 37  18  45  1   
 38  18  46  1   
 39  19  20  ar  
 40  19  21  ar  
 41  20  22  ar  
 42  20  23  ar  
 43  21  24  ar  
 44  21  47  1   
 45  22  25  ar  
 46  22  26  ar  
 47  23  27  ar  
 48  23  48  1   
 49  24  25  ar  
 50  24  49  1   
 51  26  28  ar  
 52  26  50  1   
 53  27  28  ar  
 54  27  51  1   
 55  28  52  1   
@<TRIPOS>SUBSTRUCTURE
  1 ****  14 GROUP 4 **** **** 0

# MOE 2024.06 (io_trps.svl 2023.06)
