@<TRIPOS>MOLECULE
NONAME
49 52 1 0 0 
SMALL
USER_CHARGES


@<TRIPOS>ATOM
  1 O        0.4930    -1.0220    -1.9050 O.2   1 <1>  -0.5700 
  2 C        1.1660    -0.2550    -1.2410 C.2   1 <1>   0.5440 
  3 N        0.6650     1.0040    -0.9900 N.am  1 <1>  -0.6600 
  4 C        2.4710    -0.6330    -0.7680 C.ar  1 <1>   0.0860 
  5 C       -0.6700     1.4450    -1.4460 C.3   1 <1>   0.1400 
  6 C        1.3790     2.0890    -0.2850 C.3   1 <1>   0.1400 
  7 C        2.6610    -1.4360     0.3760 C.ar  1 <1>   0.4100 
  8 C        3.5960    -0.1900    -1.4500 C.ar  1 <1>  -0.1500 
  9 C       -0.7260     2.9320    -1.1090 C.3   1 <1>  -0.1600 
 10 C        0.2980     3.1210     0.0090 C.3   1 <1>  -0.1600 
 11 N        3.8670    -1.7660     0.8420 N.ar  1 <1>  -0.6200 
 12 N        1.6090    -1.9440     1.1160 N.pl3 1 <1>  -0.8380 
 13 C        4.8350    -0.5430    -0.9680 C.ar  1 <1>  -0.1500 
 14 C        4.9110    -1.3230     0.1720 C.ar  1 <1>   0.1600 
 15 C        1.6110    -3.3610     1.5640 C.3   1 <1>   0.3530 
 16 C        0.5760    -1.0840     1.7550 C.3   1 <1>   0.2090 
 17 C        0.4990    -4.1360     0.8750 C.ar  1 <1>  -0.1430 
 18 C       -0.8460    -1.4810     1.3400 C.3   1 <1>   0.1200 
 19 C       -0.8370    -3.8120     1.0850 C.ar  1 <1>   0.0830 
 20 C        0.8090    -5.1980     0.0380 C.ar  1 <1>  -0.1500 
 21 O       -1.1930    -2.7570     1.8470 O.3   1 <1>  -0.3630 
 22 C       -1.8420    -4.5660     0.5030 C.ar  1 <1>  -0.1500 
 23 C       -0.1930    -5.9440    -0.5660 C.ar  1 <1>  -0.1430 
 24 C       -1.5210    -5.6290    -0.3220 C.ar  1 <1>  -0.1500 
 25 C        0.1590    -7.0980    -1.4860 C.3   1 <1>   0.2630 
 26 O       -0.0590    -8.2650    -0.7850 O.3   1 <1>  -0.6800 
 27 H       -1.4240     0.9000    -0.9040 H     1 <1>   0.0800 
 28 H       -0.7890     1.2690    -2.5020 H     1 <1>   0.0800 
 29 H        2.1230     2.5050    -0.9430 H     1 <1>   0.0800 
 30 H        1.8490     1.7350     0.6170 H     1 <1>   0.0800 
 31 H        3.4900     0.4120    -2.3350 H     1 <1>   0.1500 
 32 H       -1.7160     3.2370    -0.8170 H     1 <1>   0.0800 
 33 H       -0.4300     3.4950    -1.9760 H     1 <1>   0.0800 
 34 H        0.6950     4.1210     0.0370 H     1 <1>   0.0800 
 35 H       -0.1530     2.8960     0.9600 H     1 <1>   0.0800 
 36 H        5.7330    -0.2230    -1.4650 H     1 <1>   0.1500 
 37 H        5.8830    -1.5940     0.5480 H     1 <1>   0.1500 
 38 H        1.4700    -3.4000     2.6300 H     1 <1>   0.0800 
 39 H        2.5570    -3.8210     1.3430 H     1 <1>   0.0800 
 40 H        0.7450    -0.0600     1.4830 H     1 <1>   0.0800 
 41 H        0.6650    -1.1500     2.8250 H     1 <1>   0.0800 
 42 H       -0.9430    -1.4910     0.2680 H     1 <1>   0.0800 
 43 H       -1.5490    -0.7770     1.7450 H     1 <1>   0.0800 
 44 H        1.8410    -5.4420    -0.1460 H     1 <1>   0.1500 
 45 H       -2.8680    -4.3100     0.6910 H     1 <1>   0.1500 
 46 H       -2.3050    -6.2090    -0.7760 H     1 <1>   0.1500 
 47 H        1.1950    -7.0640    -1.7760 H     1 <1>   0.0800 
 48 H       -0.4610    -7.1060    -2.3660 H     1 <1>   0.0800 
 49 H        0.0360    -8.0670     0.1670 H     1 <1>   0.4000 
@<TRIPOS>BOND
  1   1   2  2   
  2   2   3  am  
  3   2   4  1   
  4   3   5  1   
  5   3   6  1   
  6   4   7  ar  
  7   4   8  ar  
  8   5   9  1   
  9   5  27  1   
 10   5  28  1   
 11   6  10  1   
 12   6  29  1   
 13   6  30  1   
 14   7  11  ar  
 15   7  12  1   
 16   8  13  ar  
 17   8  31  1   
 18   9  10  1   
 19   9  32  1   
 20   9  33  1   
 21  10  34  1   
 22  10  35  1   
 23  11  14  ar  
 24  12  15  1   
 25  12  16  1   
 26  13  14  ar  
 27  13  36  1   
 28  14  37  1   
 29  15  17  1   
 30  15  38  1   
 31  15  39  1   
 32  16  18  1   
 33  16  40  1   
 34  16  41  1   
 35  17  19  ar  
 36  17  20  ar  
 37  18  21  1   
 38  18  42  1   
 39  18  43  1   
 40  19  21  1   
 41  19  22  ar  
 42  20  23  ar  
 43  20  44  1   
 44  22  24  ar  
 45  22  45  1   
 46  23  24  ar  
 47  23  25  1   
 48  24  46  1   
 49  25  26  1   
 50  25  47  1   
 51  25  48  1   
 52  26  49  1   
@<TRIPOS>SUBSTRUCTURE
  1 ****  12 GROUP 4 **** **** 0

# MOE 2024.06 (io_trps.svl 2023.06)
