@<TRIPOS>MOLECULE
NONAME
53 55 1 0 0 
SMALL
USER_CHARGES


@<TRIPOS>ATOM
  1 F       -0.1680    -1.6160    -1.6850 F     1 <1>  -0.1900 
  2 C       -0.4990    -2.5110    -0.7940 C.ar  1 <1>   0.1900 
  3 C       -1.8160    -2.9110    -0.7100 C.ar  1 <1>  -0.1500 
  4 C        0.4870    -3.0170     0.0310 C.ar  1 <1>  -0.1500 
  5 C       -2.1790    -3.8630     0.2390 C.ar  1 <1>   0.1170 
  6 C        0.1300    -3.9620     0.9770 C.ar  1 <1>  -0.1500 
  7 N       -3.4970    -4.3180     0.4040 N.am  1 <1>  -0.5470 
  8 C       -1.1890    -4.3760     1.0750 C.ar  1 <1>  -0.1500 
  9 C       -4.5760    -4.2710    -0.4350 C.2   1 <1>   0.5690 
 10 O       -4.5420    -3.8230    -1.5540 O.2   1 <1>  -0.5700 
 11 C       -5.8920    -4.8100     0.0820 C.3   1 <1>  -0.0990 
 12 C       -6.9450    -3.6920     0.2020 C.3   1 <1>  -0.0990 
 13 C       -8.2730    -4.1550     0.7840 C.2   1 <1>   0.5690 
 14 O       -8.3310    -5.2700     1.2480 O.2   1 <1>  -0.5700 
 15 N       -9.3580    -3.3160     0.7770 N.am  1 <1>  -0.6600 
 16 C      -10.6990    -3.7780     1.2560 C.3   1 <1>   0.1400 
 17 C       -9.3840    -1.9250     0.2460 C.3   1 <1>   0.1400 
 18 C      -11.7320    -3.7490     0.1010 C.3   1 <1>   0.0000 
 19 C      -10.3670    -1.8480    -0.9280 C.3   1 <1>  -0.1600 
 20 C      -13.1250    -4.1870     0.5870 C.3   1 <1>   0.2000 
 21 C      -11.7690    -2.3370    -0.5240 C.3   1 <1>  -0.1600 
 22 C      -11.4090    -4.8400    -0.9350 C.3   1 <1>  -0.1600 
 23 O      -13.4160    -3.6580     1.8470 O.3   1 <1>  -0.5600 
 24 C      -13.0920    -5.7190     0.6160 C.3   1 <1>  -0.1600 
 25 C      -11.9800    -6.1380    -0.3550 C.3   1 <1>  -0.1600 
 26 C      -14.7510    -3.7530     2.2310 C.3   1 <1>   0.0400 
 27 H       -2.5390    -2.4790    -1.3750 H     1 <1>   0.1500 
 28 H        1.5020    -2.6780    -0.0690 H     1 <1>   0.1500 
 29 H        0.8780    -4.3740     1.6330 H     1 <1>   0.1500 
 30 H       -3.6710    -4.7910     1.2880 H     1 <1>   0.3700 
 31 H       -1.4500    -5.1120     1.8140 H     1 <1>   0.1500 
 32 H       -6.2460    -5.5610    -0.6010 H     1 <1>   0.0800 
 33 H       -5.7460    -5.2760     1.0390 H     1 <1>   0.0800 
 34 H       -7.1220    -3.2910    -0.7790 H     1 <1>   0.0800 
 35 H       -6.5610    -2.9070     0.8270 H     1 <1>   0.0800 
 36 H      -10.6340    -4.7680     1.6710 H     1 <1>   0.0800 
 37 H      -11.0190    -3.1220     2.0460 H     1 <1>   0.0800 
 38 H       -9.7070    -1.2630     1.0310 H     1 <1>   0.0800 
 39 H       -8.4100    -1.6040    -0.0740 H     1 <1>   0.0800 
 40 H      -10.4280    -0.8300    -1.2700 H     1 <1>   0.0800 
 41 H       -9.9890    -2.4430    -1.7400 H     1 <1>   0.0800 
 42 H      -13.8670    -3.8490    -0.1170 H     1 <1>   0.0800 
 43 H      -12.4170    -2.3260    -1.3830 H     1 <1>   0.0800 
 44 H      -12.1790    -1.6530     0.2000 H     1 <1>   0.0800 
 45 H      -11.9150    -4.6230    -1.8600 H     1 <1>   0.0800 
 46 H      -10.3560    -4.9290    -1.1370 H     1 <1>   0.0800 
 47 H      -12.8540    -6.0690     1.6060 H     1 <1>   0.0800 
 48 H      -14.0400    -6.1210     0.3080 H     1 <1>   0.0800 
 49 H      -11.2080    -6.6600     0.1860 H     1 <1>   0.0800 
 50 H      -12.3520    -6.7800    -1.1350 H     1 <1>   0.0800 
 51 H      -14.8530    -3.2960     3.1990 H     1 <1>   0.0800 
 52 H      -15.0350    -4.7890     2.2900 H     1 <1>   0.0800 
 53 H      -15.3640    -3.2310     1.5170 H     1 <1>   0.0800 
@<TRIPOS>BOND
  1   1   2  1   
  2   2   3  ar  
  3   2   4  ar  
  4   3   5  ar  
  5   3  27  1   
  6   4   6  ar  
  7   4  28  1   
  8   5   7  1   
  9   5   8  ar  
 10   6   8  ar  
 11   6  29  1   
 12   7   9  am  
 13   7  30  1   
 14   8  31  1   
 15   9  10  2   
 16   9  11  1   
 17  11  12  1   
 18  11  32  1   
 19  11  33  1   
 20  12  13  1   
 21  12  34  1   
 22  12  35  1   
 23  13  14  2   
 24  13  15  am  
 25  15  16  1   
 26  15  17  1   
 27  16  18  1   
 28  16  36  1   
 29  16  37  1   
 30  17  19  1   
 31  17  38  1   
 32  17  39  1   
 33  18  20  1   
 34  18  21  1   
 35  18  22  1   
 36  19  21  1   
 37  19  40  1   
 38  19  41  1   
 39  20  23  1   
 40  20  24  1   
 41  20  42  1   
 42  21  43  1   
 43  21  44  1   
 44  22  25  1   
 45  22  45  1   
 46  22  46  1   
 47  23  26  1   
 48  24  25  1   
 49  24  47  1   
 50  24  48  1   
 51  25  49  1   
 52  25  50  1   
 53  26  51  1   
 54  26  52  1   
 55  26  53  1   
@<TRIPOS>SUBSTRUCTURE
  1 ****  12 GROUP 4 **** **** 0

# MOE 2024.06 (io_trps.svl 2023.06)
