@<TRIPOS>MOLECULE
NONAME
47 48 1 0 0 
SMALL
USER_CHARGES


@<TRIPOS>ATOM
  1 N       -0.2080     0.8920     1.9310 N.1   1 <1>  -0.5570 
  2 C       -0.0980     1.9270     1.4660 C.1   1 <1>   0.4840 
  3 C        0.0460     3.2320     0.8830 C.ar  1 <1>   0.0730 
  4 C       -0.4720     4.3590     1.5120 C.ar  1 <1>  -0.1500 
  5 C        0.7050     3.4050    -0.3280 C.ar  1 <1>  -0.1500 
  6 C       -0.3370     5.6170     0.9510 C.ar  1 <1>  -0.1500 
  7 C        0.8440     4.6600    -0.8950 C.ar  1 <1>  -0.1500 
  8 C        0.3290     5.7780    -0.2560 C.ar  1 <1>  -0.1430 
  9 C        0.4830     7.1560    -0.8750 C.3   1 <1>   0.4870 
 10 N        1.5350     7.9110    -0.1170 N.4   1 <1>  -0.9590 
 11 C        1.4980     9.3810    -0.4690 C.3   1 <1>   0.3430 
 12 C        2.8790     7.2700    -0.3390 C.3   1 <1>   0.2630 
 13 C        2.4180    10.2810     0.4090 C.3   1 <1>   0.3430 
 14 N        2.4040    11.7490     0.0400 N.4   1 <1>  -0.9590 
 15 C        3.4970    12.4910     0.7490 C.3   1 <1>   0.4230 
 16 C        1.0700    12.3900     0.3240 C.3   1 <1>   0.2630 
 17 C        3.5120    13.9760     0.3740 C.3   1 <1>  -0.1600 
 18 C        4.8890    11.9650     0.3640 C.3   1 <1>  -0.1600 
 19 C        4.9740    14.3930     0.4730 C.3   1 <1>  -0.1600 
 20 C        5.7410    13.1770    -0.0280 C.3   1 <1>  -0.1600 
 21 H       -0.9930     4.2440     2.4490 H     1 <1>   0.1500 
 22 H        1.1080     2.5420    -0.8350 H     1 <1>   0.1500 
 23 H       -0.7700     6.4570     1.4700 H     1 <1>   0.1500 
 24 H        1.3540     4.7430    -1.8410 H     1 <1>   0.1500 
 25 H       -0.4630     7.6690    -0.8170 H     1 <1>   0.0800 
 26 H        0.7570     7.0640    -1.9140 H     1 <1>   0.0800 
 27 H        1.2850     7.7610     0.8740 H     1 <1>   0.4500 
 28 H        0.4850     9.7340    -0.3650 H     1 <1>   0.0800 
 29 H        1.7870     9.4970    -1.5010 H     1 <1>   0.0800 
 30 H        3.1610     7.3290    -1.3780 H     1 <1>   0.0800 
 31 H        2.8470     6.2280    -0.0560 H     1 <1>   0.0800 
 32 H        3.6380     7.7510     0.2560 H     1 <1>   0.0800 
 33 H        3.4250     9.9100     0.3200 H     1 <1>   0.0800 
 34 H        2.1230    10.1820     1.4410 H     1 <1>   0.0800 
 35 H        2.6210    11.8780    -0.9610 H     1 <1>   0.4500 
 36 H        3.3780    12.4080     1.8190 H     1 <1>   0.0800 
 37 H        0.8500    12.3520     1.3790 H     1 <1>   0.0800 
 38 H        0.2810    11.8900    -0.2140 H     1 <1>   0.0800 
 39 H        1.0750    13.4240     0.0180 H     1 <1>   0.0800 
 40 H        2.9040    14.5670     1.0370 H     1 <1>   0.0800 
 41 H        3.1900    14.1190    -0.6430 H     1 <1>   0.0800 
 42 H        4.8710    11.2730    -0.4590 H     1 <1>   0.0800 
 43 H        5.3330    11.4870     1.2200 H     1 <1>   0.0800 
 44 H        5.2330    14.5860     1.5020 H     1 <1>   0.0800 
 45 H        5.1880    15.2740    -0.1100 H     1 <1>   0.0800 
 46 H        5.8290    13.2310    -1.1010 H     1 <1>   0.0800 
 47 H        6.7320    13.1320     0.3940 H     1 <1>   0.0800 
@<TRIPOS>BOND
  1   1   2  3   
  2   2   3  1   
  3   3   4  ar  
  4   3   5  ar  
  5   4   6  ar  
  6   4  21  1   
  7   5   7  ar  
  8   5  22  1   
  9   6   8  ar  
 10   6  23  1   
 11   7   8  ar  
 12   7  24  1   
 13   8   9  1   
 14   9  10  1   
 15   9  25  1   
 16   9  26  1   
 17  10  11  1   
 18  10  12  1   
 19  10  27  1   
 20  11  13  1   
 21  11  28  1   
 22  11  29  1   
 23  12  30  1   
 24  12  31  1   
 25  12  32  1   
 26  13  14  1   
 27  13  33  1   
 28  13  34  1   
 29  14  15  1   
 30  14  16  1   
 31  14  35  1   
 32  15  17  1   
 33  15  18  1   
 34  15  36  1   
 35  16  37  1   
 36  16  38  1   
 37  16  39  1   
 38  17  19  1   
 39  17  40  1   
 40  17  41  1   
 41  18  20  1   
 42  18  42  1   
 43  18  43  1   
 44  19  20  1   
 45  19  44  1   
 46  19  45  1   
 47  20  46  1   
 48  20  47  1   
@<TRIPOS>SUBSTRUCTURE
  1 ****  10 GROUP 4 **** **** 0

# MOE 2024.06 (io_trps.svl 2023.06)
