@<TRIPOS>MOLECULE
NONAME
38 40 1 0 0 
SMALL
USER_CHARGES


@<TRIPOS>ATOM
  1 O       -0.5060     0.1220     0.5630 O.2   1 <1>  -0.5700 
  2 C       -1.5670     0.7090     0.5630 C.2   1 <1>   0.5690 
  3 N       -2.7590     0.0280     0.5410 N.am  1 <1>  -0.6600 
  4 C       -1.5340     2.2440     0.5760 C.3   1 <1>   0.1810 
  5 C       -2.8110    -1.4680     0.6190 C.3   1 <1>   0.1400 
  6 C       -4.1150     0.6460     0.3950 C.3   1 <1>   0.1400 
  7 O       -0.2740     2.7290     0.9260 O.3   1 <1>  -0.6800 
  8 C       -3.6990    -2.0570    -0.4920 C.3   1 <1>   0.3440 
  9 C       -4.9300    -0.0570    -0.7160 C.3   1 <1>   0.2950 
 10 O       -4.9580    -1.4350    -0.4870 O.3   1 <1>  -0.5600 
 11 C       -3.8700    -3.5610    -0.2980 C.ar  1 <1>  -0.1440 
 12 C       -6.3930     0.4040    -0.8290 C.3   1 <1>  -0.1950 
 13 C       -2.9810    -4.4360    -0.9060 C.ar  1 <1>  -0.1500 
 14 C       -4.8910    -4.0770     0.4890 C.ar  1 <1>  -0.1500 
 15 C       -6.8590     1.7930    -0.5070 C.3   1 <1>  -0.2000 
 16 C       -7.2890     0.6340     0.3490 C.3   1 <1>  -0.2000 
 17 C       -3.1090    -5.8030    -0.7300 C.ar  1 <1>  -0.1500 
 18 C       -5.0200    -5.4440     0.6670 C.ar  1 <1>  -0.1500 
 19 C       -4.1280    -6.3080     0.0570 C.ar  1 <1>  -0.1500 
 20 H       -2.2390     2.6280     1.2900 H     1 <1>   0.0800 
 21 H       -1.7680     2.6180    -0.4030 H     1 <1>   0.0800 
 22 H       -1.8240    -1.8890     0.5360 H     1 <1>   0.0800 
 23 H       -3.2090    -1.7590     1.5750 H     1 <1>   0.0800 
 24 H       -4.6370     0.5560     1.3310 H     1 <1>   0.0800 
 25 H       -4.0340     1.6890     0.1560 H     1 <1>   0.0800 
 26 H        0.3570     1.9740     0.8720 H     1 <1>   0.4000 
 27 H       -3.2450    -1.8760    -1.4510 H     1 <1>   0.0800 
 28 H       -4.4480     0.1140    -1.6640 H     1 <1>   0.0800 
 29 H       -6.8540    -0.0550    -1.6870 H     1 <1>   0.1000 
 30 H       -2.1820    -4.0600    -1.5210 H     1 <1>   0.1500 
 31 H       -5.5930    -3.4140     0.9650 H     1 <1>   0.1500 
 32 H       -6.1960     2.5180    -0.0680 H     1 <1>   0.1000 
 33 H       -7.5900     2.2520    -1.1500 H     1 <1>   0.1000 
 34 H       -8.3070     0.2870     0.2850 H     1 <1>   0.1000 
 35 H       -6.8940     0.5400     1.3450 H     1 <1>   0.1000 
 36 H       -2.4160    -6.4750    -1.2060 H     1 <1>   0.1500 
 37 H       -5.8160    -5.8330     1.2780 H     1 <1>   0.1500 
 38 H       -4.2290    -7.3710     0.1940 H     1 <1>   0.1500 
@<TRIPOS>BOND
  1   1   2  2   
  2   2   3  am  
  3   2   4  1   
  4   3   5  1   
  5   3   6  1   
  6   4   7  1   
  7   4  20  1   
  8   4  21  1   
  9   5   8  1   
 10   5  22  1   
 11   5  23  1   
 12   6   9  1   
 13   6  24  1   
 14   6  25  1   
 15   7  26  1   
 16   8  10  1   
 17   8  11  1   
 18   8  27  1   
 19   9  10  1   
 20   9  12  1   
 21   9  28  1   
 22  11  13  ar  
 23  11  14  ar  
 24  12  15  1   
 25  12  16  1   
 26  12  29  1   
 27  13  17  ar  
 28  13  30  1   
 29  14  18  ar  
 30  14  31  1   
 31  15  16  1   
 32  15  32  1   
 33  15  33  1   
 34  16  34  1   
 35  16  35  1   
 36  17  19  ar  
 37  17  36  1   
 38  18  19  ar  
 39  18  37  1   
 40  19  38  1   
@<TRIPOS>SUBSTRUCTURE
  1 ****   8 GROUP 4 **** **** 0

# MOE 2024.06 (io_trps.svl 2023.06)
