@<TRIPOS>MOLECULE
NONAME
43 45 1 0 0 
SMALL
USER_CHARGES


@<TRIPOS>ATOM
  1 O       -0.2230     0.3010    -0.1560 O.2   1 <1>  -0.5700 
  2 C       -1.2640     0.9010     0.0320 C.2   1 <1>   0.5440 
  3 N       -2.4270     0.1790     0.1630 N.am  1 <1>  -0.6600 
  4 C       -1.2670     2.3500     0.0980 C.ar  1 <1>   0.0860 
  5 C       -3.7860     0.7340    -0.0570 C.3   1 <1>   0.1400 
  6 C       -2.4460    -1.3020     0.0860 C.3   1 <1>   0.1400 
  7 C       -0.6990     3.1140    -0.9160 C.ar  1 <1>  -0.1500 
  8 C       -1.8430     3.0310     1.1710 C.ar  1 <1>  -0.1500 
  9 C       -4.6160    -0.4550    -0.5380 C.3   1 <1>   0.2000 
 10 C       -3.9260    -1.6880     0.0390 C.3   1 <1>  -0.0800 
 11 C       -0.7250     4.4950    -0.8680 C.ar  1 <1>   0.0830 
 12 C       -1.8660     4.4140     1.2230 C.ar  1 <1>  -0.1500 
 13 O       -5.9240    -0.3820    -0.0890 O.3   1 <1>  -0.6800 
 14 C       -4.2020    -2.9640    -0.7690 C.3   1 <1>   0.0200 
 15 O       -0.1710     5.1780    -1.8810 O.3   1 <1>  -0.5320 
 16 C       -1.3090     5.1650     0.2000 C.ar  1 <1>  -0.1430 
 17 C       -3.4400    -4.1440    -0.1970 C.2   1 <1>  -0.0400 
 18 C       -1.3470     6.6860     0.2720 C.3   1 <1>  -0.0970 
 19 O       -3.6990    -4.5640     1.0130 O.3   1 <1>  -0.0190 
 20 C       -2.4670    -4.9160    -0.7020 C.2   1 <1>  -0.1500 
 21 N       -2.9480    -5.5730     1.3460 N.2   1 <1>  -0.4100 
 22 C       -2.1960    -5.8080     0.3310 C.2   1 <1>   0.1080 
 23 C       -1.1570    -6.9060     0.2790 C.3   1 <1>  -0.0590 
 24 H       -4.1660     1.1130     0.8750 H     1 <1>   0.0800 
 25 H       -3.7670     1.5130    -0.7990 H     1 <1>   0.0800 
 26 H       -1.9360    -1.6120    -0.8100 H     1 <1>   0.0800 
 27 H       -1.9520    -1.7330     0.9410 H     1 <1>   0.0800 
 28 H       -0.2310     2.6230    -1.7500 H     1 <1>   0.1500 
 29 H       -2.2710     2.4610     1.9770 H     1 <1>   0.1500 
 30 H       -4.6260    -0.4770    -1.6150 H     1 <1>   0.0800 
 31 H       -4.2460    -1.8340     1.0570 H     1 <1>   0.0800 
 32 H       -2.3210     4.9010     2.0680 H     1 <1>   0.1500 
 33 H       -5.9540    -0.4340     0.8860 H     1 <1>   0.4000 
 34 H       -3.9100    -2.8200    -1.7940 H     1 <1>   0.0800 
 35 H       -5.2550    -3.1840    -0.7490 H     1 <1>   0.0800 
 36 H       -0.2180     6.1390    -1.7490 H     1 <1>   0.4500 
 37 H       -1.8460     7.0150     1.1660 H     1 <1>   0.0800 
 38 H       -1.8780     7.0830    -0.5740 H     1 <1>   0.0800 
 39 H       -0.3460     7.0790     0.2820 H     1 <1>   0.0800 
 40 H       -1.9860    -4.8830    -1.6620 H     1 <1>   0.1500 
 41 H       -1.3800    -7.5810    -0.5270 H     1 <1>   0.0800 
 42 H       -1.1570    -7.4550     1.2030 H     1 <1>   0.0800 
 43 H       -0.1830    -6.4800     0.1270 H     1 <1>   0.0800 
@<TRIPOS>BOND
  1   1   2  2   
  2   2   3  am  
  3   2   4  1   
  4   3   5  1   
  5   3   6  1   
  6   4   7  ar  
  7   4   8  ar  
  8   5   9  1   
  9   5  24  1   
 10   5  25  1   
 11   6  10  1   
 12   6  26  1   
 13   6  27  1   
 14   7  11  ar  
 15   7  28  1   
 16   8  12  ar  
 17   8  29  1   
 18   9  10  1   
 19   9  13  1   
 20   9  30  1   
 21  10  14  1   
 22  10  31  1   
 23  11  15  1   
 24  11  16  ar  
 25  12  16  ar  
 26  12  32  1   
 27  13  33  1   
 28  14  17  1   
 29  14  34  1   
 30  14  35  1   
 31  15  36  1   
 32  16  18  1   
 33  17  19  1   
 34  17  20  2   
 35  18  37  1   
 36  18  38  1   
 37  18  39  1   
 38  19  21  1   
 39  20  22  1   
 40  20  40  1   
 41  21  22  2   
 42  22  23  1   
 43  23  41  1   
 44  23  42  1   
 45  23  43  1   
@<TRIPOS>SUBSTRUCTURE
  1 ****   3 GROUP 4 **** **** 0

# MOE 2024.06 (io_trps.svl 2023.06)
