@<TRIPOS>MOLECULE
NONAME
50 53 1 0 0 
SMALL
USER_CHARGES


@<TRIPOS>ATOM
  1 CL      -1.4830    -3.5580    -2.9580 Cl    1 <1>  -0.1770 
  2 C       -2.7750    -3.4160    -1.7940 C.ar  1 <1>   0.1770 
  3 C       -2.7510    -4.1930    -0.6540 C.ar  1 <1>  -0.1500 
  4 C       -3.8050    -2.5260    -2.0290 C.ar  1 <1>  -0.1500 
  5 C       -3.7810    -4.0770     0.2630 C.ar  1 <1>  -0.1500 
  6 C       -4.8320    -2.4170    -1.1060 C.ar  1 <1>  -0.1500 
  7 C       -4.8340    -3.1940     0.0500 C.ar  1 <1>  -0.1080 
  8 C       -5.9490    -3.1420     1.1160 C.3   1 <1>   0.1610 
  9 C       -6.5180    -4.5360     1.4310 C.2   1 <1>   0.5770 
 10 C       -5.4830    -2.3270     2.3670 C.3   1 <1>   0.0000 
 11 C       -7.0710    -2.0640     0.9720 C.3   1 <1>   0.0000 
 12 O       -6.2910    -5.0320     2.5110 O.2   1 <1>  -0.5700 
 13 N       -7.2510    -5.2200     0.4940 N.am  1 <1>  -0.6600 
 14 C       -6.1360    -1.0800     1.7180 C.3   1 <1>   0.0000 
 15 C       -7.4430    -4.8380    -0.9310 C.3   1 <1>   0.1400 
 16 C       -7.7390    -6.6050     0.7220 C.3   1 <1>   0.1400 
 17 C       -8.3100    -5.9490    -1.5240 C.3   1 <1>   0.2000 
 18 C       -7.9820    -7.1810    -0.6790 C.3   1 <1>  -0.0800 
 19 O       -9.6410    -5.6200    -1.3180 O.3   1 <1>  -0.6800 
 20 C       -6.7290    -7.8990    -1.2160 C.3   1 <1>   0.0210 
 21 C       -6.3890    -9.1180    -0.3820 C.2   1 <1>   0.1080 
 22 N       -7.1170   -10.1910    -0.3790 N.2   1 <1>  -0.7070 
 23 C       -5.2900    -9.2250     0.4640 C.2   1 <1>  -0.1500 
 24 N       -6.4930   -11.0220     0.4780 N.pl3 1 <1>   0.3000 
 25 C       -5.3850   -10.4580     1.0020 C.2   1 <1>  -0.3320 
 26 C       -4.4720   -11.1410     2.0040 C.3   1 <1>  -0.0600 
 27 H       -1.9380    -4.8770    -0.4890 H     1 <1>   0.1500 
 28 H       -3.7980    -1.9280    -2.9220 H     1 <1>   0.1500 
 29 H       -3.7570    -4.6840     1.1540 H     1 <1>   0.1500 
 30 H       -5.6170    -1.7140    -1.3130 H     1 <1>   0.1500 
 31 H       -5.9820    -2.6010     3.2810 H     1 <1>   0.0000 
 32 H       -4.4160    -2.2430     2.4780 H     1 <1>   0.0000 
 33 H       -7.3230    -1.7670    -0.0290 H     1 <1>   0.0000 
 34 H       -7.9460    -2.2990     1.5550 H     1 <1>   0.0000 
 35 H       -5.4690    -0.5500     1.0610 H     1 <1>   0.0000 
 36 H       -6.6460    -0.4420     2.4180 H     1 <1>   0.0000 
 37 H       -7.9150    -3.8770    -1.0310 H     1 <1>   0.0800 
 38 H       -6.4870    -4.8260    -1.4240 H     1 <1>   0.0800 
 39 H       -7.0270    -7.1800     1.2900 H     1 <1>   0.0800 
 40 H       -8.6630    -6.5630     1.2720 H     1 <1>   0.0800 
 41 H       -8.1580    -6.0900    -2.5800 H     1 <1>   0.0800 
 42 H       -8.7980    -7.8830    -0.6740 H     1 <1>   0.0800 
 43 H       -9.7840    -5.4470    -0.3670 H     1 <1>   0.4000 
 44 H       -5.8850    -7.2340    -1.2250 H     1 <1>   0.0800 
 45 H       -6.9080    -8.2260    -2.2250 H     1 <1>   0.0800 
 46 H       -4.5460    -8.4680     0.6350 H     1 <1>   0.1500 
 47 H       -6.8500   -11.9630     0.6820 H     1 <1>   0.2700 
 48 H       -3.6620   -10.4850     2.2710 H     1 <1>   0.0800 
 49 H       -4.0600   -12.0390     1.5800 H     1 <1>   0.0800 
 50 H       -5.0180   -11.3900     2.8960 H     1 <1>   0.0800 
@<TRIPOS>BOND
  1   1   2  1   
  2   2   3  ar  
  3   2   4  ar  
  4   3   5  ar  
  5   3  27  1   
  6   4   6  ar  
  7   4  28  1   
  8   5   7  ar  
  9   5  29  1   
 10   6   7  ar  
 11   6  30  1   
 12   7   8  1   
 13   8   9  1   
 14   8  10  1   
 15   8  11  1   
 16   9  12  2   
 17   9  13  am  
 18  10  14  1   
 19  10  31  1   
 20  10  32  1   
 21  11  14  1   
 22  11  33  1   
 23  11  34  1   
 24  13  15  1   
 25  13  16  1   
 26  14  35  1   
 27  14  36  1   
 28  15  17  1   
 29  15  37  1   
 30  15  38  1   
 31  16  18  1   
 32  16  39  1   
 33  16  40  1   
 34  17  18  1   
 35  17  19  1   
 36  17  41  1   
 37  18  20  1   
 38  18  42  1   
 39  19  43  1   
 40  20  21  1   
 41  20  44  1   
 42  20  45  1   
 43  21  22  2   
 44  21  23  1   
 45  22  24  1   
 46  23  25  2   
 47  23  46  1   
 48  24  25  1   
 49  24  47  1   
 50  25  26  1   
 51  26  48  1   
 52  26  49  1   
 53  26  50  1   
@<TRIPOS>SUBSTRUCTURE
  1 ****  13 GROUP 4 **** **** 0

# MOE 2024.06 (io_trps.svl 2023.06)
