@<TRIPOS>MOLECULE
NONAME
44 45 1 0 0 
SMALL
USER_CHARGES


@<TRIPOS>ATOM
  1 N       -0.9870     0.6980    -3.1130 N.ar  1 <1>  -0.6200 
  2 C       -2.2580     0.3560    -3.0280 C.ar  1 <1>   0.1600 
  3 C       -0.1980     0.2130    -2.1670 C.ar  1 <1>   0.1600 
  4 C       -2.7980    -0.4350    -2.0240 C.ar  1 <1>  -0.1440 
  5 C       -0.6280    -0.5970    -1.1300 C.ar  1 <1>  -0.1500 
  6 C       -1.9610    -0.9380    -1.0460 C.ar  1 <1>  -0.1500 
  7 C       -4.2790    -0.7350    -2.0000 C.3   1 <1>   0.4870 
  8 N       -4.9050     0.0630    -0.9070 N.4   1 <1>  -0.9590 
  9 C       -6.2520    -0.4670    -0.5390 C.3   1 <1>   0.5230 
 10 C       -4.8430     1.5310    -1.1440 C.3   1 <1>   0.3430 
 11 C       -6.0760    -1.7730     0.2230 C.2   1 <1>   0.0060 
 12 C       -5.0700     2.2950     0.1610 C.3   1 <1>  -0.1600 
 13 N       -4.9380    -2.1980     0.6570 N.2   1 <1>  -0.3380 
 14 N       -7.0590    -2.6250     0.5360 N.pl3 1 <1>   0.0330 
 15 C       -4.8560     3.7990    -0.0500 C.3   1 <1>  -0.1600 
 16 N       -5.1590    -3.3610     1.2610 N.2   1 <1>  -0.3380 
 17 C       -6.4220    -3.6000     1.1830 C.2   1 <1>   0.0060 
 18 C       -5.0780     4.5720     1.2530 C.3   1 <1>  -0.2400 
 19 C       -7.1060    -4.8300     1.7550 C.3   1 <1>   0.0200 
 20 C       -7.7340    -5.6920     0.6550 C.3   1 <1>  -0.2400 
 21 H       -2.8970     0.7370    -3.8060 H     1 <1>   0.1500 
 22 H        0.8460     0.4740    -2.2210 H     1 <1>   0.1500 
 23 H        0.0770    -0.9570    -0.4010 H     1 <1>   0.1500 
 24 H       -2.3140    -1.5740    -0.2480 H     1 <1>   0.1500 
 25 H       -4.4130    -1.7890    -1.8150 H     1 <1>   0.0800 
 26 H       -4.7270    -0.4930    -2.9500 H     1 <1>   0.0800 
 27 H       -4.3170    -0.1530    -0.0840 H     1 <1>   0.4500 
 28 H       -6.8460    -0.6250    -1.4230 H     1 <1>   0.0800 
 29 H       -6.7630     0.2320     0.1000 H     1 <1>   0.0800 
 30 H       -5.5750     1.8270    -1.8790 H     1 <1>   0.0800 
 31 H       -3.8660     1.7960    -1.5190 H     1 <1>   0.0800 
 32 H       -4.3730     1.9500     0.9060 H     1 <1>   0.0800 
 33 H       -6.0710     2.1410     0.5220 H     1 <1>   0.0800 
 34 H       -8.0640    -2.5830     0.3470 H     1 <1>   0.2700 
 35 H       -5.5400     4.1700    -0.7960 H     1 <1>   0.0800 
 36 H       -3.8520     3.9830    -0.3970 H     1 <1>   0.0800 
 37 H       -6.0820     4.4350     1.6140 H     1 <1>   0.0800 
 38 H       -4.9190     5.6230     1.0880 H     1 <1>   0.0800 
 39 H       -4.3890     4.2430     2.0120 H     1 <1>   0.0800 
 40 H       -7.8590    -4.5290     2.4620 H     1 <1>   0.0800 
 41 H       -6.3760    -5.4170     2.2880 H     1 <1>   0.0800 
 42 H       -8.5060    -5.1530     0.1360 H     1 <1>   0.0800 
 43 H       -8.1660    -6.5770     1.0870 H     1 <1>   0.0800 
 44 H       -6.9800    -5.9930    -0.0520 H     1 <1>   0.0800 
@<TRIPOS>BOND
  1   1   2  ar  
  2   1   3  ar  
  3   2   4  ar  
  4   2  21  1   
  5   3   5  ar  
  6   3  22  1   
  7   4   6  ar  
  8   4   7  1   
  9   5   6  ar  
 10   5  23  1   
 11   6  24  1   
 12   7   8  1   
 13   7  25  1   
 14   7  26  1   
 15   8   9  1   
 16   8  10  1   
 17   8  27  1   
 18   9  11  1   
 19   9  28  1   
 20   9  29  1   
 21  10  12  1   
 22  10  30  1   
 23  10  31  1   
 24  11  13  2   
 25  11  14  1   
 26  12  15  1   
 27  12  32  1   
 28  12  33  1   
 29  13  16  1   
 30  14  17  1   
 31  14  34  1   
 32  15  18  1   
 33  15  35  1   
 34  15  36  1   
 35  16  17  2   
 36  17  19  1   
 37  18  37  1   
 38  18  38  1   
 39  18  39  1   
 40  19  20  1   
 41  19  40  1   
 42  19  41  1   
 43  20  42  1   
 44  20  43  1   
 45  20  44  1   
@<TRIPOS>SUBSTRUCTURE
  1 ****   8 GROUP 4 **** **** 0

# MOE 2024.06 (io_trps.svl 2023.06)
