@<TRIPOS>MOLECULE
NONAME
49 51 1 0 0 
SMALL
USER_CHARGES


@<TRIPOS>ATOM
  1 S        0.3250     0.6140     0.7280 S.3   1 <1>  -0.0800 
  2 C        0.9770    -1.0010     0.6950 C.2   1 <1>  -0.1400 
  3 C        1.4580     1.0650    -0.5250 C.2   1 <1>   0.1980 
  4 C        1.9560    -1.0530    -0.2230 C.2   1 <1>   0.0460 
  5 C        0.3720    -2.0170     1.6330 C.3   1 <1>   0.5230 
  6 N        2.2180     0.1190    -0.9050 N.2   1 <1>  -0.5650 
  7 C        1.4230     2.4920    -1.0190 C.3   1 <1>  -0.0600 
  8 C        2.8030    -2.2490    -0.6080 C.3   1 <1>  -0.0590 
  9 N       -1.0210    -2.2880     1.2250 N.4   1 <1>  -0.9590 
 10 C       -1.0850    -2.8630    -0.1650 C.3   1 <1>   0.3430 
 11 C       -1.7300    -3.1460     2.2240 C.3   1 <1>   0.3430 
 12 C       -2.5560    -3.0080    -0.5920 C.3   1 <1>   0.2000 
 13 C       -3.1890    -3.3780     1.8050 C.3   1 <1>  -0.1600 
 14 O       -3.1370    -1.7370    -0.5230 O.3   1 <1>  -0.6800 
 15 C       -3.2630    -3.9880     0.3740 C.3   1 <1>  -0.1060 
 16 C       -2.4510    -5.2890     0.3230 C.2   1 <1>   0.9060 
 17 C       -4.7100    -4.3450    -0.0490 C.3   1 <1>  -0.0160 
 18 O       -2.1920    -5.8830     1.3730 O.co2 1 <1>  -0.9000 
 19 O       -1.9520    -5.6250    -0.7530 O.co2 1 <1>  -0.9000 
 20 C       -5.6460    -3.1540    -0.2320 C.ar  1 <1>  -0.1440 
 21 C       -5.8470    -2.6170    -1.4950 C.ar  1 <1>  -0.1500 
 22 C       -6.3040    -2.5980     0.8530 C.ar  1 <1>  -0.1500 
 23 C       -6.6760    -1.5230    -1.6670 C.ar  1 <1>  -0.1500 
 24 C       -7.1340    -1.5040     0.6830 C.ar  1 <1>  -0.1500 
 25 C       -7.3180    -0.9640    -0.5770 C.ar  1 <1>  -0.1500 
 26 H        0.3950    -1.6310     2.6380 H     1 <1>   0.0800 
 27 H        0.9420    -2.9310     1.6020 H     1 <1>   0.0800 
 28 H        2.1660     2.6290    -1.7840 H     1 <1>   0.0800 
 29 H        1.6300     3.1650    -0.2080 H     1 <1>   0.0800 
 30 H        0.4550     2.7140    -1.4280 H     1 <1>   0.0800 
 31 H        2.5310    -3.1210    -0.0440 H     1 <1>   0.0800 
 32 H        3.8400    -2.0270    -0.4290 H     1 <1>   0.0800 
 33 H        2.6740    -2.4580    -1.6550 H     1 <1>   0.0800 
 34 H       -1.5410    -1.4020     1.1370 H     1 <1>   0.4500 
 35 H       -0.5890    -2.2130    -0.8660 H     1 <1>   0.0800 
 36 H       -0.5960    -3.8240    -0.1980 H     1 <1>   0.0800 
 37 H       -1.2290    -4.0980     2.3050 H     1 <1>   0.0800 
 38 H       -1.7120    -2.6770     3.1930 H     1 <1>   0.0800 
 39 H       -2.6180    -3.3590    -1.6100 H     1 <1>   0.0800 
 40 H       -3.6370    -4.0600     2.5070 H     1 <1>   0.0800 
 41 H       -3.7290    -2.4520     1.8690 H     1 <1>   0.0800 
 42 H       -4.1150    -1.8320    -0.6220 H     1 <1>   0.4000 
 43 H       -4.6710    -4.8960    -0.9740 H     1 <1>   0.0800 
 44 H       -5.1320    -5.0140     0.6810 H     1 <1>   0.0800 
 45 H       -5.3570    -3.0480    -2.3520 H     1 <1>   0.1500 
 46 H       -6.1740    -3.0160     1.8360 H     1 <1>   0.1500 
 47 H       -6.8250    -1.1090    -2.6500 H     1 <1>   0.1500 
 48 H       -7.6400    -1.0750     1.5310 H     1 <1>   0.1500 
 49 H       -7.9640    -0.1130    -0.7100 H     1 <1>   0.1500 
@<TRIPOS>BOND
  1   1   2  1   
  2   1   3  1   
  3   2   4  2   
  4   2   5  1   
  5   3   6  2   
  6   3   7  1   
  7   4   6  1   
  8   4   8  1   
  9   5   9  1   
 10   5  26  1   
 11   5  27  1   
 12   7  28  1   
 13   7  29  1   
 14   7  30  1   
 15   8  31  1   
 16   8  32  1   
 17   8  33  1   
 18   9  10  1   
 19   9  11  1   
 20   9  34  1   
 21  10  12  1   
 22  10  35  1   
 23  10  36  1   
 24  11  13  1   
 25  11  37  1   
 26  11  38  1   
 27  12  14  1   
 28  12  15  1   
 29  12  39  1   
 30  13  15  1   
 31  13  40  1   
 32  13  41  1   
 33  14  42  1   
 34  15  16  1   
 35  15  17  1   
 36  16  18  ar  
 37  16  19  ar  
 38  17  20  1   
 39  17  43  1   
 40  17  44  1   
 41  20  21  ar  
 42  20  22  ar  
 43  21  23  ar  
 44  21  45  1   
 45  22  24  ar  
 46  22  46  1   
 47  23  25  ar  
 48  23  47  1   
 49  24  25  ar  
 50  24  48  1   
 51  25  49  1   
@<TRIPOS>SUBSTRUCTURE
  1 ****  12 GROUP 4 **** **** 0

# MOE 2024.06 (io_trps.svl 2023.06)
