@<TRIPOS>MOLECULE
NONAME
45 48 1 0 0 
SMALL
USER_CHARGES


@<TRIPOS>ATOM
  1 O        0.8620    -0.2580     2.3120 O.2   1 <1>  -0.5700 
  2 C        1.5940    -0.9580     1.6340 C.2   1 <1>   0.7160 
  3 N        1.4050    -2.3020     1.6110 N.am  1 <1>  -0.4900 
  4 C        2.6570    -0.4800     0.8290 C.2   1 <1>  -0.0860 
  5 C        2.1790    -3.1400     0.8460 C.2   1 <1>   0.4490 
  6 C        3.3860    -1.3690     0.1010 C.2   1 <1>  -0.0260 
  7 C        3.2260     0.7580     0.5380 C.2   1 <1>   0.1390 
  8 N        3.1470    -2.7280     0.1010 N.2   1 <1>  -0.5760 
  9 C        1.8200    -4.6240     0.9190 C.3   1 <1>   0.1710 
 10 N        4.3200    -0.6560    -0.5670 N.pl3 1 <1>   0.3140 
 11 N        4.2190     0.6660    -0.2940 N.2   1 <1>  -0.7070 
 12 N        0.3530    -4.8610     1.0150 N.3   1 <1>  -0.8100 
 13 C        5.3440    -1.1850    -1.4750 C.3   1 <1>   0.0160 
 14 C       -0.3480    -4.4490    -0.2220 C.3   1 <1>   0.1100 
 15 C        0.0630    -6.2960     1.2260 C.3   1 <1>   0.1100 
 16 C       -1.4560    -5.4750    -0.4350 C.3   1 <1>   0.2000 
 17 C       -0.8170    -6.7670     0.0580 C.3   1 <1>  -0.0800 
 18 O       -2.5000    -5.1580     0.4140 O.3   1 <1>  -0.6800 
 19 C        0.0010    -7.4400    -1.0640 C.3   1 <1>  -0.0170 
 20 C        0.6780    -8.7200    -0.6000 C.ar  1 <1>   0.1670 
 21 N        1.9620    -8.6280    -0.2850 N.ar  1 <1>  -0.6200 
 22 C       -0.0560    -9.8940    -0.5330 C.ar  1 <1>  -0.1500 
 23 C        2.5350    -9.7540     0.1110 C.ar  1 <1>   0.1600 
 24 C        0.5540   -11.0580    -0.1170 C.ar  1 <1>  -0.1500 
 25 C        1.8890   -10.9740     0.2130 C.ar  1 <1>  -0.1500 
 26 H        0.6110    -2.6960     2.1120 H     1 <1>   0.3700 
 27 H        2.8790     1.6890     0.9560 H     1 <1>   0.1500 
 28 H        2.2970    -5.0310     1.7930 H     1 <1>   0.0800 
 29 H        2.2230    -5.1330     0.0600 H     1 <1>   0.0800 
 30 H        4.9940    -2.1030    -1.9090 H     1 <1>   0.0800 
 31 H        6.2430    -1.3650    -0.9180 H     1 <1>   0.0800 
 32 H        5.5330    -0.4640    -2.2480 H     1 <1>   0.0800 
 33 H       -0.7430    -3.4510    -0.1390 H     1 <1>   0.0800 
 34 H        0.3250    -4.4850    -1.0630 H     1 <1>   0.0800 
 35 H        0.9610    -6.8820     1.3200 H     1 <1>   0.0800 
 36 H       -0.4900    -6.3950     2.1440 H     1 <1>   0.0800 
 37 H       -1.8280    -5.5160    -1.4440 H     1 <1>   0.0800 
 38 H       -1.5660    -7.4610     0.3990 H     1 <1>   0.0800 
 39 H       -2.1090    -4.9360     1.2840 H     1 <1>   0.4000 
 40 H        0.7540    -6.7680    -1.4370 H     1 <1>   0.0800 
 41 H       -0.6510    -7.6780    -1.8850 H     1 <1>   0.0800 
 42 H       -1.0960    -9.9000    -0.8040 H     1 <1>   0.1500 
 43 H        3.5790    -9.7020     0.3690 H     1 <1>   0.1500 
 44 H        0.0130   -11.9870    -0.0520 H     1 <1>   0.1500 
 45 H        2.4260   -11.8440     0.5430 H     1 <1>   0.1500 
@<TRIPOS>BOND
  1   1   2  2   
  2   2   3  am  
  3   2   4  1   
  4   3   5  1   
  5   3  26  1   
  6   4   6  2   
  7   4   7  1   
  8   5   8  2   
  9   5   9  1   
 10   6   8  1   
 11   6  10  1   
 12   7  11  2   
 13   7  27  1   
 14   9  12  1   
 15   9  28  1   
 16   9  29  1   
 17  10  11  1   
 18  10  13  1   
 19  12  14  1   
 20  12  15  1   
 21  13  30  1   
 22  13  31  1   
 23  13  32  1   
 24  14  16  1   
 25  14  33  1   
 26  14  34  1   
 27  15  17  1   
 28  15  35  1   
 29  15  36  1   
 30  16  17  1   
 31  16  18  1   
 32  16  37  1   
 33  17  19  1   
 34  17  38  1   
 35  18  39  1   
 36  19  20  1   
 37  19  40  1   
 38  19  41  1   
 39  20  21  ar  
 40  20  22  ar  
 41  21  23  ar  
 42  22  24  ar  
 43  22  42  1   
 44  23  25  ar  
 45  23  43  1   
 46  24  25  ar  
 47  24  44  1   
 48  25  45  1   
@<TRIPOS>SUBSTRUCTURE
  1 ****   9 GROUP 4 **** **** 0

# MOE 2024.06 (io_trps.svl 2023.06)
