@<TRIPOS>MOLECULE
NONAME
34 35 1 0 0 
SMALL
USER_CHARGES


@<TRIPOS>ATOM
  1 S        0.0150     0.1160    -0.1940 S.3   1 <1>  -0.0800 
  2 C       -1.6830     0.5420    -0.2930 C.2   1 <1>   0.4620 
  3 C        0.4200     1.7840    -0.4970 C.2   1 <1>  -0.1100 
  4 N       -1.9040     1.7810    -0.5230 N.2   1 <1>  -0.5650 
  5 N       -2.6120    -0.4290    -0.1280 N.pl3 1 <1>  -0.8840 
  6 C       -0.7170     2.4860    -0.6370 C.2   1 <1>   0.0650 
  7 C       -0.8350     3.9780    -0.9190 C.3   1 <1>   0.1620 
  8 C        0.4350     4.8190    -0.6520 C.3   1 <1>   0.2250 
  9 C       -1.5030     4.7720     0.2260 C.3   1 <1>   0.2250 
 10 N       -0.4280     5.8050     0.0720 N.am  1 <1>  -0.5100 
 11 C       -0.6070     7.1070    -0.2770 C.2   1 <1>   0.7800 
 12 O        0.2240     7.7190    -0.9180 O.2   1 <1>  -0.5700 
 13 O       -1.7490     7.6770     0.1120 O.3   1 <1>  -0.4300 
 14 C       -2.1720     9.0010    -0.1350 C.3   1 <1>   0.2800 
 15 C       -3.5440     9.1110     0.5310 C.3   1 <1>  -0.2400 
 16 C       -1.2090     9.9970     0.5200 C.3   1 <1>  -0.2400 
 17 C       -2.3230     9.2350    -1.6430 C.3   1 <1>  -0.2400 
 18 H        1.4620     2.0440    -0.5360 H     1 <1>   0.1500 
 19 H       -3.6020    -0.1980    -0.2220 H     1 <1>   0.4000 
 20 H       -2.3640    -1.4100     0.0040 H     1 <1>   0.4000 
 21 H       -1.2780     4.1930    -1.8760 H     1 <1>   0.0000 
 22 H        0.8760     5.2290    -1.5420 H     1 <1>   0.0000 
 23 H        1.1400     4.3670     0.0230 H     1 <1>   0.0000 
 24 H       -1.4430     4.2920     1.1870 H     1 <1>   0.0000 
 25 H       -2.4800     5.1470    -0.0220 H     1 <1>   0.0000 
 26 H       -3.4610     8.9250     1.5870 H     1 <1>   0.0800 
 27 H       -4.2260     8.4000     0.1020 H     1 <1>   0.0800 
 28 H       -3.9490    10.0970     0.3920 H     1 <1>   0.0800 
 29 H       -1.0730     9.7580     1.5590 H     1 <1>   0.0800 
 30 H       -1.6070    10.9930     0.4490 H     1 <1>   0.0800 
 31 H       -0.2540     9.9950     0.0290 H     1 <1>   0.0800 
 32 H       -2.9460     8.4770    -2.0800 H     1 <1>   0.0800 
 33 H       -1.3670     9.2340    -2.1340 H     1 <1>   0.0800 
 34 H       -2.7760    10.1930    -1.8210 H     1 <1>   0.0800 
@<TRIPOS>BOND
  1   1   2  1   
  2   1   3  1   
  3   2   4  2   
  4   2   5  1   
  5   3   6  2   
  6   3  18  1   
  7   4   6  1   
  8   5  19  1   
  9   5  20  1   
 10   6   7  1   
 11   7   8  1   
 12   7   9  1   
 13   7  21  1   
 14   8  10  1   
 15   8  22  1   
 16   8  23  1   
 17   9  10  1   
 18   9  24  1   
 19   9  25  1   
 20  10  11  am  
 21  11  12  2   
 22  11  13  1   
 23  13  14  1   
 24  14  15  1   
 25  14  16  1   
 26  14  17  1   
 27  15  26  1   
 28  15  27  1   
 29  15  28  1   
 30  16  29  1   
 31  16  30  1   
 32  16  31  1   
 33  17  32  1   
 34  17  33  1   
 35  17  34  1   
@<TRIPOS>SUBSTRUCTURE
  1 ****   9 GROUP 4 **** **** 0

# MOE 2024.06 (io_trps.svl 2023.06)
