@<TRIPOS>MOLECULE
NONAME
59 60 1 0 0 
SMALL
USER_CHARGES


@<TRIPOS>ATOM
  1 O        1.8480     3.8480    -1.2990 O.3   1 <1>  -0.6800 
  2 C        1.4860     2.7520    -0.5580 C.3   1 <1>   0.2800 
  3 C        2.4920     2.6340     0.5920 C.3   1 <1>  -0.1600 
  4 C        1.5110     1.5490    -1.5000 C.3   1 <1>  -0.2400 
  5 C        0.0750     3.0110    -0.0400 C.3   1 <1>  -0.2400 
  6 C        3.9310     2.5890     0.0770 C.3   1 <1>   0.3430 
  7 N        4.8810     2.9020     1.1870 N.4   1 <1>  -0.9590 
  8 C        5.0830     4.3890     1.4880 C.3   1 <1>   0.3430 
  9 C        6.1650     2.1290     1.0590 C.3   1 <1>   0.2630 
 10 C        5.6070     5.4770     0.4440 C.3   1 <1>   0.5030 
 11 N        4.5990     6.6120     0.2960 N.4   1 <1>  -0.9590 
 12 C        6.8810     6.0920     1.0940 C.3   1 <1>  -0.1600 
 13 C        5.9420     4.9090    -0.9740 C.3   1 <1>  -0.1600 
 14 C        3.2030     6.1670    -0.0310 C.3   1 <1>   0.3430 
 15 C        4.9830     7.6840    -0.6910 C.3   1 <1>   0.3430 
 16 C        8.1440     5.2590     0.8240 C.3   1 <1>  -0.1600 
 17 C        7.2450     5.4530    -1.5870 C.3   1 <1>  -0.1600 
 18 C        2.2240     7.3260     0.1610 C.3   1 <1>  -0.1600 
 19 C        4.0660     8.8970    -0.5270 C.3   1 <1>  -0.1600 
 20 C        8.4510     5.1560    -0.6810 C.3   1 <1>  -0.1600 
 21 C        2.5930     8.5230    -0.7200 C.3   1 <1>  -0.1600 
 22 H        1.2170     3.9280    -2.0470 H     1 <1>   0.4000 
 23 H        2.2820     1.7340     1.1430 H     1 <1>   0.0800 
 24 H        2.3460     3.4650     1.2550 H     1 <1>   0.0800 
 25 H        2.4730     1.4220    -1.9620 H     1 <1>   0.0800 
 26 H        0.7720     1.6590    -2.2750 H     1 <1>   0.0800 
 27 H        1.2760     0.6510    -0.9560 H     1 <1>   0.0800 
 28 H        0.0410     3.8980     0.5670 H     1 <1>   0.0800 
 29 H       -0.2540     2.1820     0.5610 H     1 <1>   0.0800 
 30 H       -0.6200     3.1200    -0.8540 H     1 <1>   0.0800 
 31 H        4.0500     3.2920    -0.7290 H     1 <1>   0.0800 
 32 H        4.1250     1.6030    -0.3160 H     1 <1>   0.0800 
 33 H        4.4310     2.5010     2.0270 H     1 <1>   0.4500 
 34 H        5.7650     4.4270     2.3220 H     1 <1>   0.0800 
 35 H        4.1530     4.7630     1.8760 H     1 <1>   0.0800 
 36 H        6.7310     2.4380     0.1970 H     1 <1>   0.0800 
 37 H        5.9570     1.0750     0.9640 H     1 <1>   0.0800 
 38 H        6.7770     2.2710     1.9360 H     1 <1>   0.0800 
 39 H        4.5440     7.1040     1.1970 H     1 <1>   0.4500 
 40 H        6.7550     6.1990     2.1570 H     1 <1>   0.0800 
 41 H        7.0920     7.0750     0.7190 H     1 <1>   0.0800 
 42 H        5.1310     5.0670    -1.6610 H     1 <1>   0.0800 
 43 H        6.0870     3.8540    -0.9360 H     1 <1>   0.0800 
 44 H        2.8970     5.3540     0.6030 H     1 <1>   0.0800 
 45 H        3.1550     5.8300    -1.0540 H     1 <1>   0.0800 
 46 H        4.8960     7.3060    -1.6970 H     1 <1>   0.0800 
 47 H        6.0000     8.0040    -0.5440 H     1 <1>   0.0800 
 48 H        8.0340     4.2720     1.2360 H     1 <1>   0.0800 
 49 H        8.9880     5.7100     1.3200 H     1 <1>   0.0800 
 50 H        7.1770     6.5140    -1.7470 H     1 <1>   0.0800 
 51 H        7.4120     5.0040    -2.5530 H     1 <1>   0.0800 
 52 H        2.2040     7.6200     1.1960 H     1 <1>   0.0800 
 53 H        1.2330     6.9920    -0.0970 H     1 <1>   0.0800 
 54 H        4.3380     9.6440    -1.2540 H     1 <1>   0.0800 
 55 H        4.2130     9.3330     0.4470 H     1 <1>   0.0800 
 56 H        8.8280     4.1690    -0.8930 H     1 <1>   0.0800 
 57 H        9.2410     5.8460    -0.9320 H     1 <1>   0.0800 
 58 H        1.9640     9.3660    -0.4800 H     1 <1>   0.0800 
 59 H        2.4200     8.2730    -1.7550 H     1 <1>   0.0800 
@<TRIPOS>BOND
  1   1   2  1   
  2   1  22  1   
  3   2   3  1   
  4   2   4  1   
  5   2   5  1   
  6   3   6  1   
  7   3  23  1   
  8   3  24  1   
  9   4  25  1   
 10   4  26  1   
 11   4  27  1   
 12   5  28  1   
 13   5  29  1   
 14   5  30  1   
 15   6   7  1   
 16   6  31  1   
 17   6  32  1   
 18   7   8  1   
 19   7   9  1   
 20   7  33  1   
 21   8  10  1   
 22   8  34  1   
 23   8  35  1   
 24   9  36  1   
 25   9  37  1   
 26   9  38  1   
 27  10  11  1   
 28  10  12  1   
 29  10  13  1   
 30  11  14  1   
 31  11  15  1   
 32  11  39  1   
 33  12  16  1   
 34  12  40  1   
 35  12  41  1   
 36  13  17  1   
 37  13  42  1   
 38  13  43  1   
 39  14  18  1   
 40  14  44  1   
 41  14  45  1   
 42  15  19  1   
 43  15  46  1   
 44  15  47  1   
 45  16  20  1   
 46  16  48  1   
 47  16  49  1   
 48  17  20  1   
 49  17  50  1   
 50  17  51  1   
 51  18  21  1   
 52  18  52  1   
 53  18  53  1   
 54  19  21  1   
 55  19  54  1   
 56  19  55  1   
 57  20  56  1   
 58  20  57  1   
 59  21  58  1   
 60  21  59  1   
@<TRIPOS>SUBSTRUCTURE
  1 ****  10 GROUP 4 **** **** 0

# MOE 2024.06 (io_trps.svl 2023.06)
