@<TRIPOS>MOLECULE
NONAME
49 52 1 0 0 
SMALL
USER_CHARGES


@<TRIPOS>ATOM
  1 O        2.5220     2.9200     2.1780 O.co2 1 <1>  -0.9030 
  2 C        2.8100     1.7350     2.4040 C.2   1 <1>   0.9770 
  3 O        2.0690     1.0380     3.1090 O.co2 1 <1>  -0.9030 
  4 C        4.0140     1.1740     1.8350 C.ar  1 <1>  -0.1870 
  5 C        4.3490    -0.1700     2.0760 C.ar  1 <1>   0.1520 
  6 C        4.8600     1.9360     1.0440 C.ar  1 <1>  -0.1170 
  7 N        5.4210    -0.7960     1.6140 N.ar  1 <1>  -0.5840 
  8 C        5.9740     1.2950     0.5530 C.ar  1 <1>   0.3020 
  9 C        6.2030    -0.0280     0.8670 C.ar  1 <1>   0.6140 
 10 N        7.0190     1.6920    -0.2420 N.pl3 1 <1>  -0.7040 
 11 N        7.3880    -0.4050     0.2690 N.pl3 1 <1>  -0.7680 
 12 C        7.8660     0.6760    -0.3850 C.cat 1 <1>   1.0690 
 13 C        7.8540    -1.8030     0.3640 C.3   1 <1>   0.3480 
 14 N        9.0200     0.8070    -1.0860 N.pl3 1 <1>  -0.5970 
 15 C        7.5570    -2.5210    -0.9490 C.3   1 <1>  -0.2470 
 16 C        9.3150     2.0320    -1.9110 C.3   1 <1>   0.1600 
 17 C       10.2410    -0.0240    -0.8740 C.3   1 <1>   0.1600 
 18 C       10.3250     2.9870    -1.2370 C.3   1 <1>   0.1320 
 19 C       10.8810     0.3020     0.4850 C.3   1 <1>  -0.1680 
 20 N       10.4360     2.7470     0.2350 N.am  1 <1>  -0.6640 
 21 C       11.4620     1.7210     0.5920 C.3   1 <1>   0.1320 
 22 C        9.6340     3.3270     1.2100 C.2   1 <1>   0.7110 
 23 O        9.8750     3.0510     2.3710 O.2   1 <1>  -0.5750 
 24 C        8.4740     4.1620     0.9400 C.2   1 <1>   0.0470 
 25 O        7.9970     4.4040    -0.2840 O.3   1 <1>  -0.2870 
 26 C        7.6510     4.7810     1.8330 C.2   1 <1>  -0.1580 
 27 C        6.9220     5.1550    -0.1890 C.2   1 <1>  -0.0190 
 28 C        6.6490     5.4190     1.1040 C.2   1 <1>  -0.1580 
 29 H        3.6710    -0.7410     2.6940 H     1 <1>   0.1420 
 30 H        4.6500     2.9710     0.8320 H     1 <1>   0.1420 
 31 H        7.2140     2.6650    -0.4880 H     1 <1>   0.4440 
 32 H        7.3440    -2.3140     1.1640 H     1 <1>   0.0720 
 33 H        8.9010    -1.8390     0.5990 H     1 <1>   0.0720 
 34 H        6.4970    -2.5370    -1.1280 H     1 <1>   0.0720 
 35 H        7.9010    -3.5380    -0.8880 H     1 <1>   0.0720 
 36 H        8.0510    -2.0440    -1.7760 H     1 <1>   0.0720 
 37 H        8.4110     2.5750    -2.1240 H     1 <1>   0.0720 
 38 H        9.7090     1.7300    -2.8660 H     1 <1>   0.0720 
 39 H       10.9570     0.1740    -1.6550 H     1 <1>   0.0720 
 40 H       10.0040    -1.0670    -0.9440 H     1 <1>   0.0720 
 41 H       10.0640     4.0120    -1.4340 H     1 <1>   0.0720 
 42 H       11.2910     2.8400    -1.6890 H     1 <1>   0.0720 
 43 H       11.6870    -0.3900     0.6530 H     1 <1>   0.0720 
 44 H       10.1740     0.1520     1.2810 H     1 <1>   0.0720 
 45 H       12.3120     1.8190    -0.0610 H     1 <1>   0.0720 
 46 H       11.8190     1.8860     1.5950 H     1 <1>   0.0720 
 47 H        7.7380     4.7810     2.9070 H     1 <1>   0.1420 
 48 H        6.4030     5.4650    -1.0810 H     1 <1>   0.1420 
 49 H        5.8390     5.9950     1.5210 H     1 <1>   0.1420 
@<TRIPOS>BOND
  1   1   2  ar  
  2   2   3  ar  
  3   2   4  1   
  4   4   5  ar  
  5   4   6  ar  
  6   5   7  ar  
  7   5  29  1   
  8   6   8  ar  
  9   6  30  1   
 10   7   9  ar  
 11   8   9  ar  
 12   8  10  1   
 13   9  11  1   
 14  10  12  ar  
 15  10  31  1   
 16  11  12  ar  
 17  11  13  1   
 18  12  14  ar  
 19  13  15  1   
 20  13  32  1   
 21  13  33  1   
 22  14  16  1   
 23  14  17  1   
 24  15  34  1   
 25  15  35  1   
 26  15  36  1   
 27  16  18  1   
 28  16  37  1   
 29  16  38  1   
 30  17  19  1   
 31  17  39  1   
 32  17  40  1   
 33  18  20  1   
 34  18  41  1   
 35  18  42  1   
 36  19  21  1   
 37  19  43  1   
 38  19  44  1   
 39  20  21  1   
 40  20  22  am  
 41  21  45  1   
 42  21  46  1   
 43  22  23  2   
 44  22  24  1   
 45  24  25  1   
 46  24  26  2   
 47  25  27  1   
 48  26  28  1   
 49  26  47  1   
 50  27  28  2   
 51  27  48  1   
 52  28  49  1   
@<TRIPOS>SUBSTRUCTURE
  1 ****  10 GROUP 4 **** **** 0

# MOE 2024.06 (io_trps.svl 2023.06)
