@<TRIPOS>MOLECULE
NONAME
53 56 1 0 0 
SMALL
USER_CHARGES


@<TRIPOS>ATOM
  1 O        0.4110     0.3560    -0.3380 O.3   1 <1>  -0.5600 
  2 C        1.6500    -0.2260    -0.6360 C.3   1 <1>   0.3440 
  3 C        0.3640     1.7490    -0.4400 C.3   1 <1>   0.2950 
  4 C        1.5550    -1.7380    -0.4890 C.ar  1 <1>  -0.1440 
  5 C        2.7290     0.3120     0.3330 C.3   1 <1>   0.3430 
  6 C       -1.0660     2.1860    -0.1220 C.3   1 <1>  -0.1950 
  7 C        1.3690     2.3850     0.5460 C.3   1 <1>   0.3430 
  8 C        2.2780    -2.5590    -1.3430 C.ar  1 <1>  -0.1500 
  9 C        0.7710    -2.3170     0.5010 C.ar  1 <1>  -0.1500 
 10 N        2.7640     1.8190     0.4060 N.4   1 <1>  -0.9590 
 11 C       -2.1340     2.1510    -1.1690 C.3   1 <1>  -0.2000 
 12 C       -1.6200     3.4690    -0.6600 C.3   1 <1>  -0.2000 
 13 C        2.2260    -3.9350    -1.2040 C.ar  1 <1>  -0.1500 
 14 C        0.7190    -3.6930     0.6400 C.ar  1 <1>  -0.1500 
 15 C        3.6630     2.3110     1.4800 C.3   1 <1>   0.5240 
 16 C        1.4490    -4.5030    -0.2110 C.ar  1 <1>  -0.1500 
 17 C        3.8100     3.7980     1.2730 C.2   1 <1>  -0.1810 
 18 C        4.5220     4.4870     0.3510 C.2   1 <1>  -0.3320 
 19 C        3.1820     4.7690     2.0420 C.2   1 <1>   0.1390 
 20 N        4.3000     5.8050     0.5930 N.pl3 1 <1>   0.3140 
 21 C        5.4350     3.9760    -0.7570 C.3   1 <1>  -0.0600 
 22 N        3.4540     5.9620     1.6300 N.2   1 <1>  -0.7070 
 23 C        4.8510     6.9830    -0.1260 C.3   1 <1>   0.2340 
 24 C        6.3580     7.1030     0.0650 C.2   1 <1>  -0.2880 
 25 C        7.2660     7.1410    -0.9150 C.2   1 <1>  -0.3000 
 26 H        1.8980     0.0190    -1.6540 H     1 <1>   0.0800 
 27 H        0.6060     2.0240    -1.4530 H     1 <1>   0.0800 
 28 H        3.6900    -0.0690     0.0290 H     1 <1>   0.0800 
 29 H        2.5150    -0.0940     1.3080 H     1 <1>   0.0800 
 30 H       -1.3640     1.9060     0.8740 H     1 <1>   0.1000 
 31 H        1.0050     2.2100     1.5450 H     1 <1>   0.0800 
 32 H        1.3860     3.4520     0.3880 H     1 <1>   0.0800 
 33 H        2.8870    -2.1450    -2.1280 H     1 <1>   0.1500 
 34 H        0.1870    -1.7040     1.1660 H     1 <1>   0.1500 
 35 H        3.1550     2.2020    -0.4640 H     1 <1>   0.4500 
 36 H       -1.8800     1.8410    -2.1680 H     1 <1>   0.1000 
 37 H       -3.1230     1.8330    -0.8830 H     1 <1>   0.1000 
 38 H       -2.2740     4.0600    -0.0400 H     1 <1>   0.1000 
 39 H       -1.0470     4.0750    -1.3400 H     1 <1>   0.1000 
 40 H        2.7880    -4.5690    -1.8690 H     1 <1>   0.1500 
 41 H        0.1070    -4.1350     1.4070 H     1 <1>   0.1500 
 42 H        3.2500     2.1030     2.4530 H     1 <1>   0.0800 
 43 H        4.6310     1.8450     1.4030 H     1 <1>   0.0800 
 44 H        1.4070    -5.5730    -0.1030 H     1 <1>   0.1500 
 45 H        2.5370     4.5840     2.8860 H     1 <1>   0.1500 
 46 H        5.4540     2.9030    -0.7850 H     1 <1>   0.0800 
 47 H        6.4420     4.3200    -0.5900 H     1 <1>   0.0800 
 48 H        5.1060     4.3420    -1.7140 H     1 <1>   0.0800 
 49 H        4.6090     6.8940    -1.1680 H     1 <1>   0.0800 
 50 H        4.3700     7.8650     0.2590 H     1 <1>   0.0800 
 51 H        6.6290     7.1580     1.1080 H     1 <1>   0.1500 
 52 H        8.3270     7.2290    -0.7430 H     1 <1>   0.1500 
 53 H        7.0390     7.0950    -1.9670 H     1 <1>   0.1500 
@<TRIPOS>BOND
  1   1   2  1   
  2   1   3  1   
  3   2   4  1   
  4   2   5  1   
  5   2  26  1   
  6   3   6  1   
  7   3   7  1   
  8   3  27  1   
  9   4   8  ar  
 10   4   9  ar  
 11   5  10  1   
 12   5  28  1   
 13   5  29  1   
 14   6  11  1   
 15   6  12  1   
 16   6  30  1   
 17   7  10  1   
 18   7  31  1   
 19   7  32  1   
 20   8  13  ar  
 21   8  33  1   
 22   9  14  ar  
 23   9  34  1   
 24  10  15  1   
 25  10  35  1   
 26  11  12  1   
 27  11  36  1   
 28  11  37  1   
 29  12  38  1   
 30  12  39  1   
 31  13  16  ar  
 32  13  40  1   
 33  14  16  ar  
 34  14  41  1   
 35  15  17  1   
 36  15  42  1   
 37  15  43  1   
 38  16  44  1   
 39  17  18  2   
 40  17  19  1   
 41  18  20  1   
 42  18  21  1   
 43  19  22  2   
 44  19  45  1   
 45  20  22  1   
 46  20  23  1   
 47  21  46  1   
 48  21  47  1   
 49  21  48  1   
 50  23  24  1   
 51  23  49  1   
 52  23  50  1   
 53  24  25  2   
 54  24  51  1   
 55  25  52  1   
 56  25  53  1   
@<TRIPOS>SUBSTRUCTURE
  1 ****  10 GROUP 4 **** **** 0

# MOE 2024.06 (io_trps.svl 2023.06)
