@<TRIPOS>MOLECULE
NONAME
21 21 1 0 0 
SMALL
USER_CHARGES


@<TRIPOS>ATOM
  1 F        1.5360    -0.3180    -1.8440 F     1 <1>  -0.3400 
  2 C        1.9090    -0.0540    -0.5900 C.3   1 <1>   0.8230 
  3 F        3.2010    -0.3830    -0.5730 F     1 <1>  -0.3400 
  4 C        1.7580     1.4580    -0.3190 C.ar  1 <1>   0.1660 
  5 C        1.1260    -0.9970     0.3610 C.3   1 <1>   0.1200 
  6 N        0.9040     1.8570     0.6270 N.ar  1 <1>  -0.6200 
  7 C        2.5150     2.3490    -1.0720 C.ar  1 <1>  -0.1500 
  8 O        1.2350    -2.3670     0.0550 O.3   1 <1>  -0.6800 
  9 C        0.8110     3.1640     0.8180 C.ar  1 <1>   0.1600 
 10 C        2.4060     3.7060    -0.8600 C.ar  1 <1>  -0.1500 
 11 C        1.5260     4.1220     0.1160 C.ar  1 <1>  -0.1430 
 12 C        1.3580     5.6050     0.4010 C.3   1 <1>  -0.0970 
 13 H        0.0840    -0.7330     0.3300 H     1 <1>   0.0800 
 14 H        1.4710    -0.8510     1.3680 H     1 <1>   0.0800 
 15 H        3.1900     1.9810    -1.8250 H     1 <1>   0.1500 
 16 H        1.0790    -2.5190    -0.9010 H     1 <1>   0.4000 
 17 H        0.1240     3.4900     1.5800 H     1 <1>   0.1500 
 18 H        2.9850     4.4080    -1.4340 H     1 <1>   0.1500 
 19 H        0.6330     5.7690     1.1790 H     1 <1>   0.0800 
 20 H        1.0270     6.1140    -0.4870 H     1 <1>   0.0800 
 21 H        2.2960     6.0270     0.7140 H     1 <1>   0.0800 
@<TRIPOS>BOND
  1   1   2  1   
  2   2   3  1   
  3   2   4  1   
  4   2   5  1   
  5   4   6  ar  
  6   4   7  ar  
  7   5   8  1   
  8   5  13  1   
  9   5  14  1   
 10   6   9  ar  
 11   7  10  ar  
 12   7  15  1   
 13   8  16  1   
 14   9  11  ar  
 15   9  17  1   
 16  10  11  ar  
 17  10  18  1   
 18  11  12  1   
 19  12  19  1   
 20  12  20  1   
 21  12  21  1   
@<TRIPOS>SUBSTRUCTURE
  1 ****   4 GROUP 4 **** **** 0

# MOE 2024.06 (io_trps.svl 2023.06)
