@<TRIPOS>MOLECULE
NONAME
56 58 1 0 0 
SMALL
USER_CHARGES


@<TRIPOS>ATOM
  1 O       -0.0710     0.7660    -2.2730 O.2   1 <1>  -0.5700 
  2 C        0.0170     1.8490    -1.7260 C.2   1 <1>   0.5440 
  3 N       -1.1290     2.4480    -1.2460 N.am  1 <1>  -0.6600 
  4 C        1.3210     2.4700    -1.5830 C.ar  1 <1>   0.0860 
  5 C       -2.4690     1.9030    -1.6120 C.3   1 <1>   0.1400 
  6 C       -1.0990     3.5460    -0.2360 C.3   1 <1>   0.1400 
  7 C        2.3890     1.7660    -1.0320 C.ar  1 <1>  -0.1500 
  8 C        1.5540     3.7830    -1.9910 C.ar  1 <1>  -0.1500 
  9 C       -3.5390     2.9940    -1.5130 C.3   1 <1>  -0.1600 
 10 C       -2.3190     3.4410     0.6780 C.3   1 <1>  -0.1600 
 11 C        3.6410     2.3370    -0.8690 C.ar  1 <1>   0.0730 
 12 C        2.7960     4.3710    -1.8380 C.ar  1 <1>  -0.1500 
 13 C       -3.6290     3.6460    -0.1110 C.3   1 <1>   0.2800 
 14 C        4.7160     1.5870    -0.2930 C.1   1 <1>  -0.0730 
 15 C        3.8330     3.6500    -1.2770 C.ar  1 <1>  -0.1500 
 16 O       -3.7790     5.0240    -0.3630 O.3   1 <1>  -0.5600 
 17 C       -4.8460     3.1090     0.6860 C.3   1 <1>  -0.1600 
 18 C        5.6060     0.9570     0.1850 C.1   1 <1>  -0.2000 
 19 C       -4.3180     5.8290     0.6480 C.3   1 <1>   0.1200 
 20 C       -6.0910     3.9880     0.5300 C.3   1 <1>   0.2800 
 21 C        6.7190     0.1670     0.7760 C.3   1 <1>   0.4800 
 22 C       -5.7660     5.4200     0.9650 C.3   1 <1>  -0.1600 
 23 O       -6.4140     4.0370    -0.8000 O.3   1 <1>  -0.6800 
 24 C       -7.3080     3.4200     1.2570 C.3   1 <1>  -0.2400 
 25 O        6.5050     0.1370     2.1240 O.3   1 <1>  -0.6800 
 26 C        8.0610     0.8500     0.5450 C.3   1 <1>  -0.2400 
 27 C        6.7130    -1.2740     0.2810 C.3   1 <1>  -0.2400 
 28 H       -2.7080     1.0870    -0.9520 H     1 <1>   0.0800 
 29 H       -2.4390     1.5190    -2.6180 H     1 <1>   0.0800 
 30 H       -1.1080     4.4970    -0.7420 H     1 <1>   0.0800 
 31 H       -0.2020     3.4770     0.3540 H     1 <1>   0.0800 
 32 H        2.2320     0.7460    -0.7280 H     1 <1>   0.1500 
 33 H        0.7490     4.3410    -2.4380 H     1 <1>   0.1500 
 34 H       -4.4820     2.5640    -1.7950 H     1 <1>   0.0800 
 35 H       -3.3000     3.7400    -2.2500 H     1 <1>   0.0800 
 36 H       -2.2350     4.1530     1.4760 H     1 <1>   0.0800 
 37 H       -2.3100     2.4630     1.1270 H     1 <1>   0.0800 
 38 H        2.9570     5.3870    -2.1580 H     1 <1>   0.1500 
 39 H        4.8010     4.1050    -1.1560 H     1 <1>   0.1500 
 40 H       -4.5970     3.0800     1.7310 H     1 <1>   0.0800 
 41 H       -5.0660     2.0950     0.4040 H     1 <1>   0.0800 
 42 H       -4.2850     6.8490     0.3070 H     1 <1>   0.0800 
 43 H       -3.7000     5.7440     1.5240 H     1 <1>   0.0800 
 44 H       -6.4550     6.1090     0.5080 H     1 <1>   0.0800 
 45 H       -5.8990     5.5100     2.0280 H     1 <1>   0.0800 
 46 H       -5.6610     4.4730    -1.2540 H     1 <1>   0.4000 
 47 H       -7.1130     3.3490     2.3110 H     1 <1>   0.0800 
 48 H       -7.5370     2.4380     0.8840 H     1 <1>   0.0800 
 49 H       -8.1590     4.0600     1.1080 H     1 <1>   0.0800 
 50 H        6.1410     1.0020     2.3820 H     1 <1>   0.4000 
 51 H        8.0450     1.8540     0.9280 H     1 <1>   0.0800 
 52 H        8.2710     0.8920    -0.5080 H     1 <1>   0.0800 
 53 H        8.8480     0.2970     1.0270 H     1 <1>   0.0800 
 54 H        5.7640    -1.7330     0.4930 H     1 <1>   0.0800 
 55 H        7.4950    -1.8350     0.7590 H     1 <1>   0.0800 
 56 H        6.8720    -1.2960    -0.7810 H     1 <1>   0.0800 
@<TRIPOS>BOND
  1   1   2  2   
  2   2   3  am  
  3   2   4  1   
  4   3   5  1   
  5   3   6  1   
  6   4   7  ar  
  7   4   8  ar  
  8   5   9  1   
  9   5  28  1   
 10   5  29  1   
 11   6  10  1   
 12   6  30  1   
 13   6  31  1   
 14   7  11  ar  
 15   7  32  1   
 16   8  12  ar  
 17   8  33  1   
 18   9  13  1   
 19   9  34  1   
 20   9  35  1   
 21  10  13  1   
 22  10  36  1   
 23  10  37  1   
 24  11  14  1   
 25  11  15  ar  
 26  12  15  ar  
 27  12  38  1   
 28  13  16  1   
 29  13  17  1   
 30  14  18  3   
 31  15  39  1   
 32  16  19  1   
 33  17  20  1   
 34  17  40  1   
 35  17  41  1   
 36  18  21  1   
 37  19  22  1   
 38  19  42  1   
 39  19  43  1   
 40  20  22  1   
 41  20  23  1   
 42  20  24  1   
 43  21  25  1   
 44  21  26  1   
 45  21  27  1   
 46  22  44  1   
 47  22  45  1   
 48  23  46  1   
 49  24  47  1   
 50  24  48  1   
 51  24  49  1   
 52  25  50  1   
 53  26  51  1   
 54  26  52  1   
 55  26  53  1   
 56  27  54  1   
 57  27  55  1   
 58  27  56  1   
@<TRIPOS>SUBSTRUCTURE
  1 ****   6 GROUP 4 **** **** 0

# MOE 2024.06 (io_trps.svl 2023.06)
