@<TRIPOS>MOLECULE
NONAME
49 51 1 0 0 
SMALL
USER_CHARGES


@<TRIPOS>ATOM
  1 F       -1.0790    -1.1600    -1.9170 F     1 <1>  -0.1900 
  2 C       -1.5430    -2.2020    -1.2740 C.ar  1 <1>   0.1900 
  3 C       -0.7470    -2.9470    -0.3970 C.ar  1 <1>   0.0820 
  4 C       -2.8650    -2.5270    -1.5040 C.ar  1 <1>  -0.1500 
  5 O        0.5640    -2.7260    -0.0880 O.3   1 <1>  -0.3630 
  6 C       -1.3320    -4.0310     0.2370 C.ar  1 <1>  -0.1500 
  7 C       -3.4170    -3.6150    -0.8540 C.ar  1 <1>  -0.1500 
  8 C        1.3310    -1.7030    -0.6820 C.3   1 <1>   0.0400 
  9 C       -2.6640    -4.3940     0.0260 C.ar  1 <1>   0.0530 
 10 C       -3.2320    -5.5360     0.7010 C.2   1 <1>   0.0870 
 11 O       -2.7790    -5.9090     1.8760 O.3   1 <1>  -0.0190 
 12 C       -4.2230    -6.4020     0.3760 C.2   1 <1>  -0.2330 
 13 N       -3.4040    -6.9550     2.3530 N.2   1 <1>  -0.4100 
 14 C       -4.2750    -7.2750     1.4650 C.2   1 <1>   0.3720 
 15 C       -5.0710    -6.4610    -0.7620 C.2   1 <1>   1.0330 
 16 N       -5.1400    -8.3650     1.6370 N.pl3 1 <1>  -0.8210 
 17 O       -6.0950    -5.7590    -0.8300 O.co2 1 <1>  -0.9000 
 18 O       -4.9420    -7.3470    -1.6280 O.co2 1 <1>  -0.9000 
 19 C       -4.9600    -9.5220     0.6970 C.3   1 <1>   0.2090 
 20 C       -6.4630    -8.0790     2.2750 C.3   1 <1>   0.2090 
 21 C       -6.1790    -9.7600    -0.2150 C.3   1 <1>   0.2000 
 22 C       -7.6550    -8.5970     1.4520 C.3   1 <1>  -0.1600 
 23 O       -5.8080    -9.7630    -1.5600 O.3   1 <1>  -0.6800 
 24 C       -7.2290    -8.6580    -0.0080 C.3   1 <1>   0.4230 
 25 N       -8.3050    -8.7410    -1.0360 N.4   1 <1>  -0.9590 
 26 C       -8.6050    -7.3540    -1.5100 C.3   1 <1>   0.2630 
 27 C       -9.5080    -9.5390    -0.6760 C.3   1 <1>   0.2630 
 28 H       -3.4560    -1.9380    -2.1820 H     1 <1>   0.1500 
 29 H       -0.7310    -4.6140     0.9120 H     1 <1>   0.1500 
 30 H       -4.4510    -3.8580    -1.0320 H     1 <1>   0.1500 
 31 H        2.3310    -1.7640    -0.2900 H     1 <1>   0.0800 
 32 H        0.8990    -0.7500    -0.4300 H     1 <1>   0.0800 
 33 H        1.3480    -1.8500    -1.7470 H     1 <1>   0.0800 
 34 H       -4.0830    -9.3540     0.0920 H     1 <1>   0.0800 
 35 H       -4.7840   -10.4050     1.2850 H     1 <1>   0.0800 
 36 H       -6.4770    -8.5100     3.2620 H     1 <1>   0.0800 
 37 H       -6.5570    -7.0100     2.3900 H     1 <1>   0.0800 
 38 H       -6.5990   -10.7250     0.0040 H     1 <1>   0.0800 
 39 H       -8.4780    -7.9190     1.5820 H     1 <1>   0.0800 
 40 H       -7.9380    -9.5710     1.8080 H     1 <1>   0.0800 
 41 H       -5.3720    -8.8640    -1.7560 H     1 <1>   0.4000 
 42 H       -6.7280    -7.7360    -0.1770 H     1 <1>   0.0800 
 43 H       -7.7940    -9.2010    -1.8160 H     1 <1>   0.4500 
 44 H       -8.9660    -6.7450    -0.6980 H     1 <1>   0.0800 
 45 H       -9.3420    -7.3720    -2.2950 H     1 <1>   0.0800 
 46 H       -7.7070    -6.8970    -1.8980 H     1 <1>   0.0800 
 47 H      -10.0330    -9.0730     0.1410 H     1 <1>   0.0800 
 48 H       -9.2170   -10.5340    -0.3830 H     1 <1>   0.0800 
 49 H      -10.1720    -9.6080    -1.5220 H     1 <1>   0.0800 
@<TRIPOS>BOND
  1   1   2  1   
  2   2   3  ar  
  3   2   4  ar  
  4   3   5  1   
  5   3   6  ar  
  6   4   7  ar  
  7   4  28  1   
  8   5   8  1   
  9   6   9  ar  
 10   6  29  1   
 11   7   9  ar  
 12   7  30  1   
 13   8  31  1   
 14   8  32  1   
 15   8  33  1   
 16   9  10  1   
 17  10  11  1   
 18  10  12  2   
 19  11  13  1   
 20  12  14  1   
 21  12  15  1   
 22  13  14  2   
 23  14  16  1   
 24  15  17  ar  
 25  15  18  ar  
 26  16  19  1   
 27  16  20  1   
 28  19  21  1   
 29  19  34  1   
 30  19  35  1   
 31  20  22  1   
 32  20  36  1   
 33  20  37  1   
 34  21  23  1   
 35  21  24  1   
 36  21  38  1   
 37  22  24  1   
 38  22  39  1   
 39  22  40  1   
 40  23  41  1   
 41  24  25  1   
 42  24  42  1   
 43  25  26  1   
 44  25  27  1   
 45  25  43  1   
 46  26  44  1   
 47  26  45  1   
 48  26  46  1   
 49  27  47  1   
 50  27  48  1   
 51  27  49  1   
@<TRIPOS>SUBSTRUCTURE
  1 ****  12 GROUP 4 **** **** 0

# MOE 2024.06 (io_trps.svl 2023.06)
