@<TRIPOS>MOLECULE
NONAME
36 37 1 0 0 
SMALL
USER_CHARGES


@<TRIPOS>ATOM
  1 S       -0.2040     0.7280    -1.2900 S.3   1 <1>  -0.4600 
  2 C       -2.0060     0.5710    -1.3500 C.3   1 <1>   0.0700 
  3 C        0.2790    -0.5460    -0.0930 C.3   1 <1>  -0.0100 
  4 C       -2.5880     1.3410    -0.1600 C.3   1 <1>  -0.1600 
  5 C       -4.1160     1.2010    -0.0830 C.3   1 <1>   0.2810 
  6 N       -4.6130     2.1840     0.9070 N.am  1 <1>  -0.7300 
  7 C       -4.6290    -0.2140     0.2550 C.2   1 <1>   0.5690 
  8 C       -5.9280     2.4020     1.1590 C.2   1 <1>   0.5440 
  9 O       -3.8250    -1.0890     0.5010 O.2   1 <1>  -0.5700 
 10 N       -5.9910    -0.4440     0.2570 N.am  1 <1>  -0.4770 
 11 O       -6.1710     3.1590     2.0770 O.2   1 <1>  -0.5700 
 12 C       -6.9720     1.8410     0.3260 C.ar  1 <1>   0.0860 
 13 C       -6.9670     0.5060    -0.1320 C.ar  1 <1>   0.1170 
 14 C       -6.4450    -1.8180     0.7300 C.3   1 <1>   0.0340 
 15 C       -8.0140     2.6800    -0.0740 C.ar  1 <1>  -0.1500 
 16 C       -7.9700     0.1060    -1.0140 C.ar  1 <1>  -0.1500 
 17 C       -7.8880    -1.9920     1.1950 C.2   1 <1>   0.9060 
 18 C       -9.0080     2.2540    -0.9310 C.ar  1 <1>  -0.1500 
 19 C       -8.9800     0.9580    -1.4090 C.ar  1 <1>  -0.1500 
 20 O       -8.2160    -1.6020     2.3210 O.co2 1 <1>  -0.9000 
 21 O       -8.6810    -2.5670     0.4380 O.co2 1 <1>  -0.9000 
 22 H       -2.2330    -0.4810    -1.3210 H     1 <1>   0.0800 
 23 H       -2.3280     0.9900    -2.2880 H     1 <1>   0.0800 
 24 H        1.3520    -0.5510    -0.0350 H     1 <1>   0.0800 
 25 H       -0.0910    -1.4920    -0.4460 H     1 <1>   0.0800 
 26 H       -0.1540    -0.2960     0.8590 H     1 <1>   0.0800 
 27 H       -2.3290     2.3790    -0.2740 H     1 <1>   0.0800 
 28 H       -2.1550     0.9740     0.7530 H     1 <1>   0.0800 
 29 H       -4.5220     1.4690    -1.0430 H     1 <1>   0.0800 
 30 H       -3.9670     2.4830     1.6370 H     1 <1>   0.3700 
 31 H       -5.8340    -2.1160     1.5590 H     1 <1>   0.0800 
 32 H       -6.2820    -2.5210    -0.0640 H     1 <1>   0.0800 
 33 H       -8.0360     3.6890     0.3000 H     1 <1>   0.1500 
 34 H       -7.9760    -0.9050    -1.3840 H     1 <1>   0.1500 
 35 H       -9.8020     2.9190    -1.2210 H     1 <1>   0.1500 
 36 H       -9.7500     0.6050    -2.0740 H     1 <1>   0.1500 
@<TRIPOS>BOND
  1   1   2  1   
  2   1   3  1   
  3   2   4  1   
  4   2  22  1   
  5   2  23  1   
  6   3  24  1   
  7   3  25  1   
  8   3  26  1   
  9   4   5  1   
 10   4  27  1   
 11   4  28  1   
 12   5   6  1   
 13   5   7  1   
 14   5  29  1   
 15   6   8  am  
 16   6  30  1   
 17   7   9  2   
 18   7  10  am  
 19   8  11  2   
 20   8  12  1   
 21  10  13  1   
 22  10  14  1   
 23  12  13  ar  
 24  12  15  ar  
 25  13  16  ar  
 26  14  17  1   
 27  14  31  1   
 28  14  32  1   
 29  15  18  ar  
 30  15  33  1   
 31  16  19  ar  
 32  16  34  1   
 33  17  20  ar  
 34  17  21  ar  
 35  18  19  ar  
 36  18  35  1   
 37  19  36  1   
@<TRIPOS>SUBSTRUCTURE
  1 ****  10 GROUP 4 **** **** 0

# MOE 2024.06 (io_trps.svl 2023.06)
