@<TRIPOS>MOLECULE
NONAME
55 58 1 0 0 
SMALL
USER_CHARGES


@<TRIPOS>ATOM
  1 O       -4.3550     1.5910     1.1840 O.2   1 <1>  -0.5700 
  2 C       -4.1650     2.3300     0.2450 C.2   1 <1>   0.5690 
  3 N       -4.6330     1.9850    -0.9890 N.am  1 <1>  -0.6600 
  4 C       -3.3820     3.6160     0.4380 C.3   1 <1>  -0.0990 
  5 C       -6.0750     1.5900    -1.0970 C.3   1 <1>   0.1400 
  6 C       -3.7580     1.1080    -1.8310 C.3   1 <1>   0.1400 
  7 C       -1.9660     3.5300    -0.1530 C.3   1 <1>  -0.1600 
  8 C       -6.3100     0.1110    -0.6820 C.3   1 <1>   0.4230 
  9 C       -4.0350    -0.3970    -1.5860 C.3   1 <1>   0.3430 
 10 C       -1.1160     4.7770     0.1520 C.3   1 <1>  -0.0990 
 11 N       -5.0090    -0.6200    -0.4570 N.4   1 <1>  -0.9590 
 12 C       -7.1950    -0.6400    -1.7010 C.3   1 <1>   0.1200 
 13 C        0.2930     4.7130    -0.4450 C.2   1 <1>   0.4230 
 14 C       -5.2620    -2.0470    -0.0940 C.3   1 <1>   0.5180 
 15 O       -7.3730    -1.9720    -1.3110 O.3   1 <1>  -0.5600 
 16 O        0.5460     3.7910    -1.1810 O.2   1 <1>  -0.5700 
 17 C        1.2650     5.7400    -0.1140 C.ar  1 <1>   0.0860 
 18 C       -3.9170    -2.7680     0.1220 C.3   1 <1>  -0.1950 
 19 C       -6.1920    -2.7140    -1.1380 C.3   1 <1>   0.1200 
 20 C        2.5870     5.6170    -0.5490 C.ar  1 <1>  -0.1500 
 21 C        0.9540     6.8810     0.6350 C.ar  1 <1>  -0.1500 
 22 C       -3.1140    -3.4350    -0.9580 C.3   1 <1>  -0.2000 
 23 C       -3.7810    -4.2610     0.1050 C.3   1 <1>  -0.2000 
 24 C        3.5460     6.5680    -0.2560 C.ar  1 <1>  -0.1500 
 25 C        1.9080     7.8370     0.9320 C.ar  1 <1>  -0.1500 
 26 C        3.2080     7.6830     0.4880 C.ar  1 <1>  -0.1500 
 27 H       -3.9230     4.4220    -0.0230 H     1 <1>   0.0800 
 28 H       -3.3210     3.8180     1.4930 H     1 <1>   0.0800 
 29 H       -6.6690     2.2270    -0.4630 H     1 <1>   0.0800 
 30 H       -6.4060     1.7540    -2.1080 H     1 <1>   0.0800 
 31 H       -3.9090     1.3410    -2.8720 H     1 <1>   0.0800 
 32 H       -2.7230     1.3010    -1.6110 H     1 <1>   0.0800 
 33 H       -1.4650     2.6630     0.2440 H     1 <1>   0.0800 
 34 H       -2.0360     3.4200    -1.2210 H     1 <1>   0.0800 
 35 H       -6.8530     0.1290     0.2490 H     1 <1>   0.0800 
 36 H       -3.0980    -0.8810    -1.3640 H     1 <1>   0.0800 
 37 H       -4.4190    -0.8370    -2.4910 H     1 <1>   0.0800 
 38 H       -1.0310     4.8870     1.2180 H     1 <1>   0.0800 
 39 H       -1.6110     5.6460    -0.2440 H     1 <1>   0.0800 
 40 H       -4.5970    -0.1340     0.3660 H     1 <1>   0.4500 
 41 H       -6.7600    -0.6250    -2.6860 H     1 <1>   0.0800 
 42 H       -8.1700    -0.1860    -1.7510 H     1 <1>   0.0800 
 43 H       -5.7890    -2.0690     0.8460 H     1 <1>   0.0800 
 44 H       -3.3630    -2.2860     0.9110 H     1 <1>   0.1000 
 45 H       -6.4800    -3.6950    -0.8020 H     1 <1>   0.0800 
 46 H       -5.7070    -2.8110    -2.0920 H     1 <1>   0.0800 
 47 H        2.8670     4.7550    -1.1310 H     1 <1>   0.1500 
 48 H       -0.0450     7.0420     0.9960 H     1 <1>   0.1500 
 49 H       -3.4870    -3.5370    -1.9630 H     1 <1>   0.1000 
 50 H       -2.0390    -3.3640    -0.9330 H     1 <1>   0.1000 
 51 H       -3.1590    -4.7330     0.8480 H     1 <1>   0.1000 
 52 H       -4.5970    -4.8970    -0.1920 H     1 <1>   0.1000 
 53 H        4.5560     6.4410    -0.6070 H     1 <1>   0.1500 
 54 H        1.6430     8.7060     1.5110 H     1 <1>   0.1500 
 55 H        3.9530     8.4260     0.7180 H     1 <1>   0.1500 
@<TRIPOS>BOND
  1   1   2  2   
  2   2   3  am  
  3   2   4  1   
  4   3   5  1   
  5   3   6  1   
  6   4   7  1   
  7   4  27  1   
  8   4  28  1   
  9   5   8  1   
 10   5  29  1   
 11   5  30  1   
 12   6   9  1   
 13   6  31  1   
 14   6  32  1   
 15   7  10  1   
 16   7  33  1   
 17   7  34  1   
 18   8  11  1   
 19   8  12  1   
 20   8  35  1   
 21   9  11  1   
 22   9  36  1   
 23   9  37  1   
 24  10  13  1   
 25  10  38  1   
 26  10  39  1   
 27  11  14  1   
 28  11  40  1   
 29  12  15  1   
 30  12  41  1   
 31  12  42  1   
 32  13  16  2   
 33  13  17  1   
 34  14  18  1   
 35  14  19  1   
 36  14  43  1   
 37  15  19  1   
 38  17  20  ar  
 39  17  21  ar  
 40  18  22  1   
 41  18  23  1   
 42  18  44  1   
 43  19  45  1   
 44  19  46  1   
 45  20  24  ar  
 46  20  47  1   
 47  21  25  ar  
 48  21  48  1   
 49  22  23  1   
 50  22  49  1   
 51  22  50  1   
 52  23  51  1   
 53  23  52  1   
 54  24  26  ar  
 55  24  53  1   
 56  25  26  ar  
 57  25  54  1   
 58  26  55  1   
@<TRIPOS>SUBSTRUCTURE
  1 ****   7 GROUP 4 **** **** 0

# MOE 2024.06 (io_trps.svl 2023.06)
