@<TRIPOS>MOLECULE
NONAME
43 45 1 0 0 
SMALL
USER_CHARGES


@<TRIPOS>ATOM
  1 O       -3.5120     1.4350    -2.2690 O.2   1 <1>  -0.5700 
  2 C       -2.7620     1.3600    -1.3100 C.2   1 <1>   0.5440 
  3 N       -2.3780     0.1140    -0.8960 N.am  1 <1>  -0.7300 
  4 C       -2.2940     2.5550    -0.6070 C.ar  1 <1>   0.3960 
  5 C       -2.8400    -1.1730    -1.4590 C.3   1 <1>   0.2200 
  6 N       -1.5430     2.4280     0.4890 N.ar  1 <1>  -0.6200 
  7 C       -2.6240     3.8190    -1.0620 C.ar  1 <1>  -0.1500 
  8 C       -3.9130    -1.7490    -0.5530 C.3   1 <1>  -0.0800 
  9 C       -1.7330    -2.2190    -1.3530 C.3   1 <1>   0.1200 
 10 C       -1.1610     3.5440     1.0740 C.ar  1 <1>   0.4770 
 11 C       -2.1680     4.9110    -0.3700 C.ar  1 <1>   0.1660 
 12 C       -3.0730    -2.4590     0.5110 C.3   1 <1>   0.1200 
 13 C       -4.8360    -2.7200    -1.3130 C.3   1 <1>  -0.0170 
 14 O       -1.8780    -2.8390    -0.1070 O.3   1 <1>  -0.5600 
 15 N       -1.4320     4.7820     0.7060 N.ar  1 <1>  -0.6200 
 16 C       -0.3110     3.4020     2.3130 C.3   1 <1>  -0.0970 
 17 C       -2.4930     6.3210    -0.8150 C.3   1 <1>  -0.0970 
 18 C       -5.9290    -3.2650    -0.4060 C.ar  1 <1>  -0.1430 
 19 C       -5.9020    -4.5550     0.0830 C.ar  1 <1>  -0.1500 
 20 C       -7.0050    -2.4900    -0.0240 C.ar  1 <1>  -0.1500 
 21 C       -6.9230    -4.9950     0.9100 C.ar  1 <1>   0.1600 
 22 C       -7.9740    -3.0270     0.8080 C.ar  1 <1>   0.1600 
 23 N       -7.9570    -4.2610     1.2860 N.ar  1 <1>  -0.6200 
 24 H       -1.7780     0.0520    -0.0670 H     1 <1>   0.3700 
 25 H       -3.1710    -1.0360    -2.4750 H     1 <1>   0.0800 
 26 H       -3.2270     3.9320    -1.9430 H     1 <1>   0.1500 
 27 H       -4.5130    -0.9710    -0.1150 H     1 <1>   0.0800 
 28 H       -0.7500    -1.7880    -1.4290 H     1 <1>   0.0800 
 29 H       -1.8560    -2.9760    -2.1060 H     1 <1>   0.0800 
 30 H       -3.5510    -3.3300     0.9220 H     1 <1>   0.0800 
 31 H       -2.8220    -1.7810     1.3080 H     1 <1>   0.0800 
 32 H       -4.2650    -3.5350    -1.7220 H     1 <1>   0.0800 
 33 H       -5.2990    -2.2010    -2.1340 H     1 <1>   0.0800 
 34 H       -0.7970     3.8890     3.1380 H     1 <1>   0.0800 
 35 H        0.6430     3.8650     2.1460 H     1 <1>   0.0800 
 36 H       -0.1610     2.3670     2.5570 H     1 <1>   0.0800 
 37 H       -3.0970     6.3190    -1.7030 H     1 <1>   0.0800 
 38 H       -1.5810     6.8540    -1.0150 H     1 <1>   0.0800 
 39 H       -3.0260     6.8310    -0.0330 H     1 <1>   0.0800 
 40 H       -5.0980    -5.2220    -0.1690 H     1 <1>   0.1500 
 41 H       -7.1000    -1.4760    -0.3660 H     1 <1>   0.1500 
 42 H       -6.8850    -6.0040     1.2820 H     1 <1>   0.1500 
 43 H       -8.8060    -2.4070     1.0960 H     1 <1>   0.1500 
@<TRIPOS>BOND
  1   1   2  2   
  2   2   3  am  
  3   2   4  1   
  4   3   5  1   
  5   3  24  1   
  6   4   6  ar  
  7   4   7  ar  
  8   5   8  1   
  9   5   9  1   
 10   5  25  1   
 11   6  10  ar  
 12   7  11  ar  
 13   7  26  1   
 14   8  12  1   
 15   8  13  1   
 16   8  27  1   
 17   9  14  1   
 18   9  28  1   
 19   9  29  1   
 20  10  15  ar  
 21  10  16  1   
 22  11  15  ar  
 23  11  17  1   
 24  12  14  1   
 25  12  30  1   
 26  12  31  1   
 27  13  18  1   
 28  13  32  1   
 29  13  33  1   
 30  16  34  1   
 31  16  35  1   
 32  16  36  1   
 33  17  37  1   
 34  17  38  1   
 35  17  39  1   
 36  18  19  ar  
 37  18  20  ar  
 38  19  21  ar  
 39  19  40  1   
 40  20  22  ar  
 41  20  41  1   
 42  21  23  ar  
 43  21  42  1   
 44  22  23  ar  
 45  22  43  1   
@<TRIPOS>SUBSTRUCTURE
  1 ****   3 GROUP 4 **** **** 0

# MOE 2024.06 (io_trps.svl 2023.06)
