@<TRIPOS>MOLECULE
NONAME
54 56 1 0 0 
SMALL
USER_CHARGES


@<TRIPOS>ATOM
  1 O       -0.8830    -1.2020     0.1340 O.2   1 <1>  -0.5700 
  2 C       -1.6790    -0.2940    -0.0150 C.2   1 <1>   0.5440 
  3 N       -1.3050     0.9850     0.3550 N.am  1 <1>  -0.6600 
  4 C       -2.9850    -0.6030    -0.5510 C.ar  1 <1>   0.0860 
  5 C       -2.2660     2.0510     0.7520 C.3   1 <1>   0.0600 
  6 C        0.1240     1.3240     0.6090 C.3   1 <1>   0.0600 
  7 C       -3.6140    -1.7930    -0.1930 C.ar  1 <1>   0.1600 
  8 C       -3.6690     0.2200    -1.4390 C.ar  1 <1>  -0.1500 
  9 N       -4.8110    -2.2020    -0.5910 N.ar  1 <1>  -0.6200 
 10 C       -4.9110    -0.1810    -1.8680 C.ar  1 <1>  -0.1500 
 11 C       -5.4490    -1.3850    -1.4230 C.ar  1 <1>   0.4100 
 12 N       -6.6980    -1.7680    -1.8400 N.pl3 1 <1>  -0.8690 
 13 C       -7.2540    -3.1340    -1.6250 C.3   1 <1>   0.2090 
 14 C       -7.5160    -3.4040    -0.1180 C.3   1 <1>   0.5660 
 15 N       -7.2380    -4.8060     0.3330 N.4   1 <1>  -0.9590 
 16 C       -8.9040    -2.9890     0.3430 C.ar  1 <1>  -0.1430 
 17 C       -5.7610    -5.0370     0.3640 C.3   1 <1>   0.3430 
 18 C       -7.9660    -5.8680    -0.4210 C.3   1 <1>   0.3430 
 19 C       -8.9860    -2.1730     1.4620 C.ar  1 <1>   0.1600 
 20 C      -10.0790    -3.3710    -0.2840 C.ar  1 <1>  -0.1500 
 21 C       -5.4600    -6.3890     1.0140 C.3   1 <1>  -0.1600 
 22 C       -7.6980    -7.2310     0.2190 C.3   1 <1>  -0.1600 
 23 N      -10.1080    -1.7410     2.0030 N.ar  1 <1>  -0.6200 
 24 C      -11.2590    -2.9190     0.2680 C.ar  1 <1>  -0.1500 
 25 C       -6.1980    -7.5350     0.3090 C.3   1 <1>  -0.1600 
 26 C      -11.2200    -2.1190     1.3960 C.ar  1 <1>   0.1600 
 27 H       -3.2590     1.6530     0.8620 H     1 <1>   0.0800 
 28 H       -2.2740     2.8280     0.0070 H     1 <1>   0.0800 
 29 H       -1.9680     2.4760     1.6960 H     1 <1>   0.0800 
 30 H        0.7720     0.6060     0.1370 H     1 <1>   0.0800 
 31 H        0.3150     1.3170     1.6680 H     1 <1>   0.0800 
 32 H        0.3470     2.2980     0.2120 H     1 <1>   0.0800 
 33 H       -3.0730    -2.4430     0.4750 H     1 <1>   0.1500 
 34 H       -3.2280     1.1410    -1.7800 H     1 <1>   0.1500 
 35 H       -5.4740     0.4290    -2.5490 H     1 <1>   0.1500 
 36 H       -7.1180    -1.2250    -2.6030 H     1 <1>   0.4000 
 37 H       -6.5380    -3.8410    -2.0050 H     1 <1>   0.0800 
 38 H       -8.1620    -3.2360    -2.1910 H     1 <1>   0.0800 
 39 H       -6.8260    -2.7700     0.4120 H     1 <1>   0.0800 
 40 H       -7.5670    -4.8530     1.3050 H     1 <1>   0.4500 
 41 H       -5.2740    -4.2530     0.9240 H     1 <1>   0.0800 
 42 H       -5.3640    -5.0230    -0.6380 H     1 <1>   0.0800 
 43 H       -7.6340    -5.8840    -1.4470 H     1 <1>   0.0800 
 44 H       -9.0260    -5.6760    -0.4040 H     1 <1>   0.0800 
 45 H       -8.0800    -1.8500     1.9490 H     1 <1>   0.1500 
 46 H      -10.1060    -3.9860    -1.1660 H     1 <1>   0.1500 
 47 H       -5.7380    -6.3550     2.0530 H     1 <1>   0.0800 
 48 H       -4.4000    -6.5680     0.9710 H     1 <1>   0.0800 
 49 H       -8.1810    -7.9950    -0.3670 H     1 <1>   0.0800 
 50 H       -8.1380    -7.2560     1.2010 H     1 <1>   0.0800 
 51 H      -12.2080    -3.1770    -0.1700 H     1 <1>   0.1500 
 52 H       -6.0420    -8.4550     0.8490 H     1 <1>   0.0800 
 53 H       -5.7960    -7.6660    -0.6820 H     1 <1>   0.0800 
 54 H      -12.1480    -1.7720     1.8200 H     1 <1>   0.1500 
@<TRIPOS>BOND
  1   1   2  2   
  2   2   3  am  
  3   2   4  1   
  4   3   5  1   
  5   3   6  1   
  6   4   7  ar  
  7   4   8  ar  
  8   5  27  1   
  9   5  28  1   
 10   5  29  1   
 11   6  30  1   
 12   6  31  1   
 13   6  32  1   
 14   7   9  ar  
 15   7  33  1   
 16   8  10  ar  
 17   8  34  1   
 18   9  11  ar  
 19  10  11  ar  
 20  10  35  1   
 21  11  12  1   
 22  12  13  1   
 23  12  36  1   
 24  13  14  1   
 25  13  37  1   
 26  13  38  1   
 27  14  15  1   
 28  14  16  1   
 29  14  39  1   
 30  15  17  1   
 31  15  18  1   
 32  15  40  1   
 33  16  19  ar  
 34  16  20  ar  
 35  17  21  1   
 36  17  41  1   
 37  17  42  1   
 38  18  22  1   
 39  18  43  1   
 40  18  44  1   
 41  19  23  ar  
 42  19  45  1   
 43  20  24  ar  
 44  20  46  1   
 45  21  25  1   
 46  21  47  1   
 47  21  48  1   
 48  22  25  1   
 49  22  49  1   
 50  22  50  1   
 51  23  26  ar  
 52  24  26  ar  
 53  24  51  1   
 54  25  52  1   
 55  25  53  1   
 56  26  54  1   
@<TRIPOS>SUBSTRUCTURE
  1 ****   9 GROUP 4 **** **** 0

# MOE 2024.06 (io_trps.svl 2023.06)
