@<TRIPOS>MOLECULE
NONAME
52 56 1 0 0 
SMALL
USER_CHARGES


@<TRIPOS>ATOM
  1 O        0.1160    -0.3180    -0.6540 O.2   1 <1>  -0.5740 
  2 C        1.1820    -0.7950    -0.3130 C.2   1 <1>   0.5390 
  3 N        2.2600     0.0240    -0.1130 N.am  1 <1>  -0.4980 
  4 C        1.2790    -2.2320    -0.1160 C.ar  1 <1>   0.0790 
  5 C        2.3470     1.4400    -0.1990 C.2   1 <1>   0.0550 
  6 C        0.1190    -2.9990    -0.0060 C.ar  1 <1>  -0.1160 
  7 C        2.5140    -2.9100    -0.0380 C.ar  1 <1>  -0.1570 
  8 C        3.5030     2.1460    -0.1610 C.2   1 <1>  -0.0750 
  9 C        1.3390     2.4030    -0.2960 C.2   1 <1>   0.1320 
 10 C        0.2020    -4.3690     0.1760 C.ar  1 <1>   0.3030 
 11 C        2.5940    -4.2780     0.1460 C.ar  1 <1>  -0.1160 
 12 N        3.1420     3.4550    -0.2020 N.pl3 1 <1>   0.3080 
 13 N        4.8470     1.6990    -0.0970 N.pl3 1 <1>  -0.8560 
 14 N        1.8020     3.6190    -0.2990 N.2   1 <1>  -0.7100 
 15 N       -0.7650    -5.3430     0.3050 N.pl3 1 <1>  -0.7040 
 16 C        1.4190    -5.0140     0.2550 C.ar  1 <1>   0.3030 
 17 C        4.1100     4.5630    -0.1740 C.3   1 <1>   0.0880 
 18 C        5.8940     2.7450    -0.2720 C.3   1 <1>   0.2020 
 19 C       -0.1810    -6.5310     0.4400 C.cat 1 <1>   1.0690 
 20 N        1.1590    -6.3680     0.4410 N.pl3 1 <1>  -0.7670 
 21 C        5.4600     4.0680     0.3770 C.3   1 <1>  -0.1670 
 22 N       -0.8740    -7.6830     0.5480 N.pl3 1 <1>  -0.5960 
 23 C        2.2270    -7.3350     0.8160 C.3   1 <1>   0.2680 
 24 C       -0.3510    -9.0300     0.1430 C.3   1 <1>   0.1610 
 25 C       -2.3020    -7.7480     1.0090 C.3   1 <1>   0.1610 
 26 C       -1.3400    -9.7590    -0.7830 C.3   1 <1>   0.1130 
 27 C       -3.1740    -8.5370     0.0190 C.3   1 <1>   0.1130 
 28 O       -2.6090    -9.7910    -0.2080 O.3   1 <1>  -0.5640 
 29 H        3.1230    -0.3810     0.2420 H     1 <1>   0.3640 
 30 H       -0.8470    -2.5270    -0.0640 H     1 <1>   0.1430 
 31 H        3.4290    -2.3510    -0.1330 H     1 <1>   0.1430 
 32 H        0.2900     2.1690    -0.3550 H     1 <1>   0.1430 
 33 H        3.5490    -4.7700     0.1980 H     1 <1>   0.1430 
 34 H        5.0190     0.9130    -0.7340 H     1 <1>   0.3950 
 35 H       -1.7680    -5.1930     0.2350 H     1 <1>   0.4450 
 36 H        3.7150     5.3520     0.4380 H     1 <1>   0.0720 
 37 H        4.2260     4.9230    -1.1790 H     1 <1>   0.0720 
 38 H        6.0690     2.8950    -1.3240 H     1 <1>   0.0720 
 39 H        6.8090     2.4040     0.1810 H     1 <1>   0.0720 
 40 H        5.3770     3.9220     1.4400 H     1 <1>   0.0720 
 41 H        6.2120     4.8170     0.2090 H     1 <1>   0.0720 
 42 H        3.0130    -6.8310     1.3530 H     1 <1>   0.0720 
 43 H        2.6450    -7.7840    -0.0690 H     1 <1>   0.0720 
 44 H        1.8330    -8.1050     1.4560 H     1 <1>   0.0720 
 45 H       -0.1890    -9.6310     1.0210 H     1 <1>   0.0720 
 46 H        0.5800    -8.9370    -0.3840 H     1 <1>   0.0720 
 47 H       -2.7190    -6.7670     1.1450 H     1 <1>   0.0720 
 48 H       -2.3380    -8.2480     1.9630 H     1 <1>   0.0720 
 49 H       -1.0260   -10.7770    -0.9370 H     1 <1>   0.0720 
 50 H       -1.4070    -9.2730    -1.7420 H     1 <1>   0.0720 
 51 H       -3.2690    -8.0230    -0.9210 H     1 <1>   0.0720 
 52 H       -4.1570    -8.6930     0.4290 H     1 <1>   0.0720 
@<TRIPOS>BOND
  1   1   2  2   
  2   2   3  am  
  3   2   4  1   
  4   3   5  1   
  5   3  29  1   
  6   4   6  ar  
  7   4   7  ar  
  8   5   8  2   
  9   5   9  1   
 10   6  10  ar  
 11   6  30  1   
 12   7  11  ar  
 13   7  31  1   
 14   8  12  1   
 15   8  13  1   
 16   9  14  2   
 17   9  32  1   
 18  10  15  1   
 19  10  16  ar  
 20  11  16  ar  
 21  11  33  1   
 22  12  14  1   
 23  12  17  1   
 24  13  18  1   
 25  13  34  1   
 26  15  19  ar  
 27  15  35  1   
 28  16  20  1   
 29  17  21  1   
 30  17  36  1   
 31  17  37  1   
 32  18  21  1   
 33  18  38  1   
 34  18  39  1   
 35  19  20  ar  
 36  19  22  ar  
 37  20  23  1   
 38  21  40  1   
 39  21  41  1   
 40  22  24  1   
 41  22  25  1   
 42  23  42  1   
 43  23  43  1   
 44  23  44  1   
 45  24  26  1   
 46  24  45  1   
 47  24  46  1   
 48  25  27  1   
 49  25  47  1   
 50  25  48  1   
 51  26  28  1   
 52  26  49  1   
 53  26  50  1   
 54  27  28  1   
 55  27  51  1   
 56  27  52  1   
@<TRIPOS>SUBSTRUCTURE
  1 ****   4 GROUP 4 **** **** 0

# MOE 2024.06 (io_trps.svl 2023.06)
