@<TRIPOS>MOLECULE
NONAME
41 42 1 0 0 
SMALL
USER_CHARGES


@<TRIPOS>ATOM
  1 CL       1.9830     0.9400    -2.1990 Cl    1 <1>  -0.1770 
  2 C        0.8730     1.9840    -1.3400 C.ar  1 <1>   0.1770 
  3 C        1.2050     2.5540    -0.1130 C.ar  1 <1>  -0.1440 
  4 C       -0.3510     2.2200    -1.9400 C.ar  1 <1>  -0.1500 
  5 C        0.2680     3.3820     0.4930 C.ar  1 <1>  -0.1500 
  6 C        2.5390     2.3140     0.5940 C.3   1 <1>   0.3640 
  7 C       -1.2720     3.0430    -1.3190 C.ar  1 <1>  -0.1500 
  8 C       -0.9590     3.6240    -0.1030 C.ar  1 <1>  -0.1500 
  9 N        2.6550     0.8660     0.8950 N.am  1 <1>  -0.7300 
 10 C        3.7600     2.8840    -0.1870 C.3   1 <1>   0.2610 
 11 C        3.7350     0.1200     0.5790 C.2   1 <1>   0.5690 
 12 O        4.9620     2.1770     0.1110 O.3   1 <1>  -0.5600 
 13 C        3.9260     4.3740     0.1350 C.2   1 <1>   0.5690 
 14 O        3.7750    -1.0540     0.8480 O.2   1 <1>  -0.5700 
 15 C        4.9050     0.7890    -0.1430 C.3   1 <1>   0.1810 
 16 O        2.9820     5.1190     0.0130 O.2   1 <1>  -0.5700 
 17 N        5.1360     4.8280     0.5600 N.am  1 <1>  -0.7300 
 18 C        5.4710     6.2220     0.9160 C.3   1 <1>   0.1400 
 19 C        6.5560     6.7340    -0.0320 C.3   1 <1>  -0.1600 
 20 C        6.9210     8.1920     0.2830 C.3   1 <1>  -0.1600 
 21 C        8.0030     8.7070    -0.6670 C.3   1 <1>   0.1200 
 22 O        8.2960    10.0120    -0.3220 O.3   1 <1>  -0.6800 
 23 H       -0.5770     1.7640    -2.8860 H     1 <1>   0.1500 
 24 H        0.4870     3.8560     1.4360 H     1 <1>   0.1500 
 25 H        2.5110     2.8230     1.5420 H     1 <1>   0.0800 
 26 H       -2.2270     3.2340    -1.7790 H     1 <1>   0.1500 
 27 H       -1.6710     4.2710     0.3820 H     1 <1>   0.1500 
 28 H        1.8530     0.4040     1.3260 H     1 <1>   0.3700 
 29 H        3.5940     2.8020    -1.2430 H     1 <1>   0.0800 
 30 H        4.8110     0.6360    -1.2020 H     1 <1>   0.0800 
 31 H        5.8270     0.3530     0.1940 H     1 <1>   0.0800 
 32 H        5.8850     4.1330     0.6450 H     1 <1>   0.3700 
 33 H        4.5920     6.8400     0.8370 H     1 <1>   0.0800 
 34 H        5.8190     6.2540     1.9350 H     1 <1>   0.0800 
 35 H        7.4330     6.1170     0.0640 H     1 <1>   0.0800 
 36 H        6.1940     6.6680    -1.0430 H     1 <1>   0.0800 
 37 H        7.2840     8.2570     1.2950 H     1 <1>   0.0800 
 38 H        6.0410     8.8040     0.1880 H     1 <1>   0.0800 
 39 H        7.6690     8.6930    -1.6900 H     1 <1>   0.0800 
 40 H        8.9070     8.1290    -0.5750 H     1 <1>   0.0800 
 41 H        7.5010    10.5730    -0.3980 H     1 <1>   0.4000 
@<TRIPOS>BOND
  1   1   2  1   
  2   2   3  ar  
  3   2   4  ar  
  4   3   5  ar  
  5   3   6  1   
  6   4   7  ar  
  7   4  23  1   
  8   5   8  ar  
  9   5  24  1   
 10   6   9  1   
 11   6  10  1   
 12   6  25  1   
 13   7   8  ar  
 14   7  26  1   
 15   8  27  1   
 16   9  11  am  
 17   9  28  1   
 18  10  12  1   
 19  10  13  1   
 20  10  29  1   
 21  11  14  2   
 22  11  15  1   
 23  12  15  1   
 24  13  16  2   
 25  13  17  am  
 26  15  30  1   
 27  15  31  1   
 28  17  18  1   
 29  17  32  1   
 30  18  19  1   
 31  18  33  1   
 32  18  34  1   
 33  19  20  1   
 34  19  35  1   
 35  19  36  1   
 36  20  21  1   
 37  20  37  1   
 38  20  38  1   
 39  21  22  1   
 40  21  39  1   
 41  21  40  1   
 42  22  41  1   
@<TRIPOS>SUBSTRUCTURE
  1 ****  10 GROUP 4 **** **** 0

# MOE 2024.06 (io_trps.svl 2023.06)
