@<TRIPOS>MOLECULE
NONAME
51 52 1 0 0 
SMALL
USER_CHARGES


@<TRIPOS>ATOM
  1 O        0.2410    -0.3880     0.4700 O.2   1 <1>  -0.5700 
  2 C        1.2940    -0.6700    -0.0480 C.2   1 <1>   0.5690 
  3 N        2.2740     0.2420    -0.3250 N.am  1 <1>  -0.4940 
  4 C        1.5550    -2.1310    -0.3940 C.3   1 <1>  -0.0190 
  5 C        2.3770     1.6240    -0.0320 C.2   1 <1>  -0.0880 
  6 C        0.2190    -2.9040    -0.4830 C.3   1 <1>   0.3430 
  7 C        2.5260    -2.7830     0.6120 C.3   1 <1>  -0.1600 
  8 N        1.3860     2.5620     0.0270 N.pl3 1 <1>   0.3140 
  9 C        3.5340     2.2830     0.2210 C.2   1 <1>  -0.1810 
 10 N        0.3220    -4.3260     0.0020 N.4   1 <1>  -0.9590 
 11 C        2.7780    -4.2640     0.2650 C.3   1 <1>  -0.1600 
 12 N        1.8850     3.7850     0.3050 N.2   1 <1>  -0.7070 
 13 C       -0.0490     2.4200    -0.2480 C.3   1 <1>   0.0160 
 14 C        3.1600     3.6090     0.4210 C.2   1 <1>   0.1080 
 15 C        4.9450     1.7220     0.2890 C.3   1 <1>   0.0210 
 16 C        1.5990    -4.9640    -0.4250 C.3   1 <1>   0.3430 
 17 C       -0.8920    -5.1020    -0.4220 C.3   1 <1>   0.3430 
 18 C        4.0920     4.7560     0.7410 C.3   1 <1>  -0.0590 
 19 C        5.6090     1.7720    -1.0880 C.3   1 <1>  -0.2400 
 20 C       -1.0270    -6.4480     0.3010 C.3   1 <1>   0.1200 
 21 O       -2.1730    -7.0570    -0.1880 O.3   1 <1>  -0.5600 
 22 C       -2.4630    -8.2910     0.3920 C.3   1 <1>   0.0400 
 23 H        3.1430    -0.1390    -0.6980 H     1 <1>   0.3700 
 24 H        2.0060    -2.1520    -1.3700 H     1 <1>   0.0800 
 25 H       -0.1170    -2.8870    -1.5070 H     1 <1>   0.0800 
 26 H       -0.5310    -2.4020     0.1060 H     1 <1>   0.0800 
 27 H        2.0980    -2.7140     1.5990 H     1 <1>   0.0800 
 28 H        3.4630    -2.2520     0.6350 H     1 <1>   0.0800 
 29 H        0.3310    -4.2810     1.0310 H     1 <1>   0.4500 
 30 H        3.0310    -4.7980     1.1650 H     1 <1>   0.0800 
 31 H        3.6310    -4.3400    -0.3870 H     1 <1>   0.0800 
 32 H       -0.1930     1.7270    -1.0530 H     1 <1>   0.0800 
 33 H       -0.4500     3.3780    -0.5220 H     1 <1>   0.0800 
 34 H       -0.5400     2.0670     0.6380 H     1 <1>   0.0800 
 35 H        4.9120     0.7070     0.6410 H     1 <1>   0.0800 
 36 H        5.5260     2.2900     0.9940 H     1 <1>   0.0800 
 37 H        1.7010    -4.8740    -1.4950 H     1 <1>   0.0800 
 38 H        1.6080    -6.0130    -0.1730 H     1 <1>   0.0800 
 39 H       -0.8550    -5.2820    -1.4840 H     1 <1>   0.0800 
 40 H       -1.7770    -4.5250    -0.2100 H     1 <1>   0.0800 
 41 H        4.9480     4.7310     0.0940 H     1 <1>   0.0800 
 42 H        4.4110     4.6870     1.7640 H     1 <1>   0.0800 
 43 H        3.5790     5.6900     0.5990 H     1 <1>   0.0800 
 44 H        5.0390     1.2030    -1.8010 H     1 <1>   0.0800 
 45 H        6.6050     1.3690    -1.0360 H     1 <1>   0.0800 
 46 H        5.6670     2.7890    -1.4340 H     1 <1>   0.0800 
 47 H       -1.1440    -6.3030     1.3610 H     1 <1>   0.0800 
 48 H       -0.1910    -7.0920     0.0930 H     1 <1>   0.0800 
 49 H       -3.3640    -8.6700    -0.0600 H     1 <1>   0.0800 
 50 H       -2.6190    -8.1650     1.4500 H     1 <1>   0.0800 
 51 H       -1.6540    -8.9760     0.2060 H     1 <1>   0.0800 
@<TRIPOS>BOND
  1   1   2  2   
  2   2   3  am  
  3   2   4  1   
  4   3   5  1   
  5   3  23  1   
  6   4   6  1   
  7   4   7  1   
  8   4  24  1   
  9   5   8  1   
 10   5   9  2   
 11   6  10  1   
 12   6  25  1   
 13   6  26  1   
 14   7  11  1   
 15   7  27  1   
 16   7  28  1   
 17   8  12  1   
 18   8  13  1   
 19   9  14  1   
 20   9  15  1   
 21  10  16  1   
 22  10  17  1   
 23  10  29  1   
 24  11  16  1   
 25  11  30  1   
 26  11  31  1   
 27  12  14  2   
 28  13  32  1   
 29  13  33  1   
 30  13  34  1   
 31  14  18  1   
 32  15  19  1   
 33  15  35  1   
 34  15  36  1   
 35  16  37  1   
 36  16  38  1   
 37  17  20  1   
 38  17  39  1   
 39  17  40  1   
 40  18  41  1   
 41  18  42  1   
 42  18  43  1   
 43  19  44  1   
 44  19  45  1   
 45  19  46  1   
 46  20  21  1   
 47  20  47  1   
 48  20  48  1   
 49  21  22  1   
 50  22  49  1   
 51  22  50  1   
 52  22  51  1   
@<TRIPOS>SUBSTRUCTURE
  1 ****   2 GROUP 4 **** **** 0

# MOE 2024.06 (io_trps.svl 2023.06)
