@<TRIPOS>MOLECULE
NONAME
63 66 1 0 0 
SMALL
USER_CHARGES


@<TRIPOS>ATOM
  1 O        3.2270    -2.5500     2.6290 O.2   1 <1>  -0.5700 
  2 C        2.5650    -2.7650     1.6310 C.2   1 <1>   0.5440 
  3 N        2.8560    -2.0780     0.4710 N.am  1 <1>  -0.6600 
  4 C        1.4960    -3.7410     1.7030 C.ar  1 <1>   0.0860 
  5 C        2.5360    -2.5760    -0.8940 C.3   1 <1>   0.1400 
  6 C        3.7120    -0.8590     0.4860 C.3   1 <1>   0.1400 
  7 C        0.2230    -3.5050     1.2180 C.ar  1 <1>  -0.1500 
  8 C        1.6750    -4.9830     2.2940 C.ar  1 <1>  -0.1500 
  9 C        1.8250    -1.4770    -1.6910 C.3   1 <1>  -0.1600 
 10 C        3.0240     0.2600    -0.3040 C.3   1 <1>  -0.1600 
 11 C       -0.7700    -4.4680     1.3200 C.ar  1 <1>   0.4100 
 12 C        0.6320    -5.8840     2.3450 C.ar  1 <1>   0.1600 
 13 C        2.6560    -0.1860    -1.7270 C.3   1 <1>  -0.1600 
 14 N       -0.5810    -5.6640     1.8620 N.ar  1 <1>  -0.6200 
 15 N       -2.0290    -4.1950     0.8380 N.pl3 1 <1>  -0.8690 
 16 C       -3.2310    -4.5550     1.6490 C.3   1 <1>   0.2090 
 17 C       -3.9900    -5.7200     1.0040 C.3   1 <1>   0.2000 
 18 O       -5.0730    -6.0370     1.8330 O.3   1 <1>  -0.5600 
 19 C       -3.0660    -6.9440     0.8800 C.3   1 <1>   0.3430 
 20 C       -6.2600    -6.3910     1.2010 C.3   1 <1>   0.1200 
 21 N       -3.6810    -8.1770     0.2700 N.4   1 <1>  -0.9590 
 22 C       -6.1090    -7.7010     0.4150 C.3   1 <1>  -0.1600 
 23 C       -4.9680    -8.5930     0.9050 C.3   1 <1>   0.3430 
 24 C       -2.6870    -9.2800     0.2940 C.3   1 <1>   0.4860 
 25 C       -3.1800   -10.3950    -0.6070 C.ar  1 <1>  -0.1440 
 26 C       -3.1530   -10.2450    -1.9870 C.ar  1 <1>  -0.1500 
 27 C       -3.6670   -11.5740    -0.0580 C.ar  1 <1>  -0.1500 
 28 C       -3.6210   -11.2570    -2.8070 C.ar  1 <1>  -0.1500 
 29 C       -4.1340   -12.5840    -0.8800 C.ar  1 <1>  -0.1500 
 30 C       -4.1140   -12.4250    -2.2540 C.ar  1 <1>  -0.1500 
 31 H        1.9230    -3.4590    -0.8530 H     1 <1>   0.0800 
 32 H        3.4560    -2.8390    -1.3890 H     1 <1>   0.0800 
 33 H        4.6650    -1.0930     0.0430 H     1 <1>   0.0800 
 34 H        3.8840    -0.5290     1.4970 H     1 <1>   0.0800 
 35 H        0.0020    -2.5570     0.7660 H     1 <1>   0.1500 
 36 H        2.6330    -5.2300     2.7160 H     1 <1>   0.1500 
 37 H        0.8680    -1.2790    -1.2420 H     1 <1>   0.0800 
 38 H        1.6520    -1.8210    -2.6950 H     1 <1>   0.0800 
 39 H        3.6770     1.1130    -0.3500 H     1 <1>   0.0800 
 40 H        2.1350     0.5580     0.2250 H     1 <1>   0.0800 
 41 H        0.8070    -6.8390     2.8120 H     1 <1>   0.1500 
 42 H        2.1000     0.5920    -2.2210 H     1 <1>   0.0800 
 43 H        3.5580    -0.3590    -2.2890 H     1 <1>   0.0800 
 44 H       -2.1120    -3.2530     0.4440 H     1 <1>   0.4000 
 45 H       -3.8810    -3.7000     1.7130 H     1 <1>   0.0800 
 46 H       -2.9310    -4.8270     2.6480 H     1 <1>   0.0800 
 47 H       -4.3480    -5.4060     0.0400 H     1 <1>   0.0800 
 48 H       -2.6970    -7.1730     1.8660 H     1 <1>   0.0800 
 49 H       -2.2130    -6.6500     0.2890 H     1 <1>   0.0800 
 50 H       -6.5810    -5.5810     0.5660 H     1 <1>   0.0800 
 51 H       -6.9950    -6.5180     1.9790 H     1 <1>   0.0800 
 52 H       -3.8810    -7.9970    -0.7190 H     1 <1>   0.4500 
 53 H       -6.0030    -7.4950    -0.6350 H     1 <1>   0.0800 
 54 H       -7.0310    -8.2430     0.5230 H     1 <1>   0.0800 
 55 H       -4.8940    -8.5490     1.9800 H     1 <1>   0.0800 
 56 H       -5.1940    -9.6080     0.6220 H     1 <1>   0.0800 
 57 H       -2.5550    -9.6430     1.3000 H     1 <1>   0.0800 
 58 H       -1.7340    -8.9280    -0.0700 H     1 <1>   0.0800 
 59 H       -2.7660    -9.3500    -2.4420 H     1 <1>   0.1500 
 60 H       -3.6870   -11.7230     1.0080 H     1 <1>   0.1500 
 61 H       -3.6000   -11.1400    -3.8770 H     1 <1>   0.1500 
 62 H       -4.5120   -13.4990    -0.4550 H     1 <1>   0.1500 
 63 H       -4.4770   -13.2130    -2.8930 H     1 <1>   0.1500 
@<TRIPOS>BOND
  1   1   2  2   
  2   2   3  am  
  3   2   4  1   
  4   3   5  1   
  5   3   6  1   
  6   4   7  ar  
  7   4   8  ar  
  8   5   9  1   
  9   5  31  1   
 10   5  32  1   
 11   6  10  1   
 12   6  33  1   
 13   6  34  1   
 14   7  11  ar  
 15   7  35  1   
 16   8  12  ar  
 17   8  36  1   
 18   9  13  1   
 19   9  37  1   
 20   9  38  1   
 21  10  13  1   
 22  10  39  1   
 23  10  40  1   
 24  11  14  ar  
 25  11  15  1   
 26  12  14  ar  
 27  12  41  1   
 28  13  42  1   
 29  13  43  1   
 30  15  16  1   
 31  15  44  1   
 32  16  17  1   
 33  16  45  1   
 34  16  46  1   
 35  17  18  1   
 36  17  19  1   
 37  17  47  1   
 38  18  20  1   
 39  19  21  1   
 40  19  48  1   
 41  19  49  1   
 42  20  22  1   
 43  20  50  1   
 44  20  51  1   
 45  21  23  1   
 46  21  24  1   
 47  21  52  1   
 48  22  23  1   
 49  22  53  1   
 50  22  54  1   
 51  23  55  1   
 52  23  56  1   
 53  24  25  1   
 54  24  57  1   
 55  24  58  1   
 56  25  26  ar  
 57  25  27  ar  
 58  26  28  ar  
 59  26  59  1   
 60  27  29  ar  
 61  27  60  1   
 62  28  30  ar  
 63  28  61  1   
 64  29  30  ar  
 65  29  62  1   
 66  30  63  1   
@<TRIPOS>SUBSTRUCTURE
  1 ****  14 GROUP 4 **** **** 0

# MOE 2024.06 (io_trps.svl 2023.06)
