@<TRIPOS>MOLECULE
NONAME
33 34 1 0 0 
SMALL
USER_CHARGES


@<TRIPOS>ATOM
  1 CL      -0.6900    -0.7020     0.4220 Cl    1 <1>  -0.1770 
  2 C        0.9140    -1.2520    -0.0300 C.ar  1 <1>   0.1770 
  3 C        1.1870    -2.6020    -0.2130 C.ar  1 <1>   0.4100 
  4 C        1.9310    -0.3560    -0.2080 C.ar  1 <1>   0.1600 
  5 N        2.4010    -3.0010    -0.5470 N.ar  1 <1>  -0.6200 
  6 N        0.2250    -3.5720    -0.0610 N.pl3 1 <1>  -0.8690 
  7 N        3.1500    -0.7440    -0.5440 N.ar  1 <1>  -0.6200 
  8 C        3.3070    -2.0500    -0.6950 C.ar  1 <1>   0.4770 
  9 C        0.5510    -5.0040     0.0930 C.3   1 <1>   0.3890 
 10 C        4.6920    -2.5140    -1.0780 C.3   1 <1>  -0.0960 
 11 C       -0.7040    -5.7600     0.4770 C.2   1 <1>  -0.0400 
 12 O       -1.2580    -5.5490     1.6410 O.3   1 <1>  -0.0190 
 13 C       -1.4390    -6.6770    -0.1700 C.2   1 <1>  -0.1500 
 14 N       -2.3250    -6.2750     1.8070 N.2   1 <1>  -0.4100 
 15 C       -2.4610    -6.9660     0.7310 C.2   1 <1>   0.1080 
 16 C       -3.5850    -7.9540     0.4860 C.3   1 <1>   0.0210 
 17 C       -4.6630    -7.3480    -0.4220 C.3   1 <1>  -0.1600 
 18 C       -5.8090    -8.3340    -0.6760 C.3   1 <1>  -0.2400 
 19 H        1.7500     0.6960    -0.0730 H     1 <1>   0.1500 
 20 H       -0.6580    -3.3050     0.3860 H     1 <1>   0.4000 
 21 H        1.3000    -5.1280     0.8560 H     1 <1>   0.0800 
 22 H        0.9380    -5.3810    -0.8380 H     1 <1>   0.0800 
 23 H        4.6250    -3.2970    -1.8110 H     1 <1>   0.0800 
 24 H        5.1940    -2.8890    -0.2070 H     1 <1>   0.0800 
 25 H        5.2600    -1.7000    -1.4900 H     1 <1>   0.0800 
 26 H       -1.3070    -7.1050    -1.1470 H     1 <1>   0.1500 
 27 H       -4.0190    -8.2280     1.4320 H     1 <1>   0.0800 
 28 H       -3.1790    -8.8420     0.0350 H     1 <1>   0.0800 
 29 H       -4.2230    -7.0630    -1.3620 H     1 <1>   0.0800 
 30 H       -5.0530    -6.4580     0.0430 H     1 <1>   0.0800 
 31 H       -5.4440    -9.2230    -1.1590 H     1 <1>   0.0800 
 32 H       -6.5490    -7.8800    -1.3110 H     1 <1>   0.0800 
 33 H       -6.2800    -8.6100     0.2520 H     1 <1>   0.0800 
@<TRIPOS>BOND
  1   1   2  1   
  2   2   3  ar  
  3   2   4  ar  
  4   3   5  ar  
  5   3   6  1   
  6   4   7  ar  
  7   4  19  1   
  8   5   8  ar  
  9   6   9  1   
 10   6  20  1   
 11   7   8  ar  
 12   8  10  1   
 13   9  11  1   
 14   9  21  1   
 15   9  22  1   
 16  10  23  1   
 17  10  24  1   
 18  10  25  1   
 19  11  12  1   
 20  11  13  2   
 21  12  14  1   
 22  13  15  1   
 23  13  26  1   
 24  14  15  2   
 25  15  16  1   
 26  16  17  1   
 27  16  27  1   
 28  16  28  1   
 29  17  18  1   
 30  17  29  1   
 31  17  30  1   
 32  18  31  1   
 33  18  32  1   
 34  18  33  1   
@<TRIPOS>SUBSTRUCTURE
  1 ****   6 GROUP 4 **** **** 0

# MOE 2024.06 (io_trps.svl 2023.06)
