@<TRIPOS>MOLECULE
NONAME
51 54 1 0 0 
SMALL
USER_CHARGES


@<TRIPOS>ATOM
  1 O        0.6950     0.0380    -0.9710 O.2   1 <1>  -0.5700 
  2 C        1.6290    -0.7310    -0.8300 C.2   1 <1>   0.6160 
  3 N        2.9110    -0.2160    -0.8100 N.am  1 <1>  -0.6600 
  4 C        1.3610    -2.1470    -0.6760 C.2   1 <1>   0.0140 
  5 C        4.0610    -0.9300    -0.1660 C.3   1 <1>   0.1400 
  6 C        3.1810     1.1590    -1.3190 C.3   1 <1>   0.1400 
  7 C        0.4050    -2.5950     0.1760 C.2   1 <1>  -0.1780 
  8 C        2.1250    -3.0570    -1.5000 C.2   1 <1>  -0.1500 
  9 C        4.6510    -0.1490     1.0170 C.3   1 <1>   0.1400 
 10 C        3.1770     2.1620    -0.1580 C.3   1 <1>  -0.1600 
 11 C       -0.0130    -3.9490     0.4390 C.ar  1 <1>   0.0280 
 12 C        2.4410    -4.3320    -1.2200 C.2   1 <1>  -0.0730 
 13 N        5.3520     1.0850     0.5520 N.am  1 <1>  -0.6600 
 14 C        4.5240     2.3270     0.5620 C.3   1 <1>   0.1400 
 15 C        0.8150    -5.0760     0.3030 C.ar  1 <1>   0.0830 
 16 C       -1.3180    -4.1680     0.8730 C.ar  1 <1>  -0.1500 
 17 O        2.1210    -4.9830    -0.0770 O.3   1 <1>  -0.1590 
 18 C        6.6500     0.9930     0.1060 C.2   1 <1>   0.5690 
 19 C        0.3470    -6.3450     0.5920 C.ar  1 <1>  -0.1500 
 20 C       -1.7890    -5.4390     1.1580 C.ar  1 <1>  -0.1500 
 21 O        7.2080    -0.0790     0.0510 O.2   1 <1>  -0.5700 
 22 C        7.4260     2.2330    -0.3410 C.3   1 <1>  -0.0190 
 23 C       -0.9570    -6.5320     1.0180 C.ar  1 <1>  -0.1500 
 24 C        8.7710     1.9330    -0.9880 C.3   1 <1>   0.1200 
 25 C        7.8310     3.1670     0.7970 C.3   1 <1>  -0.1600 
 26 O        9.4870     3.1150    -0.8530 O.3   1 <1>  -0.5600 
 27 C        9.1950     3.7080     0.3710 C.3   1 <1>   0.1200 
 28 H        4.8310    -1.1090    -0.8970 H     1 <1>   0.0800 
 29 H        3.7410    -1.8850     0.2090 H     1 <1>   0.0800 
 30 H        2.4100     1.4310    -2.0200 H     1 <1>   0.0800 
 31 H        4.1200     1.1800    -1.8460 H     1 <1>   0.0800 
 32 H       -0.1520    -1.8580     0.7280 H     1 <1>   0.1500 
 33 H        2.4630    -2.6240    -2.4260 H     1 <1>   0.1500 
 34 H        5.3570    -0.7810     1.5290 H     1 <1>   0.0800 
 35 H        3.8730     0.0990     1.7180 H     1 <1>   0.0800 
 36 H        2.4140     1.8830     0.5480 H     1 <1>   0.0800 
 37 H        2.8950     3.1240    -0.5440 H     1 <1>   0.0800 
 38 H        3.0140    -4.9550    -1.8850 H     1 <1>   0.1500 
 39 H        4.3480     2.6230     1.5820 H     1 <1>   0.0800 
 40 H        5.0540     3.1300     0.0860 H     1 <1>   0.0800 
 41 H       -1.9820    -3.3300     0.9870 H     1 <1>   0.1500 
 42 H        1.0040    -7.1900     0.4860 H     1 <1>   0.1500 
 43 H       -2.8040    -5.5740     1.4890 H     1 <1>   0.1500 
 44 H        6.8480     2.7670    -1.0720 H     1 <1>   0.0800 
 45 H       -1.3170    -7.5220     1.2390 H     1 <1>   0.1500 
 46 H        8.6850     1.6800    -2.0300 H     1 <1>   0.0800 
 47 H        9.3060     1.1610    -0.4610 H     1 <1>   0.0800 
 48 H        7.9400     2.6230     1.7190 H     1 <1>   0.0800 
 49 H        7.1240     3.9630     0.9400 H     1 <1>   0.0800 
 50 H        9.9650     3.4310     1.0710 H     1 <1>   0.0800 
 51 H        9.1860     4.7760     0.2350 H     1 <1>   0.0800 
@<TRIPOS>BOND
  1   1   2  2   
  2   2   3  am  
  3   2   4  1   
  4   3   5  1   
  5   3   6  1   
  6   4   7  2   
  7   4   8  1   
  8   5   9  1   
  9   5  28  1   
 10   5  29  1   
 11   6  10  1   
 12   6  30  1   
 13   6  31  1   
 14   7  11  1   
 15   7  32  1   
 16   8  12  2   
 17   8  33  1   
 18   9  13  1   
 19   9  34  1   
 20   9  35  1   
 21  10  14  1   
 22  10  36  1   
 23  10  37  1   
 24  11  15  ar  
 25  11  16  ar  
 26  12  17  1   
 27  12  38  1   
 28  13  14  1   
 29  13  18  am  
 30  14  39  1   
 31  14  40  1   
 32  15  17  1   
 33  15  19  ar  
 34  16  20  ar  
 35  16  41  1   
 36  18  21  2   
 37  18  22  1   
 38  19  23  ar  
 39  19  42  1   
 40  20  23  ar  
 41  20  43  1   
 42  22  24  1   
 43  22  25  1   
 44  22  44  1   
 45  23  45  1   
 46  24  26  1   
 47  24  46  1   
 48  24  47  1   
 49  25  27  1   
 50  25  48  1   
 51  25  49  1   
 52  26  27  1   
 53  27  50  1   
 54  27  51  1   
@<TRIPOS>SUBSTRUCTURE
  1 ****   5 GROUP 4 **** **** 0

# MOE 2024.06 (io_trps.svl 2023.06)
