@<TRIPOS>MOLECULE
NONAME
44 47 1 0 0 
SMALL
USER_CHARGES


@<TRIPOS>ATOM
  1 O       -2.6470    -0.3550    -1.5430 O.2   1 <1>  -0.5700 
  2 C       -2.7410     0.4790    -0.6570 C.2   1 <1>   0.7670 
  3 N       -2.6240     1.7940    -1.0400 N.2   1 <1>  -0.6610 
  4 C       -2.9660     0.1240     0.7090 C.2   1 <1>   0.0290 
  5 C       -2.6720     2.7010    -0.1410 C.2   1 <1>   0.5000 
  6 C       -3.1280    -1.2450     1.1060 C.2   1 <1>   0.6160 
  7 C       -2.9930     1.1390     1.6200 C.2   1 <1>  -0.0500 
  8 N       -2.8460     2.4200     1.1840 N.pl3 1 <1>  -0.5500 
  9 C       -2.5340     4.1670    -0.5350 C.3   1 <1>  -0.1000 
 10 O       -2.5000    -1.6430     2.0700 O.2   1 <1>  -0.5700 
 11 N       -4.0250    -2.1170     0.5260 N.am  1 <1>  -0.6600 
 12 C       -1.8080     5.1620     0.3240 C.3   1 <1>  -0.2000 
 13 C       -3.2960     5.2600     0.1570 C.3   1 <1>  -0.2000 
 14 C       -5.0710    -1.7770    -0.4690 C.3   1 <1>   0.1400 
 15 C       -4.1880    -3.5260     0.9730 C.3   1 <1>   0.1400 
 16 C       -6.1750    -2.7980    -0.2130 C.3   1 <1>   0.2000 
 17 C       -5.4360    -4.0600     0.2460 C.3   1 <1>  -0.0800 
 18 O       -6.9470    -2.3500     0.8460 O.3   1 <1>  -0.6800 
 19 C       -5.0680    -4.9580    -0.9530 C.3   1 <1>  -0.0160 
 20 C       -4.6350    -6.3480    -0.5090 C.ar  1 <1>   0.1670 
 21 N       -3.3590    -6.5090    -0.2020 N.ar  1 <1>  -0.6200 
 22 C       -5.5740    -7.3780    -0.4420 C.ar  1 <1>   0.1600 
 23 C       -3.0860    -7.7480     0.1700 C.ar  1 <1>   0.1600 
 24 N       -5.3050    -8.6190    -0.0700 N.ar  1 <1>  -0.6200 
 25 C       -4.0270    -8.7680     0.2330 C.ar  1 <1>   0.1600 
 26 H       -3.1250     0.9540     2.6760 H     1 <1>   0.1500 
 27 H       -2.8530     3.2160     1.8270 H     1 <1>   0.4000 
 28 H       -2.4070     4.2680    -1.6000 H     1 <1>   0.1000 
 29 H       -1.4040     4.8500     1.2710 H     1 <1>   0.1000 
 30 H       -1.1830     5.8910    -0.1630 H     1 <1>   0.1000 
 31 H       -3.6980     6.0570    -0.4440 H     1 <1>   0.1000 
 32 H       -3.9350     5.0190     0.9890 H     1 <1>   0.1000 
 33 H       -5.4280    -0.7680    -0.3620 H     1 <1>   0.0800 
 34 H       -4.6700    -1.9160    -1.4590 H     1 <1>   0.0800 
 35 H       -3.3020    -4.0910     0.7400 H     1 <1>   0.0800 
 36 H       -4.3390    -3.5460     2.0390 H     1 <1>   0.0800 
 37 H       -6.8200    -2.9460    -1.0620 H     1 <1>   0.0800 
 38 H       -6.0520    -4.6330     0.9180 H     1 <1>   0.0800 
 39 H       -6.3550    -2.1380     1.5960 H     1 <1>   0.4000 
 40 H       -4.2790    -4.5060    -1.5310 H     1 <1>   0.0800 
 41 H       -5.9210    -5.0590    -1.5990 H     1 <1>   0.0800 
 42 H       -6.5950    -7.1670    -0.7070 H     1 <1>   0.1500 
 43 H       -2.0670    -7.9680     0.4370 H     1 <1>   0.1500 
 44 H       -3.7080    -9.7460     0.5480 H     1 <1>   0.1500 
@<TRIPOS>BOND
  1   1   2  2   
  2   2   3  1   
  3   2   4  1   
  4   3   5  2   
  5   4   6  1   
  6   4   7  2   
  7   5   8  1   
  8   5   9  1   
  9   6  10  2   
 10   6  11  am  
 11   7   8  1   
 12   7  26  1   
 13   8  27  1   
 14   9  12  1   
 15   9  13  1   
 16   9  28  1   
 17  11  14  1   
 18  11  15  1   
 19  12  13  1   
 20  12  29  1   
 21  12  30  1   
 22  13  31  1   
 23  13  32  1   
 24  14  16  1   
 25  14  33  1   
 26  14  34  1   
 27  15  17  1   
 28  15  35  1   
 29  15  36  1   
 30  16  17  1   
 31  16  18  1   
 32  16  37  1   
 33  17  19  1   
 34  17  38  1   
 35  18  39  1   
 36  19  20  1   
 37  19  40  1   
 38  19  41  1   
 39  20  21  ar  
 40  20  22  ar  
 41  21  23  ar  
 42  22  24  ar  
 43  22  42  1   
 44  23  25  ar  
 45  23  43  1   
 46  24  25  ar  
 47  25  44  1   
@<TRIPOS>SUBSTRUCTURE
  1 ****  11 GROUP 4 **** **** 0

# MOE 2024.06 (io_trps.svl 2023.06)
