@<TRIPOS>MOLECULE
NONAME
54 56 1 0 0 
SMALL
USER_CHARGES


@<TRIPOS>ATOM
  1 F       -0.4010    -0.5880     0.3640 F     1 <1>  -0.3400 
  2 C       -1.2050    -0.7750    -0.6740 C.3   1 <1>   1.1640 
  3 F       -1.1970    -2.0790    -0.9220 F     1 <1>  -0.3400 
  4 F       -0.6140    -0.1950    -1.7110 F     1 <1>  -0.3400 
  5 C       -2.6010    -0.2160    -0.4260 C.ar  1 <1>  -0.1440 
  6 C       -2.7340     1.1370    -0.1630 C.ar  1 <1>   0.1600 
  7 C       -3.7480    -0.9950    -0.4470 C.ar  1 <1>  -0.1500 
  8 N       -3.8760     1.7600     0.0700 N.ar  1 <1>  -0.6200 
  9 C       -4.9420    -0.3570    -0.2050 C.ar  1 <1>  -0.1500 
 10 C       -4.9740     1.0130     0.0430 C.ar  1 <1>   0.4100 
 11 N       -6.1810     1.6490     0.2750 N.pl3 1 <1>  -0.8380 
 12 C       -6.1970     2.8950     1.0940 C.3   1 <1>   0.2090 
 13 C       -7.3100     1.4490    -0.6780 C.3   1 <1>   0.2090 
 14 C       -7.6380     3.3350     1.3580 C.3   1 <1>  -0.1600 
 15 C       -7.8430     2.8060    -1.1270 C.3   1 <1>  -0.1600 
 16 C       -8.4300     3.6040     0.0540 C.3   1 <1>   0.2800 
 17 O       -9.7140     3.0560     0.2330 O.3   1 <1>  -0.5600 
 18 C       -8.4420     5.1070    -0.3410 C.3   1 <1>   0.1400 
 19 C      -10.8240     3.8630     0.4760 C.3   1 <1>   0.1200 
 20 N       -8.8810     6.0980     0.7030 N.am  1 <1>  -0.6600 
 21 C      -10.6600     4.6410     1.7760 C.3   1 <1>  -0.0990 
 22 C       -9.8700     5.9250     1.6360 C.2   1 <1>   0.5690 
 23 C       -8.1810     7.4280     0.5780 C.3   1 <1>   0.2010 
 24 O      -10.1720     6.8150     2.3970 O.2   1 <1>  -0.5700 
 25 C       -8.4830     8.1490    -0.7410 C.2   1 <1>   0.5690 
 26 O       -7.6670     8.0310    -1.6270 O.2   1 <1>  -0.5700 
 27 N       -9.6380     8.8810    -0.9130 N.am  1 <1>  -0.6600 
 28 C       -9.9510     9.5590    -2.2020 C.3   1 <1>   0.0600 
 29 C      -10.6990     9.0020     0.1260 C.3   1 <1>   0.0600 
 30 H       -1.8500     1.7540    -0.1420 H     1 <1>   0.1500 
 31 H       -3.7200    -2.0550    -0.6390 H     1 <1>   0.1500 
 32 H       -5.8630    -0.9070    -0.1950 H     1 <1>   0.1500 
 33 H       -5.6640     3.6730     0.5720 H     1 <1>   0.0800 
 34 H       -5.6920     2.7090     2.0260 H     1 <1>   0.0800 
 35 H       -8.0920     0.8890    -0.1930 H     1 <1>   0.0800 
 36 H       -6.9730     0.8950    -1.5380 H     1 <1>   0.0800 
 37 H       -7.6130     4.2060     1.9830 H     1 <1>   0.0800 
 38 H       -8.1130     2.5490     1.9180 H     1 <1>   0.0800 
 39 H       -8.5940     2.6730    -1.8840 H     1 <1>   0.0800 
 40 H       -7.0250     3.3390    -1.5780 H     1 <1>   0.0800 
 41 H       -9.0410     5.2400    -1.2250 H     1 <1>   0.0800 
 42 H       -7.4340     5.3600    -0.6210 H     1 <1>   0.0800 
 43 H      -11.6670     3.1990     0.5650 H     1 <1>   0.0800 
 44 H      -10.9980     4.5110    -0.3660 H     1 <1>   0.0800 
 45 H      -10.2190     4.0200     2.5320 H     1 <1>   0.0800 
 46 H      -11.6410     4.9110     2.1190 H     1 <1>   0.0800 
 47 H       -7.1200     7.2630     0.6320 H     1 <1>   0.0800 
 48 H       -8.4300     8.0740     1.3980 H     1 <1>   0.0800 
 49 H       -9.1670     9.4010    -2.9220 H     1 <1>   0.0800 
 50 H      -10.0560    10.6170    -2.0390 H     1 <1>   0.0800 
 51 H      -10.8690     9.1680    -2.6040 H     1 <1>   0.0800 
 52 H      -10.2650     9.1730     1.0960 H     1 <1>   0.0800 
 53 H      -11.2800     8.0970     0.1580 H     1 <1>   0.0800 
 54 H      -11.3520     9.8270    -0.0990 H     1 <1>   0.0800 
@<TRIPOS>BOND
  1   1   2  1   
  2   2   3  1   
  3   2   4  1   
  4   2   5  1   
  5   5   6  ar  
  6   5   7  ar  
  7   6   8  ar  
  8   6  30  1   
  9   7   9  ar  
 10   7  31  1   
 11   8  10  ar  
 12   9  10  ar  
 13   9  32  1   
 14  10  11  1   
 15  11  12  1   
 16  11  13  1   
 17  12  14  1   
 18  12  33  1   
 19  12  34  1   
 20  13  15  1   
 21  13  35  1   
 22  13  36  1   
 23  14  16  1   
 24  14  37  1   
 25  14  38  1   
 26  15  16  1   
 27  15  39  1   
 28  15  40  1   
 29  16  17  1   
 30  16  18  1   
 31  17  19  1   
 32  18  20  1   
 33  18  41  1   
 34  18  42  1   
 35  19  21  1   
 36  19  43  1   
 37  19  44  1   
 38  20  22  am  
 39  20  23  1   
 40  21  22  1   
 41  21  45  1   
 42  21  46  1   
 43  22  24  2   
 44  23  25  1   
 45  23  47  1   
 46  23  48  1   
 47  25  26  2   
 48  25  27  am  
 49  27  28  1   
 50  27  29  1   
 51  28  49  1   
 52  28  50  1   
 53  28  51  1   
 54  29  52  1   
 55  29  53  1   
 56  29  54  1   
@<TRIPOS>SUBSTRUCTURE
  1 ****  12 GROUP 4 **** **** 0

# MOE 2024.06 (io_trps.svl 2023.06)
