@<TRIPOS>MOLECULE
NONAME
51 53 1 0 0 
SMALL
USER_CHARGES


@<TRIPOS>ATOM
  1 O       -1.3210     0.8430    -1.6170 O.2   1 <1>  -0.5700 
  2 C       -2.2150     0.9810    -0.8050 C.2   1 <1>   0.5440 
  3 N       -2.8640    -0.1510    -0.3510 N.am  1 <1>  -0.6600 
  4 C       -2.5530     2.3220    -0.3570 C.ar  1 <1>   0.0860 
  5 C       -4.3420    -0.3690    -0.3540 C.3   1 <1>   0.2200 
  6 C       -2.0840    -1.4160    -0.2380 C.3   1 <1>   0.0600 
  7 C       -2.6960     3.3660    -1.2710 C.ar  1 <1>  -0.1500 
  8 C       -2.7050     2.6360     0.9920 C.ar  1 <1>  -0.1500 
  9 C       -5.1120     0.4330    -1.4050 C.3   1 <1>  -0.1600 
 10 C       -4.9690    -0.0540     1.0030 C.3   1 <1>  -0.1600 
 11 C       -2.9920     4.6540    -0.8630 C.ar  1 <1>  -0.1500 
 12 C       -3.0120     3.9200     1.4090 C.ar  1 <1>  -0.1500 
 13 C       -6.4710     0.7680    -0.7790 C.3   1 <1>  -0.0800 
 14 C       -6.2770     0.7080     0.7420 C.3   1 <1>  -0.0800 
 15 C       -3.1600     4.9390     0.4820 C.ar  1 <1>  -0.1430 
 16 C       -6.9140     2.2000    -1.0860 C.3   1 <1>  -0.1600 
 17 C       -6.2730     2.1660     1.2380 C.3   1 <1>  -0.1600 
 18 C       -3.4460     6.3570     0.9440 C.3   1 <1>  -0.0970 
 19 C       -6.1930     3.0230    -0.0230 C.3   1 <1>   0.4230 
 20 N       -6.7290     4.4050     0.1620 N.4   1 <1>  -0.9590 
 21 C       -8.1770     4.4910     0.5410 C.3   1 <1>   0.2630 
 22 C       -6.4670     5.2280    -1.0570 C.3   1 <1>   0.2630 
 23 H       -4.5350    -1.4090    -0.5620 H     1 <1>   0.0800 
 24 H       -2.4000    -1.9700     0.6280 H     1 <1>   0.0800 
 25 H       -1.0330    -1.1980    -0.1420 H     1 <1>   0.0800 
 26 H       -2.2310    -2.0130    -1.1210 H     1 <1>   0.0800 
 27 H       -2.5460     3.1540    -2.3170 H     1 <1>   0.1500 
 28 H       -2.5540     1.8620     1.7240 H     1 <1>   0.1500 
 29 H       -4.5970     1.3310    -1.6770 H     1 <1>   0.0800 
 30 H       -5.2410    -0.1560    -2.2970 H     1 <1>   0.0800 
 31 H       -5.1890    -0.9810     1.5020 H     1 <1>   0.0800 
 32 H       -4.2970     0.4970     1.6300 H     1 <1>   0.0800 
 33 H       -3.0650     5.4370    -1.5990 H     1 <1>   0.1500 
 34 H       -3.1080     4.1260     2.4620 H     1 <1>   0.1500 
 35 H       -7.2060     0.0460    -1.0980 H     1 <1>   0.0800 
 36 H       -7.0990     0.1780     1.1970 H     1 <1>   0.0800 
 37 H       -7.9800     2.2550    -0.9660 H     1 <1>   0.0800 
 38 H       -6.6450     2.4920    -2.0860 H     1 <1>   0.0800 
 39 H       -5.4530     2.3750     1.8990 H     1 <1>   0.0800 
 40 H       -7.1920     2.3320     1.7680 H     1 <1>   0.0800 
 41 H       -3.9300     6.9250     0.1700 H     1 <1>   0.0800 
 42 H       -2.5190     6.8440     1.1920 H     1 <1>   0.0800 
 43 H       -4.0730     6.3560     1.8180 H     1 <1>   0.0800 
 44 H       -5.1540     3.0840    -0.3040 H     1 <1>   0.0800 
 45 H       -6.1710     4.8070     0.9290 H     1 <1>   0.4500 
 46 H       -8.7960     4.0710    -0.2350 H     1 <1>   0.0800 
 47 H       -8.4640     5.5210     0.6840 H     1 <1>   0.0800 
 48 H       -8.3640     3.9590     1.4580 H     1 <1>   0.0800 
 49 H       -7.0320     4.8480    -1.8930 H     1 <1>   0.0800 
 50 H       -5.4200     5.1980    -1.3090 H     1 <1>   0.0800 
 51 H       -6.7510     6.2540    -0.8860 H     1 <1>   0.0800 
@<TRIPOS>BOND
  1   1   2  2   
  2   2   3  am  
  3   2   4  1   
  4   3   5  1   
  5   3   6  1   
  6   4   7  ar  
  7   4   8  ar  
  8   5   9  1   
  9   5  10  1   
 10   5  23  1   
 11   6  24  1   
 12   6  25  1   
 13   6  26  1   
 14   7  11  ar  
 15   7  27  1   
 16   8  12  ar  
 17   8  28  1   
 18   9  13  1   
 19   9  29  1   
 20   9  30  1   
 21  10  14  1   
 22  10  31  1   
 23  10  32  1   
 24  11  15  ar  
 25  11  33  1   
 26  12  15  ar  
 27  12  34  1   
 28  13  14  1   
 29  13  16  1   
 30  13  35  1   
 31  14  17  1   
 32  14  36  1   
 33  15  18  1   
 34  16  19  1   
 35  16  37  1   
 36  16  38  1   
 37  17  19  1   
 38  17  39  1   
 39  17  40  1   
 40  18  41  1   
 41  18  42  1   
 42  18  43  1   
 43  19  20  1   
 44  19  44  1   
 45  20  21  1   
 46  20  22  1   
 47  20  45  1   
 48  21  46  1   
 49  21  47  1   
 50  21  48  1   
 51  22  49  1   
 52  22  50  1   
 53  22  51  1   
@<TRIPOS>SUBSTRUCTURE
  1 ****   4 GROUP 4 **** **** 0

# MOE 2024.06 (io_trps.svl 2023.06)
