@<TRIPOS>MOLECULE
NONAME
30 31 1 0 0 
SMALL
USER_CHARGES


@<TRIPOS>ATOM
  1 S        0.1390     0.2650     1.3220 S.3   1 <1>  -0.0800 
  2 C        1.2180    -0.3730     0.0860 C.2   1 <1>   0.4620 
  3 C       -0.6050    -1.2940     1.4660 C.2   1 <1>  -0.1100 
  4 N        1.0160    -1.6170    -0.1620 N.2   1 <1>  -0.5650 
  5 N        2.1620     0.4460    -0.4980 N.pl3 1 <1>  -0.8220 
  6 C       -0.0220    -2.1600     0.6110 C.2   1 <1>   0.1410 
  7 C        2.2080     1.9240    -0.3160 C.3   1 <1>   0.3900 
  8 C        3.2350    -0.1160    -1.3660 C.3   1 <1>   0.1290 
  9 C       -0.4010    -3.5580     0.4590 C.2   1 <1>   0.7160 
 10 C        3.4510     2.3240     0.4600 C.2   1 <1>  -0.1810 
 11 O       -1.2830    -4.0640     1.1230 O.2   1 <1>  -0.5700 
 12 N        0.2180    -4.3540    -0.4420 N.am  1 <1>  -0.8000 
 13 C        4.3990     3.2520     0.1930 C.2   1 <1>  -0.3320 
 14 C        3.8420     1.7580     1.6690 C.2   1 <1>   0.1390 
 15 N        5.2800     3.2050     1.2160 N.pl3 1 <1>   0.3000 
 16 C        4.5460     4.2080    -0.9800 C.3   1 <1>  -0.0600 
 17 N        4.9360     2.2830     2.1310 N.2   1 <1>  -0.7070 
 18 H       -1.4060    -1.4190     2.1710 H     1 <1>   0.1500 
 19 H        1.3390     2.2850     0.2010 H     1 <1>   0.0800 
 20 H        2.2200     2.3910    -1.2840 H     1 <1>   0.0800 
 21 H        3.1530    -1.1860    -1.4360 H     1 <1>   0.0800 
 22 H        4.2010     0.1240    -0.9550 H     1 <1>   0.0800 
 23 H        3.1590     0.3000    -2.3560 H     1 <1>   0.0800 
 24 H       -0.0540    -5.3290    -0.5480 H     1 <1>   0.3700 
 25 H        0.9680    -3.9810    -1.0240 H     1 <1>   0.3700 
 26 H        3.3020     0.9700     2.1680 H     1 <1>   0.1500 
 27 H        6.1200     3.7850     1.3210 H     1 <1>   0.2700 
 28 H        3.7360     4.0880    -1.6760 H     1 <1>   0.0800 
 29 H        5.4700     4.0190    -1.4970 H     1 <1>   0.0800 
 30 H        4.5440     5.2250    -0.6300 H     1 <1>   0.0800 
@<TRIPOS>BOND
  1   1   2  1   
  2   1   3  1   
  3   2   4  2   
  4   2   5  1   
  5   3   6  2   
  6   3  18  1   
  7   4   6  1   
  8   5   7  1   
  9   5   8  1   
 10   6   9  1   
 11   7  10  1   
 12   7  19  1   
 13   7  20  1   
 14   8  21  1   
 15   8  22  1   
 16   8  23  1   
 17   9  11  2   
 18   9  12  am  
 19  10  13  2   
 20  10  14  1   
 21  12  24  1   
 22  12  25  1   
 23  13  15  1   
 24  13  16  1   
 25  14  17  2   
 26  14  26  1   
 27  15  17  1   
 28  15  27  1   
 29  16  28  1   
 30  16  29  1   
 31  16  30  1   
@<TRIPOS>SUBSTRUCTURE
  1 ****   5 GROUP 4 **** **** 0

# MOE 2024.06 (io_trps.svl 2023.06)
