@<TRIPOS>MOLECULE
NONAME
49 51 1 0 0 
SMALL
USER_CHARGES


@<TRIPOS>ATOM
  1 N       -1.8880    -0.6400     1.4250 N.ar  1 <1>  -0.6200 
  2 C       -2.2340    -1.7970     0.8920 C.ar  1 <1>   0.4100 
  3 C       -0.6230    -0.6350     1.8330 C.ar  1 <1>   0.1600 
  4 N       -3.5520    -1.9050     0.4190 N.pl3 1 <1>  -0.8380 
  5 C       -1.3400    -2.9070     0.7810 C.ar  1 <1>   0.4100 
  6 C        0.2420    -1.7080     1.7120 C.ar  1 <1>   0.1600 
  7 C       -3.9690    -0.8240    -0.5200 C.3   1 <1>   0.1290 
  8 C       -4.5490    -2.0950     1.5070 C.3   1 <1>   0.1290 
  9 N       -0.0830    -2.8800     1.1760 N.ar  1 <1>  -0.6200 
 10 N       -1.8130    -4.0780     0.2050 N.pl3 1 <1>  -0.8690 
 11 C       -0.9240    -4.8400    -0.7180 C.3   1 <1>   0.2890 
 12 C       -1.8320    -5.6370    -1.6750 C.3   1 <1>   0.3430 
 13 C       -0.0530    -5.8120     0.1170 C.3   1 <1>  -0.1600 
 14 N       -2.6420    -6.5560    -0.8170 N.4   1 <1>  -0.9590 
 15 C       -0.3370    -7.3070    -0.1550 C.3   1 <1>  -0.1600 
 16 C       -1.8340    -7.6610    -0.2100 C.3   1 <1>   0.3430 
 17 C       -3.9160    -7.0140    -1.4240 C.3   1 <1>   0.4860 
 18 C       -4.7540    -7.6630    -0.3410 C.ar  1 <1>  -0.1430 
 19 C       -5.3150    -6.8900     0.6670 C.ar  1 <1>  -0.1500 
 20 C       -4.9620    -9.0350    -0.3450 C.ar  1 <1>  -0.1500 
 21 C       -6.0670    -7.4860     1.6640 C.ar  1 <1>  -0.1500 
 22 C       -5.7150    -9.6280     0.6520 C.ar  1 <1>  -0.1500 
 23 C       -6.2670    -8.8550     1.6570 C.ar  1 <1>  -0.1500 
 24 H       -0.2650     0.2740     2.2840 H     1 <1>   0.1500 
 25 H        1.2510    -1.6040     2.0720 H     1 <1>   0.1500 
 26 H       -4.8600    -1.1160    -1.0480 H     1 <1>   0.0800 
 27 H       -3.1850    -0.6360    -1.2340 H     1 <1>   0.0800 
 28 H       -4.1610     0.0850     0.0240 H     1 <1>   0.0800 
 29 H       -5.5040    -2.3670     1.0920 H     1 <1>   0.0800 
 30 H       -4.6550    -1.1830     2.0710 H     1 <1>   0.0800 
 31 H       -4.2220    -2.8750     2.1740 H     1 <1>   0.0800 
 32 H       -2.7160    -3.7960    -0.2040 H     1 <1>   0.4000 
 33 H       -0.3000    -4.1570    -1.2720 H     1 <1>   0.0800 
 34 H       -1.2390    -6.1950    -2.3790 H     1 <1>   0.0800 
 35 H       -2.4640    -4.9520    -2.2140 H     1 <1>   0.0800 
 36 H        0.9830    -5.6120    -0.0920 H     1 <1>   0.0800 
 37 H       -0.1980    -5.6190     1.1670 H     1 <1>   0.0800 
 38 H       -2.8860    -5.9600    -0.0060 H     1 <1>   0.4500 
 39 H        0.1370    -7.9080     0.6020 H     1 <1>   0.0800 
 40 H        0.1120    -7.5860    -1.0920 H     1 <1>   0.0800 
 41 H       -2.1950    -7.8450     0.7900 H     1 <1>   0.0800 
 42 H       -1.9590    -8.5690    -0.7760 H     1 <1>   0.0800 
 43 H       -4.4550    -6.1770    -1.8350 H     1 <1>   0.0800 
 44 H       -3.7210    -7.7200    -2.2140 H     1 <1>   0.0800 
 45 H       -5.1780    -5.8220     0.6920 H     1 <1>   0.1500 
 46 H       -4.5460    -9.6580    -1.1200 H     1 <1>   0.1500 
 47 H       -6.5020    -6.8880     2.4470 H     1 <1>   0.1500 
 48 H       -5.8780   -10.6940     0.6480 H     1 <1>   0.1500 
 49 H       -6.8540    -9.3180     2.4320 H     1 <1>   0.1500 
@<TRIPOS>BOND
  1   1   2  ar  
  2   1   3  ar  
  3   2   4  1   
  4   2   5  ar  
  5   3   6  ar  
  6   3  24  1   
  7   4   7  1   
  8   4   8  1   
  9   5   9  ar  
 10   5  10  1   
 11   6   9  ar  
 12   6  25  1   
 13   7  26  1   
 14   7  27  1   
 15   7  28  1   
 16   8  29  1   
 17   8  30  1   
 18   8  31  1   
 19  10  11  1   
 20  10  32  1   
 21  11  12  1   
 22  11  13  1   
 23  11  33  1   
 24  12  14  1   
 25  12  34  1   
 26  12  35  1   
 27  13  15  1   
 28  13  36  1   
 29  13  37  1   
 30  14  16  1   
 31  14  17  1   
 32  14  38  1   
 33  15  16  1   
 34  15  39  1   
 35  15  40  1   
 36  16  41  1   
 37  16  42  1   
 38  17  18  1   
 39  17  43  1   
 40  17  44  1   
 41  18  19  ar  
 42  18  20  ar  
 43  19  21  ar  
 44  19  45  1   
 45  20  22  ar  
 46  20  46  1   
 47  21  23  ar  
 48  21  47  1   
 49  22  23  ar  
 50  22  48  1   
 51  23  49  1   
@<TRIPOS>SUBSTRUCTURE
  1 ****  10 GROUP 4 **** **** 0

# MOE 2024.06 (io_trps.svl 2023.06)
