@<TRIPOS>MOLECULE
NONAME
47 49 1 0 0 
SMALL
USER_CHARGES


@<TRIPOS>ATOM
  1 O        0.1240    -0.6710    -2.1290 O.2   1 <1>  -0.5700 
  2 C        0.6260    -1.4270    -1.3130 C.2   1 <1>   0.5440 
  3 N        0.8870    -0.9120    -0.0570 N.am  1 <1>  -0.6600 
  4 C        0.9400    -2.7990    -1.7190 C.ar  1 <1>   0.3960 
  5 C        1.6060    -1.6010     1.0380 C.3   1 <1>   0.1400 
  6 C        0.5420     0.4740     0.3290 C.3   1 <1>   0.1400 
  7 N        0.8870    -3.8170    -0.8410 N.ar  1 <1>  -0.6200 
  8 C        1.2860    -3.0130    -3.0590 C.ar  1 <1>   0.1600 
  9 C        1.9520    -0.4980     2.0310 C.3   1 <1>  -0.1600 
 10 C        0.8780     0.5650     1.8130 C.3   1 <1>  -0.1600 
 11 C        1.1890    -4.9830    -1.3670 C.ar  1 <1>   0.4100 
 12 N        1.6060    -4.1810    -3.6010 N.ar  1 <1>  -0.6200 
 13 N        1.1100    -6.0180    -0.4750 N.pl3 1 <1>  -0.8690 
 14 C        1.5520    -5.1510    -2.7120 C.ar  1 <1>   0.1600 
 15 C        0.2450    -7.1810    -0.7530 C.3   1 <1>   0.2090 
 16 C       -1.1020    -6.9590    -0.0690 C.3   1 <1>  -0.1600 
 17 C       -2.0930    -8.0810    -0.4010 C.3   1 <1>   0.0210 
 18 C       -3.4140    -7.8540     0.3130 C.2   1 <1>  -0.1810 
 19 C       -3.9110    -8.4530     1.4080 C.2   1 <1>  -0.0400 
 20 C       -4.4190    -6.9470    -0.0340 C.2   1 <1>   0.1080 
 21 O       -5.0830    -7.9350     1.6550 O.3   1 <1>  -0.0190 
 22 C       -3.3800    -9.5350     2.3260 C.3   1 <1>  -0.0600 
 23 N       -5.4030    -7.0200     0.7880 N.2   1 <1>  -0.4100 
 24 C       -4.3940    -5.9890    -1.2060 C.3   1 <1>  -0.0590 
 25 H        2.4890    -2.0980     0.6740 H     1 <1>   0.0800 
 26 H        0.9450    -2.3200     1.4920 H     1 <1>   0.0800 
 27 H       -0.4990     0.6750     0.1410 H     1 <1>   0.0800 
 28 H        1.1490     1.1570    -0.2420 H     1 <1>   0.0800 
 29 H        1.3000    -2.1600    -3.7160 H     1 <1>   0.1500 
 30 H        2.9190    -0.0970     1.7840 H     1 <1>   0.0800 
 31 H        1.9710    -0.8620     3.0430 H     1 <1>   0.0800 
 32 H        0.0000     0.3200     2.3840 H     1 <1>   0.0800 
 33 H        1.2120     1.5500     2.0870 H     1 <1>   0.0800 
 34 H        0.9610    -5.6520     0.4700 H     1 <1>   0.4000 
 35 H        1.8070    -6.1420    -3.0400 H     1 <1>   0.1500 
 36 H        0.7160    -8.0720    -0.3720 H     1 <1>   0.0800 
 37 H        0.1060    -7.2950    -1.8150 H     1 <1>   0.0800 
 38 H       -1.5120    -6.0190    -0.3930 H     1 <1>   0.0800 
 39 H       -0.9620    -6.9200     0.9970 H     1 <1>   0.0800 
 40 H       -1.6820    -9.0270    -0.0970 H     1 <1>   0.0800 
 41 H       -2.2650    -8.1240    -1.4620 H     1 <1>   0.0800 
 42 H       -2.4020    -9.8520     2.0170 H     1 <1>   0.0800 
 43 H       -4.0440   -10.3800     2.3090 H     1 <1>   0.0800 
 44 H       -3.3230    -9.1590     3.3310 H     1 <1>   0.0800 
 45 H       -4.0590    -6.4940    -2.0930 H     1 <1>   0.0800 
 46 H       -3.7380    -5.1660    -0.9910 H     1 <1>   0.0800 
 47 H       -5.3820    -5.6040    -1.3820 H     1 <1>   0.0800 
@<TRIPOS>BOND
  1   1   2  2   
  2   2   3  am  
  3   2   4  1   
  4   3   5  1   
  5   3   6  1   
  6   4   7  ar  
  7   4   8  ar  
  8   5   9  1   
  9   5  25  1   
 10   5  26  1   
 11   6  10  1   
 12   6  27  1   
 13   6  28  1   
 14   7  11  ar  
 15   8  12  ar  
 16   8  29  1   
 17   9  10  1   
 18   9  30  1   
 19   9  31  1   
 20  10  32  1   
 21  10  33  1   
 22  11  13  1   
 23  11  14  ar  
 24  12  14  ar  
 25  13  15  1   
 26  13  34  1   
 27  14  35  1   
 28  15  16  1   
 29  15  36  1   
 30  15  37  1   
 31  16  17  1   
 32  16  38  1   
 33  16  39  1   
 34  17  18  1   
 35  17  40  1   
 36  17  41  1   
 37  18  19  2   
 38  18  20  1   
 39  19  21  1   
 40  19  22  1   
 41  20  23  2   
 42  20  24  1   
 43  21  23  1   
 44  22  42  1   
 45  22  43  1   
 46  22  44  1   
 47  24  45  1   
 48  24  46  1   
 49  24  47  1   
@<TRIPOS>SUBSTRUCTURE
  1 ****   7 GROUP 4 **** **** 0

# MOE 2024.06 (io_trps.svl 2023.06)
