@<TRIPOS>MOLECULE
NONAME
48 51 1 0 0 
SMALL
USER_CHARGES


@<TRIPOS>ATOM
  1 O       -0.6920     0.7890     1.3780 O.2   1 <1>  -0.5700 
  2 C       -0.5150     1.9780     1.2990 C.2   1 <1>   0.5690 
  3 N       -1.5610     2.8280     1.2270 N.am  1 <1>  -0.7300 
  4 C        0.9090     2.5390     1.2380 C.3   1 <1>   0.1810 
  5 C       -1.4220     4.3010     1.1150 C.3   1 <1>   0.3640 
  6 O        0.9740     3.9210     1.5200 O.3   1 <1>  -0.5600 
  7 C       -2.3670     4.7950     0.0200 C.ar  1 <1>  -0.1440 
  8 C        0.0390     4.7220     0.8080 C.3   1 <1>   0.2610 
  9 C       -3.1250     5.9380     0.2320 C.ar  1 <1>  -0.1500 
 10 C       -2.4820     4.1290    -1.1950 C.ar  1 <1>  -0.1500 
 11 C        0.2760     6.2160     1.0930 C.2   1 <1>   0.5690 
 12 C       -3.9810     6.4080    -0.7490 C.ar  1 <1>  -0.1500 
 13 C       -3.3380     4.5970    -2.1760 C.ar  1 <1>  -0.1500 
 14 O       -0.4920     6.8000     1.8280 O.2   1 <1>  -0.5700 
 15 N        1.3380     6.8810     0.5240 N.am  1 <1>  -0.6600 
 16 C       -4.0880     5.7370    -1.9540 C.ar  1 <1>  -0.1500 
 17 C        2.4980     6.2180    -0.1630 C.3   1 <1>   0.1400 
 18 C        1.5460     8.3530     0.7340 C.3   1 <1>   0.1400 
 19 C        3.8110     6.5080     0.5830 C.3   1 <1>   0.2090 
 20 C        2.8790     8.6370     1.4480 C.3   1 <1>   0.2090 
 21 N        4.0100     7.9840     0.7150 N.pl3 1 <1>  -0.8380 
 22 C        4.8040     8.6960    -0.1600 C.ar  1 <1>   0.7200 
 23 N        5.3520     8.0240    -1.1730 N.ar  1 <1>  -0.6200 
 24 N        4.9460     9.9990     0.0760 N.ar  1 <1>  -0.6200 
 25 C        6.1080     8.7150    -1.9910 C.ar  1 <1>   0.1600 
 26 C        5.7070    10.6650    -0.7570 C.ar  1 <1>   0.1600 
 27 C        6.3230    10.0610    -1.8250 C.ar  1 <1>  -0.1500 
 28 H       -2.5100     2.4530     1.2600 H     1 <1>   0.3700 
 29 H        1.3150     2.3740     0.2570 H     1 <1>   0.0800 
 30 H        1.5210     2.0300     1.9580 H     1 <1>   0.0800 
 31 H       -1.7210     4.7250     2.0580 H     1 <1>   0.0800 
 32 H        0.2150     4.5640    -0.2400 H     1 <1>   0.0800 
 33 H       -3.0500     6.4770     1.1620 H     1 <1>   0.1500 
 34 H       -1.9080     3.2380    -1.3870 H     1 <1>   0.1500 
 35 H       -4.5620     7.2970    -0.5740 H     1 <1>   0.1500 
 36 H       -3.4220     4.0740    -3.1130 H     1 <1>   0.1500 
 37 H       -4.7550     6.1020    -2.7160 H     1 <1>   0.1500 
 38 H        2.3670     5.1550    -0.2210 H     1 <1>   0.0800 
 39 H        2.5800     6.5980    -1.1660 H     1 <1>   0.0800 
 40 H        1.5540     8.8460    -0.2220 H     1 <1>   0.0800 
 41 H        0.7430     8.7750     1.3120 H     1 <1>   0.0800 
 42 H        4.6360     6.0500     0.0660 H     1 <1>   0.0800 
 43 H        3.7650     6.0690     1.5640 H     1 <1>   0.0800 
 44 H        2.8340     8.2450     2.4490 H     1 <1>   0.0800 
 45 H        3.0210     9.7000     1.5260 H     1 <1>   0.0800 
 46 H        6.5670     8.1950    -2.8140 H     1 <1>   0.1500 
 47 H        5.8430    11.7190    -0.5830 H     1 <1>   0.1500 
 48 H        6.9460    10.6160    -2.5000 H     1 <1>   0.1500 
@<TRIPOS>BOND
  1   1   2  2   
  2   2   3  am  
  3   2   4  1   
  4   3   5  1   
  5   3  28  1   
  6   4   6  1   
  7   4  29  1   
  8   4  30  1   
  9   5   7  1   
 10   5   8  1   
 11   5  31  1   
 12   6   8  1   
 13   7   9  ar  
 14   7  10  ar  
 15   8  11  1   
 16   8  32  1   
 17   9  12  ar  
 18   9  33  1   
 19  10  13  ar  
 20  10  34  1   
 21  11  14  2   
 22  11  15  am  
 23  12  16  ar  
 24  12  35  1   
 25  13  16  ar  
 26  13  36  1   
 27  15  17  1   
 28  15  18  1   
 29  16  37  1   
 30  17  19  1   
 31  17  38  1   
 32  17  39  1   
 33  18  20  1   
 34  18  40  1   
 35  18  41  1   
 36  19  21  1   
 37  19  42  1   
 38  19  43  1   
 39  20  21  1   
 40  20  44  1   
 41  20  45  1   
 42  21  22  1   
 43  22  23  ar  
 44  22  24  ar  
 45  23  25  ar  
 46  24  26  ar  
 47  25  27  ar  
 48  25  46  1   
 49  26  27  ar  
 50  26  47  1   
 51  27  48  1   
@<TRIPOS>SUBSTRUCTURE
  1 ****  15 GROUP 4 **** **** 0

# MOE 2024.06 (io_trps.svl 2023.06)
