@<TRIPOS>MOLECULE
NONAME
59 61 1 0 0 
SMALL
USER_CHARGES


@<TRIPOS>ATOM
  1 O       -1.8270    -0.9170     1.0780 O.2   1 <1>  -0.5700 
  2 C       -2.5200    -0.0400     0.6120 C.2   1 <1>   0.5690 
  3 N       -3.8610    -0.2720     0.4050 N.am  1 <1>  -0.6600 
  4 C       -1.8100     1.2760     0.2580 C.3   1 <1>  -0.0190 
  5 C       -4.5450    -1.3860     1.1280 C.3   1 <1>   0.2840 
  6 C       -4.8130     0.6200    -0.3270 C.3   1 <1>   0.0600 
  7 C       -2.4180     2.5210     0.9410 C.3   1 <1>  -0.1600 
  8 C       -1.5950     1.4560    -1.2660 C.3   1 <1>  -0.1600 
  9 C       -5.2240    -2.3710     0.1750 C.ar  1 <1>  -0.1430 
 10 C       -1.5740     3.7930     0.7090 C.3   1 <1>   0.2000 
 11 C       -1.4880     2.9300    -1.6980 C.3   1 <1>  -0.1600 
 12 C       -4.5620    -3.0490    -0.8530 C.ar  1 <1>  -0.1440 
 13 C       -6.5800    -2.6020     0.3680 C.ar  1 <1>  -0.1500 
 14 O       -2.4520     4.8910     0.7060 O.3   1 <1>  -0.5600 
 15 C       -0.7830     3.7660    -0.6270 C.3   1 <1>   0.2000 
 16 C       -5.2700    -3.9350    -1.6550 C.ar  1 <1>  -0.1500 
 17 C       -3.0820    -2.8690    -1.1640 C.3   1 <1>   0.4860 
 18 C       -7.2740    -3.4870    -0.4350 C.ar  1 <1>  -0.1500 
 19 C       -2.7690     5.3990     1.9650 C.3   1 <1>   0.0400 
 20 O       -0.6550     5.0520    -1.1090 O.3   1 <1>  -0.6800 
 21 C       -6.6180    -4.1550    -1.4480 C.ar  1 <1>  -0.1500 
 22 N       -2.2300    -3.4090    -0.0730 N.4   1 <1>  -0.9590 
 23 C       -0.8110    -3.5670    -0.4420 C.3   1 <1>   0.3430 
 24 C       -2.6730    -4.6940     0.5150 C.3   1 <1>   0.3430 
 25 C       -0.2470    -4.4440     0.6660 C.3   1 <1>  -0.1600 
 26 C       -1.4360    -5.2350     1.2220 C.3   1 <1>  -0.1600 
 27 H       -0.8230     1.1870     0.6820 H     1 <1>   0.0800 
 28 H       -3.8580    -1.9220     1.7570 H     1 <1>   0.0800 
 29 H       -5.2800    -0.9530     1.7850 H     1 <1>   0.0800 
 30 H       -5.4310     0.0370    -0.9880 H     1 <1>   0.0800 
 31 H       -4.3020     1.3550    -0.9180 H     1 <1>   0.0800 
 32 H       -5.4490     1.1290     0.3770 H     1 <1>   0.0800 
 33 H       -2.4970     2.3420     1.9990 H     1 <1>   0.0800 
 34 H       -3.4050     2.6990     0.5600 H     1 <1>   0.0800 
 35 H       -0.6830     0.9500    -1.5360 H     1 <1>   0.0800 
 36 H       -2.3830     0.9910    -1.8300 H     1 <1>   0.0800 
 37 H       -0.8600     3.9180     1.5070 H     1 <1>   0.0800 
 38 H       -2.4760     3.3300    -1.8510 H     1 <1>   0.0800 
 39 H       -0.9480     2.9970    -2.6270 H     1 <1>   0.0800 
 40 H       -7.1170    -2.0940     1.1510 H     1 <1>   0.1500 
 41 H        0.2070     3.3760    -0.4660 H     1 <1>   0.0800 
 42 H       -4.7830    -4.4650    -2.4560 H     1 <1>   0.1500 
 43 H       -2.8690    -1.8230    -1.3100 H     1 <1>   0.0800 
 44 H       -2.8570    -3.3840    -2.0820 H     1 <1>   0.0800 
 45 H       -8.3250    -3.6540    -0.2720 H     1 <1>   0.1500 
 46 H       -3.4480     6.2240     1.8310 H     1 <1>   0.0800 
 47 H       -1.8700     5.7470     2.4440 H     1 <1>   0.0800 
 48 H       -3.2440     4.6350     2.5550 H     1 <1>   0.0800 
 49 H       -1.4290     5.5490    -0.7570 H     1 <1>   0.4000 
 50 H       -7.1590    -4.8430    -2.0760 H     1 <1>   0.1500 
 51 H       -2.2330    -2.6830     0.6700 H     1 <1>   0.4500 
 52 H       -0.7300    -4.0780    -1.3880 H     1 <1>   0.0800 
 53 H       -0.3060    -2.6150    -0.4930 H     1 <1>   0.0800 
 54 H       -3.4990    -4.5540     1.1940 H     1 <1>   0.0800 
 55 H       -2.9690    -5.3710    -0.2700 H     1 <1>   0.0800 
 56 H        0.5270    -5.0890     0.2870 H     1 <1>   0.0800 
 57 H        0.1740    -3.8170     1.4340 H     1 <1>   0.0800 
 58 H       -1.5250    -5.0860     2.2840 H     1 <1>   0.0800 
 59 H       -1.3360    -6.2890     1.0320 H     1 <1>   0.0800 
@<TRIPOS>BOND
  1   1   2  2   
  2   2   3  am  
  3   2   4  1   
  4   3   5  1   
  5   3   6  1   
  6   4   7  1   
  7   4   8  1   
  8   4  27  1   
  9   5   9  1   
 10   5  28  1   
 11   5  29  1   
 12   6  30  1   
 13   6  31  1   
 14   6  32  1   
 15   7  10  1   
 16   7  33  1   
 17   7  34  1   
 18   8  11  1   
 19   8  35  1   
 20   8  36  1   
 21   9  12  ar  
 22   9  13  ar  
 23  10  14  1   
 24  10  15  1   
 25  10  37  1   
 26  11  15  1   
 27  11  38  1   
 28  11  39  1   
 29  12  16  ar  
 30  12  17  1   
 31  13  18  ar  
 32  13  40  1   
 33  14  19  1   
 34  15  20  1   
 35  15  41  1   
 36  16  21  ar  
 37  16  42  1   
 38  17  22  1   
 39  17  43  1   
 40  17  44  1   
 41  18  21  ar  
 42  18  45  1   
 43  19  46  1   
 44  19  47  1   
 45  19  48  1   
 46  20  49  1   
 47  21  50  1   
 48  22  23  1   
 49  22  24  1   
 50  22  51  1   
 51  23  25  1   
 52  23  52  1   
 53  23  53  1   
 54  24  26  1   
 55  24  54  1   
 56  24  55  1   
 57  25  26  1   
 58  25  56  1   
 59  25  57  1   
 60  26  58  1   
 61  26  59  1   
@<TRIPOS>SUBSTRUCTURE
  1 ****   3 GROUP 4 **** **** 0

# MOE 2024.06 (io_trps.svl 2023.06)
