@<TRIPOS>MOLECULE
NONAME
44 46 1 0 0 
SMALL
USER_CHARGES


@<TRIPOS>ATOM
  1 O       -0.2570     0.1750     0.4310 O.2   1 <1>  -0.5700 
  2 C       -1.2960     0.8030     0.5110 C.2   1 <1>   0.5440 
  3 N       -2.4870     0.1140     0.4750 N.am  1 <1>  -0.6600 
  4 C       -1.2610     2.2490     0.6250 C.ar  1 <1>   0.0860 
  5 C       -3.7970     0.7130     0.1170 C.3   1 <1>   0.1400 
  6 C       -2.5390    -1.3650     0.3500 C.3   1 <1>   0.1400 
  7 C       -0.5110     3.0160    -0.2610 C.ar  1 <1>  -0.1500 
  8 C       -1.9720     2.9210     1.6200 C.ar  1 <1>  -0.1500 
  9 C       -4.5900    -0.4330    -0.5070 C.3   1 <1>   0.2000 
 10 C       -4.0110    -1.7020     0.1120 C.3   1 <1>  -0.0800 
 11 C       -0.4790     4.3970    -0.1810 C.ar  1 <1>   0.0830 
 12 C       -1.9480     4.3010     1.7140 C.ar  1 <1>  -0.1500 
 13 O       -5.9430    -0.3330    -0.2240 O.3   1 <1>  -0.6800 
 14 C       -4.2220    -2.9510    -0.7550 C.3   1 <1>   0.0210 
 15 O        0.2780     5.0450    -1.1010 O.3   1 <1>  -0.3630 
 16 C       -1.2050     5.0440     0.8140 C.ar  1 <1>  -0.1500 
 17 C       -3.5510    -4.1600    -0.1340 C.2   1 <1>   0.1080 
 18 C        0.4320     6.4460    -1.0730 C.3   1 <1>   0.0400 
 19 N       -3.9090    -4.6510     1.0120 N.2   1 <1>  -0.7070 
 20 C       -2.4910    -4.8610    -0.6980 C.2   1 <1>  -0.1500 
 21 N       -3.0780    -5.6920     1.2100 N.pl3 1 <1>   0.3000 
 22 C       -2.2090    -5.8380     0.1890 C.2   1 <1>  -0.3320 
 23 C       -1.1440    -6.9180     0.1230 C.3   1 <1>  -0.0600 
 24 H       -4.2790     1.0660     1.0110 H     1 <1>   0.0800 
 25 H       -3.6720     1.5190    -0.5850 H     1 <1>   0.0800 
 26 H       -1.9310    -1.6680    -0.4860 H     1 <1>   0.0800 
 27 H       -2.1670    -1.8360     1.2450 H     1 <1>   0.0800 
 28 H        0.0600     2.5230    -1.0270 H     1 <1>   0.1500 
 29 H       -2.5430     2.3470     2.3290 H     1 <1>   0.1500 
 30 H       -4.4630    -0.4210    -1.5760 H     1 <1>   0.0800 
 31 H       -4.4550    -1.8680     1.0790 H     1 <1>   0.0800 
 32 H       -2.5060     4.7980     2.4890 H     1 <1>   0.1500 
 33 H       -6.1060    -0.5270     0.7200 H     1 <1>   0.4000 
 34 H       -3.8250    -2.7900    -1.7410 H     1 <1>   0.0800 
 35 H       -5.2750    -3.1520    -0.8470 H     1 <1>   0.0800 
 36 H       -1.2020     6.1130     0.9040 H     1 <1>   0.1500 
 37 H        1.0900     6.7260    -1.8760 H     1 <1>   0.0800 
 38 H        0.8660     6.7310    -0.1300 H     1 <1>   0.0800 
 39 H       -0.5300     6.9070    -1.2110 H     1 <1>   0.0800 
 40 H       -2.0160    -4.6480    -1.6390 H     1 <1>   0.1500 
 41 H       -3.1300    -6.2800     2.0510 H     1 <1>   0.2700 
 42 H       -0.5790    -6.8240    -0.7880 H     1 <1>   0.0800 
 43 H       -1.6000    -7.8920     0.1450 H     1 <1>   0.0800 
 44 H       -0.4690    -6.8260     0.9550 H     1 <1>   0.0800 
@<TRIPOS>BOND
  1   1   2  2   
  2   2   3  am  
  3   2   4  1   
  4   3   5  1   
  5   3   6  1   
  6   4   7  ar  
  7   4   8  ar  
  8   5   9  1   
  9   5  24  1   
 10   5  25  1   
 11   6  10  1   
 12   6  26  1   
 13   6  27  1   
 14   7  11  ar  
 15   7  28  1   
 16   8  12  ar  
 17   8  29  1   
 18   9  10  1   
 19   9  13  1   
 20   9  30  1   
 21  10  14  1   
 22  10  31  1   
 23  11  15  1   
 24  11  16  ar  
 25  12  16  ar  
 26  12  32  1   
 27  13  33  1   
 28  14  17  1   
 29  14  34  1   
 30  14  35  1   
 31  15  18  1   
 32  16  36  1   
 33  17  19  2   
 34  17  20  1   
 35  18  37  1   
 36  18  38  1   
 37  18  39  1   
 38  19  21  1   
 39  20  22  2   
 40  20  40  1   
 41  21  22  1   
 42  21  41  1   
 43  22  23  1   
 44  23  42  1   
 45  23  43  1   
 46  23  44  1   
@<TRIPOS>SUBSTRUCTURE
  1 ****   3 GROUP 4 **** **** 0

# MOE 2024.06 (io_trps.svl 2023.06)
