@<TRIPOS>MOLECULE
NONAME
56 59 1 0 0 
SMALL
USER_CHARGES


@<TRIPOS>ATOM
  1 S       -0.2670     0.3540     1.9110 S.3   1 <1>  -0.0800 
  2 C       -0.2640     1.7940     0.9150 C.2   1 <1>  -0.1400 
  3 C        1.4320     0.5900     2.2920 C.2   1 <1>  -0.1100 
  4 C        0.9410     2.3770     0.8820 C.2   1 <1>  -0.1810 
  5 C       -1.4910     2.2900     0.2000 C.3   1 <1>   0.0200 
  6 C        1.9170     1.6880     1.6790 C.2   1 <1>  -0.1500 
  7 C        1.1810     3.6440     0.0580 C.3   1 <1>   0.4610 
  8 C       -1.2350     3.7570    -0.1780 C.3   1 <1>   0.1200 
  9 O        0.0450     3.9230    -0.7420 O.3   1 <1>  -0.5600 
 10 C        1.4620     4.8500     0.9660 C.3   1 <1>  -0.1600 
 11 C        2.3440     3.4340    -0.9180 C.3   1 <1>  -0.1600 
 12 C        1.7750     6.1100     0.1570 C.3   1 <1>   0.1400 
 13 C        2.6500     4.7030    -1.7130 C.3   1 <1>   0.1400 
 14 N        2.9040     5.8280    -0.7700 N.am  1 <1>  -0.6600 
 15 C        4.1330     6.4450    -0.6890 C.2   1 <1>   0.7150 
 16 O        5.1070     5.8790    -1.1520 O.2   1 <1>  -0.5700 
 17 C        4.2870     7.7280    -0.0650 C.2   1 <1>  -0.2370 
 18 N        5.3290     8.0760     0.7370 N.pl3 1 <1>   0.3140 
 19 C        3.4990     8.8370    -0.1340 C.2   1 <1>  -0.1500 
 20 N        5.2170     9.3440     1.1760 N.2   1 <1>  -0.7070 
 21 C        6.4890     7.2130     1.0990 C.3   1 <1>   0.0960 
 22 C        4.1220     9.7920     0.6460 C.2   1 <1>   0.1080 
 23 C        7.1350     7.5900     2.4410 C.3   1 <1>  -0.2400 
 24 C        3.6140    11.2040     0.8740 C.3   1 <1>   0.0210 
 25 C        3.6530    12.0640    -0.4050 C.3   1 <1>  -0.0800 
 26 C        5.0880    12.2400    -0.9240 C.3   1 <1>  -0.2400 
 27 C        3.0270    13.4400    -0.1450 C.3   1 <1>  -0.2400 
 28 H        1.8950    -0.1300     2.9430 H     1 <1>   0.1500 
 29 H       -2.3520     2.2220     0.8400 H     1 <1>   0.0800 
 30 H       -1.6650     1.7010    -0.6820 H     1 <1>   0.0800 
 31 H        2.9290     2.0440     1.7560 H     1 <1>   0.1500 
 32 H       -1.3090     4.3860     0.6910 H     1 <1>   0.0800 
 33 H       -1.9590     4.0850    -0.9030 H     1 <1>   0.0800 
 34 H        2.3080     4.6290     1.5900 H     1 <1>   0.0800 
 35 H        0.6280     5.0250     1.6170 H     1 <1>   0.0800 
 36 H        2.1010     2.6300    -1.5890 H     1 <1>   0.0800 
 37 H        3.2290     3.1510    -0.3790 H     1 <1>   0.0800 
 38 H        2.0210     6.9070     0.8360 H     1 <1>   0.0800 
 39 H        0.9130     6.4060    -0.4160 H     1 <1>   0.0800 
 40 H        1.8110     4.9540    -2.3410 H     1 <1>   0.0800 
 41 H        3.5020     4.5380    -2.3510 H     1 <1>   0.0800 
 42 H        2.5850     8.9640    -0.6850 H     1 <1>   0.1500 
 43 H        7.2140     7.2890     0.3090 H     1 <1>   0.0800 
 44 H        6.1530     6.1940     1.1500 H     1 <1>   0.0800 
 45 H        7.5390     8.5870     2.3930 H     1 <1>   0.0800 
 46 H        7.9350     6.9090     2.6660 H     1 <1>   0.0800 
 47 H        6.4060     7.5420     3.2300 H     1 <1>   0.0800 
 48 H        4.2110    11.6670     1.6400 H     1 <1>   0.0800 
 49 H        2.6050    11.1430     1.2380 H     1 <1>   0.0800 
 50 H        3.0760    11.5690    -1.1670 H     1 <1>   0.0800 
 51 H        5.7050    12.7110    -0.1800 H     1 <1>   0.0800 
 52 H        5.0950    12.8440    -1.8130 H     1 <1>   0.0800 
 53 H        5.5210    11.2840    -1.1650 H     1 <1>   0.0800 
 54 H        3.5800    13.9710     0.6110 H     1 <1>   0.0800 
 55 H        2.0090    13.3330     0.1850 H     1 <1>   0.0800 
 56 H        3.0290    14.0270    -1.0460 H     1 <1>   0.0800 
@<TRIPOS>BOND
  1   1   2  1   
  2   1   3  1   
  3   2   4  2   
  4   2   5  1   
  5   3   6  2   
  6   3  28  1   
  7   4   6  1   
  8   4   7  1   
  9   5   8  1   
 10   5  29  1   
 11   5  30  1   
 12   6  31  1   
 13   7   9  1   
 14   7  10  1   
 15   7  11  1   
 16   8   9  1   
 17   8  32  1   
 18   8  33  1   
 19  10  12  1   
 20  10  34  1   
 21  10  35  1   
 22  11  13  1   
 23  11  36  1   
 24  11  37  1   
 25  12  14  1   
 26  12  38  1   
 27  12  39  1   
 28  13  14  1   
 29  13  40  1   
 30  13  41  1   
 31  14  15  am  
 32  15  16  2   
 33  15  17  1   
 34  17  18  1   
 35  17  19  2   
 36  18  20  1   
 37  18  21  1   
 38  19  22  1   
 39  19  42  1   
 40  20  22  2   
 41  21  23  1   
 42  21  43  1   
 43  21  44  1   
 44  22  24  1   
 45  23  45  1   
 46  23  46  1   
 47  23  47  1   
 48  24  25  1   
 49  24  48  1   
 50  24  49  1   
 51  25  26  1   
 52  25  27  1   
 53  25  50  1   
 54  26  51  1   
 55  26  52  1   
 56  26  53  1   
 57  27  54  1   
 58  27  55  1   
 59  27  56  1   
@<TRIPOS>SUBSTRUCTURE
  1 ****  12 GROUP 4 **** **** 0

# MOE 2024.06 (io_trps.svl 2023.06)
