@<TRIPOS>MOLECULE
NONAME
48 50 1 0 0 
SMALL
USER_CHARGES


@<TRIPOS>ATOM
  1 O        0.0760    -0.9450     0.9170 O.3   1 <1>  -0.6800 
  2 C        0.6610    -2.1340     0.5300 C.3   1 <1>   0.2000 
  3 C        2.0810    -1.9190    -0.0280 C.3   1 <1>   0.0000 
  4 C       -0.1330    -2.8130    -0.5820 C.3   1 <1>  -0.1600 
  5 C        3.0390    -1.7340     1.1720 C.3   1 <1>   0.3430 
  6 C        2.1720    -0.7230    -1.0240 C.3   1 <1>  -0.1600 
  7 C        2.2790    -3.2420    -0.7910 C.3   1 <1>  -0.1600 
  8 C        0.9160    -3.5510    -1.4270 C.3   1 <1>  -0.1600 
  9 N        4.3110    -1.0190     0.8200 N.4   1 <1>  -0.9590 
 10 C        2.6840     0.5510    -0.3340 C.3   1 <1>  -0.1600 
 11 C        4.0670     0.3740     0.3090 C.3   1 <1>   0.3430 
 12 C        5.1630    -1.8070    -0.1110 C.3   1 <1>   0.4860 
 13 C        6.5560    -1.2060    -0.1300 C.ar  1 <1>  -0.1440 
 14 C        6.9880    -0.4770    -1.2280 C.ar  1 <1>  -0.1500 
 15 C        7.4130    -1.3800     0.9470 C.ar  1 <1>  -0.1500 
 16 C        8.2550     0.0800    -1.2390 C.ar  1 <1>  -0.1500 
 17 C        8.6790    -0.8200     0.9270 C.ar  1 <1>  -0.1500 
 18 C        9.1150    -0.0810    -0.1630 C.ar  1 <1>   0.0730 
 19 C       10.4240     0.5000    -0.1800 C.1   1 <1>  -0.0730 
 20 C       11.5100     0.9880    -0.2000 C.1   1 <1>  -0.2000 
 21 C       12.8650     1.6020    -0.2280 C.3   1 <1>   0.3200 
 22 O       13.4460     1.2670    -1.4320 O.3   1 <1>  -0.6800 
 23 H       -0.8790    -1.0770     1.0880 H     1 <1>   0.4000 
 24 H        0.6890    -2.7860     1.3880 H     1 <1>   0.0800 
 25 H       -0.8510    -3.5020    -0.1730 H     1 <1>   0.0800 
 26 H       -0.6390    -2.0850    -1.1930 H     1 <1>   0.0800 
 27 H        3.2560    -2.6930     1.6120 H     1 <1>   0.0800 
 28 H        2.5180    -1.1480     1.9130 H     1 <1>   0.0800 
 29 H        2.8430    -0.9550    -1.8320 H     1 <1>   0.0800 
 30 H        1.2130    -0.5230    -1.4710 H     1 <1>   0.0800 
 31 H        3.0530    -3.2030    -1.5370 H     1 <1>   0.0800 
 32 H        2.5150    -4.0320    -0.0970 H     1 <1>   0.0800 
 33 H        0.7310    -4.6120    -1.4470 H     1 <1>   0.0800 
 34 H        0.8870    -3.1790    -2.4380 H     1 <1>   0.0800 
 35 H        4.8700    -0.9160     1.6750 H     1 <1>   0.4500 
 36 H        1.9830     0.8510     0.4260 H     1 <1>   0.0800 
 37 H        2.7300     1.3570    -1.0450 H     1 <1>   0.0800 
 38 H        4.1540     1.0770     1.1220 H     1 <1>   0.0800 
 39 H        4.8250     0.6310    -0.4130 H     1 <1>   0.0800 
 40 H        5.2240    -2.8310     0.2200 H     1 <1>   0.0800 
 41 H        4.7430    -1.7950    -1.1030 H     1 <1>   0.0800 
 42 H        6.3530    -0.3340    -2.0860 H     1 <1>   0.1500 
 43 H        7.1170    -1.9550     1.8090 H     1 <1>   0.1500 
 44 H        8.5880     0.6460    -2.0920 H     1 <1>   0.1500 
 45 H        9.3430    -0.9570     1.7640 H     1 <1>   0.1500 
 46 H       13.4790     1.2130     0.5670 H     1 <1>   0.0800 
 47 H       12.8140     2.6750    -0.1620 H     1 <1>   0.0800 
 48 H       13.2130     0.3430    -1.6450 H     1 <1>   0.4000 
@<TRIPOS>BOND
  1   1   2  1   
  2   1  23  1   
  3   2   3  1   
  4   2   4  1   
  5   2  24  1   
  6   3   5  1   
  7   3   6  1   
  8   3   7  1   
  9   4   8  1   
 10   4  25  1   
 11   4  26  1   
 12   5   9  1   
 13   5  27  1   
 14   5  28  1   
 15   6  10  1   
 16   6  29  1   
 17   6  30  1   
 18   7   8  1   
 19   7  31  1   
 20   7  32  1   
 21   8  33  1   
 22   8  34  1   
 23   9  11  1   
 24   9  12  1   
 25   9  35  1   
 26  10  11  1   
 27  10  36  1   
 28  10  37  1   
 29  11  38  1   
 30  11  39  1   
 31  12  13  1   
 32  12  40  1   
 33  12  41  1   
 34  13  14  ar  
 35  13  15  ar  
 36  14  16  ar  
 37  14  42  1   
 38  15  17  ar  
 39  15  43  1   
 40  16  18  ar  
 41  16  44  1   
 42  17  18  ar  
 43  17  45  1   
 44  18  19  1   
 45  19  20  3   
 46  20  21  1   
 47  21  22  1   
 48  21  46  1   
 49  21  47  1   
 50  22  48  1   
@<TRIPOS>SUBSTRUCTURE
  1 ****  12 GROUP 4 **** **** 0

# MOE 2024.06 (io_trps.svl 2023.06)
