@<TRIPOS>MOLECULE
NONAME
58 61 1 0 0 
SMALL
USER_CHARGES


@<TRIPOS>ATOM
  1 O        0.5960    -0.4230     2.1550 O.2   1 <1>  -0.5700 
  2 C        1.0240    -1.2400     1.3740 C.2   1 <1>   0.5690 
  3 N        2.1800    -0.9980     0.6780 N.am  1 <1>  -0.6600 
  4 C        0.1780    -2.4960     1.2280 C.3   1 <1>  -0.0990 
  5 C        2.7190    -1.8580    -0.4210 C.3   1 <1>   0.1400 
  6 C        2.9760     0.2600     0.9230 C.3   1 <1>   0.2010 
  7 C        0.6640    -3.6030     0.2940 C.3   1 <1>   0.1200 
  8 C        3.0360    -3.3210    -0.0070 C.3   1 <1>   0.2800 
  9 C        3.0310     1.1980    -0.2890 C.2   1 <1>   0.5690 
 10 O        1.9660    -3.9580     0.6390 O.3   1 <1>  -0.5600 
 11 C        4.1990    -3.3680     1.0100 C.3   1 <1>  -0.1600 
 12 C        3.3610    -4.1530    -1.2630 C.3   1 <1>  -0.1600 
 13 O        4.0330     1.1500    -0.9700 O.2   1 <1>  -0.5700 
 14 N        1.9850     2.0390    -0.5970 N.am  1 <1>  -0.6600 
 15 C        5.5440    -3.5980     0.3250 C.3   1 <1>   0.2090 
 16 C        4.2170    -5.3650    -0.9080 C.3   1 <1>   0.2090 
 17 C        0.7140     2.0840     0.1790 C.3   1 <1>   0.0600 
 18 C        2.0190     2.9300    -1.7900 C.3   1 <1>   0.0600 
 19 N        5.5530    -4.9290    -0.3730 N.pl3 1 <1>  -0.8380 
 20 C        6.6250    -5.7680    -0.3230 C.ar  1 <1>   0.1000 
 21 C        7.9920    -5.3240    -0.3270 C.ar  1 <1>   0.0000 
 22 C        6.4120    -7.1450    -0.2020 C.ar  1 <1>  -0.1500 
 23 C        9.0110    -6.2390     0.0110 C.ar  1 <1>   0.3610 
 24 C        8.4090    -4.0310    -0.7030 C.ar  1 <1>  -0.1500 
 25 C        7.4350    -8.0160     0.0590 C.ar  1 <1>   0.2110 
 26 N        8.6920    -7.5640     0.1960 N.ar  1 <1>  -0.1790 
 27 C       10.3460    -5.8170     0.1090 C.ar  1 <1>  -0.1500 
 28 C        9.7200    -3.6360    -0.6280 C.ar  1 <1>  -0.1500 
 29 C       10.6980    -4.5290    -0.2000 C.ar  1 <1>  -0.1500 
 30 H       -0.8000    -2.1910     0.9080 H     1 <1>   0.0800 
 31 H        0.0660    -2.9190     2.2080 H     1 <1>   0.0800 
 32 H        3.6300    -1.4250    -0.7950 H     1 <1>   0.0800 
 33 H        2.0280    -1.8420    -1.2450 H     1 <1>   0.0800 
 34 H        3.9830    -0.0170     1.1730 H     1 <1>   0.0800 
 35 H        2.5900     0.8010     1.7660 H     1 <1>   0.0800 
 36 H        0.6060    -3.3240    -0.7420 H     1 <1>   0.0800 
 37 H        0.0510    -4.4760     0.4360 H     1 <1>   0.0800 
 38 H        4.0470    -4.1690     1.7120 H     1 <1>   0.0800 
 39 H        4.2420    -2.4560     1.5740 H     1 <1>   0.0800 
 40 H        3.9090    -3.5630    -1.9760 H     1 <1>   0.0800 
 41 H        2.4550    -4.4740    -1.7420 H     1 <1>   0.0800 
 42 H        6.3260    -3.5670     1.0640 H     1 <1>   0.0800 
 43 H        5.7140    -2.8110    -0.3900 H     1 <1>   0.0800 
 44 H        4.3620    -5.9690    -1.7870 H     1 <1>   0.0800 
 45 H        3.7040    -5.9530    -0.1640 H     1 <1>   0.0800 
 46 H        0.9140     2.0860     1.2360 H     1 <1>   0.0800 
 47 H        0.1120     1.2240    -0.0600 H     1 <1>   0.0800 
 48 H        0.1600     2.9750    -0.0590 H     1 <1>   0.0800 
 49 H        2.9470     2.8240    -2.3250 H     1 <1>   0.0800 
 50 H        1.9180     3.9550    -1.4800 H     1 <1>   0.0800 
 51 H        1.2110     2.6780    -2.4540 H     1 <1>   0.0800 
 52 H        5.4150    -7.5380    -0.2740 H     1 <1>   0.1500 
 53 H        7.6850    -3.3320    -1.0770 H     1 <1>   0.1500 
 54 H        7.2420    -9.0720     0.1710 H     1 <1>   0.1500 
 55 H        9.4560    -8.2080     0.4120 H     1 <1>   0.4570 
 56 H       11.1110    -6.5070     0.4170 H     1 <1>   0.1500 
 57 H       10.0070    -2.6330    -0.9050 H     1 <1>   0.1500 
 58 H       11.7220    -4.1960    -0.1310 H     1 <1>   0.1500 
@<TRIPOS>BOND
  1   1   2  2   
  2   2   3  am  
  3   2   4  1   
  4   3   5  1   
  5   3   6  1   
  6   4   7  1   
  7   4  30  1   
  8   4  31  1   
  9   5   8  1   
 10   5  32  1   
 11   5  33  1   
 12   6   9  1   
 13   6  34  1   
 14   6  35  1   
 15   7  10  1   
 16   7  36  1   
 17   7  37  1   
 18   8  10  1   
 19   8  11  1   
 20   8  12  1   
 21   9  13  2   
 22   9  14  am  
 23  11  15  1   
 24  11  38  1   
 25  11  39  1   
 26  12  16  1   
 27  12  40  1   
 28  12  41  1   
 29  14  17  1   
 30  14  18  1   
 31  15  19  1   
 32  15  42  1   
 33  15  43  1   
 34  16  19  1   
 35  16  44  1   
 36  16  45  1   
 37  17  46  1   
 38  17  47  1   
 39  17  48  1   
 40  18  49  1   
 41  18  50  1   
 42  18  51  1   
 43  19  20  1   
 44  20  21  ar  
 45  20  22  ar  
 46  21  23  ar  
 47  21  24  ar  
 48  22  25  ar  
 49  22  52  1   
 50  23  26  ar  
 51  23  27  ar  
 52  24  28  ar  
 53  24  53  1   
 54  25  26  ar  
 55  25  54  1   
 56  26  55  1   
 57  27  29  ar  
 58  27  56  1   
 59  28  29  ar  
 60  28  57  1   
 61  29  58  1   
@<TRIPOS>SUBSTRUCTURE
  1 ****  15 GROUP 4 **** **** 0

# MOE 2024.06 (io_trps.svl 2023.06)
