@<TRIPOS>MOLECULE
NONAME
37 38 1 0 0 
SMALL
USER_CHARGES


@<TRIPOS>ATOM
  1 F       -0.5890    -1.9470     2.3160 F     1 <1>  -0.3400 
  2 C       -1.7000    -2.6480     2.1250 C.3   1 <1>   1.1640 
  3 F       -2.6770    -1.9550     2.6960 F     1 <1>  -0.3400 
  4 F       -1.5630    -3.7590     2.8410 F     1 <1>  -0.3400 
  5 C       -1.9680    -2.9020     0.6340 C.ar  1 <1>  -0.1440 
  6 C       -2.1480    -4.1880     0.1330 C.ar  1 <1>  -0.1500 
  7 C       -2.0420    -1.8310    -0.2500 C.ar  1 <1>  -0.1500 
  8 C       -2.4000    -4.4060    -1.2120 C.ar  1 <1>  -0.1440 
  9 C       -2.2910    -2.0410    -1.5950 C.ar  1 <1>  -0.1500 
 10 C       -2.4700    -3.3250    -2.0750 C.ar  1 <1>  -0.1500 
 11 C       -2.5970    -5.8270    -1.7230 C.3   1 <1>   0.2540 
 12 N       -3.7040    -6.4990    -1.0180 N.3   1 <1>  -0.8100 
 13 C       -3.7130    -7.9460    -1.3240 C.3   1 <1>   0.2900 
 14 C       -5.0210    -5.8720    -1.3070 C.3   1 <1>   0.1100 
 15 C       -4.5200    -8.7130    -0.2900 C.2   1 <1>   0.0060 
 16 C       -5.4930    -4.9150    -0.1950 C.3   1 <1>   0.1200 
 17 N       -5.2030    -9.7890    -0.5230 N.2   1 <1>  -0.5650 
 18 N       -4.5790    -8.3050     0.9930 N.pl3 1 <1>   0.0330 
 19 O       -5.6380    -5.5830     1.0160 O.3   1 <1>  -0.6800 
 20 C       -5.7320   -10.0990     0.6770 C.2   1 <1>   0.0770 
 21 C       -5.3650    -9.2000     1.6160 C.2   1 <1>  -0.3020 
 22 H       -2.1070    -5.0420     0.7900 H     1 <1>   0.1500 
 23 H       -1.9070    -0.8230     0.1080 H     1 <1>   0.1500 
 24 H       -2.3450    -1.2020    -2.2680 H     1 <1>   0.1500 
 25 H       -2.6630    -3.4750    -3.1230 H     1 <1>   0.1500 
 26 H       -1.6820    -6.3670    -1.5480 H     1 <1>   0.0800 
 27 H       -2.7830    -5.8240    -2.7830 H     1 <1>   0.0800 
 28 H       -2.7090    -8.3320    -1.2970 H     1 <1>   0.0800 
 29 H       -4.1160    -8.1230    -2.3070 H     1 <1>   0.0800 
 30 H       -5.7780    -6.6290    -1.4300 H     1 <1>   0.0800 
 31 H       -4.9730    -5.3280    -2.2350 H     1 <1>   0.0800 
 32 H       -6.4500    -4.4960    -0.4550 H     1 <1>   0.0800 
 33 H       -4.7980    -4.1070    -0.0550 H     1 <1>   0.0800 
 34 H       -4.1580    -7.4340     1.3440 H     1 <1>   0.2700 
 35 H       -6.2090    -6.3680     0.8930 H     1 <1>   0.4000 
 36 H       -6.3610   -10.9650     0.8030 H     1 <1>   0.1500 
 37 H       -5.6120    -9.1460     2.6610 H     1 <1>   0.1500 
@<TRIPOS>BOND
  1   1   2  1   
  2   2   3  1   
  3   2   4  1   
  4   2   5  1   
  5   5   6  ar  
  6   5   7  ar  
  7   6   8  ar  
  8   6  22  1   
  9   7   9  ar  
 10   7  23  1   
 11   8  10  ar  
 12   8  11  1   
 13   9  10  ar  
 14   9  24  1   
 15  10  25  1   
 16  11  12  1   
 17  11  26  1   
 18  11  27  1   
 19  12  13  1   
 20  12  14  1   
 21  13  15  1   
 22  13  28  1   
 23  13  29  1   
 24  14  16  1   
 25  14  30  1   
 26  14  31  1   
 27  15  17  2   
 28  15  18  1   
 29  16  19  1   
 30  16  32  1   
 31  16  33  1   
 32  17  20  1   
 33  18  21  1   
 34  18  34  1   
 35  19  35  1   
 36  20  21  2   
 37  20  36  1   
 38  21  37  1   
@<TRIPOS>SUBSTRUCTURE
  1 ****   6 GROUP 4 **** **** 0

# MOE 2024.06 (io_trps.svl 2023.06)
