@<TRIPOS>MOLECULE
NONAME
45 47 1 0 0 
SMALL
USER_CHARGES


@<TRIPOS>ATOM
  1 O        0.2230     0.1520    -0.2000 O.3   1 <1>  -0.5600 
  2 C        1.4910    -0.4110    -0.4040 C.3   1 <1>   0.3440 
  3 C        0.0950     1.4970    -0.5780 C.3   1 <1>   0.2000 
  4 C        1.4820    -1.8660     0.0420 C.ar  1 <1>  -0.1440 
  5 C        2.5480     0.3700     0.4080 C.3   1 <1>   0.3430 
  6 C       -1.3800     1.9300    -0.4130 C.3   1 <1>  -0.0800 
  7 C        1.0630     2.3660     0.2580 C.3   1 <1>   0.3430 
  8 C        2.2520    -2.7990    -0.6410 C.ar  1 <1>  -0.1500 
  9 C        0.7310    -2.2810     1.1330 C.ar  1 <1>  -0.1500 
 10 N        2.4740     1.8570     0.1870 N.4   1 <1>  -0.9590 
 11 C       -1.8980     1.7900     1.0290 C.3   1 <1>  -0.2400 
 12 C       -2.2910     1.1340    -1.3600 C.3   1 <1>  -0.2400 
 13 C        2.2770    -4.1210    -0.2320 C.ar  1 <1>  -0.1500 
 14 C        0.7550    -3.6030     1.5420 C.ar  1 <1>  -0.1500 
 15 C        3.3940     2.6420     1.0490 C.3   1 <1>   0.5240 
 16 C        1.5300    -4.5240     0.8600 C.ar  1 <1>  -0.1500 
 17 C        3.6360     3.9680     0.3390 C.2   1 <1>   0.0460 
 18 N        3.7190     4.0020    -1.0100 N.2   1 <1>  -0.5650 
 19 C        3.7820     5.2070     0.8600 C.2   1 <1>  -0.3020 
 20 C        3.9260     5.2520    -1.2760 C.2   1 <1>   0.0360 
 21 N        3.9750     6.0400    -0.1810 N.pl3 1 <1>   0.0330 
 22 H        1.7110    -0.3600    -1.4570 H     1 <1>   0.0800 
 23 H        0.3570     1.5770    -1.6200 H     1 <1>   0.0800 
 24 H        3.5270     0.0040     0.1480 H     1 <1>   0.0800 
 25 H        2.3830     0.1500     1.4500 H     1 <1>   0.0800 
 26 H       -1.4560     2.9670    -0.6950 H     1 <1>   0.0800 
 27 H        0.7270     2.3600     1.2810 H     1 <1>   0.0800 
 28 H        1.0240     3.3830    -0.0990 H     1 <1>   0.0800 
 29 H        2.8380    -2.5120    -1.4970 H     1 <1>   0.1500 
 30 H        0.1140    -1.5810     1.6700 H     1 <1>   0.1500 
 31 H        2.8200     2.0980    -0.7610 H     1 <1>   0.4500 
 32 H       -1.8270     0.7680     1.3590 H     1 <1>   0.0800 
 33 H       -2.9320     2.0850     1.0800 H     1 <1>   0.0800 
 34 H       -1.3480     2.4130     1.7100 H     1 <1>   0.0800 
 35 H       -2.2770     0.0870    -1.1100 H     1 <1>   0.0800 
 36 H       -1.9690     1.2450    -2.3810 H     1 <1>   0.0800 
 37 H       -3.3060     1.4850    -1.2890 H     1 <1>   0.0800 
 38 H        2.8750    -4.8410    -0.7660 H     1 <1>   0.1500 
 39 H        0.1680    -3.9180     2.3870 H     1 <1>   0.1500 
 40 H        2.9750     2.8000     2.0290 H     1 <1>   0.0800 
 41 H        4.3360     2.1290     1.1440 H     1 <1>   0.0800 
 42 H        1.5480    -5.5530     1.1760 H     1 <1>   0.1500 
 43 H        3.7680     5.5450     1.8820 H     1 <1>   0.1500 
 44 H        4.0530     5.6520    -2.2690 H     1 <1>   0.1500 
 45 H        4.1340     7.0540    -0.1580 H     1 <1>   0.2700 
@<TRIPOS>BOND
  1   1   2  1   
  2   1   3  1   
  3   2   4  1   
  4   2   5  1   
  5   2  22  1   
  6   3   6  1   
  7   3   7  1   
  8   3  23  1   
  9   4   8  ar  
 10   4   9  ar  
 11   5  10  1   
 12   5  24  1   
 13   5  25  1   
 14   6  11  1   
 15   6  12  1   
 16   6  26  1   
 17   7  10  1   
 18   7  27  1   
 19   7  28  1   
 20   8  13  ar  
 21   8  29  1   
 22   9  14  ar  
 23   9  30  1   
 24  10  15  1   
 25  10  31  1   
 26  11  32  1   
 27  11  33  1   
 28  11  34  1   
 29  12  35  1   
 30  12  36  1   
 31  12  37  1   
 32  13  16  ar  
 33  13  38  1   
 34  14  16  ar  
 35  14  39  1   
 36  15  17  1   
 37  15  40  1   
 38  15  41  1   
 39  16  42  1   
 40  17  18  1   
 41  17  19  2   
 42  18  20  2   
 43  19  21  1   
 44  19  43  1   
 45  20  21  1   
 46  20  44  1   
 47  21  45  1   
@<TRIPOS>SUBSTRUCTURE
  1 ****   5 GROUP 4 **** **** 0

# MOE 2024.06 (io_trps.svl 2023.06)
