@<TRIPOS>MOLECULE
NONAME
54 57 1 0 0 
SMALL
USER_CHARGES


@<TRIPOS>ATOM
  1 O        1.1730    -0.0360     0.9820 O.2   1 <1>  -0.5700 
  2 C        2.0350    -0.5070     0.2610 C.2   1 <1>   0.7150 
  3 N        2.8580     0.3670    -0.4260 N.am  1 <1>  -0.6600 
  4 C        2.1410    -1.9450     0.1770 C.2   1 <1>   0.0550 
  5 C        3.7360    -0.0060    -1.5830 C.3   1 <1>   0.1400 
  6 C        2.9250     1.8110    -0.0680 C.3   1 <1>   0.1400 
  7 O        3.2440    -2.5600    -0.1870 O.3   1 <1>  -0.0190 
  8 C        1.2470    -2.9220     0.4500 C.2   1 <1>  -0.1500 
  9 C        5.2180    -0.0990    -1.1860 C.3   1 <1>   0.1400 
 10 C        3.9550     2.0540     1.0440 C.3   1 <1>  -0.1600 
 11 N        3.1340    -3.8520    -0.1870 N.2   1 <1>  -0.4100 
 12 C        1.9300    -4.1030     0.2000 C.2   1 <1>   0.1080 
 13 N        5.6960     1.1530    -0.5170 N.am  1 <1>  -0.6600 
 14 C        5.2720     1.2750     0.9080 C.3   1 <1>   0.1400 
 15 C        1.3350    -5.4990     0.3610 C.3   1 <1>   0.1010 
 16 C        6.4410     2.0810    -1.2020 C.2   1 <1>   0.5690 
 17 C        2.1110    -6.3040     1.4100 C.3   1 <1>  -0.2400 
 18 C        1.3190    -6.2430    -0.9800 C.3   1 <1>  -0.2400 
 19 O        6.6630     1.9510    -2.3850 O.2   1 <1>  -0.5700 
 20 C        6.9890     3.3280    -0.5310 C.3   1 <1>   0.0820 
 21 C        8.0850     3.0170     0.4700 C.2   1 <1>   0.1080 
 22 N        8.0570     3.4460     1.6900 N.2   1 <1>  -0.7070 
 23 C        9.2330     2.2520     0.1850 C.ar  1 <1>   0.0000 
 24 N        9.1960     2.9750     2.2490 N.pl3 1 <1>   0.3000 
 25 C        9.9360     2.2430     1.3710 C.ar  1 <1>  -0.1520 
 26 C        9.7520     1.5750    -0.9280 C.ar  1 <1>  -0.1500 
 27 C       11.1580     1.5720     1.4910 C.ar  1 <1>  -0.1500 
 28 C       10.9510     0.9120    -0.8170 C.ar  1 <1>  -0.1500 
 29 C       11.6560     0.9100     0.3950 C.ar  1 <1>  -0.1500 
 30 H        3.6360     0.7330    -2.3580 H     1 <1>   0.0800 
 31 H        3.4190    -0.9420    -2.0080 H     1 <1>   0.0800 
 32 H        1.9570     2.1610     0.2520 H     1 <1>   0.0800 
 33 H        3.2000     2.3820    -0.9380 H     1 <1>   0.0800 
 34 H        0.2330    -2.8150     0.7900 H     1 <1>   0.1500 
 35 H        5.8020    -0.2880    -2.0700 H     1 <1>   0.0800 
 36 H        5.3640    -0.9380    -0.5280 H     1 <1>   0.0800 
 37 H        3.5080     1.7980     1.9880 H     1 <1>   0.0800 
 38 H        4.1710     3.1060     1.0840 H     1 <1>   0.0800 
 39 H        5.1330     0.2870     1.3140 H     1 <1>   0.0800 
 40 H        6.0380     1.7460     1.4960 H     1 <1>   0.0800 
 41 H        0.3190    -5.3950     0.7010 H     1 <1>   0.0800 
 42 H        3.1320    -6.4380     1.0980 H     1 <1>   0.0800 
 43 H        1.6610    -7.2700     1.5530 H     1 <1>   0.0800 
 44 H        2.1100    -5.7810     2.3500 H     1 <1>   0.0800 
 45 H        2.3220    -6.3750    -1.3450 H     1 <1>   0.0800 
 46 H        0.7640    -5.6770    -1.7070 H     1 <1>   0.0800 
 47 H        0.8590    -7.2080    -0.8690 H     1 <1>   0.0800 
 48 H        6.1900     3.8500    -0.0430 H     1 <1>   0.0800 
 49 H        7.3930     3.9810    -1.2810 H     1 <1>   0.0800 
 50 H        9.4580     3.1690     3.2220 H     1 <1>   0.2700 
 51 H        9.2060     1.5820    -1.8550 H     1 <1>   0.1500 
 52 H       11.6910     1.5770     2.4260 H     1 <1>   0.1500 
 53 H       11.3610     0.3870    -1.6630 H     1 <1>   0.1500 
 54 H       12.5930     0.3830     0.4530 H     1 <1>   0.1500 
@<TRIPOS>BOND
  1   1   2  2   
  2   2   3  am  
  3   2   4  1   
  4   3   5  1   
  5   3   6  1   
  6   4   7  1   
  7   4   8  2   
  8   5   9  1   
  9   5  30  1   
 10   5  31  1   
 11   6  10  1   
 12   6  32  1   
 13   6  33  1   
 14   7  11  1   
 15   8  12  1   
 16   8  34  1   
 17   9  13  1   
 18   9  35  1   
 19   9  36  1   
 20  10  14  1   
 21  10  37  1   
 22  10  38  1   
 23  11  12  2   
 24  12  15  1   
 25  13  14  1   
 26  13  16  am  
 27  14  39  1   
 28  14  40  1   
 29  15  17  1   
 30  15  18  1   
 31  15  41  1   
 32  16  19  2   
 33  16  20  1   
 34  17  42  1   
 35  17  43  1   
 36  17  44  1   
 37  18  45  1   
 38  18  46  1   
 39  18  47  1   
 40  20  21  1   
 41  20  48  1   
 42  20  49  1   
 43  21  22  2   
 44  21  23  1   
 45  22  24  1   
 46  23  25  ar  
 47  23  26  ar  
 48  24  25  1   
 49  24  50  1   
 50  25  27  ar  
 51  26  28  ar  
 52  26  51  1   
 53  27  29  ar  
 54  27  52  1   
 55  28  29  ar  
 56  28  53  1   
 57  29  54  1   
@<TRIPOS>SUBSTRUCTURE
  1 ****   9 GROUP 4 **** **** 0

# MOE 2024.06 (io_trps.svl 2023.06)
