@<TRIPOS>MOLECULE
NONAME
42 44 1 0 0 
SMALL
USER_CHARGES


@<TRIPOS>ATOM
  1 S       -2.0690    -0.2520    -0.6960 S.3   1 <1>  -0.0800 
  2 C       -1.3420    -1.2450     0.5270 C.2   1 <1>   0.4420 
  3 C       -1.0270     1.0250    -0.1740 C.2   1 <1>   0.1980 
  4 N       -0.4430    -0.6080     1.1890 N.2   1 <1>  -0.3380 
  5 N       -1.8060    -2.5380     0.6240 N.am  1 <1>  -0.4940 
  6 N       -0.2690     0.6850     0.7850 N.2   1 <1>  -0.3380 
  7 C       -1.1080     2.3640    -0.8710 C.3   1 <1>   0.0200 
  8 C       -1.4480    -3.5600     1.4670 C.2   1 <1>   0.5440 
  9 C       -0.0680     3.3050    -0.2520 C.3   1 <1>   0.3430 
 10 O       -0.5820    -3.3740     2.2960 O.2   1 <1>  -0.5700 
 11 C       -2.0980    -4.8550     1.3690 C.ar  1 <1>   0.0860 
 12 N       -0.0190     4.6510    -0.9170 N.4   1 <1>  -0.9590 
 13 C       -3.1040    -5.1340     0.4300 C.ar  1 <1>   0.1400 
 14 C       -1.7540    -5.9090     2.2140 C.ar  1 <1>  -0.1500 
 15 C        1.1900     5.3960    -0.4450 C.3   1 <1>   0.2630 
 16 C       -1.2510     5.4640    -0.6600 C.3   1 <1>   0.2630 
 17 O       -3.6190    -4.3120    -0.4910 O.3   1 <1>  -0.2800 
 18 C       -3.7210    -6.3720     0.3410 C.ar  1 <1>   0.0000 
 19 C       -2.3670    -7.1590     2.1360 C.ar  1 <1>  -0.1500 
 20 C       -4.5440    -4.9860    -1.1640 C.2   1 <1>  -0.0400 
 21 C       -3.3520    -7.4010     1.2020 C.ar  1 <1>  -0.1500 
 22 C       -4.6550    -6.2450    -0.7060 C.2   1 <1>  -0.1500 
 23 C       -5.2840    -4.2710    -2.2740 C.3   1 <1>  -0.0600 
 24 H       -2.5400    -2.7920    -0.0390 H     1 <1>   0.3700 
 25 H       -2.1010     2.7540    -0.7440 H     1 <1>   0.0800 
 26 H       -0.9050     2.2210    -1.9170 H     1 <1>   0.0800 
 27 H        0.8980     2.8320    -0.3310 H     1 <1>   0.0800 
 28 H       -0.2820     3.4230     0.7990 H     1 <1>   0.0800 
 29 H        0.0810     4.5100    -1.9350 H     1 <1>   0.4500 
 30 H       -0.9880    -5.7560     2.9560 H     1 <1>   0.1500 
 31 H        1.1370     5.5640     0.6190 H     1 <1>   0.0800 
 32 H        1.2600     6.3510    -0.9410 H     1 <1>   0.0800 
 33 H        2.0850     4.8330    -0.6590 H     1 <1>   0.0800 
 34 H       -1.3880     5.6150     0.3990 H     1 <1>   0.0800 
 35 H       -2.1230     4.9660    -1.0530 H     1 <1>   0.0800 
 36 H       -1.1690     6.4280    -1.1360 H     1 <1>   0.0800 
 37 H       -2.0630    -7.9390     2.8140 H     1 <1>   0.1500 
 38 H       -3.8330    -8.3600     1.1300 H     1 <1>   0.1500 
 39 H       -5.3070    -7.0330    -1.0370 H     1 <1>   0.1500 
 40 H       -4.5880    -3.9410    -3.0230 H     1 <1>   0.0800 
 41 H       -5.8030    -3.4170    -1.8770 H     1 <1>   0.0800 
 42 H       -5.9990    -4.9320    -2.7300 H     1 <1>   0.0800 
@<TRIPOS>BOND
  1   1   2  1   
  2   1   3  1   
  3   2   4  2   
  4   2   5  1   
  5   3   6  2   
  6   3   7  1   
  7   4   6  1   
  8   5   8  am  
  9   5  24  1   
 10   7   9  1   
 11   7  25  1   
 12   7  26  1   
 13   8  10  2   
 14   8  11  1   
 15   9  12  1   
 16   9  27  1   
 17   9  28  1   
 18  11  13  ar  
 19  11  14  ar  
 20  12  15  1   
 21  12  16  1   
 22  12  29  1   
 23  13  17  1   
 24  13  18  ar  
 25  14  19  ar  
 26  14  30  1   
 27  15  31  1   
 28  15  32  1   
 29  15  33  1   
 30  16  34  1   
 31  16  35  1   
 32  16  36  1   
 33  17  20  1   
 34  18  21  ar  
 35  18  22  1   
 36  19  21  ar  
 37  19  37  1   
 38  20  22  2   
 39  20  23  1   
 40  21  38  1   
 41  22  39  1   
 42  23  40  1   
 43  23  41  1   
 44  23  42  1   
@<TRIPOS>SUBSTRUCTURE
  1 ****   5 GROUP 4 **** **** 0

# MOE 2024.06 (io_trps.svl 2023.06)
