@<TRIPOS>MOLECULE
NONAME
52 55 1 0 0 
SMALL
USER_CHARGES


@<TRIPOS>ATOM
  1 O       -0.4170    -1.3210    -1.0060 O.2   1 <1>  -0.5700 
  2 C       -1.2380    -0.6990    -0.3780 C.2   1 <1>   0.5690 
  3 N       -2.2610    -1.2070     0.3760 N.am  1 <1>  -0.4770 
  4 C       -1.2270     0.8060    -0.3510 C.3   1 <1>  -0.0990 
  5 C       -2.6220    -2.5550     0.5670 C.ar  1 <1>   0.1170 
  6 C       -3.0280    -0.1120     1.0080 C.3   1 <1>   0.1400 
  7 C       -2.5720     1.1630     0.2910 C.3   1 <1>  -0.1600 
  8 C       -3.2140    -2.9830     1.7540 C.ar  1 <1>  -0.1500 
  9 C       -2.4100    -3.5130    -0.4210 C.ar  1 <1>  -0.1500 
 10 C       -3.5890    -4.3000     1.9340 C.ar  1 <1>  -0.1500 
 11 C       -2.7800    -4.8310    -0.2360 C.ar  1 <1>  -0.1500 
 12 C       -3.3940    -5.2600     0.9410 C.ar  1 <1>   0.0860 
 13 C       -3.8070    -6.6370     1.1330 C.2   1 <1>   0.5440 
 14 O       -3.7150    -7.1490     2.2340 O.2   1 <1>  -0.5700 
 15 N       -4.3470    -7.3750     0.1030 N.am  1 <1>  -0.6600 
 16 C       -4.2640    -8.8770     0.1760 C.3   1 <1>   0.3640 
 17 C       -5.4320    -6.7750    -0.7260 C.3   1 <1>   0.1400 
 18 C       -2.7890    -9.2740     0.0460 C.ar  1 <1>  -0.1430 
 19 C       -5.0880    -9.6550    -0.8980 C.3   1 <1>   0.2000 
 20 C       -5.8280    -7.6700    -1.9000 C.3   1 <1>   0.1200 
 21 C       -2.1850   -10.0350     1.0360 C.ar  1 <1>  -0.1500 
 22 C       -2.0370    -8.8850    -1.0550 C.ar  1 <1>  -0.1500 
 23 O       -6.1700    -8.9270    -1.4160 O.3   1 <1>  -0.5600 
 24 C       -5.6710   -10.9730    -0.3620 C.3   1 <1>   0.1200 
 25 C       -0.8590   -10.4130     0.9230 C.ar  1 <1>  -0.1500 
 26 C       -0.7100    -9.2610    -1.1700 C.ar  1 <1>  -0.1500 
 27 O       -4.6960   -11.7730     0.2270 O.3   1 <1>  -0.6800 
 28 C       -0.1200   -10.0280    -0.1810 C.ar  1 <1>  -0.1500 
 29 H       -0.4050     1.1360     0.2560 H     1 <1>   0.0800 
 30 H       -1.1360     1.2060    -1.3450 H     1 <1>   0.0800 
 31 H       -4.0860    -0.2710     0.8920 H     1 <1>   0.0800 
 32 H       -2.7760    -0.0630     2.0540 H     1 <1>   0.0800 
 33 H       -3.2870     1.4040    -0.4770 H     1 <1>   0.0800 
 34 H       -2.4940     1.9960     0.9670 H     1 <1>   0.0800 
 35 H       -3.3770    -2.2850     2.5540 H     1 <1>   0.1500 
 36 H       -1.9460    -3.2240    -1.3470 H     1 <1>   0.1500 
 37 H       -4.0390    -4.6080     2.8630 H     1 <1>   0.1500 
 38 H       -2.5850    -5.5490    -1.0130 H     1 <1>   0.1500 
 39 H       -4.6220    -9.1800     1.1450 H     1 <1>   0.0800 
 40 H       -6.2970    -6.6180    -0.1050 H     1 <1>   0.0800 
 41 H       -5.1210    -5.8190    -1.1060 H     1 <1>   0.0800 
 42 H       -4.4520    -9.8880    -1.7330 H     1 <1>   0.0800 
 43 H       -5.0230    -7.7660    -2.6090 H     1 <1>   0.0800 
 44 H       -6.6890    -7.2650    -2.4010 H     1 <1>   0.0800 
 45 H       -2.7490   -10.3360     1.9040 H     1 <1>   0.1500 
 46 H       -2.4830    -8.2820    -1.8250 H     1 <1>   0.1500 
 47 H       -6.1190   -11.5320    -1.1650 H     1 <1>   0.0800 
 48 H       -6.4160   -10.7680     0.3880 H     1 <1>   0.0800 
 49 H       -0.4030   -11.0040     1.6990 H     1 <1>   0.1500 
 50 H       -0.1350    -8.9540    -2.0260 H     1 <1>   0.1500 
 51 H       -3.9310   -11.9040    -0.3700 H     1 <1>   0.4000 
 52 H        0.9120   -10.3210    -0.2670 H     1 <1>   0.1500 
@<TRIPOS>BOND
  1   1   2  2   
  2   2   3  am  
  3   2   4  1   
  4   3   5  1   
  5   3   6  1   
  6   4   7  1   
  7   4  29  1   
  8   4  30  1   
  9   5   8  ar  
 10   5   9  ar  
 11   6   7  1   
 12   6  31  1   
 13   6  32  1   
 14   7  33  1   
 15   7  34  1   
 16   8  10  ar  
 17   8  35  1   
 18   9  11  ar  
 19   9  36  1   
 20  10  12  ar  
 21  10  37  1   
 22  11  12  ar  
 23  11  38  1   
 24  12  13  1   
 25  13  14  2   
 26  13  15  am  
 27  15  16  1   
 28  15  17  1   
 29  16  18  1   
 30  16  19  1   
 31  16  39  1   
 32  17  20  1   
 33  17  40  1   
 34  17  41  1   
 35  18  21  ar  
 36  18  22  ar  
 37  19  23  1   
 38  19  24  1   
 39  19  42  1   
 40  20  23  1   
 41  20  43  1   
 42  20  44  1   
 43  21  25  ar  
 44  21  45  1   
 45  22  26  ar  
 46  22  46  1   
 47  24  27  1   
 48  24  47  1   
 49  24  48  1   
 50  25  28  ar  
 51  25  49  1   
 52  26  28  ar  
 53  26  50  1   
 54  27  51  1   
 55  28  52  1   
@<TRIPOS>SUBSTRUCTURE
  1 ****  12 GROUP 4 **** **** 0

# MOE 2024.06 (io_trps.svl 2023.06)
