@<TRIPOS>MOLECULE
NONAME
50 53 1 0 0 
SMALL
USER_CHARGES


@<TRIPOS>ATOM
  1 O       -0.5720    -0.5300     0.0120 O.2   1 <1>  -0.5700 
  2 C       -0.2660    -1.7040    -0.1450 C.2   1 <1>   0.6160 
  3 N       -1.2860    -2.6240    -0.2300 N.am  1 <1>  -0.4770 
  4 C        1.0930    -2.1940    -0.2540 C.2   1 <1>  -0.1240 
  5 C       -1.0390    -3.9460    -0.4540 C.ar  1 <1>   0.1170 
  6 C       -2.7440    -2.3920    -0.1560 C.3   1 <1>   0.1400 
  7 C        1.3160    -3.5230    -0.4910 C.2   1 <1>  -0.1780 
  8 C        2.2390    -1.1630    -0.1380 C.3   1 <1>   0.1960 
  9 C        0.2410    -4.4620    -0.5950 C.ar  1 <1>   0.0280 
 10 C       -2.1780    -4.7090    -0.5330 C.ar  1 <1>  -0.1440 
 11 C       -3.3750    -3.7960    -0.3410 C.3   1 <1>  -0.0160 
 12 C        3.6470    -1.7370    -0.4000 C.2   1 <1>  -0.1240 
 13 C        2.2370    -0.3830     1.1970 C.3   1 <1>  -0.0990 
 14 C        0.3360    -5.8380    -0.8220 C.ar  1 <1>  -0.1500 
 15 C       -2.0750    -6.0650    -0.7560 C.ar  1 <1>  -0.1500 
 16 C        4.2500    -2.6350     0.4980 C.2   1 <1>   0.6160 
 17 C        4.3470    -1.3250    -1.5360 C.2   1 <1>  -0.1500 
 18 C        3.3810     0.6020     1.2310 C.2   1 <1>   0.6590 
 19 C       -0.8030    -6.6240    -0.9000 C.ar  1 <1>  -0.1500 
 20 O        3.6550    -3.0820     1.5020 O.2   1 <1>  -0.5700 
 21 N        5.5600    -3.0980     0.2770 N.am  1 <1>  -0.4690 
 22 O        3.9070    -0.5090    -2.3640 O.3   1 <1>  -0.8500 
 23 C        5.6430    -1.8580    -1.7560 C.2   1 <1>  -0.1500 
 24 O        4.2910     0.5020     2.0160 O.2   1 <1>  -0.5700 
 25 O        3.3320     1.5640     0.3210 O.3   1 <1>  -0.4300 
 26 C        6.2290    -2.7140    -0.8850 C.2   1 <1>  -0.0290 
 27 C        6.1930    -3.9760     1.3030 C.3   1 <1>   0.0600 
 28 C        4.5080     2.1850    -0.1410 C.3   1 <1>   0.0400 
 29 C        7.6180    -3.2620    -1.1710 C.3   1 <1>  -0.1020 
 30 H       -3.0400    -1.7200    -0.9420 H     1 <1>   0.0800 
 31 H       -2.9930    -1.9710     0.8020 H     1 <1>   0.0800 
 32 H        2.3000    -3.9310    -0.6190 H     1 <1>   0.1500 
 33 H        2.0380    -0.4350    -0.9040 H     1 <1>   0.0800 
 34 H       -4.0140    -3.8140    -1.2060 H     1 <1>   0.0800 
 35 H       -3.9360    -4.0790     0.5310 H     1 <1>   0.0800 
 36 H        2.3200    -1.0530     2.0290 H     1 <1>   0.0800 
 37 H        1.3340     0.1800     1.3150 H     1 <1>   0.0800 
 38 H        1.3120    -6.2760    -0.9350 H     1 <1>   0.1500 
 39 H       -2.9520    -6.6840    -0.8210 H     1 <1>   0.1500 
 40 H       -0.7110    -7.6820    -1.0750 H     1 <1>   0.1500 
 41 H        6.1170    -1.5300    -2.6610 H     1 <1>   0.1500 
 42 H        5.8260    -3.7240     2.2830 H     1 <1>   0.0800 
 43 H        7.2580    -3.8500     1.3140 H     1 <1>   0.0800 
 44 H        5.9490    -5.0010     1.0900 H     1 <1>   0.0800 
 45 H        4.2340     2.9390    -0.8550 H     1 <1>   0.0800 
 46 H        5.1130     1.4340    -0.6220 H     1 <1>   0.0800 
 47 H        5.0310     2.6190     0.6930 H     1 <1>   0.0800 
 48 H        8.3150    -2.8990    -0.4390 H     1 <1>   0.0800 
 49 H        7.9520    -2.9420    -2.1410 H     1 <1>   0.0800 
 50 H        7.6010    -4.3360    -1.1560 H     1 <1>   0.0800 
@<TRIPOS>BOND
  1   1   2  2   
  2   2   3  am  
  3   2   4  1   
  4   3   5  1   
  5   3   6  1   
  6   4   7  2   
  7   4   8  1   
  8   5   9  ar  
  9   5  10  ar  
 10   6  11  1   
 11   6  30  1   
 12   6  31  1   
 13   7   9  1   
 14   7  32  1   
 15   8  12  1   
 16   8  13  1   
 17   8  33  1   
 18   9  14  ar  
 19  10  11  1   
 20  10  15  ar  
 21  11  34  1   
 22  11  35  1   
 23  12  16  1   
 24  12  17  2   
 25  13  18  1   
 26  13  36  1   
 27  13  37  1   
 28  14  19  ar  
 29  14  38  1   
 30  15  19  ar  
 31  15  39  1   
 32  16  20  2   
 33  16  21  am  
 34  17  22  1   
 35  17  23  1   
 36  18  24  2   
 37  18  25  1   
 38  19  40  1   
 39  21  26  1   
 40  21  27  1   
 41  23  26  2   
 42  23  41  1   
 43  25  28  1   
 44  26  29  1   
 45  27  42  1   
 46  27  43  1   
 47  27  44  1   
 48  28  45  1   
 49  28  46  1   
 50  28  47  1   
 51  29  48  1   
 52  29  49  1   
 53  29  50  1   
@<TRIPOS>SUBSTRUCTURE
  1 ****   4 GROUP 4 **** **** 0

# MOE 2024.06 (io_trps.svl 2023.06)
