@<TRIPOS>MOLECULE
NONAME
46 47 1 0 0 
SMALL
USER_CHARGES


@<TRIPOS>ATOM
  1 S        0.2630     0.0800    -0.5590 S.o2  1 <1>   1.3330 
  2 O        0.2640    -1.3590    -0.4370 O.2   1 <1>  -0.6500 
  3 O       -0.0580     0.6860    -1.8310 O.2   1 <1>  -0.6500 
  4 N       -0.8100     0.6960     0.6030 N.am  1 <1>  -0.8490 
  5 C        1.8420     0.7560    -0.0460 C.3   1 <1>  -0.0550 
  6 C       -0.8020    -0.0660     1.8580 C.3   1 <1>   0.1160 
  7 C       -2.1810     0.7850     0.0900 C.3   1 <1>   0.1160 
  8 C        3.0180     0.3340    -0.9610 C.3   1 <1>  -0.0800 
  9 C        4.3170     1.0970    -0.7170 C.3   1 <1>   0.2200 
 10 C        3.4750    -1.0780    -0.6020 C.3   1 <1>   0.1200 
 11 N        4.1140     2.5350    -0.4100 N.am  1 <1>  -0.7300 
 12 C        4.9710     0.3120     0.4260 C.3   1 <1>   0.1200 
 13 O        4.2920    -0.9090     0.5100 O.3   1 <1>  -0.5600 
 14 C        5.1090     3.4250    -0.1270 C.2   1 <1>   0.7150 
 15 O        6.2430     3.0010    -0.0210 O.2   1 <1>  -0.5700 
 16 C        4.8070     4.8270     0.0270 C.2   1 <1>  -0.0450 
 17 S        3.1450     5.3530    -0.1660 S.3   1 <1>  -0.0800 
 18 C        5.5360     5.9360     0.3050 C.2   1 <1>   0.0460 
 19 C        3.6210     6.9990     0.1470 C.2   1 <1>   0.1980 
 20 N        4.8650     7.1390     0.3680 N.2   1 <1>  -0.5650 
 21 C        7.0280     6.0230     0.5600 C.3   1 <1>  -0.0590 
 22 C        2.5220     8.0500     0.1180 C.3   1 <1>   0.0200 
 23 C        3.0340     9.4650     0.4170 C.3   1 <1>  -0.2400 
 24 H        1.7390     1.8220    -0.0530 H     1 <1>   0.0800 
 25 H        2.0550     0.4620     0.9630 H     1 <1>   0.0800 
 26 H       -1.4360     0.4120     2.5840 H     1 <1>   0.0800 
 27 H        0.1960    -0.1130     2.2590 H     1 <1>   0.0800 
 28 H       -1.1550    -1.0710     1.6920 H     1 <1>   0.0800 
 29 H       -2.8360     1.1900     0.8420 H     1 <1>   0.0800 
 30 H       -2.5360    -0.1900    -0.2020 H     1 <1>   0.0800 
 31 H       -2.2120     1.4350    -0.7680 H     1 <1>   0.0800 
 32 H        2.7300     0.3910    -1.9970 H     1 <1>   0.0800 
 33 H        4.9520     1.0160    -1.5830 H     1 <1>   0.0800 
 34 H        4.0720    -1.5060    -1.3900 H     1 <1>   0.0800 
 35 H        2.6770    -1.7550    -0.3520 H     1 <1>   0.0800 
 36 H        3.2040     2.9260    -0.6560 H     1 <1>   0.3700 
 37 H        4.8640     0.8160     1.3700 H     1 <1>   0.0800 
 38 H        6.0090     0.1180     0.2240 H     1 <1>   0.0800 
 39 H        7.5040     5.0630     0.5040 H     1 <1>   0.0800 
 40 H        7.2000     6.4330     1.5390 H     1 <1>   0.0800 
 41 H        7.4780     6.6720    -0.1680 H     1 <1>   0.0800 
 42 H        2.0620     8.0390    -0.8540 H     1 <1>   0.0800 
 43 H        1.7750     7.7840     0.8450 H     1 <1>   0.0800 
 44 H        3.7740     9.7510    -0.3100 H     1 <1>   0.0800 
 45 H        3.4860     9.4950     1.3930 H     1 <1>   0.0800 
 46 H        2.2240    10.1710     0.3860 H     1 <1>   0.0800 
@<TRIPOS>BOND
  1   1   2  2   
  2   1   3  2   
  3   1   4  am  
  4   1   5  1   
  5   4   6  1   
  6   4   7  1   
  7   5   8  1   
  8   5  24  1   
  9   5  25  1   
 10   6  26  1   
 11   6  27  1   
 12   6  28  1   
 13   7  29  1   
 14   7  30  1   
 15   7  31  1   
 16   8   9  1   
 17   8  10  1   
 18   8  32  1   
 19   9  11  1   
 20   9  12  1   
 21   9  33  1   
 22  10  13  1   
 23  10  34  1   
 24  10  35  1   
 25  11  14  am  
 26  11  36  1   
 27  12  13  1   
 28  12  37  1   
 29  12  38  1   
 30  14  15  2   
 31  14  16  1   
 32  16  17  1   
 33  16  18  2   
 34  17  19  1   
 35  18  20  1   
 36  18  21  1   
 37  19  20  2   
 38  19  22  1   
 39  21  39  1   
 40  21  40  1   
 41  21  41  1   
 42  22  23  1   
 43  22  42  1   
 44  22  43  1   
 45  23  44  1   
 46  23  45  1   
 47  23  46  1   
@<TRIPOS>SUBSTRUCTURE
  1 ****  11 GROUP 4 **** **** 0

# MOE 2024.06 (io_trps.svl 2023.06)
