@<TRIPOS>MOLECULE
NONAME
37 39 1 0 0 
SMALL
USER_CHARGES


@<TRIPOS>ATOM
  1 F       -2.0230    -0.4850     1.8790 F     1 <1>  -0.1900 
  2 C       -2.4410     0.2820     0.9070 C.ar  1 <1>   0.1900 
  3 C       -2.8920    -0.2940    -0.2770 C.ar  1 <1>  -0.1440 
  4 C       -2.4150     1.6480     1.1110 C.ar  1 <1>  -0.1500 
  5 C       -3.3340     0.5460    -1.2920 C.ar  1 <1>  -0.1500 
  6 C       -2.9140    -1.8050    -0.4790 C.3   1 <1>  -0.0160 
  7 C       -2.8620     2.4450     0.0770 C.ar  1 <1>   0.1900 
  8 C       -3.3210     1.9220    -1.1190 C.ar  1 <1>  -0.1500 
  9 C       -4.2190    -2.4060     0.0630 C.3   1 <1>  -0.0990 
 10 F       -2.8530     3.7410     0.2340 F     1 <1>  -0.1900 
 11 C       -4.3280    -3.9110    -0.1340 C.2   1 <1>   0.5690 
 12 O       -3.5200    -4.4670    -0.8440 O.2   1 <1>  -0.5700 
 13 N       -5.3320    -4.5870     0.4870 N.am  1 <1>  -0.6600 
 14 C       -6.4390    -3.9900     1.2880 C.3   1 <1>   0.2350 
 15 C       -5.5690    -6.0480     0.3180 C.3   1 <1>   0.2350 
 16 C       -7.5990    -4.9590     1.1570 C.3   1 <1>  -0.2420 
 17 C       -7.0560    -6.2400     0.5700 C.3   1 <1>  -0.2420 
 18 C       -8.6520    -4.6700     2.2300 C.2   1 <1>   0.9470 
 19 C       -8.0650    -5.4280    -0.1990 C.3   1 <1>  -0.2000 
 20 C       -7.3670    -7.7020     0.8980 C.2   1 <1>   0.9470 
 21 O       -9.8160    -4.4150     1.8920 O.co2 1 <1>  -0.9000 
 22 O       -8.2800    -4.5140     3.4020 O.co2 1 <1>  -0.9000 
 23 O       -6.7240    -8.2650     1.7950 O.co2 1 <1>  -0.9000 
 24 O       -8.1360    -8.3410     0.1660 O.co2 1 <1>  -0.9000 
 25 H       -2.0620     2.0700     2.0320 H     1 <1>   0.1500 
 26 H       -3.6910     0.1310    -2.2200 H     1 <1>   0.1500 
 27 H       -2.8230    -2.0310    -1.5280 H     1 <1>   0.0800 
 28 H       -2.0750    -2.2610     0.0190 H     1 <1>   0.0800 
 29 H       -3.6600     2.5820    -1.8970 H     1 <1>   0.1500 
 30 H       -5.0530    -1.9450    -0.4320 H     1 <1>   0.0800 
 31 H       -4.2880    -2.1950     1.1140 H     1 <1>   0.0800 
 32 H       -6.1330    -3.9200     2.3190 H     1 <1>   0.0800 
 33 H       -6.7250    -3.0210     0.9240 H     1 <1>   0.0800 
 34 H       -5.3010    -6.3770    -0.6700 H     1 <1>   0.0800 
 35 H       -4.9940    -6.5880     1.0500 H     1 <1>   0.0800 
 36 H       -7.7580    -4.8990    -1.0810 H     1 <1>   0.1000 
 37 H       -9.0650    -5.8210    -0.2800 H     1 <1>   0.1000 
@<TRIPOS>BOND
  1   1   2  1   
  2   2   3  ar  
  3   2   4  ar  
  4   3   5  ar  
  5   3   6  1   
  6   4   7  ar  
  7   4  25  1   
  8   5   8  ar  
  9   5  26  1   
 10   6   9  1   
 11   6  27  1   
 12   6  28  1   
 13   7   8  ar  
 14   7  10  1   
 15   8  29  1   
 16   9  11  1   
 17   9  30  1   
 18   9  31  1   
 19  11  12  2   
 20  11  13  am  
 21  13  14  1   
 22  13  15  1   
 23  14  16  1   
 24  14  32  1   
 25  14  33  1   
 26  15  17  1   
 27  15  34  1   
 28  15  35  1   
 29  16  17  1   
 30  16  18  1   
 31  16  19  1   
 32  17  19  1   
 33  17  20  1   
 34  18  21  ar  
 35  18  22  ar  
 36  19  36  1   
 37  19  37  1   
 38  20  23  ar  
 39  20  24  ar  
@<TRIPOS>SUBSTRUCTURE
  1 ****   9 GROUP 4 **** **** 0

# MOE 2024.06 (io_trps.svl 2023.06)
