@<TRIPOS>MOLECULE
NONAME
44 46 1 0 0 
SMALL
USER_CHARGES


@<TRIPOS>ATOM
  1 S       -2.0870     1.0640     0.2070 S.3   1 <1>  -0.0800 
  2 C       -0.7670     2.1580     0.5580 C.2   1 <1>   0.1980 
  3 C       -1.6510     1.1050    -1.4720 C.2   1 <1>  -0.1100 
  4 N       -0.0920     2.5070    -0.4740 N.2   1 <1>  -0.5650 
  5 C       -0.6190     2.5260     2.0370 C.3   1 <1>   0.2900 
  6 C       -0.5890     1.9090    -1.6240 C.2   1 <1>   0.0460 
  7 N        0.4930     3.4610     2.3390 N.3   1 <1>  -0.8100 
  8 C        0.1040     2.2080    -2.9360 C.3   1 <1>  -0.0590 
  9 C        0.3070     4.9050     2.0950 C.3   1 <1>   0.1100 
 10 C        1.8060     2.9310     2.7170 C.3   1 <1>   0.1100 
 11 C        1.4470     5.5190     1.2650 C.3   1 <1>   0.3430 
 12 C        2.6420     2.5810     1.4800 C.3   1 <1>  -0.1600 
 13 N        1.8550     4.5630     0.1880 N.4   1 <1>  -0.9590 
 14 C        3.0380     3.7630     0.5880 C.3   1 <1>   0.3430 
 15 C        1.9880     5.1500    -1.1740 C.3   1 <1>   0.4860 
 16 C        0.9070     6.1790    -1.4530 C.ar  1 <1>  -0.1440 
 17 C       -0.4330     5.8190    -1.5000 C.ar  1 <1>   0.1600 
 18 C        1.2460     7.5040    -1.6540 C.ar  1 <1>  -0.1500 
 19 N       -1.4310     6.6580    -1.7090 N.ar  1 <1>  -0.6200 
 20 C        0.2140     8.3880    -1.8850 C.ar  1 <1>  -0.1500 
 21 C       -1.0890     7.9210    -1.9010 C.ar  1 <1>   0.1600 
 22 H       -2.2360     0.5230    -2.1610 H     1 <1>   0.1500 
 23 H       -0.4800     1.6200     2.5990 H     1 <1>   0.0800 
 24 H       -1.5430     2.9670     2.3700 H     1 <1>   0.0800 
 25 H       -0.3560     1.6510    -3.7330 H     1 <1>   0.0800 
 26 H        1.1400     1.9280    -2.8750 H     1 <1>   0.0800 
 27 H        0.0290     3.2550    -3.1640 H     1 <1>   0.0800 
 28 H        0.2370     5.4200     3.0380 H     1 <1>   0.0800 
 29 H       -0.6220     5.0640     1.5720 H     1 <1>   0.0800 
 30 H        1.6690     2.0450     3.3150 H     1 <1>   0.0800 
 31 H        2.3260     3.6510     3.3260 H     1 <1>   0.0800 
 32 H        2.2830     5.7260     1.9100 H     1 <1>   0.0800 
 33 H        1.1080     6.4560     0.8570 H     1 <1>   0.0800 
 34 H        2.1280     1.8400     0.8950 H     1 <1>   0.0800 
 35 H        3.5500     2.1160     1.8200 H     1 <1>   0.0800 
 36 H        1.0740     3.8700     0.1540 H     1 <1>   0.4500 
 37 H        3.5250     3.3710    -0.2900 H     1 <1>   0.0800 
 38 H        3.7430     4.3910     1.1070 H     1 <1>   0.0800 
 39 H        1.9320     4.3640    -1.9100 H     1 <1>   0.0800 
 40 H        2.9500     5.6270    -1.2650 H     1 <1>   0.0800 
 41 H       -0.7130     4.7920    -1.3530 H     1 <1>   0.1500 
 42 H        2.2660     7.8510    -1.6380 H     1 <1>   0.1500 
 43 H        0.4100     9.4320    -2.0530 H     1 <1>   0.1500 
 44 H       -1.8890     8.6200    -2.0810 H     1 <1>   0.1500 
@<TRIPOS>BOND
  1   1   2  1   
  2   1   3  1   
  3   2   4  2   
  4   2   5  1   
  5   3   6  2   
  6   3  22  1   
  7   4   6  1   
  8   5   7  1   
  9   5  23  1   
 10   5  24  1   
 11   6   8  1   
 12   7   9  1   
 13   7  10  1   
 14   8  25  1   
 15   8  26  1   
 16   8  27  1   
 17   9  11  1   
 18   9  28  1   
 19   9  29  1   
 20  10  12  1   
 21  10  30  1   
 22  10  31  1   
 23  11  13  1   
 24  11  32  1   
 25  11  33  1   
 26  12  14  1   
 27  12  34  1   
 28  12  35  1   
 29  13  14  1   
 30  13  15  1   
 31  13  36  1   
 32  14  37  1   
 33  14  38  1   
 34  15  16  1   
 35  15  39  1   
 36  15  40  1   
 37  16  17  ar  
 38  16  18  ar  
 39  17  19  ar  
 40  17  41  1   
 41  18  20  ar  
 42  18  42  1   
 43  19  21  ar  
 44  20  21  ar  
 45  20  43  1   
 46  21  44  1   
@<TRIPOS>SUBSTRUCTURE
  1 ****  13 GROUP 4 **** **** 0

# MOE 2024.06 (io_trps.svl 2023.06)
