@<TRIPOS>MOLECULE
NONAME
49 52 1 0 0 
SMALL
USER_CHARGES


@<TRIPOS>ATOM
  1 O        3.2180    -1.9440    -1.8400 O.2   1 <1>  -0.5700 
  2 C        2.5710    -1.6860    -0.8420 C.2   1 <1>   0.5440 
  3 N        2.6120    -0.3850    -0.4070 N.am  1 <1>  -0.6600 
  4 C        1.9050    -2.7380    -0.0930 C.ar  1 <1>   0.0860 
  5 C        3.2500    -0.1290     0.9350 C.3   1 <1>   0.2200 
  6 C        2.5870     0.7330    -1.4050 C.3   1 <1>   0.1400 
  7 C        0.6860    -2.5530     0.5810 C.ar  1 <1>  -0.0230 
  8 C        2.5020    -3.9980    -0.0180 C.ar  1 <1>  -0.1500 
  9 C        2.8020     1.1990     1.5700 C.3   1 <1>   0.1200 
 10 C        4.7950    -0.2110     0.8190 C.3   1 <1>   0.3430 
 11 C        3.6900     1.7970    -1.2250 C.3   1 <1>  -0.0800 
 12 N       -0.0190    -1.3280     0.5130 N.pl3 1 <1>   0.5930 
 13 C        0.1400    -3.5920     1.3280 C.ar  1 <1>  -0.1500 
 14 C        1.9450    -5.0280     0.7140 C.ar  1 <1>  -0.1500 
 15 O        3.6130     2.2570     1.1560 O.3   1 <1>  -0.5600 
 16 N        5.2630    -0.1210    -0.6100 N.4   1 <1>  -0.9590 
 17 C        3.3520     2.7860    -0.0990 C.3   1 <1>   0.1200 
 18 C        5.1400     1.2720    -1.1330 C.3   1 <1>   0.3430 
 19 N       -0.1480    -0.4870     1.5700 N.2   1 <1>  -0.7070 
 20 C       -0.7070    -0.8410    -0.5490 C.2   1 <1>  -0.3020 
 21 C        0.7620    -4.8230     1.3970 C.ar  1 <1>  -0.1500 
 22 C        6.7160    -0.5570    -0.6870 C.3   1 <1>   0.2370 
 23 C       -0.9070     0.4790     1.1560 C.2   1 <1>   0.1390 
 24 C       -1.2870     0.3150    -0.1710 C.2   1 <1>  -0.1500 
 25 C        7.6770     0.2810     0.1630 C.2   1 <1>   0.9060 
 26 O        8.1390     1.3110    -0.3350 O.co2 1 <1>  -0.9000 
 27 O        7.8450    -0.0500     1.3400 O.co2 1 <1>  -0.9000 
 28 H        2.9300    -0.9010     1.6120 H     1 <1>   0.0800 
 29 H        2.6680     0.3270    -2.4000 H     1 <1>   0.0800 
 30 H        1.6240     1.2110    -1.3470 H     1 <1>   0.0800 
 31 H        3.4250    -4.1730    -0.5460 H     1 <1>   0.1500 
 32 H        2.9180     1.1290     2.6370 H     1 <1>   0.0800 
 33 H        1.7710     1.4180     1.3580 H     1 <1>   0.0800 
 34 H        5.1180    -1.1490     1.2360 H     1 <1>   0.0800 
 35 H        5.2550     0.5670     1.4090 H     1 <1>   0.0800 
 36 H        3.6580     2.3950    -2.1170 H     1 <1>   0.0800 
 37 H       -0.7850    -3.4350     1.8590 H     1 <1>   0.1500 
 38 H        2.4290    -5.9900     0.7570 H     1 <1>   0.1500 
 39 H        4.6540    -0.7430    -1.1760 H     1 <1>   0.4500 
 40 H        2.3210     3.0960    -0.1370 H     1 <1>   0.0800 
 41 H        3.9690     3.6640    -0.1940 H     1 <1>   0.0800 
 42 H        5.7230     1.9400    -0.5160 H     1 <1>   0.0800 
 43 H        5.5730     1.2990    -2.1190 H     1 <1>   0.0800 
 44 H       -0.7420    -1.3540    -1.4920 H     1 <1>   0.1500 
 45 H        0.3260    -5.6200     1.9760 H     1 <1>   0.1500 
 46 H        6.8080    -1.5750    -0.3550 H     1 <1>   0.0800 
 47 H        7.0590    -0.5010    -1.7030 H     1 <1>   0.0800 
 48 H       -1.2080     1.3090     1.7750 H     1 <1>   0.1500 
 49 H       -1.9140     0.9810    -0.7390 H     1 <1>   0.1500 
@<TRIPOS>BOND
  1   1   2  2   
  2   2   3  am  
  3   2   4  1   
  4   3   5  1   
  5   3   6  1   
  6   4   7  ar  
  7   4   8  ar  
  8   5   9  1   
  9   5  10  1   
 10   5  28  1   
 11   6  11  1   
 12   6  29  1   
 13   6  30  1   
 14   7  12  1   
 15   7  13  ar  
 16   8  14  ar  
 17   8  31  1   
 18   9  15  1   
 19   9  32  1   
 20   9  33  1   
 21  10  16  1   
 22  10  34  1   
 23  10  35  1   
 24  11  17  1   
 25  11  18  1   
 26  11  36  1   
 27  12  19  1   
 28  12  20  1   
 29  13  21  ar  
 30  13  37  1   
 31  14  21  ar  
 32  14  38  1   
 33  15  17  1   
 34  16  18  1   
 35  16  22  1   
 36  16  39  1   
 37  17  40  1   
 38  17  41  1   
 39  18  42  1   
 40  18  43  1   
 41  19  23  2   
 42  20  24  2   
 43  20  44  1   
 44  21  45  1   
 45  22  25  1   
 46  22  46  1   
 47  22  47  1   
 48  23  24  1   
 49  23  48  1   
 50  24  49  1   
 51  25  26  ar  
 52  25  27  ar  
@<TRIPOS>SUBSTRUCTURE
  1 ****   3 GROUP 4 **** **** 0

# MOE 2024.06 (io_trps.svl 2023.06)
