@<TRIPOS>MOLECULE
NONAME
51 55 1 0 0 
SMALL
USER_CHARGES


@<TRIPOS>ATOM
  1 S       -0.6180    -0.4290     0.4040 S.o2  1 <1>   1.3330 
  2 O       -0.3360    -1.8430     0.3310 O.2   1 <1>  -0.6500 
  3 O       -0.9250     0.1800     1.6770 O.2   1 <1>  -0.6500 
  4 N       -1.8910    -0.0920    -0.6630 N.am  1 <1>  -0.8490 
  5 C        0.7500     0.4320    -0.3410 C.3   1 <1>  -0.1350 
  6 C       -3.0150    -1.0460    -0.5230 C.3   1 <1>   0.1960 
  7 C       -2.4780     1.2450    -0.5000 C.3   1 <1>   0.1960 
  8 C       -4.1910    -0.2800     0.0890 C.3   1 <1>   0.2800 
  9 C       -3.6620     1.0930     0.4610 C.3   1 <1>  -0.0800 
 10 O       -5.1650     0.0510    -0.8390 O.3   1 <1>  -0.5600 
 11 C       -5.0340    -0.8860     1.2100 C.3   1 <1>  -0.1600 
 12 C       -4.9260     1.9660     0.3010 C.3   1 <1>  -0.0800 
 13 C       -5.9520     0.8910    -0.0830 C.3   1 <1>   0.2000 
 14 C       -6.2920    -0.0150     1.1110 C.3   1 <1>  -0.1600 
 15 C       -4.8270     3.0670    -0.7640 C.3   1 <1>   0.1400 
 16 N       -6.0770     3.8600    -0.7920 N.am  1 <1>  -0.7300 
 17 C       -6.3410     4.9300     0.0180 C.2   1 <1>   0.5440 
 18 O       -5.4960     5.2600     0.8270 O.2   1 <1>  -0.5700 
 19 C       -7.5940     5.6550    -0.0930 C.ar  1 <1>   0.0860 
 20 C       -7.6720     7.0010     0.2830 C.ar  1 <1>  -0.1500 
 21 C       -8.7630     5.0430    -0.5730 C.ar  1 <1>  -0.1500 
 22 C       -8.8630     7.6890     0.1650 C.ar  1 <1>  -0.1430 
 23 C       -9.9550     5.7370    -0.6900 C.ar  1 <1>  -0.1500 
 24 C       -9.9820     7.0660    -0.3150 C.ar  1 <1>   0.0820 
 25 C       -9.2100     9.1120     0.4890 C.3   1 <1>  -0.0170 
 26 O      -11.0490     7.8720    -0.3670 O.3   1 <1>  -0.3620 
 27 C      -10.7020     9.1650     0.1080 C.3   1 <1>   0.1200 
 28 H        0.9130     0.0680    -1.3360 H     1 <1>   0.0800 
 29 H        1.6390     0.2710     0.2350 H     1 <1>   0.0800 
 30 H        0.5530     1.4850    -0.3830 H     1 <1>   0.0800 
 31 H       -3.2940    -1.4280    -1.4890 H     1 <1>   0.0800 
 32 H       -2.7510    -1.8730     0.1120 H     1 <1>   0.0800 
 33 H       -1.7640     1.9640    -0.1360 H     1 <1>   0.0800 
 34 H       -2.8210     1.5590    -1.4700 H     1 <1>   0.0800 
 35 H       -3.3080     1.1070     1.4760 H     1 <1>   0.0800 
 36 H       -5.2560    -1.9160     0.9940 H     1 <1>   0.0800 
 37 H       -4.5450    -0.8120     2.1660 H     1 <1>   0.0800 
 38 H       -5.1840     2.4210     1.2420 H     1 <1>   0.0800 
 39 H       -6.8050     1.2400    -0.6390 H     1 <1>   0.0800 
 40 H       -6.4760     0.5560     2.0040 H     1 <1>   0.0800 
 41 H       -7.1570    -0.6130     0.8840 H     1 <1>   0.0800 
 42 H       -4.6650     2.6380    -1.7380 H     1 <1>   0.0800 
 43 H       -4.0020     3.7200    -0.5330 H     1 <1>   0.0800 
 44 H       -6.7210     3.6450    -1.5550 H     1 <1>   0.3700 
 45 H       -6.7950     7.4950     0.6640 H     1 <1>   0.1500 
 46 H       -8.7430     4.0050    -0.8510 H     1 <1>   0.1500 
 47 H      -10.8510     5.2700    -1.0580 H     1 <1>   0.1500 
 48 H       -8.6350     9.8000    -0.1040 H     1 <1>   0.0800 
 49 H       -9.0710     9.3200     1.5340 H     1 <1>   0.0800 
 50 H      -10.8840     9.8720    -0.6820 H     1 <1>   0.0800 
 51 H      -11.3200     9.3870     0.9590 H     1 <1>   0.0800 
@<TRIPOS>BOND
  1   1   2  2   
  2   1   3  2   
  3   1   4  am  
  4   1   5  1   
  5   4   6  1   
  6   4   7  1   
  7   5  28  1   
  8   5  29  1   
  9   5  30  1   
 10   6   8  1   
 11   6  31  1   
 12   6  32  1   
 13   7   9  1   
 14   7  33  1   
 15   7  34  1   
 16   8   9  1   
 17   8  10  1   
 18   8  11  1   
 19   9  12  1   
 20   9  35  1   
 21  10  13  1   
 22  11  14  1   
 23  11  36  1   
 24  11  37  1   
 25  12  13  1   
 26  12  15  1   
 27  12  38  1   
 28  13  14  1   
 29  13  39  1   
 30  14  40  1   
 31  14  41  1   
 32  15  16  1   
 33  15  42  1   
 34  15  43  1   
 35  16  17  am  
 36  16  44  1   
 37  17  18  2   
 38  17  19  1   
 39  19  20  ar  
 40  19  21  ar  
 41  20  22  ar  
 42  20  45  1   
 43  21  23  ar  
 44  21  46  1   
 45  22  24  ar  
 46  22  25  1   
 47  23  24  ar  
 48  23  47  1   
 49  24  26  1   
 50  25  27  1   
 51  25  48  1   
 52  25  49  1   
 53  26  27  1   
 54  27  50  1   
 55  27  51  1   
@<TRIPOS>SUBSTRUCTURE
  1 ****  15 GROUP 4 **** **** 0

# MOE 2024.06 (io_trps.svl 2023.06)
