@<TRIPOS>MOLECULE
NONAME
50 53 1 0 0 
SMALL
USER_CHARGES


@<TRIPOS>ATOM
  1 O       -0.2020     1.3000     1.1380 O.2   1 <1>  -0.5700 
  2 C       -0.0440     2.4770     0.8680 C.2   1 <1>   0.5440 
  3 N       -1.1490     3.2980     0.7560 N.am  1 <1>  -0.6600 
  4 C        1.3020     2.9730     0.6580 C.ar  1 <1>   0.0860 
  5 C       -2.5180     2.8380     1.1510 C.3   1 <1>   0.1400 
  6 C       -1.1380     4.6240     0.0810 C.3   1 <1>   0.1400 
  7 C        1.8120     4.0430     1.3920 C.ar  1 <1>  -0.1500 
  8 C        2.1430     2.3880    -0.2860 C.ar  1 <1>  -0.1500 
  9 C       -3.4560     2.7530    -0.0800 C.3   1 <1>   0.0000 
 10 C       -2.0410     4.5840    -1.1570 C.3   1 <1>  -0.1600 
 11 C        3.0910     4.5220     1.1780 C.ar  1 <1>  -0.1500 
 12 C        3.4220     2.8630    -0.5050 C.ar  1 <1>  -0.1500 
 13 C       -4.8760     2.3230     0.3280 C.3   1 <1>   0.2000 
 14 C       -3.4640     4.1120    -0.8140 C.3   1 <1>  -0.1600 
 15 C       -3.0350     1.5930    -0.9980 C.3   1 <1>  -0.1600 
 16 C        3.9190     3.9460     0.2170 C.ar  1 <1>  -0.0230 
 17 O       -5.2820     2.9450     1.5110 O.3   1 <1>  -0.5600 
 18 C       -4.8200     0.8000     0.4840 C.3   1 <1>  -0.1600 
 19 C       -3.6300     0.3320    -0.3650 C.3   1 <1>  -0.1600 
 20 N        5.2360     4.4380    -0.0240 N.pl3 1 <1>   0.5930 
 21 C       -6.6430     2.8480     1.7890 C.3   1 <1>   0.0400 
 22 N        6.2510     3.6680    -0.4970 N.2   1 <1>  -0.7070 
 23 C        5.6810     5.7100     0.1520 C.2   1 <1>  -0.3020 
 24 C        7.2770     4.4530    -0.5930 C.2   1 <1>   0.1390 
 25 C        6.9820     5.7510    -0.2000 C.2   1 <1>  -0.1500 
 26 H       -2.4680     1.8850     1.6480 H     1 <1>   0.0800 
 27 H       -2.9170     3.5430     1.8590 H     1 <1>   0.0800 
 28 H       -1.4980     5.3680     0.7710 H     1 <1>   0.0800 
 29 H       -0.1430     4.8980    -0.2210 H     1 <1>   0.0800 
 30 H        1.1870     4.4960     2.1430 H     1 <1>   0.1500 
 31 H        1.7780     1.5460    -0.8490 H     1 <1>   0.1500 
 32 H       -2.0860     5.5670    -1.5920 H     1 <1>   0.0800 
 33 H       -1.6020     3.9260    -1.8860 H     1 <1>   0.0800 
 34 H        3.4470     5.3460     1.7720 H     1 <1>   0.1500 
 35 H        4.0470     2.3870    -1.2430 H     1 <1>   0.1500 
 36 H       -5.5620     2.5850    -0.4600 H     1 <1>   0.0800 
 37 H       -4.0500     4.0460    -1.7140 H     1 <1>   0.0800 
 38 H       -3.9290     4.8440    -0.1750 H     1 <1>   0.0800 
 39 H       -3.4670     1.7270    -1.9750 H     1 <1>   0.0800 
 40 H       -1.9670     1.5110    -1.1070 H     1 <1>   0.0800 
 41 H       -4.6480     0.5380     1.5140 H     1 <1>   0.0800 
 42 H       -5.7350     0.3510     0.1430 H     1 <1>   0.0800 
 43 H       -2.8940    -0.1320     0.2710 H     1 <1>   0.0800 
 44 H       -3.9310    -0.3750    -1.1190 H     1 <1>   0.0800 
 45 H       -6.8350     3.3800     2.7040 H     1 <1>   0.0800 
 46 H       -6.9130     1.8140     1.9100 H     1 <1>   0.0800 
 47 H       -7.2030     3.2960     0.9860 H     1 <1>   0.0800 
 48 H        5.0490     6.5000     0.5080 H     1 <1>   0.1500 
 49 H        8.2440     4.1270    -0.9410 H     1 <1>   0.1500 
 50 H        7.6660     6.5820    -0.1940 H     1 <1>   0.1500 
@<TRIPOS>BOND
  1   1   2  2   
  2   2   3  am  
  3   2   4  1   
  4   3   5  1   
  5   3   6  1   
  6   4   7  ar  
  7   4   8  ar  
  8   5   9  1   
  9   5  26  1   
 10   5  27  1   
 11   6  10  1   
 12   6  28  1   
 13   6  29  1   
 14   7  11  ar  
 15   7  30  1   
 16   8  12  ar  
 17   8  31  1   
 18   9  13  1   
 19   9  14  1   
 20   9  15  1   
 21  10  14  1   
 22  10  32  1   
 23  10  33  1   
 24  11  16  ar  
 25  11  34  1   
 26  12  16  ar  
 27  12  35  1   
 28  13  17  1   
 29  13  18  1   
 30  13  36  1   
 31  14  37  1   
 32  14  38  1   
 33  15  19  1   
 34  15  39  1   
 35  15  40  1   
 36  16  20  1   
 37  17  21  1   
 38  18  19  1   
 39  18  41  1   
 40  18  42  1   
 41  19  43  1   
 42  19  44  1   
 43  20  22  1   
 44  20  23  1   
 45  21  45  1   
 46  21  46  1   
 47  21  47  1   
 48  22  24  2   
 49  23  25  2   
 50  23  48  1   
 51  24  25  1   
 52  24  49  1   
 53  25  50  1   
@<TRIPOS>SUBSTRUCTURE
  1 ****   2 GROUP 4 **** **** 0

# MOE 2024.06 (io_trps.svl 2023.06)
