@<TRIPOS>MOLECULE
NONAME
48 50 1 0 0 
SMALL
USER_CHARGES


@<TRIPOS>ATOM
  1 S       -0.2570    -0.0340     0.3550 S.o2  1 <1>   1.3330 
  2 O       -0.1530    -0.5560     1.6990 O.2   1 <1>  -0.6500 
  3 O       -1.0240     1.1670     0.1150 O.2   1 <1>  -0.6500 
  4 N       -0.8740    -1.2680    -0.6330 N.am  1 <1>  -0.8490 
  5 C        1.3840     0.2230    -0.3240 C.3   1 <1>  -0.0550 
  6 C       -0.4870    -2.6140    -0.1950 C.3   1 <1>   0.1160 
  7 C       -2.3310    -1.1900    -0.7760 C.3   1 <1>   0.1160 
  8 C        2.1530     1.3810     0.3430 C.3   1 <1>  -0.0800 
  9 C        3.4300     1.6970    -0.4160 C.3   1 <1>   0.2200 
 10 C        2.6870     0.9980     1.7300 C.3   1 <1>   0.1200 
 11 N        3.8290     3.0920    -0.1260 N.am  1 <1>  -0.7300 
 12 C        4.4230     0.7400     0.2320 C.3   1 <1>   0.1200 
 13 O        4.0200     0.6110     1.5620 O.3   1 <1>  -0.5600 
 14 C        3.9710     4.0860    -1.0500 C.2   1 <1>   0.5440 
 15 O        3.7820     3.8140    -2.2200 O.2   1 <1>  -0.5700 
 16 C        4.3550     5.4260    -0.6440 C.ar  1 <1>   0.0860 
 17 C        4.0940     5.9170     0.6370 C.ar  1 <1>  -0.1500 
 18 C        5.0100     6.2880    -1.5230 C.ar  1 <1>  -0.1500 
 19 C        4.4790     7.1880     1.0150 C.ar  1 <1>  -0.1500 
 20 C        5.3950     7.5600    -1.1430 C.ar  1 <1>  -0.1500 
 21 C        5.1390     8.0480     0.1380 C.ar  1 <1>   0.0540 
 22 C        5.5340     9.3790     0.5560 C.2   1 <1>   0.2350 
 23 N        5.6590     9.7460     1.8100 N.2   1 <1>  -0.7070 
 24 C        5.8300    10.4510    -0.2950 C.2   1 <1>  -0.1500 
 25 N        6.0370    11.0330     1.7720 N.pl3 1 <1>   0.3000 
 26 C        6.1470    11.4840     0.5100 C.2   1 <1>  -0.3020 
 27 H        1.9510    -0.6830    -0.2420 H     1 <1>   0.0800 
 28 H        1.2730     0.4460    -1.3680 H     1 <1>   0.0800 
 29 H       -0.8260    -3.3460    -0.9080 H     1 <1>   0.0800 
 30 H       -0.9200    -2.8360     0.7670 H     1 <1>   0.0800 
 31 H        0.5840    -2.6860    -0.1160 H     1 <1>   0.0800 
 32 H       -2.6860    -1.9770    -1.4200 H     1 <1>   0.0800 
 33 H       -2.6090    -0.2460    -1.2160 H     1 <1>   0.0800 
 34 H       -2.8070    -1.2760     0.1860 H     1 <1>   0.0800 
 35 H        1.5090     2.2430     0.3930 H     1 <1>   0.0800 
 36 H        3.3470     1.5370    -1.4780 H     1 <1>   0.0800 
 37 H        2.1500     0.1890     2.1920 H     1 <1>   0.0800 
 38 H        2.6780     1.8490     2.3890 H     1 <1>   0.0800 
 39 H        4.1320     3.2480     0.8370 H     1 <1>   0.3700 
 40 H        5.4350     1.1040     0.1920 H     1 <1>   0.0800 
 41 H        4.3680    -0.2330    -0.2230 H     1 <1>   0.0800 
 42 H        3.5760     5.3000     1.3490 H     1 <1>   0.1500 
 43 H        5.2210     5.9450    -2.5220 H     1 <1>   0.1500 
 44 H        4.2660     7.5360     2.0120 H     1 <1>   0.1500 
 45 H        5.9060     8.1810    -1.8550 H     1 <1>   0.1500 
 46 H        5.7990    10.4330    -1.3680 H     1 <1>   0.1500 
 47 H        6.2110    11.5790     2.6250 H     1 <1>   0.2700 
 48 H        6.4350    12.4900     0.2650 H     1 <1>   0.1500 
@<TRIPOS>BOND
  1   1   2  2   
  2   1   3  2   
  3   1   4  am  
  4   1   5  1   
  5   4   6  1   
  6   4   7  1   
  7   5   8  1   
  8   5  27  1   
  9   5  28  1   
 10   6  29  1   
 11   6  30  1   
 12   6  31  1   
 13   7  32  1   
 14   7  33  1   
 15   7  34  1   
 16   8   9  1   
 17   8  10  1   
 18   8  35  1   
 19   9  11  1   
 20   9  12  1   
 21   9  36  1   
 22  10  13  1   
 23  10  37  1   
 24  10  38  1   
 25  11  14  am  
 26  11  39  1   
 27  12  13  1   
 28  12  40  1   
 29  12  41  1   
 30  14  15  2   
 31  14  16  1   
 32  16  17  ar  
 33  16  18  ar  
 34  17  19  ar  
 35  17  42  1   
 36  18  20  ar  
 37  18  43  1   
 38  19  21  ar  
 39  19  44  1   
 40  20  21  ar  
 41  20  45  1   
 42  21  22  1   
 43  22  23  2   
 44  22  24  1   
 45  23  25  1   
 46  24  26  2   
 47  24  46  1   
 48  25  26  1   
 49  25  47  1   
 50  26  48  1   
@<TRIPOS>SUBSTRUCTURE
  1 ****  11 GROUP 4 **** **** 0

# MOE 2024.06 (io_trps.svl 2023.06)
