@<TRIPOS>MOLECULE
NONAME
53 55 1 0 0 
SMALL
USER_CHARGES


@<TRIPOS>ATOM
  1 CL      -2.4420    -0.4330    -3.1600 Cl    1 <1>  -0.1230 
  2 C       -3.1260     0.3940    -1.7730 C.2   1 <1>   0.3500 
  3 N       -3.2290     1.7260    -1.7660 N.2   1 <1>  -0.5650 
  4 C       -3.5980    -0.1740    -0.6450 C.2   1 <1>  -0.3320 
  5 C       -3.7540     1.9740    -0.6090 C.2   1 <1>   0.0060 
  6 N       -4.0020     0.8620     0.1250 N.pl3 1 <1>   0.0330 
  7 C       -3.6870    -1.6250    -0.2440 C.3   1 <1>   0.5230 
  8 C       -4.0660     3.3750    -0.1110 C.3   1 <1>   0.0200 
  9 N       -4.1240    -2.4110    -1.4200 N.4   1 <1>  -0.9590 
 10 C       -3.1480     3.7710     1.0540 C.3   1 <1>  -0.1600 
 11 C       -5.5210    -2.0440    -1.8220 C.3   1 <1>   0.3430 
 12 C       -4.1400    -3.8730    -1.1060 C.3   1 <1>   0.3430 
 13 C       -3.4470     5.1920     1.5460 C.3   1 <1>  -0.1600 
 14 C       -6.4230    -3.0780    -1.1490 C.3   1 <1>   0.2000 
 15 C       -5.5860    -4.3490    -1.2790 C.3   1 <1>  -0.0800 
 16 C       -2.5270     5.5760     2.7080 C.3   1 <1>  -0.2400 
 17 O       -6.5330    -2.7320     0.2050 O.3   1 <1>  -0.5600 
 18 C       -5.9560    -5.5080    -0.3330 C.3   1 <1>   0.0200 
 19 C       -7.8300    -2.7810     0.7220 C.3   1 <1>   0.0400 
 20 C       -4.9130    -6.6060    -0.4140 C.2   1 <1>  -0.0400 
 21 O       -4.4920    -7.0180    -1.5800 O.3   1 <1>  -0.0190 
 22 C       -4.2530    -7.2940     0.5290 C.2   1 <1>  -0.1500 
 23 N       -3.5740    -7.9290    -1.4680 N.2   1 <1>  -0.4100 
 24 C       -3.4150    -8.1260    -0.2090 C.2   1 <1>   0.1080 
 25 C       -2.4460    -9.1280     0.3800 C.3   1 <1>  -0.0590 
 26 H       -4.4090     0.8550     1.0680 H     1 <1>   0.2700 
 27 H       -4.3980    -1.7460     0.5580 H     1 <1>   0.0800 
 28 H       -2.7220    -1.9650     0.0970 H     1 <1>   0.0800 
 29 H       -3.9280     4.0690    -0.9230 H     1 <1>   0.0800 
 30 H       -5.0960     3.4270     0.1930 H     1 <1>   0.0800 
 31 H       -3.4730    -2.2030    -2.1920 H     1 <1>   0.4500 
 32 H       -3.2740     3.0790     1.8680 H     1 <1>   0.0800 
 33 H       -2.1240     3.7150     0.7230 H     1 <1>   0.0800 
 34 H       -5.7860    -1.0420    -1.5300 H     1 <1>   0.0800 
 35 H       -5.6200    -2.1350    -2.8910 H     1 <1>   0.0800 
 36 H       -3.4830    -4.4250    -1.7600 H     1 <1>   0.0800 
 37 H       -3.8300    -4.0370    -0.0860 H     1 <1>   0.0800 
 38 H       -3.3050     5.8920     0.7390 H     1 <1>   0.0800 
 39 H       -4.4720     5.2600     1.8700 H     1 <1>   0.0800 
 40 H       -7.3940    -3.1440    -1.6120 H     1 <1>   0.0800 
 41 H       -5.6810    -4.7070    -2.2900 H     1 <1>   0.0800 
 42 H       -1.4960     5.5400     2.4000 H     1 <1>   0.0800 
 43 H       -2.6650     4.9060     3.5380 H     1 <1>   0.0800 
 44 H       -2.7480     6.5760     3.0370 H     1 <1>   0.0800 
 45 H       -6.9140    -5.9120    -0.6120 H     1 <1>   0.0800 
 46 H       -6.0180    -5.1730     0.6870 H     1 <1>   0.0800 
 47 H       -7.7880    -2.5330     1.7680 H     1 <1>   0.0800 
 48 H       -8.2300    -3.7740     0.6040 H     1 <1>   0.0800 
 49 H       -8.4480    -2.0640     0.2080 H     1 <1>   0.0800 
 50 H       -4.3200    -7.2490     1.6010 H     1 <1>   0.1500 
 51 H       -1.7470    -8.6290     1.0260 H     1 <1>   0.0800 
 52 H       -1.9030    -9.6200    -0.4070 H     1 <1>   0.0800 
 53 H       -2.9840    -9.8680     0.9430 H     1 <1>   0.0800 
@<TRIPOS>BOND
  1   1   2  1   
  2   2   3  1   
  3   2   4  2   
  4   3   5  2   
  5   4   6  1   
  6   4   7  1   
  7   5   6  1   
  8   5   8  1   
  9   6  26  1   
 10   7   9  1   
 11   7  27  1   
 12   7  28  1   
 13   8  10  1   
 14   8  29  1   
 15   8  30  1   
 16   9  11  1   
 17   9  12  1   
 18   9  31  1   
 19  10  13  1   
 20  10  32  1   
 21  10  33  1   
 22  11  14  1   
 23  11  34  1   
 24  11  35  1   
 25  12  15  1   
 26  12  36  1   
 27  12  37  1   
 28  13  16  1   
 29  13  38  1   
 30  13  39  1   
 31  14  15  1   
 32  14  17  1   
 33  14  40  1   
 34  15  18  1   
 35  15  41  1   
 36  16  42  1   
 37  16  43  1   
 38  16  44  1   
 39  17  19  1   
 40  18  20  1   
 41  18  45  1   
 42  18  46  1   
 43  19  47  1   
 44  19  48  1   
 45  19  49  1   
 46  20  21  1   
 47  20  22  2   
 48  21  23  1   
 49  22  24  1   
 50  22  50  1   
 51  23  24  2   
 52  24  25  1   
 53  25  51  1   
 54  25  52  1   
 55  25  53  1   
@<TRIPOS>SUBSTRUCTURE
  1 ****   7 GROUP 4 **** **** 0

# MOE 2024.06 (io_trps.svl 2023.06)
