@<TRIPOS>MOLECULE
NONAME
42 44 1 0 0 
SMALL
USER_CHARGES


@<TRIPOS>ATOM
  1 S       -0.5170    -2.2020     0.8190 S.3   1 <1>  -0.1970 
  2 C       -2.2450    -1.9740     0.6670 C.2   1 <1>   0.2420 
  3 C       -0.2990    -0.9970    -0.4690 C.2   1 <1>   0.5310 
  4 N       -3.2780    -2.4750     1.2570 N.2   1 <1>  -0.5650 
  5 N       -2.4660    -1.0620    -0.2930 N.pl3 1 <1>   0.5050 
  6 N       -1.3710    -0.5020    -0.9390 N.2   1 <1>  -0.6520 
  7 C       -4.2860    -1.8220     0.6110 C.2   1 <1>   0.0460 
  8 C       -3.8050    -0.9630    -0.3290 C.2   1 <1>  -0.3020 
  9 C       -5.7470    -2.1070     0.9650 C.3   1 <1>   0.4010 
 10 N       -6.2910    -3.1380     0.0640 N.am  1 <1>  -0.7300 
 11 C       -6.6270    -0.8570     0.9680 C.3   1 <1>  -0.2400 
 12 C       -6.5240    -3.0540    -1.2690 C.2   1 <1>   0.5690 
 13 O       -6.4590    -2.0180    -1.8860 O.2   1 <1>  -0.5700 
 14 C       -6.8520    -4.3320    -2.0240 C.3   1 <1>   0.0440 
 15 C       -7.8370    -5.2390    -1.2810 C.ar  1 <1>  -0.1430 
 16 C       -7.4130    -6.0830    -0.2550 C.ar  1 <1>   0.0820 
 17 C       -9.1770    -5.2180    -1.6350 C.ar  1 <1>  -0.1500 
 18 O       -6.0950    -6.0570     0.0790 O.3   1 <1>  -0.3630 
 19 C       -8.3350    -6.9000     0.3900 C.ar  1 <1>  -0.1500 
 20 C      -10.0920    -6.0300    -0.9890 C.ar  1 <1>  -0.1500 
 21 C       -5.5640    -6.9000     1.0780 C.3   1 <1>   0.0400 
 22 C       -9.6700    -6.8790     0.0290 C.ar  1 <1>   0.0820 
 23 O      -10.4990    -7.7080     0.7120 O.3   1 <1>  -0.3630 
 24 C      -11.8760    -7.7760     0.4150 C.3   1 <1>   0.0400 
 25 H        0.7170    -0.7820    -0.7490 H     1 <1>   0.0600 
 26 H       -4.3180    -0.3140    -1.0130 H     1 <1>   0.1500 
 27 H       -5.7610    -2.5100     1.9640 H     1 <1>   0.0800 
 28 H       -6.2550    -4.0870     0.4500 H     1 <1>   0.3700 
 29 H       -6.6090    -0.3680     0.0120 H     1 <1>   0.0800 
 30 H       -6.2620    -0.1650     1.7050 H     1 <1>   0.0800 
 31 H       -7.6390    -1.1210     1.2130 H     1 <1>   0.0800 
 32 H       -5.9350    -4.8600    -2.2060 H     1 <1>   0.0800 
 33 H       -7.2580    -4.0650    -2.9820 H     1 <1>   0.0800 
 34 H       -9.5190    -4.5650    -2.4200 H     1 <1>   0.1500 
 35 H       -8.0470    -7.5650     1.1800 H     1 <1>   0.1500 
 36 H      -11.1210    -5.9870    -1.2900 H     1 <1>   0.1500 
 37 H       -4.5090    -6.7050     1.1540 H     1 <1>   0.0800 
 38 H       -5.7260    -7.9250     0.7920 H     1 <1>   0.0800 
 39 H       -6.0450    -6.6810     2.0150 H     1 <1>   0.0800 
 40 H      -12.3250    -8.4980     1.0730 H     1 <1>   0.0800 
 41 H      -11.9980    -8.0870    -0.6070 H     1 <1>   0.0800 
 42 H      -12.3170    -6.8080     0.5800 H     1 <1>   0.0800 
@<TRIPOS>BOND
  1   1   2  1   
  2   1   3  1   
  3   2   4  2   
  4   2   5  1   
  5   3   6  2   
  6   3  25  1   
  7   4   7  1   
  8   5   6  1   
  9   5   8  1   
 10   7   8  2   
 11   7   9  1   
 12   8  26  1   
 13   9  10  1   
 14   9  11  1   
 15   9  27  1   
 16  10  12  am  
 17  10  28  1   
 18  11  29  1   
 19  11  30  1   
 20  11  31  1   
 21  12  13  2   
 22  12  14  1   
 23  14  15  1   
 24  14  32  1   
 25  14  33  1   
 26  15  16  ar  
 27  15  17  ar  
 28  16  18  1   
 29  16  19  ar  
 30  17  20  ar  
 31  17  34  1   
 32  18  21  1   
 33  19  22  ar  
 34  19  35  1   
 35  20  22  ar  
 36  20  36  1   
 37  21  37  1   
 38  21  38  1   
 39  21  39  1   
 40  22  23  1   
 41  23  24  1   
 42  24  40  1   
 43  24  41  1   
 44  24  42  1   
@<TRIPOS>SUBSTRUCTURE
  1 ****  10 GROUP 4 **** **** 0

# MOE 2024.06 (io_trps.svl 2023.06)
