@<TRIPOS>MOLECULE
NONAME
41 42 1 0 0 
SMALL
USER_CHARGES


@<TRIPOS>ATOM
  1 CL      -0.5200     0.3740     0.6710 Cl    1 <1>  -0.1770 
  2 C       -0.2320     2.0980     0.6100 C.ar  1 <1>   0.1770 
  3 C       -0.7900     2.8670    -0.4020 C.ar  1 <1>  -0.1440 
  4 C        0.5620     2.6660     1.5880 C.ar  1 <1>  -0.1500 
  5 C       -0.5350     4.2300    -0.4120 C.ar  1 <1>  -0.1500 
  6 C       -1.6640     2.2360    -1.4760 C.3   1 <1>  -0.0960 
  7 C        0.8070     4.0270     1.5610 C.ar  1 <1>  -0.1500 
  8 C        0.2590     4.8280     0.5630 C.ar  1 <1>   0.1170 
  9 N        0.4900     6.2090     0.4860 N.am  1 <1>  -0.5470 
 10 C        0.8590     7.1160     1.4460 C.2   1 <1>   0.5690 
 11 O        0.9730     6.8300     2.6140 O.2   1 <1>  -0.5700 
 12 C        1.0620     8.5780     1.0220 C.3   1 <1>   0.1710 
 13 N        2.3560     8.9070     0.3550 N.3   1 <1>  -0.8100 
 14 C        2.5030    10.3760     0.2410 C.3   1 <1>   0.1100 
 15 C        2.5420     8.2510    -0.9500 C.3   1 <1>   0.1100 
 16 C        3.8830    10.7720    -0.3020 C.3   1 <1>   0.2000 
 17 C        3.9320     8.5680    -1.5110 C.3   1 <1>  -0.1600 
 18 O        3.8850    12.1550    -0.4920 O.3   1 <1>  -0.5600 
 19 C        4.1640    10.0800    -1.6420 C.3   1 <1>  -0.1600 
 20 C        5.1400    12.7580    -0.4510 C.3   1 <1>   0.0400 
 21 H        0.9830     2.0480     2.3600 H     1 <1>   0.1500 
 22 H       -0.9620     4.8420    -1.1850 H     1 <1>   0.1500 
 23 H       -2.5150     1.7600    -1.0220 H     1 <1>   0.0800 
 24 H       -1.1020     1.4960    -2.0170 H     1 <1>   0.0800 
 25 H       -2.0170     2.9740    -2.1730 H     1 <1>   0.0800 
 26 H        1.4310     4.4630     2.3200 H     1 <1>   0.1500 
 27 H        0.3690     6.6070    -0.4420 H     1 <1>   0.3700 
 28 H        0.9870     9.1660     1.9190 H     1 <1>   0.0800 
 29 H        0.2480     8.8680     0.3830 H     1 <1>   0.0800 
 30 H        2.3850    10.8240     1.2130 H     1 <1>   0.0800 
 31 H        1.7430    10.7660    -0.4150 H     1 <1>   0.0800 
 32 H        1.7840     8.5830    -1.6400 H     1 <1>   0.0800 
 33 H        2.4690     7.1840    -0.8360 H     1 <1>   0.0800 
 34 H        4.6280    10.5120     0.4320 H     1 <1>   0.0800 
 35 H        4.0420     8.1030    -2.4740 H     1 <1>   0.0800 
 36 H        4.6720     8.1430    -0.8550 H     1 <1>   0.0800 
 37 H        5.1780    10.2580    -1.9480 H     1 <1>   0.0800 
 38 H        3.4990    10.4770    -2.3890 H     1 <1>   0.0800 
 39 H        5.0060    13.8160    -0.5880 H     1 <1>   0.0800 
 40 H        5.7550    12.3670    -1.2430 H     1 <1>   0.0800 
 41 H        5.5930    12.5720     0.5080 H     1 <1>   0.0800 
@<TRIPOS>BOND
  1   1   2  1   
  2   2   3  ar  
  3   2   4  ar  
  4   3   5  ar  
  5   3   6  1   
  6   4   7  ar  
  7   4  21  1   
  8   5   8  ar  
  9   5  22  1   
 10   6  23  1   
 11   6  24  1   
 12   6  25  1   
 13   7   8  ar  
 14   7  26  1   
 15   8   9  1   
 16   9  10  am  
 17   9  27  1   
 18  10  11  2   
 19  10  12  1   
 20  12  13  1   
 21  12  28  1   
 22  12  29  1   
 23  13  14  1   
 24  13  15  1   
 25  14  16  1   
 26  14  30  1   
 27  14  31  1   
 28  15  17  1   
 29  15  32  1   
 30  15  33  1   
 31  16  18  1   
 32  16  19  1   
 33  16  34  1   
 34  17  19  1   
 35  17  35  1   
 36  17  36  1   
 37  18  20  1   
 38  19  37  1   
 39  19  38  1   
 40  20  39  1   
 41  20  40  1   
 42  20  41  1   
@<TRIPOS>SUBSTRUCTURE
  1 ****   9 GROUP 4 **** **** 0

# MOE 2024.06 (io_trps.svl 2023.06)
