@<TRIPOS>MOLECULE
NONAME
25 26 1 0 0 
SMALL
USER_CHARGES


@<TRIPOS>ATOM
  1 O       -0.3280     0.2330    -0.0070 O.3   1 <1>  -0.6800 
  2 C       -1.5690     0.8620    -0.0070 C.3   1 <1>   0.2640 
  3 C       -1.4270     2.3760    -0.0040 C.ar  1 <1>  -0.1430 
  4 C       -2.6420     3.1090    -0.0040 C.ar  1 <1>   0.2890 
  5 C       -0.2400     3.0550    -0.0020 C.ar  1 <1>  -0.1500 
  6 N       -3.8760     2.6450    -0.0060 N.2   1 <1>  -0.7070 
  7 C       -2.6090     4.5150    -0.0020 C.ar  1 <1>   0.0000 
  8 C       -0.2070     4.4710     0.0010 C.ar  1 <1>  -0.1500 
  9 N       -4.6390     3.7420    -0.0050 N.pl3 1 <1>   0.3140 
 10 C       -3.9220     4.8770    -0.0030 C.2   1 <1>  -0.3320 
 11 C       -1.3630     5.1920     0.0010 C.ar  1 <1>  -0.1500 
 12 C       -6.1040     3.6320    -0.0070 C.3   1 <1>   0.0160 
 13 C       -4.5060     6.2820    -0.0010 C.3   1 <1>  -0.0600 
 14 H       -0.4470    -0.7350    -0.0080 H     1 <1>   0.4000 
 15 H       -2.1090     0.5450     0.8690 H     1 <1>   0.0800 
 16 H       -2.1070     0.5480    -0.8850 H     1 <1>   0.0800 
 17 H        0.7010     2.5310    -0.0020 H     1 <1>   0.1500 
 18 H        0.7530     4.9560     0.0020 H     1 <1>   0.1500 
 19 H       -1.3650     6.2660     0.0020 H     1 <1>   0.1500 
 20 H       -6.3790     2.5930    -0.0090 H     1 <1>   0.0800 
 21 H       -6.4920     4.1090    -0.8860 H     1 <1>   0.0800 
 22 H       -6.4930     4.1060     0.8740 H     1 <1>   0.0800 
 23 H       -3.7180     7.0140     0.0010 H     1 <1>   0.0800 
 24 H       -5.1110     6.4320     0.8750 H     1 <1>   0.0800 
 25 H       -5.1100     6.4350    -0.8780 H     1 <1>   0.0800 
@<TRIPOS>BOND
  1   1   2  1   
  2   1  14  1   
  3   2   3  1   
  4   2  15  1   
  5   2  16  1   
  6   3   4  ar  
  7   3   5  ar  
  8   4   6  2   
  9   4   7  ar  
 10   5   8  ar  
 11   5  17  1   
 12   6   9  1   
 13   7  10  2   
 14   7  11  ar  
 15   8  11  ar  
 16   8  18  1   
 17   9  10  1   
 18   9  12  1   
 19  10  13  1   
 20  11  19  1   
 21  12  20  1   
 22  12  21  1   
 23  12  22  1   
 24  13  23  1   
 25  13  24  1   
 26  13  25  1   
@<TRIPOS>SUBSTRUCTURE
  1 ****   4 GROUP 4 **** **** 0

# MOE 2024.06 (io_trps.svl 2023.06)
