@<TRIPOS>MOLECULE
NONAME
47 48 1 0 0 
SMALL
USER_CHARGES


@<TRIPOS>ATOM
  1 O       -3.2420     1.4060    -1.2460 O.2   1 <1>  -0.5700 
  2 C       -2.6280     1.0330    -0.2730 C.2   1 <1>   0.5690 
  3 N       -2.2380    -0.2640    -0.1670 N.am  1 <1>  -0.7300 
  4 C       -2.2990     2.0390     0.8580 C.3   1 <1>   0.0610 
  5 C       -2.4540    -1.3100    -1.1910 C.3   1 <1>   0.2200 
  6 C       -1.4000     3.1800     0.3170 C.3   1 <1>  -0.1600 
  7 C       -3.6110     2.6680     1.3710 C.3   1 <1>  -0.2400 
  8 C       -1.6180     1.3690     2.0770 C.3   1 <1>  -0.2400 
  9 C       -3.5740    -2.2580    -0.7840 C.3   1 <1>  -0.0800 
 10 C       -1.2660    -2.2610    -1.1760 C.3   1 <1>   0.1200 
 11 C       -0.0530     2.7230    -0.2720 C.3   1 <1>  -0.1600 
 12 C       -2.8610    -3.2670     0.1240 C.3   1 <1>   0.1200 
 13 C       -4.8150    -1.6010    -0.1520 C.3   1 <1>  -0.0170 
 14 O       -1.4880    -3.1010    -0.0850 O.3   1 <1>  -0.5600 
 15 C        0.7250     3.9130    -0.8390 C.3   1 <1>  -0.2400 
 16 C       -5.9010    -2.6330     0.1090 C.ar  1 <1>  -0.1440 
 17 C       -6.0890    -3.2050     1.3510 C.ar  1 <1>  -0.1500 
 18 C       -6.7550    -3.0530    -0.8900 C.ar  1 <1>  -0.1500 
 19 C       -7.0890    -4.1470     1.5260 C.ar  1 <1>   0.1600 
 20 C       -7.7250    -4.0010    -0.6090 C.ar  1 <1>   0.1600 
 21 N       -7.9110    -4.5610     0.5750 N.ar  1 <1>  -0.6200 
 22 H       -1.7410    -0.5870     0.6650 H     1 <1>   0.3700 
 23 H       -2.6130    -0.8670    -2.1600 H     1 <1>   0.0800 
 24 H       -1.9440     3.6990    -0.4560 H     1 <1>   0.0800 
 25 H       -1.2130     3.8900     1.1040 H     1 <1>   0.0800 
 26 H       -3.4180     3.3750     2.1580 H     1 <1>   0.0800 
 27 H       -4.2710     1.9060     1.7450 H     1 <1>   0.0800 
 28 H       -4.1160     3.1820     0.5710 H     1 <1>   0.0800 
 29 H       -1.3830     2.1050     2.8260 H     1 <1>   0.0800 
 30 H       -0.7050     0.8780     1.7950 H     1 <1>   0.0800 
 31 H       -2.2730     0.6390     2.5190 H     1 <1>   0.0800 
 32 H       -3.8890    -2.7870    -1.6660 H     1 <1>   0.0800 
 33 H       -0.3240    -1.7530    -1.0620 H     1 <1>   0.0800 
 34 H       -1.2510    -2.8690    -2.0640 H     1 <1>   0.0800 
 35 H        0.5470     2.2510     0.4860 H     1 <1>   0.0800 
 36 H       -0.2190     2.0100    -1.0620 H     1 <1>   0.0800 
 37 H       -3.1330    -4.2810    -0.1170 H     1 <1>   0.0800 
 38 H       -3.0570    -3.0760     1.1640 H     1 <1>   0.0800 
 39 H       -5.1950    -0.8430    -0.8170 H     1 <1>   0.0800 
 40 H       -4.5560    -1.1150     0.7720 H     1 <1>   0.0800 
 41 H        0.9240     4.6360    -0.0680 H     1 <1>   0.0800 
 42 H        0.1630     4.3890    -1.6240 H     1 <1>   0.0800 
 43 H        1.6630     3.5800    -1.2460 H     1 <1>   0.0800 
 44 H       -5.4690    -2.9290     2.1840 H     1 <1>   0.1500 
 45 H       -6.6760    -2.6510    -1.8840 H     1 <1>   0.1500 
 46 H       -7.2210    -4.5830     2.5020 H     1 <1>   0.1500 
 47 H       -8.3820    -4.3170    -1.4020 H     1 <1>   0.1500 
@<TRIPOS>BOND
  1   1   2  2   
  2   2   3  am  
  3   2   4  1   
  4   3   5  1   
  5   3  22  1   
  6   4   6  1   
  7   4   7  1   
  8   4   8  1   
  9   5   9  1   
 10   5  10  1   
 11   5  23  1   
 12   6  11  1   
 13   6  24  1   
 14   6  25  1   
 15   7  26  1   
 16   7  27  1   
 17   7  28  1   
 18   8  29  1   
 19   8  30  1   
 20   8  31  1   
 21   9  12  1   
 22   9  13  1   
 23   9  32  1   
 24  10  14  1   
 25  10  33  1   
 26  10  34  1   
 27  11  15  1   
 28  11  35  1   
 29  11  36  1   
 30  12  14  1   
 31  12  37  1   
 32  12  38  1   
 33  13  16  1   
 34  13  39  1   
 35  13  40  1   
 36  15  41  1   
 37  15  42  1   
 38  15  43  1   
 39  16  17  ar  
 40  16  18  ar  
 41  17  19  ar  
 42  17  44  1   
 43  18  20  ar  
 44  18  45  1   
 45  19  21  ar  
 46  19  46  1   
 47  20  21  ar  
 48  20  47  1   
@<TRIPOS>SUBSTRUCTURE
  1 ****   3 GROUP 4 **** **** 0

# MOE 2024.06 (io_trps.svl 2023.06)
