@<TRIPOS>MOLECULE
NONAME
45 46 1 0 0 
SMALL
USER_CHARGES


@<TRIPOS>ATOM
  1 O        0.4230    -0.2600     1.3130 O.2   1 <1>  -0.5700 
  2 C        1.3870    -0.6260     0.6670 C.2   1 <1>   0.5440 
  3 N        2.2590     0.3070     0.1520 N.am  1 <1>  -0.4940 
  4 C        1.6150    -2.0330     0.4380 C.ar  1 <1>   0.0860 
  5 C        2.2100     1.7190     0.2320 C.2   1 <1>  -0.0880 
  6 C        0.5560    -2.9380     0.4980 C.ar  1 <1>   0.1600 
  7 C        2.8700    -2.5670     0.1470 C.ar  1 <1>  -0.1500 
  8 N        3.2690     2.5060     0.5640 N.pl3 1 <1>   0.3140 
  9 C        1.1740     2.5620    -0.0010 C.2   1 <1>  -0.1810 
 10 N        0.6290    -4.2410     0.2890 N.ar  1 <1>  -0.6200 
 11 C        2.9630    -3.9190    -0.0710 C.ar  1 <1>  -0.1500 
 12 N        2.9450     3.8170     0.5390 N.2   1 <1>  -0.7070 
 13 C        4.6130     2.0620     0.9800 C.3   1 <1>   0.0960 
 14 C        1.6910     3.8350     0.2070 C.2   1 <1>   0.1390 
 15 C       -0.2530     2.2420    -0.4040 C.3   1 <1>  -0.0590 
 16 C        1.8320    -4.7300     0.0070 C.ar  1 <1>   0.4100 
 17 C        5.5020     1.7770    -0.2380 C.3   1 <1>  -0.1600 
 18 N        1.9330    -6.0880    -0.2080 N.pl3 1 <1>  -0.8380 
 19 C        6.8870     1.2760     0.1910 C.3   1 <1>  -0.1600 
 20 C        2.9310    -6.8990     0.5380 C.3   1 <1>   0.1290 
 21 C        0.7530    -6.8530    -0.7000 C.3   1 <1>   0.1290 
 22 C        7.7620     0.9730    -1.0280 C.3   1 <1>  -0.2400 
 23 H        3.0220    -0.0710    -0.4060 H     1 <1>   0.3700 
 24 H       -0.4200    -2.5480     0.7340 H     1 <1>   0.1500 
 25 H        3.7480    -1.9500     0.0970 H     1 <1>   0.1500 
 26 H        3.9040    -4.3760    -0.3100 H     1 <1>   0.1500 
 27 H        4.5070     1.1830     1.5890 H     1 <1>   0.0800 
 28 H        5.0500     2.8410     1.5800 H     1 <1>   0.0800 
 29 H        1.1230     4.7440     0.1060 H     1 <1>   0.1500 
 30 H       -0.2980     1.2820    -0.8840 H     1 <1>   0.0800 
 31 H       -0.6250     2.9870    -1.0840 H     1 <1>   0.0800 
 32 H       -0.8770     2.2180     0.4710 H     1 <1>   0.0800 
 33 H        5.6110     2.6840    -0.8090 H     1 <1>   0.0800 
 34 H        5.0330     1.0370    -0.8630 H     1 <1>   0.0800 
 35 H        6.7880     0.3830     0.7840 H     1 <1>   0.0800 
 36 H        7.3720     2.0260     0.7940 H     1 <1>   0.0800 
 37 H        3.5660    -6.2670     1.1340 H     1 <1>   0.0800 
 38 H        3.5380    -7.4540    -0.1560 H     1 <1>   0.0800 
 39 H        2.4260    -7.5870     1.1940 H     1 <1>   0.0800 
 40 H        0.1670    -6.2390    -1.3630 H     1 <1>   0.0800 
 41 H        0.1380    -7.1470     0.1330 H     1 <1>   0.0800 
 42 H        1.0760    -7.7270    -1.2350 H     1 <1>   0.0800 
 43 H        7.3150     0.2070    -1.6370 H     1 <1>   0.0800 
 44 H        8.7320     0.6330    -0.7100 H     1 <1>   0.0800 
 45 H        7.8930     1.8580    -1.6270 H     1 <1>   0.0800 
@<TRIPOS>BOND
  1   1   2  2   
  2   2   3  am  
  3   2   4  1   
  4   3   5  1   
  5   3  23  1   
  6   4   6  ar  
  7   4   7  ar  
  8   5   8  1   
  9   5   9  2   
 10   6  10  ar  
 11   6  24  1   
 12   7  11  ar  
 13   7  25  1   
 14   8  12  1   
 15   8  13  1   
 16   9  14  1   
 17   9  15  1   
 18  10  16  ar  
 19  11  16  ar  
 20  11  26  1   
 21  12  14  2   
 22  13  17  1   
 23  13  27  1   
 24  13  28  1   
 25  14  29  1   
 26  15  30  1   
 27  15  31  1   
 28  15  32  1   
 29  16  18  1   
 30  17  19  1   
 31  17  33  1   
 32  17  34  1   
 33  18  20  1   
 34  18  21  1   
 35  19  22  1   
 36  19  35  1   
 37  19  36  1   
 38  20  37  1   
 39  20  38  1   
 40  20  39  1   
 41  21  40  1   
 42  21  41  1   
 43  21  42  1   
 44  22  43  1   
 45  22  44  1   
 46  22  45  1   
@<TRIPOS>SUBSTRUCTURE
  1 ****   3 GROUP 4 **** **** 0

# MOE 2024.06 (io_trps.svl 2023.06)
