@<TRIPOS>MOLECULE
NONAME
45 47 1 0 0 
SMALL
USER_CHARGES


@<TRIPOS>ATOM
  1 O        0.9170     1.0130    -1.8950 O.2   1 <1>  -0.5700 
  2 C        0.7080     2.0620    -1.3370 C.2   1 <1>   0.5690 
  3 N        0.0850     2.0780    -0.1320 N.am  1 <1>  -0.7300 
  4 C        1.1380     3.3790    -2.0020 C.3   1 <1>   0.2700 
  5 C       -0.0720     3.2840     0.7130 C.3   1 <1>   0.2200 
  6 N        1.1980     4.5630    -1.0540 N.pl3 1 <1>  -0.8380 
  7 C        0.0340     4.5920    -0.1130 C.3   1 <1>   0.2090 
  8 C       -1.4150     3.1830     1.4330 C.3   1 <1>  -0.2400 
  9 C        2.3880     5.1090    -0.7060 C.ar  1 <1>   0.4100 
 10 N        3.3570     4.2530    -0.4630 N.ar  1 <1>  -0.6200 
 11 C        2.5700     6.5130    -0.5960 C.ar  1 <1>  -0.1430 
 12 C        4.5270     4.7240    -0.0770 C.ar  1 <1>   0.7710 
 13 C        3.7840     6.9630    -0.1670 C.ar  1 <1>   0.2180 
 14 C        1.4260     7.4570    -0.9850 C.3   1 <1>  -0.0960 
 15 N        4.7410     6.0380     0.0810 N.ar  1 <1>  -0.1790 
 16 N        5.5370     3.8560     0.1730 N.pl3 1 <1>  -0.8380 
 17 C        4.1740     8.4200     0.0550 C.3   1 <1>  -0.0970 
 18 C        6.9440     4.1470     0.5590 C.3   1 <1>   0.2090 
 19 C        5.3410     2.3830     0.0370 C.3   1 <1>   0.2090 
 20 C        7.6840     2.8290     0.3770 C.3   1 <1>  -0.1600 
 21 C        6.6180     1.7590     0.5810 C.3   1 <1>  -0.1600 
 22 H       -0.1480     1.1740     0.2820 H     1 <1>   0.3700 
 23 H        0.4360     3.5980    -2.7850 H     1 <1>   0.0800 
 24 H        2.0970     3.2260    -2.4630 H     1 <1>   0.0800 
 25 H        0.7180     3.2850     1.4450 H     1 <1>   0.0800 
 26 H        0.1270     5.4220     0.5640 H     1 <1>   0.0800 
 27 H       -0.8700     4.7310    -0.6820 H     1 <1>   0.0800 
 28 H       -2.2220     3.1500     0.7230 H     1 <1>   0.0800 
 29 H       -1.5550     4.0340     2.0740 H     1 <1>   0.0800 
 30 H       -1.4440     2.2970     2.0420 H     1 <1>   0.0800 
 31 H        1.7910     8.3960    -1.3560 H     1 <1>   0.0800 
 32 H        0.7890     7.6410    -0.1380 H     1 <1>   0.0800 
 33 H        0.8300     7.0270    -1.7720 H     1 <1>   0.0800 
 34 H        5.6680     6.2870     0.3950 H     1 <1>   0.4570 
 35 H        3.3120     9.0570     0.1240 H     1 <1>   0.0800 
 36 H        4.7870     8.7670    -0.7580 H     1 <1>   0.0800 
 37 H        4.7220     8.5280     0.9740 H     1 <1>   0.0800 
 38 H        7.3810     4.9120    -0.0620 H     1 <1>   0.0800 
 39 H        6.9800     4.4400     1.5950 H     1 <1>   0.0800 
 40 H        4.4770     2.0480     0.5870 H     1 <1>   0.0800 
 41 H        5.2170     2.1340    -1.0040 H     1 <1>   0.0800 
 42 H        8.0670     2.7730    -0.6270 H     1 <1>   0.0800 
 43 H        8.5020     2.7270     1.0690 H     1 <1>   0.0800 
 44 H        6.4910     1.5590     1.6310 H     1 <1>   0.0800 
 45 H        6.8560     0.8390     0.0770 H     1 <1>   0.0800 
@<TRIPOS>BOND
  1   1   2  2   
  2   2   3  am  
  3   2   4  1   
  4   3   5  1   
  5   3  22  1   
  6   4   6  1   
  7   4  23  1   
  8   4  24  1   
  9   5   7  1   
 10   5   8  1   
 11   5  25  1   
 12   6   7  1   
 13   6   9  1   
 14   7  26  1   
 15   7  27  1   
 16   8  28  1   
 17   8  29  1   
 18   8  30  1   
 19   9  10  ar  
 20   9  11  ar  
 21  10  12  ar  
 22  11  13  ar  
 23  11  14  1   
 24  12  15  ar  
 25  12  16  1   
 26  13  15  ar  
 27  13  17  1   
 28  14  31  1   
 29  14  32  1   
 30  14  33  1   
 31  15  34  1   
 32  16  18  1   
 33  16  19  1   
 34  17  35  1   
 35  17  36  1   
 36  17  37  1   
 37  18  20  1   
 38  18  38  1   
 39  18  39  1   
 40  19  21  1   
 41  19  40  1   
 42  19  41  1   
 43  20  21  1   
 44  20  42  1   
 45  20  43  1   
 46  21  44  1   
 47  21  45  1   
@<TRIPOS>SUBSTRUCTURE
  1 ****  10 GROUP 4 **** **** 0

# MOE 2024.06 (io_trps.svl 2023.06)
