@<TRIPOS>MOLECULE
NONAME
50 51 1 0 0 
SMALL
USER_CHARGES


@<TRIPOS>ATOM
  1 O        0.2500    -0.0120     0.1650 O.co2 1 <1>  -0.9000 
  2 C        1.2700     0.0640    -0.5140 C.2   1 <1>   0.9060 
  3 O        1.3740    -0.3890    -1.6610 O.co2 1 <1>  -0.9000 
  4 C        2.4910     0.7140     0.0980 C.3   1 <1>  -0.1860 
  5 C        3.6660    -0.2660     0.0460 C.3   1 <1>   0.2000 
  6 C        2.8330     2.0770    -0.5590 C.3   1 <1>  -0.1600 
  7 O        3.9570    -0.5370    -1.2810 O.3   1 <1>  -0.6800 
  8 C        4.9170     0.3520     0.7000 C.3   1 <1>   0.3430 
  9 C        4.3360     2.3010    -0.7560 C.3   1 <1>   0.3430 
 10 N        5.0820     1.8390     0.4540 N.4   1 <1>  -0.9590 
 11 C        6.5170     2.2000     0.3800 C.3   1 <1>   0.4860 
 12 C        6.6580     3.7100     0.4540 C.ar  1 <1>  -0.1430 
 13 C        6.9760     4.4430    -0.6820 C.ar  1 <1>  -0.1500 
 14 C        6.4760     4.3710     1.6600 C.ar  1 <1>  -0.1500 
 15 C        7.1070     5.8190    -0.6170 C.ar  1 <1>  -0.1500 
 16 C        6.6060     5.7460     1.7260 C.ar  1 <1>  -0.1500 
 17 C        6.9220     6.4790     0.5950 C.ar  1 <1>   0.0820 
 18 O        7.0360     7.8200     0.7520 O.3   1 <1>  -0.3620 
 19 C        7.4990     8.6510    -0.2850 C.3   1 <1>   0.1200 
 20 C        7.5850    10.0730     0.2790 C.3   1 <1>   0.3430 
 21 N        8.0520    11.0830    -0.7340 N.4   1 <1>  -0.9590 
 22 C        9.4780    10.8620    -1.1400 C.3   1 <1>   0.2630 
 23 C        7.8830    12.4650    -0.1880 C.3   1 <1>   0.2630 
 24 H        2.2560     0.8870     1.1320 H     1 <1>   0.0800 
 25 H        3.4070    -1.2010     0.5160 H     1 <1>   0.0800 
 26 H        2.4120     2.8740     0.0270 H     1 <1>   0.0800 
 27 H        2.3710     2.1280    -1.5300 H     1 <1>   0.0800 
 28 H        3.0640    -0.6610    -1.7340 H     1 <1>   0.4000 
 29 H        5.7720    -0.1860     0.3280 H     1 <1>   0.0800 
 30 H        4.8590     0.1840     1.7620 H     1 <1>   0.0800 
 31 H        4.5210     3.3460    -0.9440 H     1 <1>   0.0800 
 32 H        4.6630     1.7360    -1.6150 H     1 <1>   0.0800 
 33 H        4.6640     2.3440     1.2420 H     1 <1>   0.4500 
 34 H        7.0520     1.7570     1.2040 H     1 <1>   0.0800 
 35 H        6.9430     1.8310    -0.5390 H     1 <1>   0.0800 
 36 H        7.1270     3.9490    -1.6280 H     1 <1>   0.1500 
 37 H        6.2380     3.8290     2.5610 H     1 <1>   0.1500 
 38 H        7.3520     6.3540    -1.5150 H     1 <1>   0.1500 
 39 H        6.4660     6.2600     2.6620 H     1 <1>   0.1500 
 40 H        8.4660     8.2910    -0.5890 H     1 <1>   0.0800 
 41 H        6.7920     8.5990    -1.0940 H     1 <1>   0.0800 
 42 H        8.2570    10.0720     1.1220 H     1 <1>   0.0800 
 43 H        6.6050    10.3510     0.6310 H     1 <1>   0.0800 
 44 H        7.4530    11.0030    -1.5710 H     1 <1>   0.4500 
 45 H       10.1260    10.9230    -0.2810 H     1 <1>   0.0800 
 46 H        9.7830    11.6100    -1.8540 H     1 <1>   0.0800 
 47 H        9.5970     9.8920    -1.5940 H     1 <1>   0.0800 
 48 H        8.4880    12.5970     0.6950 H     1 <1>   0.0800 
 49 H        6.8510    12.6420     0.0730 H     1 <1>   0.0800 
 50 H        8.1800    13.1980    -0.9210 H     1 <1>   0.0800 
@<TRIPOS>BOND
  1   1   2  ar  
  2   2   3  ar  
  3   2   4  1   
  4   4   5  1   
  5   4   6  1   
  6   4  24  1   
  7   5   7  1   
  8   5   8  1   
  9   5  25  1   
 10   6   9  1   
 11   6  26  1   
 12   6  27  1   
 13   7  28  1   
 14   8  10  1   
 15   8  29  1   
 16   8  30  1   
 17   9  10  1   
 18   9  31  1   
 19   9  32  1   
 20  10  11  1   
 21  10  33  1   
 22  11  12  1   
 23  11  34  1   
 24  11  35  1   
 25  12  13  ar  
 26  12  14  ar  
 27  13  15  ar  
 28  13  36  1   
 29  14  16  ar  
 30  14  37  1   
 31  15  17  ar  
 32  15  38  1   
 33  16  17  ar  
 34  16  39  1   
 35  17  18  1   
 36  18  19  1   
 37  19  20  1   
 38  19  40  1   
 39  19  41  1   
 40  20  21  1   
 41  20  42  1   
 42  20  43  1   
 43  21  22  1   
 44  21  23  1   
 45  21  44  1   
 46  22  45  1   
 47  22  46  1   
 48  22  47  1   
 49  23  48  1   
 50  23  49  1   
 51  23  50  1   
@<TRIPOS>SUBSTRUCTURE
  1 ****  12 GROUP 4 **** **** 0

# MOE 2024.06 (io_trps.svl 2023.06)
