@<TRIPOS>MOLECULE
NONAME
49 51 1 0 0 
SMALL
USER_CHARGES


@<TRIPOS>ATOM
  1 O       -2.4490    -0.4260     0.5820 O.2   1 <1>  -0.5700 
  2 C       -1.8670    -1.4940     0.4610 C.2   1 <1>   0.7670 
  3 N       -0.9980    -1.8440     1.4570 N.2   1 <1>  -0.6610 
  4 C       -2.0680    -2.3370    -0.6790 C.2   1 <1>  -0.1240 
  5 C       -0.3650    -2.9470     1.3340 C.2   1 <1>   0.4390 
  6 C       -1.3680    -3.5000    -0.7570 C.2   1 <1>  -0.0380 
  7 C       -3.0710    -1.8840    -1.7480 C.3   1 <1>   0.0390 
  8 N       -0.5120    -3.7820     0.2710 N.pl3 1 <1>  -0.5500 
  9 C        0.6040    -3.3790     2.4060 C.3   1 <1>  -0.1790 
 10 C       -1.4250    -4.5520    -1.8550 C.3   1 <1>  -0.1020 
 11 C       -4.4340    -2.5420    -1.5550 C.2   1 <1>   0.5690 
 12 O       -4.5690    -3.6280    -2.0700 O.2   1 <1>  -0.5700 
 13 N       -5.4620    -1.9610    -0.8440 N.am  1 <1>  -0.6600 
 14 C       -5.4470    -0.6010    -0.2300 C.3   1 <1>   0.1400 
 15 C       -6.7100    -2.7290    -0.5600 C.3   1 <1>   0.1400 
 16 C       -6.6620     0.2040    -0.6990 C.3   1 <1>  -0.1600 
 17 C       -7.9340    -1.9390    -1.0260 C.3   1 <1>  -0.1600 
 18 C       -7.9820    -0.5290    -0.4350 C.3   1 <1>   0.4180 
 19 O       -9.0080     0.1300    -1.1330 O.3   1 <1>  -0.5600 
 20 C       -8.3130    -0.5740     1.0600 C.2   1 <1>  -0.2880 
 21 C       -9.5380     1.2910    -0.5590 C.3   1 <1>   0.1200 
 22 C       -9.3310     0.0820     1.6220 C.2   1 <1>  -0.2760 
 23 C      -10.2280     0.9630     0.7720 C.3   1 <1>  -0.0220 
 24 C       -9.6890     0.0140     3.0960 C.3   1 <1>  -0.1020 
 25 H       -2.7070    -2.1650    -2.7170 H     1 <1>   0.0800 
 26 H       -3.1540    -0.8170    -1.7840 H     1 <1>   0.0800 
 27 H        0.0290    -4.6480     0.2610 H     1 <1>   0.4000 
 28 H        0.2910    -4.3160     2.8270 H     1 <1>   0.0800 
 29 H        0.6370    -2.6440     3.1900 H     1 <1>   0.0800 
 30 H        1.5890    -3.4820     1.9890 H     1 <1>   0.0800 
 31 H       -0.4490    -4.6890    -2.2840 H     1 <1>   0.0800 
 32 H       -2.1020    -4.2870    -2.6440 H     1 <1>   0.0800 
 33 H       -1.7590    -5.4870    -1.4420 H     1 <1>   0.0800 
 34 H       -4.5680    -0.0520    -0.4970 H     1 <1>   0.0800 
 35 H       -5.4550    -0.6980     0.8430 H     1 <1>   0.0800 
 36 H       -6.7690    -2.9220     0.4970 H     1 <1>   0.0800 
 37 H       -6.6990    -3.6820    -1.0610 H     1 <1>   0.0800 
 38 H       -6.5630     0.3870    -1.7530 H     1 <1>   0.0800 
 39 H       -6.6610     1.1470    -0.1860 H     1 <1>   0.0800 
 40 H       -8.8250    -2.4700    -0.7470 H     1 <1>   0.0800 
 41 H       -7.9030    -1.8750    -2.0990 H     1 <1>   0.0800 
 42 H       -7.6440    -1.1950     1.6260 H     1 <1>   0.1500 
 43 H      -10.2450     1.7080    -1.2530 H     1 <1>   0.0800 
 44 H       -8.7410     1.9970    -0.4090 H     1 <1>   0.0800 
 45 H      -11.1600     0.4610     0.5840 H     1 <1>   0.0800 
 46 H      -10.4390     1.8850     1.2840 H     1 <1>   0.0800 
 47 H       -9.6320     0.9920     3.5380 H     1 <1>   0.0800 
 48 H       -9.0100    -0.6370     3.6180 H     1 <1>   0.0800 
 49 H      -10.6870    -0.3670     3.2160 H     1 <1>   0.0800 
@<TRIPOS>BOND
  1   1   2  2   
  2   2   3  1   
  3   2   4  1   
  4   3   5  2   
  5   4   6  2   
  6   4   7  1   
  7   5   8  1   
  8   5   9  1   
  9   6   8  1   
 10   6  10  1   
 11   7  11  1   
 12   7  25  1   
 13   7  26  1   
 14   8  27  1   
 15   9  28  1   
 16   9  29  1   
 17   9  30  1   
 18  10  31  1   
 19  10  32  1   
 20  10  33  1   
 21  11  12  2   
 22  11  13  am  
 23  13  14  1   
 24  13  15  1   
 25  14  16  1   
 26  14  34  1   
 27  14  35  1   
 28  15  17  1   
 29  15  36  1   
 30  15  37  1   
 31  16  18  1   
 32  16  38  1   
 33  16  39  1   
 34  17  18  1   
 35  17  40  1   
 36  17  41  1   
 37  18  19  1   
 38  18  20  1   
 39  19  21  1   
 40  20  22  2   
 41  20  42  1   
 42  21  23  1   
 43  21  43  1   
 44  21  44  1   
 45  22  23  1   
 46  22  24  1   
 47  23  45  1   
 48  23  46  1   
 49  24  47  1   
 50  24  48  1   
 51  24  49  1   
@<TRIPOS>SUBSTRUCTURE
  1 ****  13 GROUP 4 **** **** 0

# MOE 2024.06 (io_trps.svl 2023.06)
