@<TRIPOS>MOLECULE
NONAME
50 52 1 0 0 
SMALL
USER_CHARGES


@<TRIPOS>ATOM
  1 O        1.9980     0.5960     2.4730 O.co2 1 <1>  -0.9000 
  2 C        1.8620     0.0220     1.3880 C.2   1 <1>   0.9060 
  3 O        1.4740    -1.1510     1.3070 O.co2 1 <1>  -0.9000 
  4 C        2.3250     0.6990     0.0980 C.3   1 <1>  -0.1060 
  5 C        3.5980    -0.1050    -0.2510 C.3   1 <1>   0.2000 
  6 C        2.6970     2.2010     0.2970 C.3   1 <1>  -0.1600 
  7 C        1.2180     0.5980    -0.9950 C.3   1 <1>  -0.0160 
  8 O        3.2790    -1.2620    -0.9390 O.3   1 <1>  -0.6800 
  9 C        4.6190     0.7110    -1.0460 C.3   1 <1>   0.2090 
 10 C        4.1310     2.3930     0.7940 C.3   1 <1>   0.2090 
 11 C        0.0550     1.5690    -0.8040 C.ar  1 <1>  -0.1440 
 12 N        5.1150     1.8960    -0.2450 N.pl3 1 <1>  -0.8380 
 13 C       -0.8500     1.3790     0.2290 C.ar  1 <1>  -0.1500 
 14 C       -0.1140     2.6460    -1.6610 C.ar  1 <1>  -0.1500 
 15 C        6.3490     2.4510    -0.3420 C.ar  1 <1>   0.7710 
 16 C       -1.9050     2.2560     0.4080 C.ar  1 <1>  -0.1500 
 17 C       -1.1700     3.5250    -1.4850 C.ar  1 <1>  -0.1500 
 18 N        6.7090     3.4180     0.4920 N.ar  1 <1>  -0.6200 
 19 N        7.1830     2.0010    -1.2970 N.ar  1 <1>  -0.1790 
 20 C       -2.0670     3.3310    -0.4490 C.ar  1 <1>  -0.1500 
 21 C        7.9110     3.9300     0.3730 C.ar  1 <1>   0.4100 
 22 C        8.4300     2.5090    -1.4550 C.ar  1 <1>   0.2110 
 23 N        8.1970     4.8980     1.2550 N.pl3 1 <1>  -0.8690 
 24 C        8.8160     3.4940    -0.6110 C.ar  1 <1>  -0.1500 
 25 C        9.4420     5.6620     1.4790 C.3   1 <1>   0.2090 
 26 C        9.3040     7.0130     0.7930 C.3   1 <1>  -0.2400 
 27 H        4.0840    -0.4230     0.6590 H     1 <1>   0.0800 
 28 H        2.0150     2.6500     0.9990 H     1 <1>   0.0800 
 29 H        2.5970     2.7450    -0.6250 H     1 <1>   0.0800 
 30 H        1.6610     0.7750    -1.9580 H     1 <1>   0.0800 
 31 H        0.8140    -0.4000    -1.0220 H     1 <1>   0.0800 
 32 H        2.5930    -1.7200    -0.3830 H     1 <1>   0.4000 
 33 H        4.1500     1.0610    -1.9500 H     1 <1>   0.0800 
 34 H        5.4310     0.0520    -1.2930 H     1 <1>   0.0800 
 35 H        4.2660     1.8520     1.7180 H     1 <1>   0.0800 
 36 H        4.2830     3.4390     0.9980 H     1 <1>   0.0800 
 37 H       -0.7320     0.5450     0.9030 H     1 <1>   0.1500 
 38 H        0.5760     2.8070    -2.4690 H     1 <1>   0.1500 
 39 H       -2.5940     2.0980     1.2180 H     1 <1>   0.1500 
 40 H       -1.2920     4.3590    -2.1520 H     1 <1>   0.1500 
 41 H        6.8040     1.2690    -1.8850 H     1 <1>   0.4570 
 42 H       -2.8860     4.0120    -0.3080 H     1 <1>   0.1500 
 43 H        9.0660     2.1210    -2.2350 H     1 <1>   0.1500 
 44 H        7.4310     5.1510     1.8880 H     1 <1>   0.4000 
 45 H        9.7850     3.9500    -0.6780 H     1 <1>   0.1500 
 46 H        9.5870     5.8000     2.5380 H     1 <1>   0.0800 
 47 H       10.2930     5.1290     1.0930 H     1 <1>   0.0800 
 48 H        8.4710     7.5560     1.2010 H     1 <1>   0.0800 
 49 H        9.1610     6.8840    -0.2650 H     1 <1>   0.0800 
 50 H       10.1970     7.5920     0.9490 H     1 <1>   0.0800 
@<TRIPOS>BOND
  1   1   2  ar  
  2   2   3  ar  
  3   2   4  1   
  4   4   5  1   
  5   4   6  1   
  6   4   7  1   
  7   5   8  1   
  8   5   9  1   
  9   5  27  1   
 10   6  10  1   
 11   6  28  1   
 12   6  29  1   
 13   7  11  1   
 14   7  30  1   
 15   7  31  1   
 16   8  32  1   
 17   9  12  1   
 18   9  33  1   
 19   9  34  1   
 20  10  12  1   
 21  10  35  1   
 22  10  36  1   
 23  11  13  ar  
 24  11  14  ar  
 25  12  15  1   
 26  13  16  ar  
 27  13  37  1   
 28  14  17  ar  
 29  14  38  1   
 30  15  18  ar  
 31  15  19  ar  
 32  16  20  ar  
 33  16  39  1   
 34  17  20  ar  
 35  17  40  1   
 36  18  21  ar  
 37  19  22  ar  
 38  19  41  1   
 39  20  42  1   
 40  21  23  1   
 41  21  24  ar  
 42  22  24  ar  
 43  22  43  1   
 44  23  25  1   
 45  23  44  1   
 46  24  45  1   
 47  25  26  1   
 48  25  46  1   
 49  25  47  1   
 50  26  48  1   
 51  26  49  1   
 52  26  50  1   
@<TRIPOS>SUBSTRUCTURE
  1 ****  10 GROUP 4 **** **** 0

# MOE 2024.06 (io_trps.svl 2023.06)
