@<TRIPOS>MOLECULE
NONAME
42 44 1 0 0 
SMALL
USER_CHARGES


@<TRIPOS>ATOM
  1 CL       0.2180     0.2890     1.1740 Cl    1 <1>  -0.1860 
  2 C        1.8770     0.0830     0.6490 C.ar  1 <1>   0.1680 
  3 C        2.3430    -1.1710     0.2710 C.ar  1 <1>   0.0730 
  4 C        2.6920     1.1970     0.6260 C.ar  1 <1>  -0.1590 
  5 O        1.4820    -2.2270     0.3190 O.3   1 <1>  -0.3700 
  6 C        3.6700    -1.2840    -0.1370 C.ar  1 <1>  -0.1590 
  7 C        4.0160     1.0900     0.2140 C.ar  1 <1>   0.1080 
  8 C        1.9100    -3.5310    -0.0050 C.3   1 <1>   0.0300 
  9 C        4.4860    -0.1660    -0.1620 C.ar  1 <1>  -0.1590 
 10 N        4.8530     2.2260     0.1690 N.am  1 <1>  -0.4830 
 11 C        6.1930     2.2980     0.4160 C.2   1 <1>   0.5630 
 12 C        4.3220     3.5450    -0.2260 C.3   1 <1>   0.1310 
 13 O        6.9300     1.4110     0.7610 O.2   1 <1>  -0.5760 
 14 C        6.7120     3.6920     0.2060 C.3   1 <1>  -0.1080 
 15 C        5.5690     4.3780    -0.5640 C.3   1 <1>  -0.0290 
 16 C        5.4110     5.8650    -0.2740 C.2   1 <1>   0.8490 
 17 O        4.3180     6.3390    -0.1140 O.2   1 <1>  -0.5760 
 18 N        6.5230     6.6460    -0.2180 N.pl3 1 <1>  -0.7340 
 19 C        6.5750     7.9610     0.0150 C.cat 1 <1>   1.0680 
 20 N        5.5420     8.7550     0.2170 N.pl3 1 <1>  -0.7040 
 21 N        7.7040     8.6710     0.0760 N.pl3 1 <1>  -0.7680 
 22 C        5.9980    10.0350     0.4160 C.2   1 <1>   0.1920 
 23 C        7.3400     9.9850     0.3290 C.2   1 <1>   0.1920 
 24 C        9.1260     8.2570    -0.0760 C.3   1 <1>   0.2660 
 25 H        2.2840     2.1390     0.9370 H     1 <1>   0.1410 
 26 H        4.0850    -2.2270    -0.4360 H     1 <1>   0.1410 
 27 H        1.0750    -4.1970     0.1210 H     1 <1>   0.0710 
 28 H        2.7060    -3.8130     0.6610 H     1 <1>   0.0710 
 29 H        2.2390    -3.5470    -1.0290 H     1 <1>   0.0710 
 30 H        5.5070    -0.2750    -0.4810 H     1 <1>   0.1410 
 31 H        3.7820     3.9610     0.6080 H     1 <1>   0.0710 
 32 H        3.6650     3.4520    -1.0750 H     1 <1>   0.0710 
 33 H        7.6290     3.6680    -0.3550 H     1 <1>   0.0710 
 34 H        6.8730     4.1330     1.1730 H     1 <1>   0.0710 
 35 H        5.7490     4.2630    -1.6180 H     1 <1>   0.0710 
 36 H        7.4120     6.1920    -0.3680 H     1 <1>   0.4440 
 37 H        4.5760     8.4050     0.2130 H     1 <1>   0.4440 
 38 H        5.3480    10.8770     0.6030 H     1 <1>   0.1410 
 39 H        8.0540    10.7900     0.4290 H     1 <1>   0.1410 
 40 H        9.2130     7.1900    -0.1790 H     1 <1>   0.0710 
 41 H        9.6890     8.5640     0.7900 H     1 <1>   0.0710 
 42 H        9.5510     8.7270    -0.9470 H     1 <1>   0.0710 
@<TRIPOS>BOND
  1   1   2  1   
  2   2   3  ar  
  3   2   4  ar  
  4   3   5  1   
  5   3   6  ar  
  6   4   7  ar  
  7   4  25  1   
  8   5   8  1   
  9   6   9  ar  
 10   6  26  1   
 11   7   9  ar  
 12   7  10  1   
 13   8  27  1   
 14   8  28  1   
 15   8  29  1   
 16   9  30  1   
 17  10  11  am  
 18  10  12  1   
 19  11  13  2   
 20  11  14  1   
 21  12  15  1   
 22  12  31  1   
 23  12  32  1   
 24  14  15  1   
 25  14  33  1   
 26  14  34  1   
 27  15  16  1   
 28  15  35  1   
 29  16  17  2   
 30  16  18  1   
 31  18  19  ar  
 32  18  36  1   
 33  19  20  ar  
 34  19  21  ar  
 35  20  22  1   
 36  20  37  1   
 37  21  23  1   
 38  21  24  1   
 39  22  23  2   
 40  22  38  1   
 41  23  39  1   
 42  24  40  1   
 43  24  41  1   
 44  24  42  1   
@<TRIPOS>SUBSTRUCTURE
  1 ****  12 GROUP 4 **** **** 0

# MOE 2024.06 (io_trps.svl 2023.06)
