@<TRIPOS>MOLECULE
NONAME
45 47 1 0 0 
SMALL
USER_CHARGES


@<TRIPOS>ATOM
  1 F       -0.3460    -1.2420     2.5700 F     1 <1>  -0.1900 
  2 C       -0.4940    -2.3430     1.8830 C.ar  1 <1>   0.1900 
  3 C       -1.1620    -2.2910     0.6750 C.ar  1 <1>  -0.1500 
  4 C        0.0220    -3.5190     2.3910 C.ar  1 <1>  -0.1500 
  5 C       -1.3150    -3.4620    -0.0480 C.ar  1 <1>  -0.1500 
  6 C       -0.1380    -4.6840     1.6580 C.ar  1 <1>  -0.1500 
  7 C       -0.8050    -4.6590     0.4390 C.ar  1 <1>  -0.1430 
  8 C       -0.9830    -5.9390    -0.3620 C.3   1 <1>  -0.0160 
  9 C       -2.3300    -6.5910    -0.0350 C.3   1 <1>  -0.0990 
 10 C       -2.5130    -7.8730    -0.8140 C.2   1 <1>   0.5690 
 11 O       -2.8910    -7.8190    -1.9570 O.2   1 <1>  -0.5700 
 12 N       -2.2500    -9.0520    -0.2020 N.am  1 <1>  -0.7300 
 13 C       -2.3460   -10.3820    -0.8480 C.3   1 <1>   0.2200 
 14 C       -3.5790   -11.1400    -0.3730 C.3   1 <1>  -0.0800 
 15 C       -1.2440   -11.2730    -0.2950 C.3   1 <1>   0.1200 
 16 C       -3.1050   -11.7900     0.9330 C.3   1 <1>   0.1200 
 17 C       -4.8700   -10.3100    -0.2390 C.3   1 <1>  -0.0170 
 18 O       -1.7100   -11.6870     0.9520 O.3   1 <1>  -0.5600 
 19 C       -6.0450   -11.1940     0.1470 C.ar  1 <1>  -0.1430 
 20 C       -6.7290   -11.9400    -0.7910 C.ar  1 <1>  -0.1500 
 21 C       -6.4880   -11.3000     1.4500 C.ar  1 <1>  -0.1500 
 22 C       -7.7890   -12.7370    -0.3920 C.ar  1 <1>   0.1600 
 23 C       -7.5590   -12.1280     1.7440 C.ar  1 <1>   0.1600 
 24 N       -8.2190   -12.8510     0.8540 N.ar  1 <1>  -0.6200 
 25 H       -1.5500    -1.3560     0.3130 H     1 <1>   0.1500 
 26 H        0.5360    -3.5190     3.3350 H     1 <1>   0.1500 
 27 H       -1.8330    -3.4390    -0.9920 H     1 <1>   0.1500 
 28 H        0.2600    -5.6080     2.0410 H     1 <1>   0.1500 
 29 H       -0.9370    -5.7170    -1.4140 H     1 <1>   0.0800 
 30 H       -0.1830    -6.6230    -0.1390 H     1 <1>   0.0800 
 31 H       -3.1270    -5.9180    -0.2940 H     1 <1>   0.0800 
 32 H       -2.3940    -6.7930     1.0180 H     1 <1>   0.0800 
 33 H       -1.9530    -9.0900     0.7750 H     1 <1>   0.3700 
 34 H       -2.3010   -10.2900    -1.9210 H     1 <1>   0.0800 
 35 H       -3.7650   -11.9330    -1.0750 H     1 <1>   0.0800 
 36 H       -0.3050   -10.7600    -0.1830 H     1 <1>   0.0800 
 37 H       -1.1140   -12.1490    -0.9080 H     1 <1>   0.0800 
 38 H       -3.3810   -12.8290     0.9830 H     1 <1>   0.0800 
 39 H       -3.4810   -11.2720     1.7980 H     1 <1>   0.0800 
 40 H       -5.0810    -9.8250    -1.1760 H     1 <1>   0.0800 
 41 H       -4.7480    -9.5390     0.5010 H     1 <1>   0.0800 
 42 H       -6.4490   -11.9080    -1.8280 H     1 <1>   0.1500 
 43 H       -6.0130   -10.7480     2.2400 H     1 <1>   0.1500 
 44 H       -8.3110   -13.3120    -1.1380 H     1 <1>   0.1500 
 45 H       -7.8910   -12.1980     2.7660 H     1 <1>   0.1500 
@<TRIPOS>BOND
  1   1   2  1   
  2   2   3  ar  
  3   2   4  ar  
  4   3   5  ar  
  5   3  25  1   
  6   4   6  ar  
  7   4  26  1   
  8   5   7  ar  
  9   5  27  1   
 10   6   7  ar  
 11   6  28  1   
 12   7   8  1   
 13   8   9  1   
 14   8  29  1   
 15   8  30  1   
 16   9  10  1   
 17   9  31  1   
 18   9  32  1   
 19  10  11  2   
 20  10  12  am  
 21  12  13  1   
 22  12  33  1   
 23  13  14  1   
 24  13  15  1   
 25  13  34  1   
 26  14  16  1   
 27  14  17  1   
 28  14  35  1   
 29  15  18  1   
 30  15  36  1   
 31  15  37  1   
 32  16  18  1   
 33  16  38  1   
 34  16  39  1   
 35  17  19  1   
 36  17  40  1   
 37  17  41  1   
 38  19  20  ar  
 39  19  21  ar  
 40  20  22  ar  
 41  20  42  1   
 42  21  23  ar  
 43  21  43  1   
 44  22  24  ar  
 45  22  44  1   
 46  23  24  ar  
 47  23  45  1   
@<TRIPOS>SUBSTRUCTURE
  1 ****  12 GROUP 4 **** **** 0

# MOE 2024.06 (io_trps.svl 2023.06)
