@<TRIPOS>MOLECULE
NONAME
39 40 1 0 0 
SMALL
USER_CHARGES


@<TRIPOS>ATOM
  1 S       -0.0830     0.4230    -0.5550 S.o2  1 <1>   1.3330 
  2 O       -0.6400    -0.9090    -0.6360 O.2   1 <1>  -0.6500 
  3 O       -0.1510     1.2770    -1.7200 O.2   1 <1>  -0.6500 
  4 N        1.5380     0.2770    -0.0620 N.am  1 <1>  -0.8490 
  5 C       -0.8790     1.2310     0.8430 C.3   1 <1>  -0.0550 
  6 C        1.9900    -1.1070     0.1080 C.3   1 <1>   0.1160 
  7 C        2.4880     1.0310    -0.8890 C.3   1 <1>   0.1160 
  8 C       -0.6610     2.7450     1.0860 C.3   1 <1>  -0.0800 
  9 C       -1.1090     3.6410    -0.0800 C.3   1 <1>   0.2000 
 10 C        0.7790     3.1710     1.4150 C.3   1 <1>   0.2090 
 11 O       -1.8230     4.6980     0.4640 O.3   1 <1>  -0.6800 
 12 C        0.1730     4.2100    -0.6860 C.3   1 <1>   0.2090 
 13 N        1.1350     4.2420     0.4440 N.pl3 1 <1>  -0.8380 
 14 C        2.4330     4.6930     0.2900 C.ar  1 <1>   0.4100 
 15 N        3.3950     3.9960     0.8850 N.ar  1 <1>  -0.6200 
 16 C        2.6970     5.8440    -0.4510 C.ar  1 <1>  -0.1500 
 17 C        4.6270     4.4570     0.7500 C.ar  1 <1>   0.1600 
 18 C        3.9850     6.3080    -0.5870 C.ar  1 <1>  -0.1500 
 19 C        4.9930     5.5920     0.0390 C.ar  1 <1>   0.0730 
 20 C        6.3620     6.0020    -0.0340 C.1   1 <1>   0.4840 
 21 N        7.4530     6.3270    -0.0920 N.1   1 <1>  -0.5570 
 22 H       -1.9360     1.0870     0.7310 H     1 <1>   0.0800 
 23 H       -0.5960     0.7050     1.7340 H     1 <1>   0.0800 
 24 H        2.9980    -1.1270     0.4840 H     1 <1>   0.0800 
 25 H        1.9520    -1.6310    -0.8330 H     1 <1>   0.0800 
 26 H        1.3550    -1.6180     0.8130 H     1 <1>   0.0800 
 27 H        3.4760     0.9740    -0.4670 H     1 <1>   0.0800 
 28 H        2.2050     2.0680    -0.9300 H     1 <1>   0.0800 
 29 H        2.5050     0.6390    -1.8920 H     1 <1>   0.0800 
 30 H       -1.2610     2.9770     1.9490 H     1 <1>   0.0800 
 31 H       -1.7350     3.1490    -0.8050 H     1 <1>   0.0800 
 32 H        1.4690     2.3510     1.3450 H     1 <1>   0.0800 
 33 H        0.8350     3.5710     2.4130 H     1 <1>   0.0800 
 34 H       -1.2030     5.2330     1.0020 H     1 <1>   0.4000 
 35 H        0.0010     5.1880    -1.0990 H     1 <1>   0.0800 
 36 H        0.5520     3.5670    -1.4580 H     1 <1>   0.0800 
 37 H        1.8840     6.3760    -0.9040 H     1 <1>   0.1500 
 38 H        5.4030     3.8940     1.2410 H     1 <1>   0.1500 
 39 H        4.2030     7.1970    -1.1530 H     1 <1>   0.1500 
@<TRIPOS>BOND
  1   1   2  2   
  2   1   3  2   
  3   1   4  am  
  4   1   5  1   
  5   4   6  1   
  6   4   7  1   
  7   5   8  1   
  8   5  22  1   
  9   5  23  1   
 10   6  24  1   
 11   6  25  1   
 12   6  26  1   
 13   7  27  1   
 14   7  28  1   
 15   7  29  1   
 16   8   9  1   
 17   8  10  1   
 18   8  30  1   
 19   9  11  1   
 20   9  12  1   
 21   9  31  1   
 22  10  13  1   
 23  10  32  1   
 24  10  33  1   
 25  11  34  1   
 26  12  13  1   
 27  12  35  1   
 28  12  36  1   
 29  13  14  1   
 30  14  15  ar  
 31  14  16  ar  
 32  15  17  ar  
 33  16  18  ar  
 34  16  37  1   
 35  17  19  ar  
 36  17  38  1   
 37  18  19  ar  
 38  18  39  1   
 39  19  20  1   
 40  20  21  3   
@<TRIPOS>SUBSTRUCTURE
  1 ****  13 GROUP 4 **** **** 0

# MOE 2024.06 (io_trps.svl 2023.06)
