@<TRIPOS>MOLECULE
NONAME
52 55 1 0 0 
SMALL
USER_CHARGES


@<TRIPOS>ATOM
  1 S       -1.1830     0.9040    -1.1630 S.3   1 <1>  -0.0800 
  2 C        0.1040    -0.2860    -1.2730 C.2   1 <1>  -0.1400 
  3 C       -0.0430     2.1560    -0.7130 C.2   1 <1>  -0.1100 
  4 C        1.2910     0.2830    -0.9870 C.2   1 <1>  -0.1500 
  5 C       -0.2730    -1.6990    -1.6620 C.3   1 <1>   0.5230 
  6 C        1.2160     1.6780    -0.6610 C.2   1 <1>   0.0190 
  7 N       -0.6630    -2.4440    -0.4390 N.4   1 <1>  -0.9590 
  8 C        2.3890     2.4240    -0.3250 C.1   1 <1>  -0.0190 
  9 C       -1.9960    -2.0100     0.0800 C.3   1 <1>   0.3430 
 10 C       -0.7420    -3.9080    -0.6720 C.3   1 <1>   0.3430 
 11 C        3.3670     3.0450    -0.0490 C.1   1 <1>  -0.2000 
 12 C       -2.7260    -3.2700     0.5410 C.3   1 <1>  -0.0800 
 13 C       -1.7200    -4.4230     0.3760 C.3   1 <1>  -0.0800 
 14 C        4.5860     3.8260     0.2910 C.3   1 <1>   0.3200 
 15 C       -4.0290    -3.4590    -0.2650 C.3   1 <1>   0.4240 
 16 C       -2.3550    -5.7730    -0.0190 C.3   1 <1>  -0.1600 
 17 O        5.0120     4.4430    -0.8640 O.3   1 <1>  -0.6800 
 18 O       -3.6700    -3.5390    -1.6030 O.3   1 <1>  -0.6800 
 19 C       -4.9580    -2.2450    -0.0740 C.ar  1 <1>  -0.1430 
 20 C       -4.7180    -4.7990     0.0900 C.3   1 <1>  -0.1600 
 21 C       -3.7620    -5.9130     0.5730 C.3   1 <1>  -0.1600 
 22 C       -5.2660    -1.3560    -1.1040 C.ar  1 <1>  -0.1500 
 23 C       -5.5000    -1.9940     1.1840 C.ar  1 <1>  -0.1500 
 24 C       -6.0860    -0.2640    -0.8820 C.ar  1 <1>  -0.1500 
 25 C       -6.3200    -0.9030     1.4070 C.ar  1 <1>  -0.1500 
 26 C       -6.6140    -0.0350     0.3740 C.ar  1 <1>  -0.1500 
 27 H       -0.4310     3.1430    -0.5300 H     1 <1>   0.1500 
 28 H        2.2490    -0.2090    -0.9860 H     1 <1>   0.1500 
 29 H        0.5810    -2.1740    -2.1160 H     1 <1>   0.0800 
 30 H       -1.0810    -1.6900    -2.3760 H     1 <1>   0.0800 
 31 H        0.0370    -2.2470     0.2860 H     1 <1>   0.4500 
 32 H       -1.8790    -1.3130     0.8950 H     1 <1>   0.0800 
 33 H       -2.5630    -1.5310    -0.7020 H     1 <1>   0.0800 
 34 H       -1.1550    -4.0960    -1.6510 H     1 <1>   0.0800 
 35 H        0.2220    -4.3840    -0.5890 H     1 <1>   0.0800 
 36 H       -2.9830    -3.1700     1.5800 H     1 <1>   0.0800 
 37 H       -1.1890    -4.5480     1.3050 H     1 <1>   0.0800 
 38 H        5.3710     3.1790     0.6430 H     1 <1>   0.0800 
 39 H        4.3770     4.5840     1.0270 H     1 <1>   0.0800 
 40 H       -2.4310    -5.8580    -1.0900 H     1 <1>   0.0800 
 41 H       -1.7330    -6.5830     0.3240 H     1 <1>   0.0800 
 42 H        4.8740     3.8350    -1.6140 H     1 <1>   0.4000 
 43 H       -4.4880    -3.6870    -2.1180 H     1 <1>   0.4000 
 44 H       -5.4390    -4.6450     0.8720 H     1 <1>   0.0800 
 45 H       -5.2760    -5.1470    -0.7610 H     1 <1>   0.0800 
 46 H       -3.6880    -5.8750     1.6470 H     1 <1>   0.0800 
 47 H       -4.1740    -6.8750     0.3160 H     1 <1>   0.0800 
 48 H       -4.8770    -1.4850    -2.0980 H     1 <1>   0.1500 
 49 H       -5.2940    -2.6470     2.0140 H     1 <1>   0.1500 
 50 H       -6.3150     0.4120    -1.6880 H     1 <1>   0.1500 
 51 H       -6.7330    -0.7270     2.3860 H     1 <1>   0.1500 
 52 H       -7.2530     0.8150     0.5450 H     1 <1>   0.1500 
@<TRIPOS>BOND
  1   1   2  1   
  2   1   3  1   
  3   2   4  2   
  4   2   5  1   
  5   3   6  2   
  6   3  27  1   
  7   4   6  1   
  8   4  28  1   
  9   5   7  1   
 10   5  29  1   
 11   5  30  1   
 12   6   8  1   
 13   7   9  1   
 14   7  10  1   
 15   7  31  1   
 16   8  11  3   
 17   9  12  1   
 18   9  32  1   
 19   9  33  1   
 20  10  13  1   
 21  10  34  1   
 22  10  35  1   
 23  11  14  1   
 24  12  13  1   
 25  12  15  1   
 26  12  36  1   
 27  13  16  1   
 28  13  37  1   
 29  14  17  1   
 30  14  38  1   
 31  14  39  1   
 32  15  18  1   
 33  15  19  1   
 34  15  20  1   
 35  16  21  1   
 36  16  40  1   
 37  16  41  1   
 38  17  42  1   
 39  18  43  1   
 40  19  22  ar  
 41  19  23  ar  
 42  20  21  1   
 43  20  44  1   
 44  20  45  1   
 45  21  46  1   
 46  21  47  1   
 47  22  24  ar  
 48  22  48  1   
 49  23  25  ar  
 50  23  49  1   
 51  24  26  ar  
 52  24  50  1   
 53  25  26  ar  
 54  25  51  1   
 55  26  52  1   
@<TRIPOS>SUBSTRUCTURE
  1 ****   9 GROUP 4 **** **** 0

# MOE 2024.06 (io_trps.svl 2023.06)
