@<TRIPOS>MOLECULE
NONAME
43 44 1 0 0 
SMALL
USER_CHARGES


@<TRIPOS>ATOM
  1 O        3.1850    -0.7040     1.5350 O.2   1 <1>  -0.5700 
  2 C        2.2500    -1.2850     1.0220 C.2   1 <1>   0.6900 
  3 N        2.2270    -1.6640    -0.2870 N.am  1 <1>  -0.4200 
  4 N        1.0890    -1.6120     1.6520 N.am  1 <1>  -0.6600 
  5 C        1.0370    -2.2560    -0.5750 C.2   1 <1>   0.5690 
  6 C        3.3500    -1.4760    -1.2460 C.3   1 <1>   0.2010 
  7 C        0.1750    -2.2660     0.6780 C.3   1 <1>   0.2010 
  8 C        0.7080    -1.3310     3.0570 C.3   1 <1>   0.0600 
  9 O        0.7080    -2.7120    -1.6410 O.2   1 <1>  -0.5700 
 10 C        3.5310    -0.0280    -1.6920 C.2   1 <1>   0.5690 
 11 O        3.6130     0.1910    -2.8770 O.2   1 <1>  -0.5700 
 12 N        3.6260     0.9480    -0.7350 N.am  1 <1>  -0.4940 
 13 C        3.8690     2.3430    -0.8000 C.2   1 <1>  -0.0880 
 14 N        3.5980     3.2130    -1.8160 N.pl3 1 <1>   0.3140 
 15 C        4.4260     3.0810     0.1900 C.2   1 <1>  -0.1810 
 16 N        3.9770     4.4700    -1.5000 N.2   1 <1>  -0.7070 
 17 C        2.8960     2.9730    -3.0830 C.3   1 <1>   0.0160 
 18 C        4.4730     4.3820    -0.3070 C.2   1 <1>   0.1080 
 19 C        4.9040     2.6000     1.5510 C.3   1 <1>   0.0210 
 20 C        5.0280     5.5960     0.4170 C.3   1 <1>   0.0210 
 21 C        6.3590     2.1370     1.4720 C.3   1 <1>  -0.2400 
 22 C        3.9430     6.2950     1.2420 C.3   1 <1>  -0.2400 
 23 H        3.1770    -2.0830    -2.1170 H     1 <1>   0.0800 
 24 H        4.2630    -1.8090    -0.7860 H     1 <1>   0.0800 
 25 H       -0.7180    -1.6850     0.5330 H     1 <1>   0.0800 
 26 H       -0.0560    -3.2720     0.9770 H     1 <1>   0.0800 
 27 H        1.5220    -0.8460     3.5690 H     1 <1>   0.0800 
 28 H        0.4770    -2.2520     3.5650 H     1 <1>   0.0800 
 29 H       -0.1520    -0.6850     3.0810 H     1 <1>   0.0800 
 30 H        3.6120     0.5850     0.2290 H     1 <1>   0.3700 
 31 H        2.0910     2.2820    -2.9200 H     1 <1>   0.0800 
 32 H        3.5900     2.5690    -3.7950 H     1 <1>   0.0800 
 33 H        2.5040     3.9030    -3.4500 H     1 <1>   0.0800 
 34 H        4.2860     1.7850     1.8840 H     1 <1>   0.0800 
 35 H        4.8090     3.3910     2.2730 H     1 <1>   0.0800 
 36 H        5.4180     6.2810    -0.3150 H     1 <1>   0.0800 
 37 H        5.8410     5.2980     1.0530 H     1 <1>   0.0800 
 38 H        6.4500     1.3320     0.7640 H     1 <1>   0.0800 
 39 H        6.6910     1.7920     2.4340 H     1 <1>   0.0800 
 40 H        6.9900     2.9470     1.1530 H     1 <1>   0.0800 
 41 H        3.1400     6.6010     0.5950 H     1 <1>   0.0800 
 42 H        4.3480     7.1640     1.7290 H     1 <1>   0.0800 
 43 H        3.5500     5.6260     1.9850 H     1 <1>   0.0800 
@<TRIPOS>BOND
  1   1   2  2   
  2   2   3  am  
  3   2   4  am  
  4   3   5  am  
  5   3   6  1   
  6   4   7  1   
  7   4   8  1   
  8   5   7  1   
  9   5   9  2   
 10   6  10  1   
 11   6  23  1   
 12   6  24  1   
 13   7  25  1   
 14   7  26  1   
 15   8  27  1   
 16   8  28  1   
 17   8  29  1   
 18  10  11  2   
 19  10  12  am  
 20  12  13  1   
 21  12  30  1   
 22  13  14  1   
 23  13  15  2   
 24  14  16  1   
 25  14  17  1   
 26  15  18  1   
 27  15  19  1   
 28  16  18  2   
 29  17  31  1   
 30  17  32  1   
 31  17  33  1   
 32  18  20  1   
 33  19  21  1   
 34  19  34  1   
 35  19  35  1   
 36  20  22  1   
 37  20  36  1   
 38  20  37  1   
 39  21  38  1   
 40  21  39  1   
 41  21  40  1   
 42  22  41  1   
 43  22  42  1   
 44  22  43  1   
@<TRIPOS>SUBSTRUCTURE
  1 ****  12 GROUP 4 **** **** 0

# MOE 2024.06 (io_trps.svl 2023.06)
