@<TRIPOS>MOLECULE
NONAME
49 52 1 0 0 
SMALL
USER_CHARGES


@<TRIPOS>ATOM
  1 O       -2.1600     0.0380    -1.9490 O.2   1 <1>  -0.5700 
  2 C       -2.0050     0.1680    -0.7590 C.2   1 <1>   0.5690 
  3 N       -1.8640    -0.9110     0.0490 N.am  1 <1>  -0.7300 
  4 C       -1.9940     1.5570    -0.1170 C.3   1 <1>  -0.0190 
  5 C       -1.9420    -2.3240    -0.3930 C.3   1 <1>   0.2200 
  6 C       -3.1920     1.7460     0.8330 C.3   1 <1>  -0.1600 
  7 C       -1.9880     2.7050    -1.1460 C.3   1 <1>  -0.1600 
  8 C       -3.3240    -2.9130    -0.1260 C.3   1 <1>  -0.0800 
  9 C       -1.0970    -3.1700     0.5470 C.3   1 <1>   0.1200 
 10 C       -3.2210     3.1680     1.4040 C.3   1 <1>   0.1200 
 11 C       -2.0940     4.0670    -0.4530 C.3   1 <1>   0.1200 
 12 C       -3.2380    -3.3070     1.3550 C.3   1 <1>   0.1200 
 13 C       -4.5100    -1.9880    -0.4760 C.3   1 <1>  -0.0160 
 14 O       -1.8800    -3.3210     1.6920 O.3   1 <1>  -0.5600 
 15 O       -3.2290     4.0850     0.3560 O.3   1 <1>  -0.5600 
 16 C       -5.9180    -2.5670    -0.3000 C.ar  1 <1>  -0.1440 
 17 C       -7.0410    -1.7080    -0.3990 C.ar  1 <1>   0.0000 
 18 C       -6.1690    -3.8880    -0.0540 C.ar  1 <1>  -0.1500 
 19 C       -8.3260    -2.2670    -0.1930 C.ar  1 <1>   0.3100 
 20 C       -6.9640    -0.3260    -0.6960 C.ar  1 <1>  -0.1500 
 21 C       -7.4820    -4.3410     0.1210 C.ar  1 <1>   0.1600 
 22 N       -8.5290    -3.5820     0.0660 N.ar  1 <1>  -0.6200 
 23 C       -9.4520    -1.4310    -0.2620 C.ar  1 <1>  -0.1500 
 24 C       -8.0830     0.4600    -0.7600 C.ar  1 <1>  -0.1500 
 25 C       -9.3440    -0.0960    -0.5370 C.ar  1 <1>  -0.1500 
 26 H       -1.7740    -0.8030     1.0610 H     1 <1>   0.3700 
 27 H       -1.0910     1.6320     0.4600 H     1 <1>   0.0800 
 28 H       -1.6380    -2.4180    -1.4230 H     1 <1>   0.0800 
 29 H       -3.1420     1.0420     1.6440 H     1 <1>   0.0800 
 30 H       -4.1110     1.5730     0.3000 H     1 <1>   0.0800 
 31 H       -2.8200     2.5990    -1.8210 H     1 <1>   0.0800 
 32 H       -1.0860     2.6660    -1.7310 H     1 <1>   0.0800 
 33 H       -3.4050    -3.8110    -0.7120 H     1 <1>   0.0800 
 34 H       -0.1610    -2.7050     0.8030 H     1 <1>   0.0800 
 35 H       -0.9230    -4.1470     0.1320 H     1 <1>   0.0800 
 36 H       -2.3630     3.3620     2.0250 H     1 <1>   0.0800 
 37 H       -4.1150     3.3240     1.9830 H     1 <1>   0.0800 
 38 H       -2.1980     4.8520    -1.1820 H     1 <1>   0.0800 
 39 H       -1.2310     4.2680     0.1580 H     1 <1>   0.0800 
 40 H       -3.6490    -4.2840     1.5390 H     1 <1>   0.0800 
 41 H       -3.7250    -2.5840     1.9870 H     1 <1>   0.0800 
 42 H       -4.4030    -1.6680    -1.4990 H     1 <1>   0.0800 
 43 H       -4.4440    -1.1140     0.1460 H     1 <1>   0.0800 
 44 H       -5.3930    -4.6250     0.0160 H     1 <1>   0.1500 
 45 H       -6.0090     0.1270    -0.8850 H     1 <1>   0.1500 
 46 H       -7.6300    -5.3890     0.3160 H     1 <1>   0.1500 
 47 H      -10.4120    -1.8830    -0.0920 H     1 <1>   0.1500 
 48 H       -8.0060     1.5110    -0.9850 H     1 <1>   0.1500 
 49 H      -10.2160     0.5330    -0.5880 H     1 <1>   0.1500 
@<TRIPOS>BOND
  1   1   2  2   
  2   2   3  am  
  3   2   4  1   
  4   3   5  1   
  5   3  26  1   
  6   4   6  1   
  7   4   7  1   
  8   4  27  1   
  9   5   8  1   
 10   5   9  1   
 11   5  28  1   
 12   6  10  1   
 13   6  29  1   
 14   6  30  1   
 15   7  11  1   
 16   7  31  1   
 17   7  32  1   
 18   8  12  1   
 19   8  13  1   
 20   8  33  1   
 21   9  14  1   
 22   9  34  1   
 23   9  35  1   
 24  10  15  1   
 25  10  36  1   
 26  10  37  1   
 27  11  15  1   
 28  11  38  1   
 29  11  39  1   
 30  12  14  1   
 31  12  40  1   
 32  12  41  1   
 33  13  16  1   
 34  13  42  1   
 35  13  43  1   
 36  16  17  ar  
 37  16  18  ar  
 38  17  19  ar  
 39  17  20  ar  
 40  18  21  ar  
 41  18  44  1   
 42  19  22  ar  
 43  19  23  ar  
 44  20  24  ar  
 45  20  45  1   
 46  21  22  ar  
 47  21  46  1   
 48  23  25  ar  
 49  23  47  1   
 50  24  25  ar  
 51  24  48  1   
 52  25  49  1   
@<TRIPOS>SUBSTRUCTURE
  1 ****  13 GROUP 4 **** **** 0

# MOE 2024.06 (io_trps.svl 2023.06)
