@<TRIPOS>MOLECULE
NONAME
48 50 1 0 0 
SMALL
USER_CHARGES


@<TRIPOS>ATOM
  1 O        0.6150    -2.2730     1.6650 O.3   1 <1>  -0.5600 
  2 C        0.5370    -1.8080     0.3450 C.3   1 <1>   0.2000 
  3 C       -0.4920    -1.9700     2.4600 C.3   1 <1>   0.0400 
  4 C        1.9610    -1.7540    -0.2390 C.3   1 <1>   0.0000 
  5 C       -0.2020    -2.8480    -0.5080 C.3   1 <1>  -0.1600 
  6 C        2.9790    -1.2180     0.7890 C.3   1 <1>   0.2090 
  7 C        2.0040    -0.8360    -1.4900 C.3   1 <1>  -0.1600 
  8 C        2.2170    -3.2260    -0.6220 C.3   1 <1>  -0.1600 
  9 C        0.8690    -3.7780    -1.0930 C.3   1 <1>  -0.1600 
 10 N        4.3510    -1.2020     0.1880 N.pl3 1 <1>  -0.8380 
 11 C        3.4340    -0.6270    -2.0290 C.3   1 <1>  -0.1600 
 12 C        5.3840    -2.0190     0.5190 C.ar  1 <1>   0.7710 
 13 C        4.4300    -0.2180    -0.9370 C.3   1 <1>   0.2090 
 14 N        6.5760    -1.8360    -0.0350 N.ar  1 <1>  -0.6200 
 15 N        5.1630    -3.0110     1.4010 N.ar  1 <1>  -0.1790 
 16 C        7.5520    -2.6430     0.3090 C.ar  1 <1>   0.4100 
 17 C        6.1430    -3.8690     1.7740 C.ar  1 <1>   0.2110 
 18 N        8.7270    -2.3910    -0.2860 N.pl3 1 <1>  -0.8690 
 19 C        7.3680    -3.6940     1.2250 C.ar  1 <1>  -0.1500 
 20 C       10.0540    -3.0090    -0.0970 C.3   1 <1>   0.2090 
 21 C       11.1030    -1.9130    -0.2140 C.3   1 <1>  -0.2400 
 22 H        0.0580    -0.8420     0.3350 H     1 <1>   0.0800 
 23 H       -0.3300    -2.3910     3.4370 H     1 <1>   0.0800 
 24 H       -1.3790    -2.3990     2.0280 H     1 <1>   0.0800 
 25 H       -0.5920    -0.9020     2.5390 H     1 <1>   0.0800 
 26 H       -0.9340    -3.3960     0.0580 H     1 <1>   0.0800 
 27 H       -0.7050    -2.3450    -1.3150 H     1 <1>   0.0800 
 28 H        2.9520    -1.8010     1.6900 H     1 <1>   0.0800 
 29 H        2.7040    -0.2130     1.0630 H     1 <1>   0.0800 
 30 H        1.3850    -1.2330    -2.2760 H     1 <1>   0.0800 
 31 H        1.6030     0.1280    -1.2260 H     1 <1>   0.0800 
 32 H        2.9790    -3.3470    -1.3710 H     1 <1>   0.0800 
 33 H        2.5050    -3.7780     0.2540 H     1 <1>   0.0800 
 34 H        0.7310    -4.7900    -0.7530 H     1 <1>   0.0800 
 35 H        0.8150    -3.7640    -2.1690 H     1 <1>   0.0800 
 36 H        3.4190     0.1340    -2.7890 H     1 <1>   0.0800 
 37 H        3.7890    -1.5280    -2.4970 H     1 <1>   0.0800 
 38 H        4.1820     0.7640    -0.5680 H     1 <1>   0.0800 
 39 H        5.4190    -0.1640    -1.3600 H     1 <1>   0.0800 
 40 H        4.2080    -3.0810     1.7380 H     1 <1>   0.4570 
 41 H        5.9200    -4.6520     2.4810 H     1 <1>   0.1500 
 42 H        8.7230    -1.6190    -0.9610 H     1 <1>   0.4000 
 43 H        8.1930    -4.3360     1.4680 H     1 <1>   0.1500 
 44 H       10.1250    -3.4730     0.8710 H     1 <1>   0.0800 
 45 H       10.2150    -3.7550    -0.8580 H     1 <1>   0.0800 
 46 H       10.9410    -1.1600     0.5380 H     1 <1>   0.0800 
 47 H       11.0690    -1.4610    -1.1890 H     1 <1>   0.0800 
 48 H       12.0820    -2.3330    -0.0690 H     1 <1>   0.0800 
@<TRIPOS>BOND
  1   1   2  1   
  2   1   3  1   
  3   2   4  1   
  4   2   5  1   
  5   2  22  1   
  6   3  23  1   
  7   3  24  1   
  8   3  25  1   
  9   4   6  1   
 10   4   7  1   
 11   4   8  1   
 12   5   9  1   
 13   5  26  1   
 14   5  27  1   
 15   6  10  1   
 16   6  28  1   
 17   6  29  1   
 18   7  11  1   
 19   7  30  1   
 20   7  31  1   
 21   8   9  1   
 22   8  32  1   
 23   8  33  1   
 24   9  34  1   
 25   9  35  1   
 26  10  12  1   
 27  10  13  1   
 28  11  13  1   
 29  11  36  1   
 30  11  37  1   
 31  12  14  ar  
 32  12  15  ar  
 33  13  38  1   
 34  13  39  1   
 35  14  16  ar  
 36  15  17  ar  
 37  15  40  1   
 38  16  18  1   
 39  16  19  ar  
 40  17  19  ar  
 41  17  41  1   
 42  18  20  1   
 43  18  42  1   
 44  19  43  1   
 45  20  21  1   
 46  20  44  1   
 47  20  45  1   
 48  21  46  1   
 49  21  47  1   
 50  21  48  1   
@<TRIPOS>SUBSTRUCTURE
  1 ****  10 GROUP 4 **** **** 0

# MOE 2024.06 (io_trps.svl 2023.06)
