@<TRIPOS>MOLECULE
NONAME
54 57 1 0 0 
SMALL
USER_CHARGES


@<TRIPOS>ATOM
  1 O        0.3600     0.5650    -1.3080 O.3   1 <1>  -0.5600 
  2 C        1.5870    -0.1060    -1.4330 C.3   1 <1>   0.2000 
  3 C        0.4950     1.9570    -1.3060 C.3   1 <1>   0.1200 
  4 C        2.5090     0.2620    -0.2360 C.3   1 <1>   0.3340 
  5 C        1.2750    -1.6090    -1.5320 C.3   1 <1>   0.1200 
  6 C        1.3700     2.4080    -0.1250 C.3   1 <1>   0.1100 
  7 N        2.6830     1.7320    -0.1350 N.3   1 <1>  -0.8100 
  8 C        3.8670    -0.4330    -0.3580 C.ar  1 <1>  -0.1440 
  9 O        2.3660    -2.3220    -2.0240 O.3   1 <1>  -0.6800 
 10 C        3.5190     2.1190     1.0240 C.3   1 <1>   0.2900 
 11 C        4.1710    -1.5110     0.4610 C.ar  1 <1>  -0.1500 
 12 C        4.8010    -0.0090    -1.2930 C.ar  1 <1>  -0.1500 
 13 C        3.6990     3.6270     1.1310 C.2   1 <1>  -0.0400 
 14 C        5.3830    -2.1690     0.3430 C.ar  1 <1>   0.0830 
 15 C        6.0230    -0.6500    -1.4070 C.ar  1 <1>  -0.1500 
 16 O        4.3390     4.2750     0.1760 O.3   1 <1>  -0.2800 
 17 C        3.3000     4.4890     2.0900 C.2   1 <1>  -0.1500 
 18 O        5.5870    -3.2420     1.1450 O.3   1 <1>  -0.3620 
 19 C        6.3280    -1.7210    -0.5850 C.ar  1 <1>   0.0830 
 20 C        4.3720     5.5680     0.4780 C.2   1 <1>   0.1410 
 21 C        3.7350     5.7480     1.6670 C.2   1 <1>  -0.1500 
 22 C        5.6930    -4.4930     0.4990 C.3   1 <1>   0.0400 
 23 O        7.5510    -2.2890    -0.7200 O.3   1 <1>  -0.3630 
 24 C        5.0120     6.5260    -0.3990 C.2   1 <1>   0.2880 
 25 C        8.4340    -2.1260     0.3670 C.3   1 <1>   0.0400 
 26 N        5.6040     6.2460    -1.5380 N.2   1 <1>  -0.7070 
 27 C        5.0840     7.9010    -0.1420 C.2   1 <1>  -0.1500 
 28 N        6.0510     7.4200    -2.0090 N.pl3 1 <1>   0.3000 
 29 C        5.7490     8.4380    -1.1830 C.2   1 <1>  -0.3020 
 30 H        2.0390     0.2120    -2.3560 H     1 <1>   0.0800 
 31 H        0.9350     2.2670    -2.2390 H     1 <1>   0.0800 
 32 H       -0.4880     2.3850    -1.2270 H     1 <1>   0.0800 
 33 H        2.0270    -0.0860     0.6610 H     1 <1>   0.0800 
 34 H        0.4580    -1.7690    -2.2140 H     1 <1>   0.0800 
 35 H        1.0180    -2.0090    -0.5670 H     1 <1>   0.0800 
 36 H        0.8520     2.2020     0.7970 H     1 <1>   0.0800 
 37 H        1.5110     3.4730    -0.2000 H     1 <1>   0.0800 
 38 H        3.1920    -2.0630    -1.5580 H     1 <1>   0.4000 
 39 H        3.0710     1.7510     1.9300 H     1 <1>   0.0800 
 40 H        4.4970     1.6820     0.9300 H     1 <1>   0.0800 
 41 H        3.4680    -1.8630     1.1950 H     1 <1>   0.1500 
 42 H        4.5780     0.8320    -1.9300 H     1 <1>   0.1500 
 43 H        6.7460    -0.3150    -2.1290 H     1 <1>   0.1500 
 44 H        2.7600     4.2850     2.9970 H     1 <1>   0.1500 
 45 H        3.5820     6.6670     2.2010 H     1 <1>   0.1500 
 46 H        5.7310    -5.2580     1.2520 H     1 <1>   0.0800 
 47 H        6.5900    -4.5150    -0.0920 H     1 <1>   0.0800 
 48 H        4.8300    -4.6350    -0.1280 H     1 <1>   0.0800 
 49 H        9.3870    -2.5420     0.0920 H     1 <1>   0.0800 
 50 H        8.0420    -2.6430     1.2250 H     1 <1>   0.0800 
 51 H        8.5360    -1.0760     0.5770 H     1 <1>   0.0800 
 52 H        4.6800     8.3960     0.7210 H     1 <1>   0.1500 
 53 H        6.5610     7.4920    -2.8990 H     1 <1>   0.2700 
 54 H        6.0190     9.4590    -1.3810 H     1 <1>   0.1500 
@<TRIPOS>BOND
  1   1   2  1   
  2   1   3  1   
  3   2   4  1   
  4   2   5  1   
  5   2  30  1   
  6   3   6  1   
  7   3  31  1   
  8   3  32  1   
  9   4   7  1   
 10   4   8  1   
 11   4  33  1   
 12   5   9  1   
 13   5  34  1   
 14   5  35  1   
 15   6   7  1   
 16   6  36  1   
 17   6  37  1   
 18   7  10  1   
 19   8  11  ar  
 20   8  12  ar  
 21   9  38  1   
 22  10  13  1   
 23  10  39  1   
 24  10  40  1   
 25  11  14  ar  
 26  11  41  1   
 27  12  15  ar  
 28  12  42  1   
 29  13  16  1   
 30  13  17  2   
 31  14  18  1   
 32  14  19  ar  
 33  15  19  ar  
 34  15  43  1   
 35  16  20  1   
 36  17  21  1   
 37  17  44  1   
 38  18  22  1   
 39  19  23  1   
 40  20  21  2   
 41  20  24  1   
 42  21  45  1   
 43  22  46  1   
 44  22  47  1   
 45  22  48  1   
 46  23  25  1   
 47  24  26  2   
 48  24  27  1   
 49  25  49  1   
 50  25  50  1   
 51  25  51  1   
 52  26  28  1   
 53  27  29  2   
 54  27  52  1   
 55  28  29  1   
 56  28  53  1   
 57  29  54  1   
@<TRIPOS>SUBSTRUCTURE
  1 ****   7 GROUP 4 **** **** 0

# MOE 2024.06 (io_trps.svl 2023.06)
