@<TRIPOS>MOLECULE
NONAME
48 51 1 0 0 
SMALL
USER_CHARGES


@<TRIPOS>ATOM
  1 O        2.7790     3.6800    -0.7380 O.3   1 <1>  -0.0190 
  2 N        3.8360     2.9580    -0.5380 N.2   1 <1>  -0.4100 
  3 C        1.7080     2.9490    -0.8940 C.2   1 <1>  -0.0400 
  4 C        3.4490     1.7340    -0.6010 C.2   1 <1>   0.1080 
  5 C        2.0770     1.6610    -0.8290 C.2   1 <1>  -0.1500 
  6 C        0.3720     3.6360    -1.0950 C.3   1 <1>   0.0200 
  7 C        4.3680     0.5410    -0.4450 C.3   1 <1>  -0.0590 
  8 C       -0.2070     4.2380     0.2130 C.3   1 <1>  -0.0800 
  9 C       -0.8990     5.5730    -0.0710 C.3   1 <1>   0.2000 
 10 C        0.8530     4.6390     1.2450 C.3   1 <1>   0.3430 
 11 O       -1.8680     5.7920     0.9010 O.3   1 <1>  -0.6800 
 12 C        0.2130     6.6290     0.0580 C.3   1 <1>   0.3430 
 13 N        1.3470     5.9550     0.7740 N.4   1 <1>  -0.9590 
 14 C        2.0060     6.7940     1.8080 C.3   1 <1>   0.4860 
 15 C        2.5540     8.0170     1.1130 C.ar  1 <1>  -0.1440 
 16 C        3.6220     7.8650     0.2190 C.ar  1 <1>   0.0000 
 17 C        2.0150     9.2700     1.3140 C.ar  1 <1>  -0.1500 
 18 C        4.0990     8.9700    -0.4790 C.ar  1 <1>  -0.1520 
 19 C        4.4090     6.7670    -0.1980 C.2   1 <1>  -0.1500 
 20 C        2.5130    10.3790     0.6200 C.ar  1 <1>  -0.1500 
 21 N        5.1210     8.5610    -1.3020 N.pl3 1 <1>   0.0480 
 22 C        3.5450    10.2370    -0.2760 C.ar  1 <1>  -0.1500 
 23 C        5.2920     7.2200    -1.1150 C.2   1 <1>  -0.3020 
 24 C        5.9140     9.4180    -2.2000 C.3   1 <1>   0.0160 
 25 H        1.4930     0.7630    -0.9200 H     1 <1>   0.1500 
 26 H        0.5130     4.3970    -1.8440 H     1 <1>   0.0800 
 27 H       -0.3320     2.9280    -1.4960 H     1 <1>   0.0800 
 28 H        4.0460    -0.0660     0.3810 H     1 <1>   0.0800 
 29 H        5.3740     0.8720    -0.2620 H     1 <1>   0.0800 
 30 H        4.3560    -0.0480    -1.3440 H     1 <1>   0.0800 
 31 H       -0.8860     3.5220     0.6420 H     1 <1>   0.0800 
 32 H       -1.3890     5.6120    -1.0300 H     1 <1>   0.0800 
 33 H        1.6490     3.9160     1.3260 H     1 <1>   0.0800 
 34 H        0.3850     4.7500     2.2090 H     1 <1>   0.0800 
 35 H       -1.5370     5.6990     1.8140 H     1 <1>   0.4000 
 36 H       -0.1500     7.4870     0.6000 H     1 <1>   0.0800 
 37 H        0.5440     6.9450    -0.9180 H     1 <1>   0.0800 
 38 H        2.0820     5.7790     0.0680 H     1 <1>   0.4500 
 39 H        1.2990     7.0840     2.5670 H     1 <1>   0.0800 
 40 H        2.8160     6.2530     2.2700 H     1 <1>   0.0800 
 41 H        1.2020     9.4280     2.0020 H     1 <1>   0.1500 
 42 H        4.3290     5.7550     0.1610 H     1 <1>   0.1500 
 43 H        2.0790    11.3490     0.7940 H     1 <1>   0.1500 
 44 H        3.9290    11.0850    -0.8140 H     1 <1>   0.1500 
 45 H        6.0460     6.6630    -1.6450 H     1 <1>   0.1500 
 46 H        6.6330     8.8200    -2.7280 H     1 <1>   0.0800 
 47 H        6.4250    10.1620    -1.6170 H     1 <1>   0.0800 
 48 H        5.2580     9.8970    -2.9040 H     1 <1>   0.0800 
@<TRIPOS>BOND
  1   1   2  1   
  2   1   3  1   
  3   2   4  2   
  4   3   5  2   
  5   3   6  1   
  6   4   5  1   
  7   4   7  1   
  8   5  25  1   
  9   6   8  1   
 10   6  26  1   
 11   6  27  1   
 12   7  28  1   
 13   7  29  1   
 14   7  30  1   
 15   8   9  1   
 16   8  10  1   
 17   8  31  1   
 18   9  11  1   
 19   9  12  1   
 20   9  32  1   
 21  10  13  1   
 22  10  33  1   
 23  10  34  1   
 24  11  35  1   
 25  12  13  1   
 26  12  36  1   
 27  12  37  1   
 28  13  14  1   
 29  13  38  1   
 30  14  15  1   
 31  14  39  1   
 32  14  40  1   
 33  15  16  ar  
 34  15  17  ar  
 35  16  18  ar  
 36  16  19  1   
 37  17  20  ar  
 38  17  41  1   
 39  18  21  1   
 40  18  22  ar  
 41  19  23  2   
 42  19  42  1   
 43  20  22  ar  
 44  20  43  1   
 45  21  23  1   
 46  21  24  1   
 47  22  44  1   
 48  23  45  1   
 49  24  46  1   
 50  24  47  1   
 51  24  48  1   
@<TRIPOS>SUBSTRUCTURE
  1 ****  13 GROUP 4 **** **** 0

# MOE 2024.06 (io_trps.svl 2023.06)
