@<TRIPOS>MOLECULE
NONAME
49 52 1 0 0 
SMALL
USER_CHARGES


@<TRIPOS>ATOM
  1 O        1.0630    -2.7530    -0.2470 O.2   1 <1>  -0.5700 
  2 C        0.3420    -3.7180    -0.1150 C.2   1 <1>   0.5690 
  3 N        0.8630    -4.9930    -0.0740 N.am  1 <1>  -0.6600 
  4 C       -1.1900    -3.4770     0.0140 C.3   1 <1>   0.3500 
  5 C       -0.0050    -6.1770     0.1810 C.3   1 <1>   0.1400 
  6 C        2.3070    -5.2800    -0.2900 C.3   1 <1>   0.0600 
  7 N       -2.0310    -4.7160     0.2300 N.pl3 1 <1>  -0.8220 
  8 C       -1.7390    -2.7840    -1.2390 C.3   1 <1>  -0.2400 
  9 C       -1.2810    -5.7920     0.9420 C.3   1 <1>   0.2090 
 10 C       -3.3090    -4.5060     0.7520 C.2   1 <1>   0.2700 
 11 N       -3.5830    -3.7980     1.7890 N.2   1 <1>  -0.3380 
 12 N       -4.4350    -5.0180     0.2640 N.pl3 1 <1>   0.3140 
 13 N       -4.9050    -3.8750     1.9400 N.2   1 <1>   0.0000 
 14 N       -5.4340    -4.6050     1.0280 N.2   1 <1>  -0.4180 
 15 C       -4.6070    -5.8640    -0.9290 C.3   1 <1>   0.2390 
 16 C       -3.9420    -7.2220    -0.7400 C.ar  1 <1>  -0.1440 
 17 C       -4.3500    -8.0690     0.2790 C.ar  1 <1>  -0.1500 
 18 C       -2.9090    -7.6190    -1.5750 C.ar  1 <1>  -0.1500 
 19 C       -3.7260    -9.2900     0.4620 C.ar  1 <1>  -0.1500 
 20 C       -2.2900    -8.8420    -1.3870 C.ar  1 <1>  -0.1500 
 21 C       -2.6840    -9.6970    -0.3630 C.ar  1 <1>   0.0000 
 22 C       -2.0290   -10.9700    -0.1630 C.ar  1 <1>   0.0000 
 23 C       -1.9980   -11.9280    -1.1720 C.ar  1 <1>  -0.1500 
 24 C       -1.4110   -11.2730     1.0470 C.ar  1 <1>  -0.1500 
 25 C       -1.3700   -13.1460    -0.9820 C.ar  1 <1>  -0.1500 
 26 C       -0.7820   -12.4900     1.2430 C.ar  1 <1>  -0.1500 
 27 C       -0.7610   -13.4290     0.2270 C.ar  1 <1>  -0.1500 
 28 H       -1.3250    -2.8160     0.8530 H     1 <1>   0.0800 
 29 H        0.5370    -6.9020     0.7620 H     1 <1>   0.0800 
 30 H       -0.2720    -6.6300    -0.7580 H     1 <1>   0.0800 
 31 H        2.8420    -4.3780    -0.5350 H     1 <1>   0.0800 
 32 H        2.4230    -5.9770    -1.1010 H     1 <1>   0.0800 
 33 H        2.7330    -5.6990     0.6040 H     1 <1>   0.0800 
 34 H       -1.6300    -3.4280    -2.0920 H     1 <1>   0.0800 
 35 H       -1.1880    -1.8780    -1.4220 H     1 <1>   0.0800 
 36 H       -2.7730    -2.5250    -1.1050 H     1 <1>   0.0800 
 37 H       -1.0210    -5.4550     1.9310 H     1 <1>   0.0800 
 38 H       -1.9060    -6.6630     1.0460 H     1 <1>   0.0800 
 39 H       -4.1760    -5.3480    -1.7660 H     1 <1>   0.0800 
 40 H       -5.6580    -5.9950    -1.1090 H     1 <1>   0.0800 
 41 H       -5.1530    -7.7810     0.9380 H     1 <1>   0.1500 
 42 H       -2.5740    -6.9760    -2.3720 H     1 <1>   0.1500 
 43 H       -4.0520    -9.9410     1.2540 H     1 <1>   0.1500 
 44 H       -1.4880    -9.1410    -2.0390 H     1 <1>   0.1500 
 45 H       -2.4750   -11.7160    -2.1120 H     1 <1>   0.1500 
 46 H       -1.4230   -10.5480     1.8400 H     1 <1>   0.1500 
 47 H       -1.3570   -13.8750    -1.7740 H     1 <1>   0.1500 
 48 H       -0.3090   -12.7070     2.1850 H     1 <1>   0.1500 
 49 H       -0.2730   -14.3770     0.3770 H     1 <1>   0.1500 
@<TRIPOS>BOND
  1   1   2  2   
  2   2   3  am  
  3   2   4  1   
  4   3   5  1   
  5   3   6  1   
  6   4   7  1   
  7   4   8  1   
  8   4  28  1   
  9   5   9  1   
 10   5  29  1   
 11   5  30  1   
 12   6  31  1   
 13   6  32  1   
 14   6  33  1   
 15   7   9  1   
 16   7  10  1   
 17   8  34  1   
 18   8  35  1   
 19   8  36  1   
 20   9  37  1   
 21   9  38  1   
 22  10  11  2   
 23  10  12  1   
 24  11  13  1   
 25  12  14  1   
 26  12  15  1   
 27  13  14  2   
 28  15  16  1   
 29  15  39  1   
 30  15  40  1   
 31  16  17  ar  
 32  16  18  ar  
 33  17  19  ar  
 34  17  41  1   
 35  18  20  ar  
 36  18  42  1   
 37  19  21  ar  
 38  19  43  1   
 39  20  21  ar  
 40  20  44  1   
 41  21  22  1   
 42  22  23  ar  
 43  22  24  ar  
 44  23  25  ar  
 45  23  45  1   
 46  24  26  ar  
 47  24  46  1   
 48  25  27  ar  
 49  25  47  1   
 50  26  27  ar  
 51  26  48  1   
 52  27  49  1   
@<TRIPOS>SUBSTRUCTURE
  1 ****   9 GROUP 4 **** **** 0

# MOE 2024.06 (io_trps.svl 2023.06)
