@<TRIPOS>MOLECULE
NONAME
37 38 1 0 0 
SMALL
USER_CHARGES


@<TRIPOS>ATOM
  1 F       -0.3300    -2.1440    -0.0180 F     1 <1>  -0.1900 
  2 C       -1.5860    -2.0140     0.3130 C.ar  1 <1>   0.1900 
  3 C       -2.1650    -0.7560     0.3300 C.ar  1 <1>  -0.1440 
  4 C       -2.2840    -3.1630     0.6320 C.ar  1 <1>  -0.1500 
  5 C       -3.5080    -0.6740     0.6900 C.ar  1 <1>  -0.1500 
  6 C       -1.3290     0.4710    -0.0350 C.3   1 <1>   1.1640 
  7 C       -3.6230    -3.0660     0.9810 C.ar  1 <1>  -0.1440 
  8 C       -4.2260    -1.8160     1.0120 C.ar  1 <1>  -0.1500 
  9 F       -2.0290     1.5980     0.0370 F     1 <1>  -0.3400 
 10 F       -0.2860     0.6400     0.7670 F     1 <1>  -0.3400 
 11 F       -0.8580     0.4170    -1.2740 F     1 <1>  -0.3400 
 12 C       -4.4060    -4.3210     1.3270 C.3   1 <1>   0.4870 
 13 N       -5.2960    -4.6650     0.1740 N.4   1 <1>  -0.9590 
 14 C       -4.4760    -5.1940    -0.9820 C.3   1 <1>   0.3430 
 15 C       -6.3560    -5.6140     0.6550 C.3   1 <1>   0.3430 
 16 C       -4.3690    -6.7140    -0.9770 C.3   1 <1>  -0.1860 
 17 C       -6.8840    -6.4520    -0.5030 C.3   1 <1>  -0.1600 
 18 C       -3.5170    -7.0090     0.2260 C.2   1 <1>   0.9060 
 19 C       -5.7720    -7.3560    -1.0500 C.3   1 <1>   0.2000 
 20 O       -2.3800    -6.5410     0.2290 O.co2 1 <1>  -0.9000 
 21 O       -4.0380    -7.4690     1.2470 O.co2 1 <1>  -0.9000 
 22 O       -5.7900    -8.5230    -0.3250 O.3   1 <1>  -0.6800 
 23 H       -1.7770    -4.1170     0.6060 H     1 <1>   0.1500 
 24 H       -4.0080     0.2810     0.7250 H     1 <1>   0.1500 
 25 H       -5.2610    -1.7150     1.2940 H     1 <1>   0.1500 
 26 H       -4.9980    -4.1330     2.2070 H     1 <1>   0.0800 
 27 H       -3.7280    -5.1270     1.5570 H     1 <1>   0.0800 
 28 H       -5.7270    -3.7880    -0.1290 H     1 <1>   0.4500 
 29 H       -4.9380    -4.8930    -1.9080 H     1 <1>   0.0800 
 30 H       -3.4840    -4.7710    -0.9600 H     1 <1>   0.0800 
 31 H       -5.9410    -6.2840     1.3930 H     1 <1>   0.0800 
 32 H       -7.1610    -5.0670     1.1160 H     1 <1>   0.0800 
 33 H       -3.8070    -7.0220    -1.8370 H     1 <1>   0.0800 
 34 H       -7.2440    -5.8000    -1.2770 H     1 <1>   0.0800 
 35 H       -7.7140    -7.0540    -0.1760 H     1 <1>   0.0800 
 36 H       -6.0080    -7.6210    -2.0670 H     1 <1>   0.0800 
 37 H       -5.1840    -8.3960     0.4660 H     1 <1>   0.4000 
@<TRIPOS>BOND
  1   1   2  1   
  2   2   3  ar  
  3   2   4  ar  
  4   3   5  ar  
  5   3   6  1   
  6   4   7  ar  
  7   4  23  1   
  8   5   8  ar  
  9   5  24  1   
 10   6   9  1   
 11   6  10  1   
 12   6  11  1   
 13   7   8  ar  
 14   7  12  1   
 15   8  25  1   
 16  12  13  1   
 17  12  26  1   
 18  12  27  1   
 19  13  14  1   
 20  13  15  1   
 21  13  28  1   
 22  14  16  1   
 23  14  29  1   
 24  14  30  1   
 25  15  17  1   
 26  15  31  1   
 27  15  32  1   
 28  16  18  1   
 29  16  19  1   
 30  16  33  1   
 31  17  19  1   
 32  17  34  1   
 33  17  35  1   
 34  18  20  ar  
 35  18  21  ar  
 36  19  22  1   
 37  19  36  1   
 38  22  37  1   
@<TRIPOS>SUBSTRUCTURE
  1 ****   7 GROUP 4 **** **** 0

# MOE 2024.06 (io_trps.svl 2023.06)
