@<TRIPOS>MOLECULE
NONAME
43 45 1 0 0 
SMALL
USER_CHARGES


@<TRIPOS>ATOM
  1 O       -0.6890     0.1550    -2.3590 O.2   1 <1>  -0.5700 
  2 C       -0.2420     0.0870    -1.2370 C.2   1 <1>   0.5690 
  3 N        0.6970     0.9510    -0.7530 N.am  1 <1>  -0.4930 
  4 C       -0.7280    -1.0430    -0.3320 C.3   1 <1>   0.2610 
  5 C        1.3240     2.0500    -1.3880 C.2   1 <1>   0.0630 
  6 O       -0.3960    -0.7500     1.0200 O.3   1 <1>  -0.2170 
  7 C       -0.0010    -2.3610    -0.5990 C.3   1 <1>  -0.0990 
  8 C        1.1320     2.5610    -2.6720 C.2   1 <1>   0.1390 
  9 C        2.2680     2.8450    -0.8460 C.2   1 <1>  -0.3020 
 10 N        0.5630    -1.5360     1.4710 N.2   1 <1>  -0.5130 
 11 C        0.8290    -2.4460     0.6470 C.2   1 <1>   0.3280 
 12 N        1.8920     3.5890    -2.9130 N.2   1 <1>  -0.7070 
 13 N        2.5960     3.7710    -1.7780 N.pl3 1 <1>   0.3140 
 14 C        1.8700    -3.5620     0.7840 C.3   1 <1>  -0.0190 
 15 C        3.6020     4.8520    -1.6670 C.3   1 <1>   0.2390 
 16 C        1.1980    -4.9390     0.8930 C.3   1 <1>  -0.2400 
 17 C        2.7970    -3.3490     1.9920 C.3   1 <1>  -0.2400 
 18 C        3.7980     5.3090    -0.2250 C.ar  1 <1>  -0.1430 
 19 C        2.8020     6.0320     0.4160 C.ar  1 <1>  -0.1500 
 20 C        4.9670     5.0070     0.4580 C.ar  1 <1>  -0.1500 
 21 C        2.9730     6.4470     1.7250 C.ar  1 <1>  -0.1500 
 22 C        5.1380     5.4220     1.7670 C.ar  1 <1>  -0.1500 
 23 C        4.1410     6.1430     2.4010 C.ar  1 <1>  -0.1500 
 24 H        0.9720     0.7820     0.2210 H     1 <1>   0.3700 
 25 H       -1.7950    -1.1480    -0.4030 H     1 <1>   0.0800 
 26 H        0.6020    -2.3180    -1.4870 H     1 <1>   0.0800 
 27 H       -0.6990    -3.1750    -0.6590 H     1 <1>   0.0800 
 28 H        0.4360     2.1540    -3.3850 H     1 <1>   0.1500 
 29 H        2.7150     2.8130     0.1300 H     1 <1>   0.1500 
 30 H        2.4810    -3.5500    -0.1020 H     1 <1>   0.0800 
 31 H        3.2690     5.6790    -2.2660 H     1 <1>   0.0800 
 32 H        4.5250     4.4910    -2.0770 H     1 <1>   0.0800 
 33 H        0.5520    -4.9710     1.7540 H     1 <1>   0.0800 
 34 H        1.9400    -5.7110     0.9930 H     1 <1>   0.0800 
 35 H        0.6130    -5.1490     0.0160 H     1 <1>   0.0800 
 36 H        2.2310    -3.3640     2.9070 H     1 <1>   0.0800 
 37 H        3.2920    -2.3970     1.9160 H     1 <1>   0.0800 
 38 H        3.5460    -4.1200     2.0360 H     1 <1>   0.0800 
 39 H        1.8870     6.2710    -0.1000 H     1 <1>   0.1500 
 40 H        5.7510     4.4460    -0.0210 H     1 <1>   0.1500 
 41 H        2.1960     7.0050     2.2180 H     1 <1>   0.1500 
 42 H        6.0460     5.1850     2.2940 H     1 <1>   0.1500 
 43 H        4.2740     6.4660     3.4190 H     1 <1>   0.1500 
@<TRIPOS>BOND
  1   1   2  2   
  2   2   3  am  
  3   2   4  1   
  4   3   5  1   
  5   3  24  1   
  6   4   6  1   
  7   4   7  1   
  8   4  25  1   
  9   5   8  1   
 10   5   9  2   
 11   6  10  1   
 12   7  11  1   
 13   7  26  1   
 14   7  27  1   
 15   8  12  2   
 16   8  28  1   
 17   9  13  1   
 18   9  29  1   
 19  10  11  2   
 20  11  14  1   
 21  12  13  1   
 22  13  15  1   
 23  14  16  1   
 24  14  17  1   
 25  14  30  1   
 26  15  18  1   
 27  15  31  1   
 28  15  32  1   
 29  16  33  1   
 30  16  34  1   
 31  16  35  1   
 32  17  36  1   
 33  17  37  1   
 34  17  38  1   
 35  18  19  ar  
 36  18  20  ar  
 37  19  21  ar  
 38  19  39  1   
 39  20  22  ar  
 40  20  40  1   
 41  21  23  ar  
 42  21  41  1   
 43  22  23  ar  
 44  22  42  1   
 45  23  43  1   
@<TRIPOS>SUBSTRUCTURE
  1 ****   3 GROUP 4 **** **** 0

# MOE 2024.06 (io_trps.svl 2023.06)
