@<TRIPOS>MOLECULE
NONAME
44 45 1 0 0 
SMALL
USER_CHARGES


@<TRIPOS>ATOM
  1 S        0.6510     0.3010    -1.6040 S.o2  1 <1>   1.3330 
  2 O        1.0170    -1.0710    -1.8770 O.2   1 <1>  -0.6500 
  3 O       -0.0020     1.0850    -2.6270 O.2   1 <1>  -0.6500 
  4 N       -0.3660     0.3060    -0.2420 N.am  1 <1>  -0.8490 
  5 C        2.1200     1.1650    -1.0420 C.3   1 <1>  -0.0550 
  6 C       -1.3070    -0.8190    -0.2530 C.3   1 <1>   0.1160 
  7 C       -1.1030     1.5640    -0.0730 C.3   1 <1>   0.1160 
  8 C        2.9540     0.3860     0.0000 C.3   1 <1>  -0.0800 
  9 C        4.2900     1.0200     0.3580 C.3   1 <1>   0.2200 
 10 C        2.2870     0.2050     1.3700 C.3   1 <1>   0.1200 
 11 N        4.1460     2.4810     0.5510 N.am  1 <1>  -0.7300 
 12 C        4.5450     0.3760     1.7130 C.3   1 <1>   0.1200 
 13 O        3.2950     0.3470     2.3310 O.3   1 <1>  -0.5600 
 14 C        4.4770     3.4450    -0.3520 C.2   1 <1>   0.7160 
 15 O        4.8690     3.0910    -1.4460 O.2   1 <1>  -0.5700 
 16 C        4.3270     4.8380     0.0010 C.2   1 <1>  -0.0860 
 17 C        4.3340     5.9570    -0.7800 C.2   1 <1>  -0.0400 
 18 C        4.1290     5.3400     1.3070 C.2   1 <1>  -0.1500 
 19 O        4.1580     7.0370    -0.0590 O.3   1 <1>  -0.2800 
 20 C        4.5010     6.1430    -2.2760 C.3   1 <1>  -0.0600 
 21 C        4.0340     6.6790     1.1970 C.2   1 <1>  -0.0400 
 22 C        3.8240     7.7540     2.2390 C.3   1 <1>  -0.0600 
 23 H        2.7460     1.3460    -1.8950 H     1 <1>   0.0800 
 24 H        1.8390     2.1200    -0.6460 H     1 <1>   0.0800 
 25 H       -1.9290    -0.7950     0.6250 H     1 <1>   0.0800 
 26 H       -0.7680    -1.7520    -0.2580 H     1 <1>   0.0800 
 27 H       -1.9300    -0.7770    -1.1320 H     1 <1>   0.0800 
 28 H       -1.6600     1.5450     0.8480 H     1 <1>   0.0800 
 29 H       -1.7870     1.7130    -0.8920 H     1 <1>   0.0800 
 30 H       -0.4190     2.3940    -0.0390 H     1 <1>   0.0800 
 31 H        3.1530    -0.5960    -0.3940 H     1 <1>   0.0800 
 32 H        5.0660     0.7990    -0.3570 H     1 <1>   0.0800 
 33 H        1.8390    -0.7690     1.4710 H     1 <1>   0.0800 
 34 H        1.5490     0.9650     1.5620 H     1 <1>   0.0800 
 35 H        3.7410     2.7480     1.4490 H     1 <1>   0.3700 
 36 H        5.2400     0.9310     2.3180 H     1 <1>   0.0800 
 37 H        4.8830    -0.6390     1.5990 H     1 <1>   0.0800 
 38 H        4.0740     4.7510     2.2040 H     1 <1>   0.1500 
 39 H        4.6090     5.2010    -2.7790 H     1 <1>   0.0800 
 40 H        5.3730     6.7390    -2.4690 H     1 <1>   0.0800 
 41 H        3.6400     6.6490    -2.6730 H     1 <1>   0.0800 
 42 H        3.7420     7.3170     3.2170 H     1 <1>   0.0800 
 43 H        2.9240     8.2990     2.0210 H     1 <1>   0.0800 
 44 H        4.6560     8.4350     2.2270 H     1 <1>   0.0800 
@<TRIPOS>BOND
  1   1   2  2   
  2   1   3  2   
  3   1   4  am  
  4   1   5  1   
  5   4   6  1   
  6   4   7  1   
  7   5   8  1   
  8   5  23  1   
  9   5  24  1   
 10   6  25  1   
 11   6  26  1   
 12   6  27  1   
 13   7  28  1   
 14   7  29  1   
 15   7  30  1   
 16   8   9  1   
 17   8  10  1   
 18   8  31  1   
 19   9  11  1   
 20   9  12  1   
 21   9  32  1   
 22  10  13  1   
 23  10  33  1   
 24  10  34  1   
 25  11  14  am  
 26  11  35  1   
 27  12  13  1   
 28  12  36  1   
 29  12  37  1   
 30  14  15  2   
 31  14  16  1   
 32  16  17  2   
 33  16  18  1   
 34  17  19  1   
 35  17  20  1   
 36  18  21  2   
 37  18  38  1   
 38  19  21  1   
 39  20  39  1   
 40  20  40  1   
 41  20  41  1   
 42  21  22  1   
 43  22  42  1   
 44  22  43  1   
 45  22  44  1   
@<TRIPOS>SUBSTRUCTURE
  1 ****  11 GROUP 4 **** **** 0

# MOE 2024.06 (io_trps.svl 2023.06)
