@<TRIPOS>MOLECULE
NONAME
64 67 1 0 0 
SMALL
USER_CHARGES


@<TRIPOS>ATOM
  1 O        1.4430     1.1550    -1.3390 O.3   1 <1>  -0.5600 
  2 C        2.5580     0.2950    -1.3780 C.3   1 <1>   0.2000 
  3 C        1.7160     2.4800    -0.9960 C.3   1 <1>   0.1200 
  4 C        3.3410     0.3230    -0.0360 C.3   1 <1>   0.5660 
  5 C        2.0620    -1.1290    -1.6790 C.3   1 <1>   0.1200 
  6 C        2.3520     2.5380     0.4030 C.3   1 <1>   0.3430 
  7 N        3.6020     1.7110     0.4640 N.4   1 <1>  -0.9590 
  8 C        4.6650    -0.4180    -0.1560 C.ar  1 <1>  -0.1430 
  9 O        1.4620    -1.6780    -0.5470 O.3   1 <1>  -0.6800 
 10 C        4.2010     1.6960     1.8260 C.3   1 <1>   0.5240 
 11 C        4.8860    -1.5320     0.6410 C.ar  1 <1>  -0.1500 
 12 C        5.6490    -0.0220    -1.0550 C.ar  1 <1>  -0.1500 
 13 C        4.4020     3.1260     2.2860 C.2   1 <1>  -0.1810 
 14 C        6.0690    -2.2440     0.5540 C.ar  1 <1>   0.0830 
 15 C        6.8340    -0.7310    -1.1460 C.ar  1 <1>  -0.1500 
 16 C        5.2180     4.0600     1.6410 C.2   1 <1>   0.2350 
 17 C        3.8590     3.7830     3.3330 C.2   1 <1>  -0.3020 
 18 O        6.1900    -3.3350     1.3460 O.3   1 <1>  -0.3620 
 19 C        7.0670    -1.8260    -0.3340 C.ar  1 <1>   0.0830 
 20 N        5.1570     5.2190     2.2400 N.2   1 <1>  -0.7070 
 21 C        6.0060     3.7650     0.4650 C.ar  1 <1>   0.0540 
 22 N        4.3380     5.0420     3.2880 N.pl3 1 <1>   0.3000 
 23 C        6.2210    -4.5850     0.6890 C.3   1 <1>   0.0400 
 24 O        8.2710    -2.4380    -0.4530 O.3   1 <1>  -0.3630 
 25 C        5.6970     4.2680    -0.8030 C.ar  1 <1>  -0.1430 
 26 C        7.1050     2.9180     0.5880 C.ar  1 <1>  -0.1500 
 27 C        9.0830    -2.5140     0.7000 C.3   1 <1>   0.0400 
 28 C        6.4480     3.8840    -1.9010 C.ar  1 <1>  -0.1500 
 29 C        4.5740     5.2790    -0.9990 C.3   1 <1>  -0.0970 
 30 C        7.8650     2.5480    -0.5050 C.ar  1 <1>  -0.1430 
 31 C        7.5230     3.0260    -1.7570 C.ar  1 <1>  -0.1500 
 32 C        9.0760     1.6510    -0.3200 C.3   1 <1>  -0.0970 
 33 H        3.1850     0.6210    -2.1880 H     1 <1>   0.0800 
 34 H        2.3640     2.9100    -1.7400 H     1 <1>   0.0800 
 35 H        0.7830     3.0160    -0.9990 H     1 <1>   0.0800 
 36 H        2.7340    -0.1920     0.6900 H     1 <1>   0.0800 
 37 H        2.8840    -1.7670    -1.9580 H     1 <1>   0.0800 
 38 H        1.3420    -1.1090    -2.4800 H     1 <1>   0.0800 
 39 H        1.6350     2.1730     1.1190 H     1 <1>   0.0800 
 40 H        2.5740     3.5620     0.6510 H     1 <1>   0.0800 
 41 H        4.3110     2.1320    -0.1510 H     1 <1>   0.4500 
 42 H        0.9410    -2.4740    -0.7850 H     1 <1>   0.4000 
 43 H        3.5490     1.1840     2.5140 H     1 <1>   0.0800 
 44 H        5.1510     1.1850     1.8090 H     1 <1>   0.0800 
 45 H        4.1370    -1.8790     1.3340 H     1 <1>   0.1500 
 46 H        5.5180     0.8330    -1.6960 H     1 <1>   0.1500 
 47 H        7.5940    -0.4330    -1.8470 H     1 <1>   0.1500 
 48 H        3.1770     3.4510     4.0970 H     1 <1>   0.1500 
 49 H        4.1300     5.8010     3.9520 H     1 <1>   0.2700 
 50 H        6.2730    -5.3560     1.4360 H     1 <1>   0.0800 
 51 H        7.0860    -4.6340     0.0520 H     1 <1>   0.0800 
 52 H        5.3230    -4.6950     0.1080 H     1 <1>   0.0800 
 53 H        7.3770     2.5580     1.5650 H     1 <1>   0.1500 
 54 H       10.0640    -2.8350     0.3980 H     1 <1>   0.0800 
 55 H        8.6660    -3.2270     1.3860 H     1 <1>   0.0800 
 56 H        9.1370    -1.5420     1.1560 H     1 <1>   0.0800 
 57 H        6.2190     4.2690    -2.8810 H     1 <1>   0.1500 
 58 H        4.3250     5.3890    -2.0390 H     1 <1>   0.0800 
 59 H        4.8970     6.2360    -0.6270 H     1 <1>   0.0800 
 60 H        3.6910     4.9950    -0.4620 H     1 <1>   0.0800 
 61 H        8.1050     2.7510    -2.6210 H     1 <1>   0.1500 
 62 H        9.3840     1.2210    -1.2560 H     1 <1>   0.0800 
 63 H        8.8510     0.8530     0.3640 H     1 <1>   0.0800 
 64 H        9.8940     2.2250     0.0770 H     1 <1>   0.0800 
@<TRIPOS>BOND
  1   1   2  1   
  2   1   3  1   
  3   2   4  1   
  4   2   5  1   
  5   2  33  1   
  6   3   6  1   
  7   3  34  1   
  8   3  35  1   
  9   4   7  1   
 10   4   8  1   
 11   4  36  1   
 12   5   9  1   
 13   5  37  1   
 14   5  38  1   
 15   6   7  1   
 16   6  39  1   
 17   6  40  1   
 18   7  10  1   
 19   7  41  1   
 20   8  11  ar  
 21   8  12  ar  
 22   9  42  1   
 23  10  13  1   
 24  10  43  1   
 25  10  44  1   
 26  11  14  ar  
 27  11  45  1   
 28  12  15  ar  
 29  12  46  1   
 30  13  16  1   
 31  13  17  2   
 32  14  18  1   
 33  14  19  ar  
 34  15  19  ar  
 35  15  47  1   
 36  16  20  2   
 37  16  21  1   
 38  17  22  1   
 39  17  48  1   
 40  18  23  1   
 41  19  24  1   
 42  20  22  1   
 43  21  25  ar  
 44  21  26  ar  
 45  22  49  1   
 46  23  50  1   
 47  23  51  1   
 48  23  52  1   
 49  24  27  1   
 50  25  28  ar  
 51  25  29  1   
 52  26  30  ar  
 53  26  53  1   
 54  27  54  1   
 55  27  55  1   
 56  27  56  1   
 57  28  31  ar  
 58  28  57  1   
 59  29  58  1   
 60  29  59  1   
 61  29  60  1   
 62  30  31  ar  
 63  30  32  1   
 64  31  61  1   
 65  32  62  1   
 66  32  63  1   
 67  32  64  1   
@<TRIPOS>SUBSTRUCTURE
  1 ****   8 GROUP 4 **** **** 0

# MOE 2024.06 (io_trps.svl 2023.06)
