@<TRIPOS>MOLECULE
NONAME
54 56 1 0 0 
SMALL
USER_CHARGES


@<TRIPOS>ATOM
  1 O       -2.0860    -0.9860    -0.3340 O.2   1 <1>  -0.5700 
  2 C       -1.9930     0.2060    -0.1440 C.2   1 <1>   0.5690 
  3 N       -2.6380     1.1040    -0.9580 N.am  1 <1>  -0.6600 
  4 C       -1.1630     0.6610     1.0510 C.3   1 <1>   0.0440 
  5 C       -3.5540     0.6140    -2.0260 C.3   1 <1>   0.1400 
  6 C       -2.6910     2.5770    -0.7430 C.3   1 <1>   0.1400 
  7 C        0.1390     1.3520     0.6550 C.ar  1 <1>  -0.1440 
  8 C       -4.9170     0.1850    -1.4530 C.3   1 <1>   0.1400 
  9 C       -3.9160     2.9860     0.0910 C.3   1 <1>  -0.1600 
 10 C        0.4900     2.5670     1.2230 C.ar  1 <1>  -0.1500 
 11 C        0.9880     0.7680    -0.2740 C.ar  1 <1>  -0.1500 
 12 N       -5.3370     0.9770    -0.2480 N.am  1 <1>  -0.6600 
 13 C       -5.2670     2.4550    -0.4160 C.3   1 <1>   0.1400 
 14 C        1.6690     3.1900     0.8550 C.ar  1 <1>   0.0830 
 15 C        2.1700     1.3920    -0.6390 C.ar  1 <1>  -0.1500 
 16 C       -5.6110     0.4540     0.9950 C.2   1 <1>   0.5690 
 17 O        1.9870     4.3680     1.4110 O.3   1 <1>  -0.5320 
 18 C        2.5140     2.6080    -0.0760 C.ar  1 <1>  -0.1500 
 19 O       -5.9950     1.1610     1.8990 O.2   1 <1>  -0.5700 
 20 C       -5.4280    -1.0190     1.3350 C.3   1 <1>  -0.0990 
 21 C       -6.7410    -1.8250     1.2880 C.3   1 <1>  -0.0800 
 22 C       -6.5070    -3.2560     1.8020 C.3   1 <1>   0.1200 
 23 C       -7.3610    -1.8670    -0.1190 C.3   1 <1>  -0.1600 
 24 O       -7.6970    -3.9840     1.7540 O.3   1 <1>  -0.5600 
 25 C       -8.5810    -2.7950    -0.1220 C.3   1 <1>  -0.1600 
 26 C       -8.2260    -4.1610     0.4770 C.3   1 <1>   0.1200 
 27 H       -0.9230    -0.2010     1.6460 H     1 <1>   0.0800 
 28 H       -1.7650     1.3080     1.6600 H     1 <1>   0.0800 
 29 H       -3.1040    -0.2230    -2.5320 H     1 <1>   0.0800 
 30 H       -3.7030     1.3850    -2.7600 H     1 <1>   0.0800 
 31 H       -2.7280     3.0690    -1.6990 H     1 <1>   0.0800 
 32 H       -1.7960     2.9150    -0.2540 H     1 <1>   0.0800 
 33 H       -4.8550    -0.8600    -1.2240 H     1 <1>   0.0800 
 34 H       -5.6660     0.2880    -2.2180 H     1 <1>   0.0800 
 35 H       -3.9620     4.0590     0.1010 H     1 <1>   0.0800 
 36 H       -3.7770     2.6750     1.1110 H     1 <1>   0.0800 
 37 H       -0.1400     3.0440     1.9520 H     1 <1>   0.1500 
 38 H        0.7320    -0.1790    -0.7200 H     1 <1>   0.1500 
 39 H       -5.4140     2.7200    -1.4480 H     1 <1>   0.0800 
 40 H       -6.0610     2.9110     0.1530 H     1 <1>   0.0800 
 41 H        2.8190     0.9290    -1.3620 H     1 <1>   0.1500 
 42 H        2.8440     4.7140     1.1060 H     1 <1>   0.4500 
 43 H        3.4310     3.0900    -0.3620 H     1 <1>   0.1500 
 44 H       -5.0510    -1.0560     2.3410 H     1 <1>   0.0800 
 45 H       -4.6730    -1.4720     0.7230 H     1 <1>   0.0800 
 46 H       -7.4400    -1.3520     1.9580 H     1 <1>   0.0800 
 47 H       -6.1800    -3.2380     2.8280 H     1 <1>   0.0800 
 48 H       -5.7690    -3.7690     1.2090 H     1 <1>   0.0800 
 49 H       -6.6390    -2.2440    -0.8210 H     1 <1>   0.0800 
 50 H       -7.6590    -0.8800    -0.4280 H     1 <1>   0.0800 
 51 H       -8.9420    -2.9250    -1.1260 H     1 <1>   0.0800 
 52 H       -9.3740    -2.3590     0.4610 H     1 <1>   0.0800 
 53 H       -9.1060    -4.7740     0.5680 H     1 <1>   0.0800 
 54 H       -7.4990    -4.6770    -0.1270 H     1 <1>   0.0800 
@<TRIPOS>BOND
  1   1   2  2   
  2   2   3  am  
  3   2   4  1   
  4   3   5  1   
  5   3   6  1   
  6   4   7  1   
  7   4  27  1   
  8   4  28  1   
  9   5   8  1   
 10   5  29  1   
 11   5  30  1   
 12   6   9  1   
 13   6  31  1   
 14   6  32  1   
 15   7  10  ar  
 16   7  11  ar  
 17   8  12  1   
 18   8  33  1   
 19   8  34  1   
 20   9  13  1   
 21   9  35  1   
 22   9  36  1   
 23  10  14  ar  
 24  10  37  1   
 25  11  15  ar  
 26  11  38  1   
 27  12  13  1   
 28  12  16  am  
 29  13  39  1   
 30  13  40  1   
 31  14  17  1   
 32  14  18  ar  
 33  15  18  ar  
 34  15  41  1   
 35  16  19  2   
 36  16  20  1   
 37  17  42  1   
 38  18  43  1   
 39  20  21  1   
 40  20  44  1   
 41  20  45  1   
 42  21  22  1   
 43  21  23  1   
 44  21  46  1   
 45  22  24  1   
 46  22  47  1   
 47  22  48  1   
 48  23  25  1   
 49  23  49  1   
 50  23  50  1   
 51  24  26  1   
 52  25  26  1   
 53  25  51  1   
 54  25  52  1   
 55  26  53  1   
 56  26  54  1   
@<TRIPOS>SUBSTRUCTURE
  1 ****   2 GROUP 4 **** **** 0

# MOE 2024.06 (io_trps.svl 2023.06)
