@<TRIPOS>MOLECULE
NONAME
48 50 1 0 0 
SMALL
USER_CHARGES


@<TRIPOS>ATOM
  1 O        0.8590    -1.7400    -2.0070 O.3   1 <1>  -0.6800 
  2 C        0.1740    -2.1380    -0.8670 C.3   1 <1>   0.1200 
  3 C        1.0660    -2.0430     0.4060 C.3   1 <1>   0.0000 
  4 C        2.4710    -2.6920     0.2380 C.3   1 <1>   0.4230 
  5 C        1.2440    -0.5510     0.7980 C.3   1 <1>  -0.1600 
  6 C        0.3290    -2.7640     1.5690 C.3   1 <1>  -0.1600 
  7 N        2.4140    -4.1790    -0.1130 N.4   1 <1>  -0.9590 
  8 C        3.4270    -1.8240    -0.6450 C.3   1 <1>   0.3430 
  9 C        2.1300     0.2480    -0.1630 C.3   1 <1>   0.3430 
 10 C        0.7910    -4.2200     1.7940 C.3   1 <1>  -0.1600 
 11 C        1.2500    -4.9050     0.5060 C.3   1 <1>   0.3430 
 12 C        2.4460    -4.4910    -1.5840 C.3   1 <1>   0.2630 
 13 N        3.4940    -0.3690    -0.2340 N.4   1 <1>  -0.9590 
 14 C        4.3790     0.4160    -1.1540 C.3   1 <1>   0.4860 
 15 C        4.6080     1.7880    -0.5650 C.ar  1 <1>  -0.1440 
 16 C        5.4850     1.9880     0.4780 C.ar  1 <1>   0.1600 
 17 C        3.9410     2.8970    -1.0380 C.ar  1 <1>   0.1600 
 18 N        5.6500     3.1600     1.0330 N.ar  1 <1>  -0.6200 
 19 N        4.0890     4.0790    -0.4990 N.ar  1 <1>  -0.6200 
 20 C        4.9290     4.1410     0.5200 C.ar  1 <1>   0.7200 
 21 N        5.0750     5.3360     1.0880 N.pl3 1 <1>  -0.9000 
 22 H        0.2340    -1.6640    -2.7660 H     1 <1>   0.4000 
 23 H       -0.6940    -1.5060    -0.7640 H     1 <1>   0.0800 
 24 H       -0.1720    -3.1430    -1.0320 H     1 <1>   0.0800 
 25 H        2.9040    -2.6490     1.2240 H     1 <1>   0.0800 
 26 H        1.6700    -0.4660     1.7830 H     1 <1>   0.0800 
 27 H        0.2800    -0.0740     0.8410 H     1 <1>   0.0800 
 28 H        0.4700    -2.2420     2.5020 H     1 <1>   0.0800 
 29 H       -0.7350    -2.7560     1.3880 H     1 <1>   0.0800 
 30 H        3.2500    -4.6190     0.3030 H     1 <1>   0.4500 
 31 H        3.0920    -1.8760    -1.6670 H     1 <1>   0.0800 
 32 H        4.4160    -2.2480    -0.5990 H     1 <1>   0.0800 
 33 H        2.2010     1.2660     0.1900 H     1 <1>   0.0800 
 34 H        1.6790     0.2680    -1.1430 H     1 <1>   0.0800 
 35 H       -0.0220    -4.7840     2.2210 H     1 <1>   0.0800 
 36 H        1.5940    -4.2480     2.5100 H     1 <1>   0.0800 
 37 H        0.4220    -4.9250    -0.1830 H     1 <1>   0.0800 
 38 H        1.5240    -5.9280     0.7160 H     1 <1>   0.0800 
 39 H        1.5950    -4.0560    -2.0820 H     1 <1>   0.0800 
 40 H        2.4180    -5.5590    -1.7390 H     1 <1>   0.0800 
 41 H        3.3450    -4.1110    -2.0390 H     1 <1>   0.0800 
 42 H        3.9060    -0.2830     0.7070 H     1 <1>   0.4500 
 43 H        5.3310    -0.0800    -1.2700 H     1 <1>   0.0800 
 44 H        3.9230     0.5030    -2.1280 H     1 <1>   0.0800 
 45 H        6.0700     1.1770     0.8790 H     1 <1>   0.1500 
 46 H        3.2620     2.8250    -1.8730 H     1 <1>   0.1500 
 47 H        4.7660     6.1340     0.5390 H     1 <1>   0.4000 
 48 H        5.9100     5.4670     1.6530 H     1 <1>   0.4000 
@<TRIPOS>BOND
  1   1   2  1   
  2   1  22  1   
  3   2   3  1   
  4   2  23  1   
  5   2  24  1   
  6   3   4  1   
  7   3   5  1   
  8   3   6  1   
  9   4   7  1   
 10   4   8  1   
 11   4  25  1   
 12   5   9  1   
 13   5  26  1   
 14   5  27  1   
 15   6  10  1   
 16   6  28  1   
 17   6  29  1   
 18   7  11  1   
 19   7  12  1   
 20   7  30  1   
 21   8  13  1   
 22   8  31  1   
 23   8  32  1   
 24   9  13  1   
 25   9  33  1   
 26   9  34  1   
 27  10  11  1   
 28  10  35  1   
 29  10  36  1   
 30  11  37  1   
 31  11  38  1   
 32  12  39  1   
 33  12  40  1   
 34  12  41  1   
 35  13  14  1   
 36  13  42  1   
 37  14  15  1   
 38  14  43  1   
 39  14  44  1   
 40  15  16  ar  
 41  15  17  ar  
 42  16  18  ar  
 43  16  45  1   
 44  17  19  ar  
 45  17  46  1   
 46  18  20  ar  
 47  19  20  ar  
 48  20  21  1   
 49  21  47  1   
 50  21  48  1   
@<TRIPOS>SUBSTRUCTURE
  1 ****  13 GROUP 4 **** **** 0

# MOE 2024.06 (io_trps.svl 2023.06)
