@<TRIPOS>MOLECULE
NONAME
53 55 1 0 0 
SMALL
USER_CHARGES


@<TRIPOS>ATOM
  1 O        1.7930    -0.5230     1.5670 O.3   1 <1>  -0.6800 
  2 C        2.0010     0.4650     0.6180 C.3   1 <1>   0.2000 
  3 C        3.1450     0.0590    -0.3510 C.3   1 <1>   0.0000 
  4 C        2.1880     1.8060     1.3350 C.3   1 <1>  -0.1600 
  5 C        3.4470     1.2750    -1.2620 C.3   1 <1>   0.2090 
  6 C        2.5760    -1.0600    -1.2580 C.3   1 <1>   0.1200 
  7 C        4.4370    -0.5190     0.3210 C.3   1 <1>  -0.1600 
  8 C        2.5090     2.9300     0.3500 C.3   1 <1>   0.2090 
  9 N        3.6710     2.5630    -0.5160 N.pl3 1 <1>  -0.8380 
 10 O        3.4480    -1.3530    -2.3030 O.3   1 <1>  -0.6800 
 11 C        5.0450     0.2100     1.5310 C.3   1 <1>  -0.1600 
 12 C        4.8120     3.3000    -0.6200 C.ar  1 <1>   0.1000 
 13 C        6.4240    -0.3570     1.8790 C.3   1 <1>  -0.2400 
 14 C        4.8550     4.7340    -0.5270 C.ar  1 <1>   0.0000 
 15 C        6.0390     2.6500    -0.7770 C.ar  1 <1>  -0.1500 
 16 C        6.0910     5.3840    -0.3280 C.ar  1 <1>   0.3610 
 17 C        3.7330     5.5640    -0.6910 C.ar  1 <1>  -0.1500 
 18 C        7.2280     3.3150    -0.6680 C.ar  1 <1>   0.2110 
 19 N        7.2420     4.6330    -0.4140 N.ar  1 <1>  -0.1790 
 20 C        6.1620     6.7780    -0.1090 C.ar  1 <1>  -0.1440 
 21 C        3.8080     6.9200    -0.5270 C.ar  1 <1>  -0.1500 
 22 C        5.0170     7.5420    -0.2140 C.ar  1 <1>  -0.1440 
 23 C        7.5130     7.4250     0.2280 C.3   1 <1>  -0.0970 
 24 C        4.9900     9.0560    -0.0250 C.3   1 <1>  -0.0970 
 25 H        1.1320    -0.2350     2.2240 H     1 <1>   0.4000 
 26 H        1.0900     0.5400     0.0490 H     1 <1>   0.0800 
 27 H        1.2790     2.0620     1.8490 H     1 <1>   0.0800 
 28 H        2.9680     1.7580     2.0660 H     1 <1>   0.0800 
 29 H        2.6040     1.4280    -1.9140 H     1 <1>   0.0800 
 30 H        4.2780     1.0540    -1.9050 H     1 <1>   0.0800 
 31 H        1.6370    -0.7630    -1.6940 H     1 <1>   0.0800 
 32 H        2.4190    -1.9600    -0.6870 H     1 <1>   0.0800 
 33 H        4.2200    -1.5200     0.6520 H     1 <1>   0.0800 
 34 H        5.1920    -0.6130    -0.4390 H     1 <1>   0.0800 
 35 H        2.7300     3.8170     0.9190 H     1 <1>   0.0800 
 36 H        1.6530     3.1260    -0.2730 H     1 <1>   0.0800 
 37 H        3.1500    -2.1480    -2.7870 H     1 <1>   0.4000 
 38 H        5.1340     1.2610     1.3420 H     1 <1>   0.0800 
 39 H        4.4000     0.0750     2.3820 H     1 <1>   0.0800 
 40 H        7.1070    -0.2290     1.0590 H     1 <1>   0.0800 
 41 H        6.3480    -1.4070     2.1040 H     1 <1>   0.0800 
 42 H        6.8220     0.1470     2.7420 H     1 <1>   0.0800 
 43 H        6.0620     1.5900    -0.9420 H     1 <1>   0.1500 
 44 H        2.7910     5.1270    -0.9660 H     1 <1>   0.1500 
 45 H        8.1630     2.7890    -0.7690 H     1 <1>   0.1500 
 46 H        8.1230     5.1370    -0.3130 H     1 <1>   0.4570 
 47 H        2.9170     7.5160    -0.6450 H     1 <1>   0.1500 
 48 H        7.3990     8.4150     0.6280 H     1 <1>   0.0800 
 49 H        8.1210     7.5010    -0.6570 H     1 <1>   0.0800 
 50 H        8.0350     6.8570     0.9770 H     1 <1>   0.0800 
 51 H        4.0330     9.4670    -0.2920 H     1 <1>   0.0800 
 52 H        5.7310     9.5260    -0.6470 H     1 <1>   0.0800 
 53 H        5.1830     9.3050     1.0040 H     1 <1>   0.0800 
@<TRIPOS>BOND
  1   1   2  1   
  2   1  25  1   
  3   2   3  1   
  4   2   4  1   
  5   2  26  1   
  6   3   5  1   
  7   3   6  1   
  8   3   7  1   
  9   4   8  1   
 10   4  27  1   
 11   4  28  1   
 12   5   9  1   
 13   5  29  1   
 14   5  30  1   
 15   6  10  1   
 16   6  31  1   
 17   6  32  1   
 18   7  11  1   
 19   7  33  1   
 20   7  34  1   
 21   8   9  1   
 22   8  35  1   
 23   8  36  1   
 24   9  12  1   
 25  10  37  1   
 26  11  13  1   
 27  11  38  1   
 28  11  39  1   
 29  12  14  ar  
 30  12  15  ar  
 31  13  40  1   
 32  13  41  1   
 33  13  42  1   
 34  14  16  ar  
 35  14  17  ar  
 36  15  18  ar  
 37  15  43  1   
 38  16  19  ar  
 39  16  20  ar  
 40  17  21  ar  
 41  17  44  1   
 42  18  19  ar  
 43  18  45  1   
 44  19  46  1   
 45  20  22  ar  
 46  20  23  1   
 47  21  22  ar  
 48  21  47  1   
 49  22  24  1   
 50  23  48  1   
 51  23  49  1   
 52  23  50  1   
 53  24  51  1   
 54  24  52  1   
 55  24  53  1   
@<TRIPOS>SUBSTRUCTURE
  1 ****  12 GROUP 4 **** **** 0

# MOE 2024.06 (io_trps.svl 2023.06)
