@<TRIPOS>MOLECULE
NONAME
52 54 1 0 0 
SMALL
USER_CHARGES


@<TRIPOS>ATOM
  1 O        1.4820    -0.0890    -0.1950 O.2   1 <1>  -0.5700 
  2 C        1.9210    -0.4160     0.8830 C.2   1 <1>   0.5690 
  3 N        2.5670     0.4750     1.6810 N.am  1 <1>  -0.7300 
  4 C        1.7830    -1.8590     1.3650 C.3   1 <1>  -0.0190 
  5 C        2.7650     1.9010     1.3250 C.3   1 <1>   0.1400 
  6 C        2.9700    -2.7120     0.8830 C.3   1 <1>  -0.1600 
  7 C        0.4540    -2.5050     0.9210 C.3   1 <1>  -0.1600 
  8 C        3.9610     2.0520     0.3840 C.3   1 <1>   0.0200 
  9 C        2.8400    -4.1700     1.3330 C.3   1 <1>   0.1400 
 10 C        0.3560    -3.9640     1.3740 C.3   1 <1>   0.1400 
 11 C        3.8540     3.3580    -0.3760 C.2   1 <1>   0.0060 
 12 N        1.5360    -4.7180     0.8650 N.am  1 <1>  -0.6600 
 13 N        4.5060     4.4240    -0.0430 N.2   1 <1>  -0.5650 
 14 N        3.0580     3.5200    -1.4640 N.pl3 1 <1>   0.0480 
 15 C        1.4940    -5.7980     0.0100 C.2   1 <1>   0.5690 
 16 C        4.1220     5.3330    -0.9570 C.2   1 <1>   0.0770 
 17 C        3.2390     4.8000    -1.8290 C.2   1 <1>  -0.3020 
 18 C        2.1680     2.5360    -2.1140 C.3   1 <1>   0.0160 
 19 O        2.5110    -6.3520    -0.3420 O.2   1 <1>  -0.5700 
 20 C        0.1570    -6.3340    -0.5290 C.3   1 <1>  -0.0190 
 21 C        0.2050    -7.7280    -1.1650 C.3   1 <1>  -0.1600 
 22 C       -0.4420    -5.4740    -1.6470 C.3   1 <1>  -0.1600 
 23 C       -1.0790    -7.8220    -1.9880 C.3   1 <1>  -0.1600 
 24 C       -1.4290    -6.3830    -2.3860 C.3   1 <1>  -0.1600 
 25 H        2.9740     0.1740     2.5680 H     1 <1>   0.3700 
 26 H        1.7940    -1.8460     2.4400 H     1 <1>   0.0800 
 27 H        2.9170     2.4920     2.2120 H     1 <1>   0.0800 
 28 H        1.8740     2.2600     0.8380 H     1 <1>   0.0800 
 29 H        3.8910    -2.3070     1.2640 H     1 <1>   0.0800 
 30 H        3.0230    -2.6870    -0.1920 H     1 <1>   0.0800 
 31 H        0.3720    -2.4710    -0.1520 H     1 <1>   0.0800 
 32 H       -0.3710    -1.9480     1.3280 H     1 <1>   0.0800 
 33 H        3.9940     1.2410    -0.3200 H     1 <1>   0.0800 
 34 H        4.8720     2.0450     0.9540 H     1 <1>   0.0800 
 35 H        2.8820    -4.2340     2.4070 H     1 <1>   0.0800 
 36 H        3.6630    -4.7400     0.9370 H     1 <1>   0.0800 
 37 H       -0.5670    -4.3830     1.0210 H     1 <1>   0.0800 
 38 H        0.3490    -4.0140     2.4490 H     1 <1>   0.0800 
 39 H        4.5060     6.3390    -0.9390 H     1 <1>   0.1500 
 40 H        2.7450     5.2540    -2.6680 H     1 <1>   0.1500 
 41 H        2.7030     1.6200    -2.2820 H     1 <1>   0.0800 
 42 H        1.8250     2.9260    -3.0540 H     1 <1>   0.0800 
 43 H        1.3240     2.3420    -1.4770 H     1 <1>   0.0800 
 44 H       -0.5420    -6.3930     0.2840 H     1 <1>   0.0800 
 45 H        0.2770    -8.5070    -0.4260 H     1 <1>   0.0800 
 46 H        1.0510    -7.7980    -1.8290 H     1 <1>   0.0800 
 47 H        0.3450    -5.1840    -2.3230 H     1 <1>   0.0800 
 48 H       -0.9190    -4.5870    -1.2710 H     1 <1>   0.0800 
 49 H       -1.8680    -8.2280    -1.3790 H     1 <1>   0.0800 
 50 H       -0.9440    -8.4520    -2.8500 H     1 <1>   0.0800 
 51 H       -1.3400    -6.2450    -3.4500 H     1 <1>   0.0800 
 52 H       -2.4400    -6.1590    -2.0900 H     1 <1>   0.0800 
@<TRIPOS>BOND
  1   1   2  2   
  2   2   3  am  
  3   2   4  1   
  4   3   5  1   
  5   3  25  1   
  6   4   6  1   
  7   4   7  1   
  8   4  26  1   
  9   5   8  1   
 10   5  27  1   
 11   5  28  1   
 12   6   9  1   
 13   6  29  1   
 14   6  30  1   
 15   7  10  1   
 16   7  31  1   
 17   7  32  1   
 18   8  11  1   
 19   8  33  1   
 20   8  34  1   
 21   9  12  1   
 22   9  35  1   
 23   9  36  1   
 24  10  12  1   
 25  10  37  1   
 26  10  38  1   
 27  11  13  2   
 28  11  14  1   
 29  12  15  am  
 30  13  16  1   
 31  14  17  1   
 32  14  18  1   
 33  15  19  2   
 34  15  20  1   
 35  16  17  2   
 36  16  39  1   
 37  17  40  1   
 38  18  41  1   
 39  18  42  1   
 40  18  43  1   
 41  20  21  1   
 42  20  22  1   
 43  20  44  1   
 44  21  23  1   
 45  21  45  1   
 46  21  46  1   
 47  22  24  1   
 48  22  47  1   
 49  22  48  1   
 50  23  24  1   
 51  23  49  1   
 52  23  50  1   
 53  24  51  1   
 54  24  52  1   
@<TRIPOS>SUBSTRUCTURE
  1 ****   1 GROUP 4 **** **** 0

# MOE 2024.06 (io_trps.svl 2023.06)
