@<TRIPOS>MOLECULE
NONAME
44 47 1 0 0 
SMALL
USER_CHARGES


@<TRIPOS>ATOM
  1 S        2.9880     1.7360     1.9950 S.3   1 <1>  -0.0800 
  2 C        2.5060     3.2160     1.1990 C.2   1 <1>  -0.1100 
  3 C        1.3150     1.2990     2.2730 C.2   1 <1>  -0.1100 
  4 C        1.1580     3.3490     1.1400 C.2   1 <1>  -0.0860 
  5 C        0.4930     2.2390     1.7740 C.2   1 <1>  -0.1500 
  6 C        0.4080     4.4450     0.5570 C.2   1 <1>   0.7160 
  7 O       -0.5720     4.8620     1.1470 O.2   1 <1>  -0.5700 
  8 N        0.7550     5.0190    -0.6510 N.am  1 <1>  -0.6600 
  9 C        1.4930     4.2630    -1.7180 C.3   1 <1>   0.1400 
 10 C        0.2600     6.3800    -1.0120 C.3   1 <1>   0.1400 
 11 C        2.4430     5.1260    -2.5670 C.3   1 <1>   0.1400 
 12 C        1.3280     7.4350    -0.6930 C.3   1 <1>  -0.1600 
 13 N        3.1810     6.1280    -1.7400 N.am  1 <1>  -0.6600 
 14 C        2.5130     7.4570    -1.6670 C.3   1 <1>   0.1400 
 15 C        4.3140     5.7670    -1.0280 C.2   1 <1>   0.7150 
 16 O        4.7610     4.6480    -1.2370 O.2   1 <1>  -0.5700 
 17 C        4.9910     6.6130    -0.0760 C.2   1 <1>   0.1010 
 18 N        4.4690     7.5620     0.6700 N.2   1 <1>  -0.3380 
 19 N        6.3100     6.5020     0.1760 N.pl3 1 <1>   0.3340 
 20 N        5.4290     8.0910     1.4040 N.2   1 <1>  -0.3380 
 21 C        6.5310     7.4580     1.1090 C.2   1 <1>   0.3120 
 22 C        7.3730     5.7370    -0.2800 C.2   1 <1>  -0.1810 
 23 N        7.7670     7.7130     1.6510 N.2   1 <1>  -0.5760 
 24 C        8.6000     5.9790     0.2470 C.2   1 <1>  -0.1360 
 25 C        8.7520     6.9950     1.2290 C.2   1 <1>   0.3750 
 26 C       10.1310     7.2420     1.8010 C.3   1 <1>  -0.1790 
 27 H        3.2890     3.8610     0.8450 H     1 <1>   0.1500 
 28 H        1.1230     0.3760     2.7920 H     1 <1>   0.1500 
 29 H       -0.5830     2.2130     1.8220 H     1 <1>   0.1500 
 30 H        0.7740     3.8000    -2.3700 H     1 <1>   0.0800 
 31 H        2.0720     3.4700    -1.2830 H     1 <1>   0.0800 
 32 H       -0.6280     6.6080    -0.4470 H     1 <1>   0.0800 
 33 H       -0.0090     6.4130    -2.0530 H     1 <1>   0.0800 
 34 H        1.8760     5.6310    -3.3290 H     1 <1>   0.0800 
 35 H        3.1410     4.4830    -3.0740 H     1 <1>   0.0800 
 36 H        1.6810     7.2960     0.3130 H     1 <1>   0.0800 
 37 H        0.8610     8.4020    -0.7270 H     1 <1>   0.0800 
 38 H        3.2140     8.2170    -1.3710 H     1 <1>   0.0800 
 39 H        2.1620     7.7290    -2.6480 H     1 <1>   0.0800 
 40 H        7.1760     4.9870    -1.0250 H     1 <1>   0.1500 
 41 H        9.4700     5.4240    -0.0550 H     1 <1>   0.1500 
 42 H       10.4930     6.3520     2.2810 H     1 <1>   0.0800 
 43 H       10.0950     8.0340     2.5280 H     1 <1>   0.0800 
 44 H       10.8080     7.5250     1.0170 H     1 <1>   0.0800 
@<TRIPOS>BOND
  1   1   2  1   
  2   1   3  1   
  3   2   4  2   
  4   2  27  1   
  5   3   5  2   
  6   3  28  1   
  7   4   5  1   
  8   4   6  1   
  9   5  29  1   
 10   6   7  2   
 11   6   8  am  
 12   8   9  1   
 13   8  10  1   
 14   9  11  1   
 15   9  30  1   
 16   9  31  1   
 17  10  12  1   
 18  10  32  1   
 19  10  33  1   
 20  11  13  1   
 21  11  34  1   
 22  11  35  1   
 23  12  14  1   
 24  12  36  1   
 25  12  37  1   
 26  13  14  1   
 27  13  15  am  
 28  14  38  1   
 29  14  39  1   
 30  15  16  2   
 31  15  17  1   
 32  17  18  2   
 33  17  19  1   
 34  18  20  1   
 35  19  21  1   
 36  19  22  1   
 37  20  21  2   
 38  21  23  1   
 39  22  24  2   
 40  22  40  1   
 41  23  25  2   
 42  24  25  1   
 43  24  41  1   
 44  25  26  1   
 45  26  42  1   
 46  26  43  1   
 47  26  44  1   
@<TRIPOS>SUBSTRUCTURE
  1 ****  15 GROUP 4 **** **** 0

# MOE 2024.06 (io_trps.svl 2023.06)
