@<TRIPOS>MOLECULE
NONAME
51 53 1 0 0 
SMALL
USER_CHARGES


@<TRIPOS>ATOM
  1 O       -0.5420    -0.0900     1.8990 O.2   1 <1>  -0.5700 
  2 C       -1.0500     0.6350     1.0700 C.2   1 <1>   0.5690 
  3 N       -2.2270     0.2380     0.4730 N.am  1 <1>  -0.6600 
  4 C       -0.3620     2.0060     0.7680 C.3   1 <1>   0.3410 
  5 C       -3.0730     1.0050    -0.4760 C.3   1 <1>   0.1400 
  6 C       -2.8290    -1.0970     0.7240 C.3   1 <1>   0.1400 
  7 O       -0.5580     2.3390    -0.6130 O.3   1 <1>  -0.3630 
  8 C        1.1580     1.9420     1.0250 C.3   1 <1>  -0.2400 
  9 C       -0.9830     3.0950     1.6640 C.3   1 <1>  -0.2400 
 10 C       -4.4290     0.3060    -0.4270 C.3   1 <1>   0.2000 
 11 C       -4.0920    -1.1620    -0.1530 C.3   1 <1>  -0.0800 
 12 C       -0.1500     3.5150    -1.1440 C.ar  1 <1>   0.0820 
 13 O       -5.1310     0.7910     0.6630 O.3   1 <1>  -0.6800 
 14 C       -3.8450    -1.9240    -1.4710 C.3   1 <1>  -0.0170 
 15 C       -0.9970     4.6140    -1.1340 C.ar  1 <1>  -0.1500 
 16 C        1.0950     3.6040    -1.7450 C.ar  1 <1>  -0.1500 
 17 C       -3.6630    -3.4160    -1.2410 C.ar  1 <1>   0.1670 
 18 C       -0.5890     5.8140    -1.6920 C.ar  1 <1>  -0.1440 
 19 C        1.5050     4.8010    -2.3050 C.ar  1 <1>  -0.1500 
 20 N       -2.4190    -3.8590    -1.1580 N.ar  1 <1>  -0.6200 
 21 C       -4.7810    -4.2430    -1.1310 C.ar  1 <1>   0.1600 
 22 C        0.6660     5.9020    -2.2750 C.ar  1 <1>  -0.1500 
 23 C       -1.5060     7.0240    -1.6770 C.3   1 <1>  -0.0970 
 24 C       -2.3670    -5.1640    -0.9550 C.ar  1 <1>   0.1600 
 25 N       -4.7310    -5.5490    -0.9280 N.ar  1 <1>  -0.6200 
 26 C       -3.4850    -5.9820    -0.8440 C.ar  1 <1>   0.1600 
 27 H       -3.1530     2.0430    -0.2060 H     1 <1>   0.0800 
 28 H       -2.6510     0.9240    -1.4630 H     1 <1>   0.0800 
 29 H       -2.1200    -1.8730     0.4910 H     1 <1>   0.0800 
 30 H       -3.0910    -1.1710     1.7650 H     1 <1>   0.0800 
 31 H        1.3460     1.6550     2.0440 H     1 <1>   0.0800 
 32 H        1.6220     2.8970     0.8650 H     1 <1>   0.0800 
 33 H        1.6070     1.2060     0.3830 H     1 <1>   0.0800 
 34 H       -0.8840     2.8050     2.6940 H     1 <1>   0.0800 
 35 H       -2.0280     3.2110     1.4500 H     1 <1>   0.0800 
 36 H       -0.4790     4.0360     1.5370 H     1 <1>   0.0800 
 37 H       -5.0220     0.4660    -1.3110 H     1 <1>   0.0800 
 38 H       -4.8960    -1.6450     0.3740 H     1 <1>   0.0800 
 39 H       -4.5480     0.7580     1.4490 H     1 <1>   0.4000 
 40 H       -2.9730    -1.5340    -1.9700 H     1 <1>   0.0800 
 41 H       -4.6830    -1.7810    -2.1290 H     1 <1>   0.0800 
 42 H       -1.9710     4.5220    -0.6920 H     1 <1>   0.1500 
 43 H        1.7340     2.7410    -1.7740 H     1 <1>   0.1500 
 44 H        2.4740     4.8760    -2.7670 H     1 <1>   0.1500 
 45 H       -5.7590    -3.8040    -1.2120 H     1 <1>   0.1500 
 46 H        0.9930     6.8290    -2.7130 H     1 <1>   0.1500 
 47 H       -0.9430     7.9140    -1.4590 H     1 <1>   0.0800 
 48 H       -2.2690     6.9140    -0.9280 H     1 <1>   0.0800 
 49 H       -1.9760     7.1360    -2.6370 H     1 <1>   0.0800 
 50 H       -1.3910    -5.6090    -0.8730 H     1 <1>   0.1500 
 51 H       -3.3400    -7.0350    -0.6790 H     1 <1>   0.1500 
@<TRIPOS>BOND
  1   1   2  2   
  2   2   3  am  
  3   2   4  1   
  4   3   5  1   
  5   3   6  1   
  6   4   7  1   
  7   4   8  1   
  8   4   9  1   
  9   5  10  1   
 10   5  27  1   
 11   5  28  1   
 12   6  11  1   
 13   6  29  1   
 14   6  30  1   
 15   7  12  1   
 16   8  31  1   
 17   8  32  1   
 18   8  33  1   
 19   9  34  1   
 20   9  35  1   
 21   9  36  1   
 22  10  11  1   
 23  10  13  1   
 24  10  37  1   
 25  11  14  1   
 26  11  38  1   
 27  12  15  ar  
 28  12  16  ar  
 29  13  39  1   
 30  14  17  1   
 31  14  40  1   
 32  14  41  1   
 33  15  18  ar  
 34  15  42  1   
 35  16  19  ar  
 36  16  43  1   
 37  17  20  ar  
 38  17  21  ar  
 39  18  22  ar  
 40  18  23  1   
 41  19  22  ar  
 42  19  44  1   
 43  20  24  ar  
 44  21  25  ar  
 45  21  45  1   
 46  22  46  1   
 47  23  47  1   
 48  23  48  1   
 49  23  49  1   
 50  24  26  ar  
 51  24  50  1   
 52  25  26  ar  
 53  26  51  1   
@<TRIPOS>SUBSTRUCTURE
  1 ****   3 GROUP 4 **** **** 0

# MOE 2024.06 (io_trps.svl 2023.06)
