@<TRIPOS>MOLECULE
NONAME
43 46 1 0 0 
SMALL
USER_CHARGES


@<TRIPOS>ATOM
  1 O        0.2240    -0.0170    -0.5390 O.3   1 <1>  -0.5600 
  2 C        1.4630    -0.6330    -0.7620 C.3   1 <1>   0.3440 
  3 C        0.1510     1.3340    -0.8880 C.3   1 <1>   0.2950 
  4 C        1.3910    -2.0950    -0.3480 C.ar  1 <1>  -0.1440 
  5 C        2.5560     0.0770     0.0690 C.3   1 <1>   0.3430 
  6 C       -1.3000     1.7770    -0.6600 C.3   1 <1>  -0.1950 
  7 C        1.1780     2.1390    -0.0530 C.3   1 <1>   0.3430 
  8 C        2.1160    -3.0460    -1.0540 C.ar  1 <1>  -0.1500 
  9 C        0.6280    -2.5000     0.7400 C.ar  1 <1>  -0.1500 
 10 N        2.5780     1.5740    -0.1270 N.4   1 <1>  -0.9590 
 11 C       -1.6920     3.1960    -0.3760 C.3   1 <1>  -0.2000 
 12 C       -1.8590     2.1400     0.6820 C.3   1 <1>  -0.2000 
 13 C        2.0870    -4.3760    -0.6730 C.ar  1 <1>  -0.1500 
 14 C        0.5990    -3.8300     1.1210 C.ar  1 <1>  -0.1500 
 15 C        3.4940     2.2410     0.8370 C.3   1 <1>   0.5240 
 16 C        1.3300    -4.7680     0.4160 C.ar  1 <1>  -0.1500 
 17 C        3.6120     3.6960     0.4450 C.2   1 <1>  -0.1810 
 18 C        4.4600     4.2600    -0.4430 C.2   1 <1>  -0.0100 
 19 C        2.8400     4.7560     0.9510 C.2   1 <1>  -0.1500 
 20 O        4.2510     5.5560    -0.5240 O.3   1 <1>  -0.2800 
 21 C        3.2830     5.8610     0.3150 C.2   1 <1>  -0.0100 
 22 H        1.6830    -0.5700    -1.8140 H     1 <1>   0.0800 
 23 H        0.3780     1.4270    -1.9370 H     1 <1>   0.0800 
 24 H        3.5140    -0.3460    -0.1850 H     1 <1>   0.0800 
 25 H        2.3670    -0.1510     1.1050 H     1 <1>   0.0800 
 26 H       -1.9620     1.2340    -1.3160 H     1 <1>   0.1000 
 27 H        0.8430     2.1360     0.9700 H     1 <1>   0.0800 
 28 H        1.1750     3.1610    -0.3930 H     1 <1>   0.0800 
 29 H        2.7090    -2.7700    -1.9090 H     1 <1>   0.1500 
 30 H        0.0430    -1.7860     1.2950 H     1 <1>   0.1500 
 31 H        2.9420     1.7870    -1.0650 H     1 <1>   0.4500 
 32 H       -0.9580     3.9640    -0.2100 H     1 <1>   0.1000 
 33 H       -2.5800     3.5870    -0.8450 H     1 <1>   0.1000 
 34 H       -2.8540     1.8040     0.9230 H     1 <1>   0.1000 
 35 H       -1.2250     2.1660     1.5500 H     1 <1>   0.1000 
 36 H        2.6500    -5.1100    -1.2240 H     1 <1>   0.1500 
 37 H        0.0030    -4.1370     1.9640 H     1 <1>   0.1500 
 38 H        3.1180     2.1560     1.8430 H     1 <1>   0.0800 
 39 H        4.4690     1.7830     0.7950 H     1 <1>   0.0800 
 40 H        1.3060    -5.8030     0.7120 H     1 <1>   0.1500 
 41 H        5.2360     3.8350    -1.0600 H     1 <1>   0.1500 
 42 H        2.0660     4.6960     1.6970 H     1 <1>   0.1500 
 43 H        2.9760     6.8910     0.3980 H     1 <1>   0.1500 
@<TRIPOS>BOND
  1   1   2  1   
  2   1   3  1   
  3   2   4  1   
  4   2   5  1   
  5   2  22  1   
  6   3   6  1   
  7   3   7  1   
  8   3  23  1   
  9   4   8  ar  
 10   4   9  ar  
 11   5  10  1   
 12   5  24  1   
 13   5  25  1   
 14   6  11  1   
 15   6  12  1   
 16   6  26  1   
 17   7  10  1   
 18   7  27  1   
 19   7  28  1   
 20   8  13  ar  
 21   8  29  1   
 22   9  14  ar  
 23   9  30  1   
 24  10  15  1   
 25  10  31  1   
 26  11  12  1   
 27  11  32  1   
 28  11  33  1   
 29  12  34  1   
 30  12  35  1   
 31  13  16  ar  
 32  13  36  1   
 33  14  16  ar  
 34  14  37  1   
 35  15  17  1   
 36  15  38  1   
 37  15  39  1   
 38  16  40  1   
 39  17  18  2   
 40  17  19  1   
 41  18  20  1   
 42  18  41  1   
 43  19  21  2   
 44  19  42  1   
 45  20  21  1   
 46  21  43  1   
@<TRIPOS>SUBSTRUCTURE
  1 ****   5 GROUP 4 **** **** 0

# MOE 2024.06 (io_trps.svl 2023.06)
