@<TRIPOS>MOLECULE
NONAME
38 40 1 0 0 
SMALL
USER_CHARGES


@<TRIPOS>ATOM
  1 O       -0.8050     0.2770     1.2810 O.2   1 <1>  -0.5700 
  2 C       -1.5640     0.9160     0.5580 C.2   1 <1>   0.5440 
  3 N       -2.5690     0.1710    -0.0490 N.am  1 <1>  -0.6600 
  4 C       -1.3840     2.3480     0.3990 C.ar  1 <1>   0.3960 
  5 C       -3.8030     0.7040    -0.6830 C.3   1 <1>   0.1400 
  6 C       -2.6130    -1.3140    -0.0180 C.3   1 <1>   0.1400 
  7 N       -2.0030     3.0310    -0.6040 N.ar  1 <1>  -0.6200 
  8 C       -0.5510     3.0260     1.3050 C.ar  1 <1>   0.1600 
  9 C       -4.8000    -0.4500    -0.5960 C.3   1 <1>   0.2000 
 10 C       -3.9160    -1.6920    -0.7290 C.3   1 <1>  -0.0800 
 11 C       -1.7480     4.3110    -0.6010 C.ar  1 <1>   0.1600 
 12 N       -0.2920     4.3100     1.3190 N.ar  1 <1>  -0.6200 
 13 O       -5.3740    -0.4250     0.6670 O.3   1 <1>  -0.6800 
 14 C       -4.5340    -3.0100    -0.2290 C.3   1 <1>   0.0210 
 15 C       -0.9170     4.9730     0.3320 C.ar  1 <1>   0.1390 
 16 C       -3.5530    -4.1560    -0.3790 C.2   1 <1>   0.1080 
 17 O       -0.7480     6.2010     0.2550 O.3   1 <1>  -0.8290 
 18 N       -3.0840    -4.5370    -1.5270 N.2   1 <1>  -0.7070 
 19 C       -3.0420    -4.9090     0.6730 C.2   1 <1>  -0.1500 
 20 N       -2.2530    -5.5540    -1.2340 N.pl3 1 <1>   0.3000 
 21 C       -2.2090    -5.7980     0.0920 C.2   1 <1>  -0.3320 
 22 C       -1.3610    -6.8800     0.7340 C.3   1 <1>  -0.0600 
 23 H       -4.1690     1.5840    -0.1810 H     1 <1>   0.0800 
 24 H       -3.5920     0.9390    -1.7110 H     1 <1>   0.0800 
 25 H       -1.7560    -1.7310    -0.5200 H     1 <1>   0.0800 
 26 H       -2.6200    -1.6450     1.0070 H     1 <1>   0.0800 
 27 H       -0.0750     2.4450     2.0710 H     1 <1>   0.1500 
 28 H       -5.5820    -0.3950    -1.3340 H     1 <1>   0.0800 
 29 H       -3.6790    -1.8140    -1.7730 H     1 <1>   0.0800 
 30 H       -2.1860     4.9420    -1.3500 H     1 <1>   0.1500 
 31 H       -4.6610    -0.2640     1.3190 H     1 <1>   0.4000 
 32 H       -5.4170    -3.2330    -0.8000 H     1 <1>   0.0800 
 33 H       -4.8180    -2.9270     0.8050 H     1 <1>   0.0800 
 34 H       -3.2770    -4.7850     1.7150 H     1 <1>   0.1500 
 35 H       -1.7320    -6.0600    -1.9610 H     1 <1>   0.2700 
 36 H       -1.4980    -6.8730     1.8010 H     1 <1>   0.0800 
 37 H       -0.3200    -6.7130     0.5210 H     1 <1>   0.0800 
 38 H       -1.6460    -7.8470     0.3590 H     1 <1>   0.0800 
@<TRIPOS>BOND
  1   1   2  2   
  2   2   3  am  
  3   2   4  1   
  4   3   5  1   
  5   3   6  1   
  6   4   7  ar  
  7   4   8  ar  
  8   5   9  1   
  9   5  23  1   
 10   5  24  1   
 11   6  10  1   
 12   6  25  1   
 13   6  26  1   
 14   7  11  ar  
 15   8  12  ar  
 16   8  27  1   
 17   9  10  1   
 18   9  13  1   
 19   9  28  1   
 20  10  14  1   
 21  10  29  1   
 22  11  15  ar  
 23  11  30  1   
 24  12  15  ar  
 25  13  31  1   
 26  14  16  1   
 27  14  32  1   
 28  14  33  1   
 29  15  17  1   
 30  16  18  2   
 31  16  19  1   
 32  18  20  1   
 33  19  21  2   
 34  19  34  1   
 35  20  21  1   
 36  20  35  1   
 37  21  22  1   
 38  22  36  1   
 39  22  37  1   
 40  22  38  1   
@<TRIPOS>SUBSTRUCTURE
  1 ****   3 GROUP 4 **** **** 0

# MOE 2024.06 (io_trps.svl 2023.06)
