@<TRIPOS>MOLECULE
NONAME
60 63 1 0 0 
SMALL
USER_CHARGES


@<TRIPOS>ATOM
  1 O        0.0880    -1.1260     2.6670 O.2   1 <1>  -0.5700 
  2 C        0.5900    -1.7840     1.7870 C.2   1 <1>   0.5690 
  3 N        1.7030    -1.3240     1.1340 N.am  1 <1>  -0.6600 
  4 C       -0.1130    -3.0960     1.4740 C.3   1 <1>  -0.0990 
  5 C        2.2930    -1.9340    -0.0970 C.3   1 <1>   0.1400 
  6 C        2.3110    -0.0160     1.5280 C.3   1 <1>   0.2840 
  7 C        0.4720    -3.9950     0.3870 C.3   1 <1>   0.1200 
  8 C        2.7840    -3.3980     0.0780 C.3   1 <1>   0.2800 
  9 C        1.8860     1.0850     0.5690 C.ar  1 <1>   0.1660 
 10 O        1.8170    -4.2300     0.6620 O.3   1 <1>  -0.5600 
 11 C        3.9920    -3.4630     1.0400 C.3   1 <1>  -0.1600 
 12 C        3.1270    -3.9990    -1.3020 C.3   1 <1>  -0.1600 
 13 N        2.7430     1.4390    -0.3810 N.ar  1 <1>  -0.6200 
 14 C        0.6290     1.6620     0.7280 C.ar  1 <1>   0.1600 
 15 C        5.3350    -3.4060     0.3110 C.3   1 <1>   0.1400 
 16 C        4.1770    -5.1040    -1.1930 C.3   1 <1>   0.1400 
 17 C        2.2580     2.4070    -1.1420 C.ar  1 <1>   0.1600 
 18 N        0.1490     2.6290    -0.0380 N.ar  1 <1>  -0.6200 
 19 N        5.4510    -4.5360    -0.6580 N.am  1 <1>  -0.6600 
 20 C        1.0020     2.9880    -0.9790 C.ar  1 <1>   0.1660 
 21 C        6.6450    -5.1860    -0.8980 C.2   1 <1>   0.5440 
 22 C        0.5370     4.0950    -1.9030 C.3   1 <1>  -0.0970 
 23 O        6.6230    -6.2840    -1.4220 O.2   1 <1>  -0.5700 
 24 C        7.9210    -4.6040    -0.5330 C.ar  1 <1>   0.0860 
 25 C        8.2990    -3.3200    -0.8950 C.ar  1 <1>  -0.1500 
 26 C        8.8610    -5.3050     0.2050 C.ar  1 <1>  -0.1500 
 27 C        9.5230    -2.8130    -0.5020 C.ar  1 <1>   0.1670 
 28 C       10.0620    -4.7150     0.5520 C.ar  1 <1>   0.1670 
 29 N       10.4040    -3.4830     0.2180 N.ar  1 <1>  -0.6200 
 30 C        9.9320    -1.4090    -0.8960 C.3   1 <1>  -0.0970 
 31 C       11.0840    -5.4840     1.3610 C.3   1 <1>  -0.0970 
 32 H       -1.1280    -2.8660     1.2110 H     1 <1>   0.0800 
 33 H       -0.1490    -3.6630     2.3860 H     1 <1>   0.0800 
 34 H        3.1330    -1.3420    -0.4170 H     1 <1>   0.0800 
 35 H        1.5720    -1.8730    -0.8920 H     1 <1>   0.0800 
 36 H        3.3830    -0.1020     1.5240 H     1 <1>   0.0800 
 37 H        2.0180     0.2520     2.5280 H     1 <1>   0.0800 
 38 H        0.3500    -3.5820    -0.5980 H     1 <1>   0.0800 
 39 H       -0.0260    -4.9490     0.4110 H     1 <1>   0.0800 
 40 H        3.9650    -4.3860     1.5940 H     1 <1>   0.0800 
 41 H        3.9440    -2.6660     1.7580 H     1 <1>   0.0800 
 42 H        3.5270    -3.2390    -1.9500 H     1 <1>   0.0800 
 43 H        2.2430    -4.3860    -1.7740 H     1 <1>   0.0800 
 44 H       -0.0060     1.3040     1.5210 H     1 <1>   0.1500 
 45 H        6.1300    -3.4620     1.0360 H     1 <1>   0.0800 
 46 H        5.4240    -2.4740    -0.2200 H     1 <1>   0.0800 
 47 H        4.3530    -5.5370    -2.1640 H     1 <1>   0.0800 
 48 H        3.8300    -5.8820    -0.5340 H     1 <1>   0.0800 
 49 H        2.8900     2.7610    -1.9370 H     1 <1>   0.1500 
 50 H        1.2830     4.3310    -2.6380 H     1 <1>   0.0800 
 51 H        0.3240     4.9770    -1.3260 H     1 <1>   0.0800 
 52 H       -0.3630     3.7880    -2.4050 H     1 <1>   0.0800 
 53 H        7.6300    -2.7260    -1.4890 H     1 <1>   0.1500 
 54 H        8.6390    -6.3140     0.5010 H     1 <1>   0.1500 
 55 H        9.1710    -0.9320    -1.4860 H     1 <1>   0.0800 
 56 H       10.8410    -1.4490    -1.4680 H     1 <1>   0.0800 
 57 H       10.1070    -0.8250    -0.0110 H     1 <1>   0.0800 
 58 H       10.7340    -6.4730     1.5920 H     1 <1>   0.0800 
 59 H       11.2830    -4.9610     2.2790 H     1 <1>   0.0800 
 60 H       11.9980    -5.5610     0.8020 H     1 <1>   0.0800 
@<TRIPOS>BOND
  1   1   2  2   
  2   2   3  am  
  3   2   4  1   
  4   3   5  1   
  5   3   6  1   
  6   4   7  1   
  7   4  32  1   
  8   4  33  1   
  9   5   8  1   
 10   5  34  1   
 11   5  35  1   
 12   6   9  1   
 13   6  36  1   
 14   6  37  1   
 15   7  10  1   
 16   7  38  1   
 17   7  39  1   
 18   8  10  1   
 19   8  11  1   
 20   8  12  1   
 21   9  13  ar  
 22   9  14  ar  
 23  11  15  1   
 24  11  40  1   
 25  11  41  1   
 26  12  16  1   
 27  12  42  1   
 28  12  43  1   
 29  13  17  ar  
 30  14  18  ar  
 31  14  44  1   
 32  15  19  1   
 33  15  45  1   
 34  15  46  1   
 35  16  19  1   
 36  16  47  1   
 37  16  48  1   
 38  17  20  ar  
 39  17  49  1   
 40  18  20  ar  
 41  19  21  am  
 42  20  22  1   
 43  21  23  2   
 44  21  24  1   
 45  22  50  1   
 46  22  51  1   
 47  22  52  1   
 48  24  25  ar  
 49  24  26  ar  
 50  25  27  ar  
 51  25  53  1   
 52  26  28  ar  
 53  26  54  1   
 54  27  29  ar  
 55  27  30  1   
 56  28  29  ar  
 57  28  31  1   
 58  30  55  1   
 59  30  56  1   
 60  30  57  1   
 61  31  58  1   
 62  31  59  1   
 63  31  60  1   
@<TRIPOS>SUBSTRUCTURE
  1 ****  15 GROUP 4 **** **** 0

# MOE 2024.06 (io_trps.svl 2023.06)
