@<TRIPOS>MOLECULE
NONAME
52 54 1 0 0 
SMALL
USER_CHARGES


@<TRIPOS>ATOM
  1 O        1.3430     0.9520     1.0980 O.2   1 <1>  -0.5700 
  2 C        1.9030     0.1470     0.3840 C.2   1 <1>   0.5440 
  3 N        2.1050     0.4830    -0.9410 N.am  1 <1>  -0.6600 
  4 C        2.3670    -1.1110     0.9270 C.ar  1 <1>   0.0860 
  5 C        3.1470    -0.1770    -1.7950 C.3   1 <1>   0.1400 
  6 C        1.2820     1.5400    -1.5920 C.3   1 <1>   0.1400 
  7 C        1.7750    -2.3340     0.5910 C.ar  1 <1>   0.1660 
  8 C        3.4580    -1.1450     1.7820 C.ar  1 <1>  -0.1500 
  9 C        4.1860     0.8280    -2.3360 C.3   1 <1>   0.3430 
 10 C        1.9070     2.9240    -1.3760 C.3   1 <1>  -0.1600 
 11 N        2.2140    -3.5170     0.9870 N.ar  1 <1>  -0.6200 
 12 C        0.5380    -2.3890    -0.2920 C.3   1 <1>  -0.0960 
 13 C        3.9130    -2.3710     2.2080 C.ar  1 <1>  -0.1500 
 14 N        4.2280     2.0740    -1.5000 N.4   1 <1>  -0.9590 
 15 C        3.2950     3.1190    -1.9870 C.3   1 <1>   0.3430 
 16 C        3.2680    -3.5200     1.7840 C.ar  1 <1>   0.1670 
 17 C        5.6130     2.5620    -1.2300 C.3   1 <1>   0.5230 
 18 C        3.7580    -4.8800     2.2310 C.3   1 <1>  -0.0970 
 19 C        6.3620     1.5700    -0.3480 C.2   1 <1>   0.0060 
 20 N        5.8180     0.5500     0.2220 N.2   1 <1>  -0.3380 
 21 N        7.6650     1.6430    -0.0560 N.pl3 1 <1>   0.0330 
 22 N        6.7720    -0.0780     0.9020 N.2   1 <1>  -0.3380 
 23 C        7.8620     0.5840     0.7300 C.2   1 <1>   0.0060 
 24 C        9.2050     0.2130     1.3360 C.3   1 <1>   0.0200 
 25 C        9.7100     1.2940     2.2980 C.3   1 <1>  -0.2400 
 26 H        2.6750    -0.6900    -2.6150 H     1 <1>   0.0800 
 27 H        3.6780    -0.9190    -1.2230 H     1 <1>   0.0800 
 28 H        0.2950     1.5300    -1.1560 H     1 <1>   0.0800 
 29 H        1.1740     1.3290    -2.6430 H     1 <1>   0.0800 
 30 H        3.9430    -0.2370     2.0950 H     1 <1>   0.1500 
 31 H        3.9470     1.0770    -3.3570 H     1 <1>   0.0800 
 32 H        5.1480     0.3420    -2.3340 H     1 <1>   0.0800 
 33 H        1.9440     3.1340    -0.3210 H     1 <1>   0.0800 
 34 H        1.2480     3.6560    -1.8080 H     1 <1>   0.0800 
 35 H       -0.0760    -1.5180    -0.1620 H     1 <1>   0.0800 
 36 H       -0.0530    -3.2500    -0.0350 H     1 <1>   0.0800 
 37 H        0.8310    -2.4710    -1.3210 H     1 <1>   0.0800 
 38 H        4.7650    -2.4290     2.8610 H     1 <1>   0.1500 
 39 H        3.8600     1.7560    -0.5820 H     1 <1>   0.4500 
 40 H        3.6550     4.0950    -1.7020 H     1 <1>   0.0800 
 41 H        3.2330     3.0870    -3.0630 H     1 <1>   0.0800 
 42 H        5.5680     3.5080    -0.7170 H     1 <1>   0.0800 
 43 H        6.1410     2.6990    -2.1590 H     1 <1>   0.0800 
 44 H        2.9730    -5.3840     2.7640 H     1 <1>   0.0800 
 45 H        4.6150    -4.7930     2.8720 H     1 <1>   0.0800 
 46 H        4.0230    -5.4660     1.3700 H     1 <1>   0.0800 
 47 H        8.3740     2.3260    -0.3360 H     1 <1>   0.2700 
 48 H        9.9240     0.0540     0.5510 H     1 <1>   0.0800 
 49 H        9.0990    -0.7140     1.8730 H     1 <1>   0.0800 
 50 H        9.8770     2.2220     1.7830 H     1 <1>   0.0800 
 51 H       10.6370     0.9800     2.7470 H     1 <1>   0.0800 
 52 H        8.9900     1.4530     3.0820 H     1 <1>   0.0800 
@<TRIPOS>BOND
  1   1   2  2   
  2   2   3  am  
  3   2   4  1   
  4   3   5  1   
  5   3   6  1   
  6   4   7  ar  
  7   4   8  ar  
  8   5   9  1   
  9   5  26  1   
 10   5  27  1   
 11   6  10  1   
 12   6  28  1   
 13   6  29  1   
 14   7  11  ar  
 15   7  12  1   
 16   8  13  ar  
 17   8  30  1   
 18   9  14  1   
 19   9  31  1   
 20   9  32  1   
 21  10  15  1   
 22  10  33  1   
 23  10  34  1   
 24  11  16  ar  
 25  12  35  1   
 26  12  36  1   
 27  12  37  1   
 28  13  16  ar  
 29  13  38  1   
 30  14  15  1   
 31  14  17  1   
 32  14  39  1   
 33  15  40  1   
 34  15  41  1   
 35  16  18  1   
 36  17  19  1   
 37  17  42  1   
 38  17  43  1   
 39  18  44  1   
 40  18  45  1   
 41  18  46  1   
 42  19  20  2   
 43  19  21  1   
 44  20  22  1   
 45  21  23  1   
 46  21  47  1   
 47  22  23  2   
 48  23  24  1   
 49  24  25  1   
 50  24  48  1   
 51  24  49  1   
 52  25  50  1   
 53  25  51  1   
 54  25  52  1   
@<TRIPOS>SUBSTRUCTURE
  1 ****  20 GROUP 4 **** **** 0

# MOE 2024.06 (io_trps.svl 2023.06)
