@<TRIPOS>MOLECULE
NONAME
35 36 1 0 0 
SMALL
USER_CHARGES


@<TRIPOS>ATOM
  1 S       -2.2980     0.2390    -0.8870 S.3   1 <1>  -0.0800 
  2 C       -2.3170     0.9370     0.7200 C.2   1 <1>   0.1980 
  3 C       -0.6910     0.8620    -1.1080 C.2   1 <1>  -0.1100 
  4 N       -1.2480     1.5590     1.0300 N.2   1 <1>  -0.5650 
  5 C       -3.5760     0.7360     1.5530 C.3   1 <1>   0.3890 
  6 C       -0.3190     1.5210     0.0020 C.2   1 <1>   0.0460 
  7 N       -3.7030    -0.6720     2.0080 N.pl3 1 <1>  -0.8690 
  8 C        1.0010     2.2280     0.2660 C.3   1 <1>   0.0210 
  9 C       -4.4270    -1.5840     1.3270 C.ar  1 <1>   0.7200 
 10 C        1.9860     2.1470    -0.9070 C.3   1 <1>  -0.2400 
 11 N       -3.9290    -2.8010     1.3790 N.ar  1 <1>  -0.6200 
 12 N       -5.5130    -1.1700     0.6990 N.ar  1 <1>  -0.6200 
 13 C       -4.6030    -3.7100     0.7200 C.ar  1 <1>   0.3930 
 14 C       -6.1690    -2.0970     0.0480 C.ar  1 <1>   0.3930 
 15 O       -4.0820    -4.9520     0.7790 O.3   1 <1>  -0.3630 
 16 C       -5.7530    -3.4100     0.0230 C.ar  1 <1>  -0.1500 
 17 O       -7.2730    -1.6630    -0.5920 O.3   1 <1>  -0.3630 
 18 C       -4.6550    -6.0620     0.1240 C.3   1 <1>   0.0400 
 19 C       -8.1090    -2.5100    -1.3500 C.3   1 <1>   0.0400 
 20 H       -0.2010     0.6670    -2.0430 H     1 <1>   0.1500 
 21 H       -4.4340     1.0390     0.9800 H     1 <1>   0.0800 
 22 H       -3.5190     1.3720     2.4190 H     1 <1>   0.0800 
 23 H       -2.8200    -1.0750     2.3190 H     1 <1>   0.4000 
 24 H        1.4530     1.7900     1.1390 H     1 <1>   0.0800 
 25 H        0.7960     3.2600     0.4870 H     1 <1>   0.0800 
 26 H        2.2240     1.1210    -1.1240 H     1 <1>   0.0800 
 27 H        2.8950     2.6650    -0.6590 H     1 <1>   0.0800 
 28 H        1.5600     2.6030    -1.7830 H     1 <1>   0.0800 
 29 H       -6.2950    -4.1590    -0.5100 H     1 <1>   0.1500 
 30 H       -4.0420    -6.9210     0.3300 H     1 <1>   0.0800 
 31 H       -4.6730    -5.8730    -0.9350 H     1 <1>   0.0800 
 32 H       -5.6470    -6.2220     0.5080 H     1 <1>   0.0800 
 33 H       -8.9100    -1.9140    -1.7500 H     1 <1>   0.0800 
 34 H       -8.5100    -3.2740    -0.7070 H     1 <1>   0.0800 
 35 H       -7.5370    -2.9380    -2.1540 H     1 <1>   0.0800 
@<TRIPOS>BOND
  1   1   2  1   
  2   1   3  1   
  3   2   4  2   
  4   2   5  1   
  5   3   6  2   
  6   3  20  1   
  7   4   6  1   
  8   5   7  1   
  9   5  21  1   
 10   5  22  1   
 11   6   8  1   
 12   7   9  1   
 13   7  23  1   
 14   8  10  1   
 15   8  24  1   
 16   8  25  1   
 17   9  11  ar  
 18   9  12  ar  
 19  10  26  1   
 20  10  27  1   
 21  10  28  1   
 22  11  13  ar  
 23  12  14  ar  
 24  13  15  1   
 25  13  16  ar  
 26  14  16  ar  
 27  14  17  1   
 28  15  18  1   
 29  16  29  1   
 30  17  19  1   
 31  18  30  1   
 32  18  31  1   
 33  18  32  1   
 34  19  33  1   
 35  19  34  1   
 36  19  35  1   
@<TRIPOS>SUBSTRUCTURE
  1 ****   9 GROUP 4 **** **** 0

# MOE 2024.06 (io_trps.svl 2023.06)
