@<TRIPOS>MOLECULE
NONAME
52 54 1 0 0 
SMALL
USER_CHARGES


@<TRIPOS>ATOM
  1 F        0.3320     1.1670    -0.6770 F     1 <1>  -0.1900 
  2 C       -0.2470     2.3200    -0.8830 C.ar  1 <1>   0.1900 
  3 C       -0.5400     3.1470     0.1970 C.ar  1 <1>  -0.1440 
  4 C       -0.5330     2.6670    -2.1890 C.ar  1 <1>  -0.1500 
  5 C       -1.1540     4.3680    -0.0570 C.ar  1 <1>  -0.1500 
  6 C       -0.2080     2.7600     1.6400 C.3   1 <1>   0.0450 
  7 C       -1.1370     3.8900    -2.3970 C.ar  1 <1>   0.1900 
  8 C       -1.4540     4.7460    -1.3570 C.ar  1 <1>  -0.1500 
  9 C        0.6260     3.8230     2.3410 C.2   1 <1>   0.5690 
 10 F       -1.4190     4.2530    -3.6180 F     1 <1>  -0.1900 
 11 O        0.0740     4.4800     3.1930 O.2   1 <1>  -0.5700 
 12 N        1.9400     4.0450     2.0070 N.am  1 <1>  -0.6600 
 13 C        2.7050     3.3280     0.9350 C.3   1 <1>   0.1400 
 14 C        2.7180     5.1230     2.6750 C.3   1 <1>   0.1400 
 15 C        2.8260     4.1550    -0.3560 C.3   1 <1>   0.1400 
 16 C        2.4590     6.4840     2.0150 C.3   1 <1>  -0.1600 
 17 N        3.3790     5.5230    -0.1070 N.am  1 <1>  -0.6600 
 18 C        2.3940     6.4730     0.4800 C.3   1 <1>   0.1400 
 19 C        4.6930     5.8070    -0.3770 C.2   1 <1>   0.5690 
 20 O        5.4550     4.9470    -0.7520 O.2   1 <1>  -0.5700 
 21 C        5.2190     7.2290    -0.1990 C.3   1 <1>  -0.0990 
 22 C        6.7200     7.3930    -0.5060 C.3   1 <1>  -0.1600 
 23 C        7.1940     8.8400    -0.3140 C.3   1 <1>   0.0210 
 24 C        8.6770     9.0030    -0.6070 C.2   1 <1>  -0.1810 
 25 C        9.3900    10.1960    -0.5250 C.2   1 <1>   0.1390 
 26 C        9.5950     8.0880    -0.9900 C.2   1 <1>  -0.3020 
 27 N       10.6430    10.0470    -0.8290 N.2   1 <1>  -0.7070 
 28 N       10.7670     8.7390    -1.1170 N.pl3 1 <1>   0.3000 
 29 H       -0.2970     2.0140    -3.0090 H     1 <1>   0.1500 
 30 H       -1.4000     5.0300     0.7590 H     1 <1>   0.1500 
 31 H        0.3080     1.8210     1.6970 H     1 <1>   0.0800 
 32 H       -1.1300     2.6410     2.1800 H     1 <1>   0.0800 
 33 H       -1.9280     5.6900    -1.5640 H     1 <1>   0.1500 
 34 H        2.2420     2.3870     0.7040 H     1 <1>   0.0800 
 35 H        3.6950     3.1060     1.2930 H     1 <1>   0.0800 
 36 H        3.7680     4.8920     2.6200 H     1 <1>   0.0800 
 37 H        2.4500     5.1700     3.7170 H     1 <1>   0.0800 
 38 H        1.8600     4.2420    -0.8200 H     1 <1>   0.0800 
 39 H        3.4570     3.6240    -1.0470 H     1 <1>   0.0800 
 40 H        3.2250     7.1660     2.3350 H     1 <1>   0.0800 
 41 H        1.5280     6.8710     2.3890 H     1 <1>   0.0800 
 42 H        2.5540     7.4660     0.0980 H     1 <1>   0.0800 
 43 H        1.4030     6.1760     0.1800 H     1 <1>   0.0800 
 44 H        5.0410     7.5310     0.8150 H     1 <1>   0.0800 
 45 H        4.6590     7.8740    -0.8510 H     1 <1>   0.0800 
 46 H        6.9080     7.0900    -1.5220 H     1 <1>   0.0800 
 47 H        7.2850     6.7450     0.1420 H     1 <1>   0.0800 
 48 H        7.0090     9.1480     0.7000 H     1 <1>   0.0800 
 49 H        6.6410     9.4900    -0.9700 H     1 <1>   0.0800 
 50 H        8.9610    11.1430    -0.2430 H     1 <1>   0.1500 
 51 H        9.4850     7.0350    -1.1760 H     1 <1>   0.1500 
 52 H       11.6630     8.3220    -1.3970 H     1 <1>   0.2700 
@<TRIPOS>BOND
  1   1   2  1   
  2   2   3  ar  
  3   2   4  ar  
  4   3   5  ar  
  5   3   6  1   
  6   4   7  ar  
  7   4  29  1   
  8   5   8  ar  
  9   5  30  1   
 10   6   9  1   
 11   6  31  1   
 12   6  32  1   
 13   7   8  ar  
 14   7  10  1   
 15   8  33  1   
 16   9  11  2   
 17   9  12  am  
 18  12  13  1   
 19  12  14  1   
 20  13  15  1   
 21  13  34  1   
 22  13  35  1   
 23  14  16  1   
 24  14  36  1   
 25  14  37  1   
 26  15  17  1   
 27  15  38  1   
 28  15  39  1   
 29  16  18  1   
 30  16  40  1   
 31  16  41  1   
 32  17  18  1   
 33  17  19  am  
 34  18  42  1   
 35  18  43  1   
 36  19  20  2   
 37  19  21  1   
 38  21  22  1   
 39  21  44  1   
 40  21  45  1   
 41  22  23  1   
 42  22  46  1   
 43  22  47  1   
 44  23  24  1   
 45  23  48  1   
 46  23  49  1   
 47  24  25  1   
 48  24  26  2   
 49  25  27  2   
 50  25  50  1   
 51  26  28  1   
 52  26  51  1   
 53  27  28  1   
 54  28  52  1   
@<TRIPOS>SUBSTRUCTURE
  1 ****  17 GROUP 4 **** **** 0

# MOE 2024.06 (io_trps.svl 2023.06)
