@<TRIPOS>MOLECULE
NONAME
50 54 1 0 0 
SMALL
USER_CHARGES


@<TRIPOS>ATOM
  1 O       -1.0900     0.5680    -1.6510 O.2   1 <1>  -0.5700 
  2 C       -1.8230     1.0370    -0.8020 C.2   1 <1>   0.5440 
  3 N       -2.8050     0.2450    -0.2550 N.am  1 <1>  -0.6600 
  4 C       -1.6590     2.4060    -0.3760 C.ar  1 <1>   0.0860 
  5 C       -3.5860     0.5860     0.9600 C.3   1 <1>   0.1400 
  6 C       -2.9960    -1.1800    -0.6160 C.3   1 <1>   0.1400 
  7 C       -0.5390     2.8270     0.3800 C.ar  1 <1>   0.0000 
  8 C       -2.6000     3.3580    -0.6690 C.ar  1 <1>  -0.1500 
  9 C       -4.2640    -0.7200     1.3810 C.3   1 <1>   0.2000 
 10 C       -3.5100    -1.8400     0.6650 C.3   1 <1>  -0.0800 
 11 C       -0.4940     4.1750     0.8010 C.ar  1 <1>   0.3100 
 12 C        0.5290     1.9760     0.7420 C.ar  1 <1>  -0.1500 
 13 C       -2.4580     4.6710    -0.2190 C.ar  1 <1>   0.2780 
 14 O       -4.1960    -0.9100     2.7520 O.3   1 <1>  -0.6800 
 15 C       -4.3830    -3.0840     0.4290 C.3   1 <1>  -0.0160 
 16 N       -1.4580     5.0760     0.4990 N.ar  1 <1>  -0.6200 
 17 C        0.5970     4.6060     1.5720 C.ar  1 <1>  -0.1500 
 18 C        1.5800     2.4280     1.4930 C.ar  1 <1>  -0.1500 
 19 C       -3.5340     5.6870    -0.5700 C.3   1 <1>  -0.0680 
 20 C       -3.6120    -4.1930    -0.2690 C.ar  1 <1>   0.1670 
 21 C        1.6150     3.7590     1.9170 C.ar  1 <1>  -0.1500 
 22 C       -4.0640     5.8160    -1.9700 C.3   1 <1>  -0.2000 
 23 C       -3.1860     6.8860    -1.4010 C.3   1 <1>  -0.2000 
 24 N       -3.5160    -4.1060    -1.5850 N.ar  1 <1>  -0.6200 
 25 C       -3.0490    -5.2270     0.4780 C.ar  1 <1>   0.1600 
 26 C       -2.8220    -5.1080    -2.1000 C.ar  1 <1>   0.1600 
 27 N       -2.3550    -6.2300    -0.0350 N.ar  1 <1>  -0.6200 
 28 C       -2.2610    -6.1340    -1.3500 C.ar  1 <1>   0.1600 
 29 H       -2.9220     0.9440     1.7280 H     1 <1>   0.0800 
 30 H       -4.3230     1.3340     0.7290 H     1 <1>   0.0800 
 31 H       -3.7260    -1.2480    -1.4050 H     1 <1>   0.0800 
 32 H       -2.0750    -1.6310    -0.9490 H     1 <1>   0.0800 
 33 H       -3.4650     3.0980    -1.2510 H     1 <1>   0.1500 
 34 H       -5.3020    -0.6990     1.0930 H     1 <1>   0.0800 
 35 H       -2.6450    -2.1160     1.2430 H     1 <1>   0.0800 
 36 H        0.5170     0.9500     0.4140 H     1 <1>   0.1500 
 37 H       -3.2650    -0.9260     3.0480 H     1 <1>   0.4000 
 38 H       -5.2390    -2.8250    -0.1700 H     1 <1>   0.0800 
 39 H       -4.7500    -3.4420     1.3750 H     1 <1>   0.0800 
 40 H        0.6070     5.6350     1.8840 H     1 <1>   0.1500 
 41 H        2.3890     1.7700     1.7620 H     1 <1>   0.1500 
 42 H       -4.2140     5.8490     0.2470 H     1 <1>   0.1000 
 43 H        2.4470     4.1030     2.5070 H     1 <1>   0.1500 
 44 H       -3.6580     5.2010    -2.7540 H     1 <1>   0.1000 
 45 H       -5.1100     6.0270    -2.1090 H     1 <1>   0.1000 
 46 H       -3.6170     7.8340    -1.1320 H     1 <1>   0.1000 
 47 H       -2.1730     6.9790    -1.7530 H     1 <1>   0.1000 
 48 H       -3.1760    -5.2240     1.5460 H     1 <1>   0.1500 
 49 H       -2.6900    -5.1170    -3.1680 H     1 <1>   0.1500 
 50 H       -1.7130    -6.9060    -1.8610 H     1 <1>   0.1500 
@<TRIPOS>BOND
  1   1   2  2   
  2   2   3  am  
  3   2   4  1   
  4   3   5  1   
  5   3   6  1   
  6   4   7  ar  
  7   4   8  ar  
  8   5   9  1   
  9   5  29  1   
 10   5  30  1   
 11   6  10  1   
 12   6  31  1   
 13   6  32  1   
 14   7  11  ar  
 15   7  12  ar  
 16   8  13  ar  
 17   8  33  1   
 18   9  10  1   
 19   9  14  1   
 20   9  34  1   
 21  10  15  1   
 22  10  35  1   
 23  11  16  ar  
 24  11  17  ar  
 25  12  18  ar  
 26  12  36  1   
 27  13  16  ar  
 28  13  19  1   
 29  14  37  1   
 30  15  20  1   
 31  15  38  1   
 32  15  39  1   
 33  17  21  ar  
 34  17  40  1   
 35  18  21  ar  
 36  18  41  1   
 37  19  22  1   
 38  19  23  1   
 39  19  42  1   
 40  20  24  ar  
 41  20  25  ar  
 42  21  43  1   
 43  22  23  1   
 44  22  44  1   
 45  22  45  1   
 46  23  46  1   
 47  23  47  1   
 48  24  26  ar  
 49  25  27  ar  
 50  25  48  1   
 51  26  28  ar  
 52  26  49  1   
 53  27  28  ar  
 54  28  50  1   
@<TRIPOS>SUBSTRUCTURE
  1 ****   3 GROUP 4 **** **** 0

# MOE 2024.06 (io_trps.svl 2023.06)
