@<TRIPOS>MOLECULE
NONAME
47 48 1 0 0 
SMALL
USER_CHARGES


@<TRIPOS>ATOM
  1 S        0.0540    -0.2250     1.3560 S.o2  1 <1>   1.3330 
  2 O        1.4580     0.0990     1.4400 O.2   1 <1>  -0.6500 
  3 O       -0.7610    -0.3100     2.5470 O.2   1 <1>  -0.6500 
  4 N       -0.6890     0.8560     0.2770 N.am  1 <1>  -0.8490 
  5 C       -0.1260    -1.7970     0.5040 C.3   1 <1>  -0.0550 
  6 C       -1.3010     1.9930     0.9760 C.3   1 <1>   0.1160 
  7 C        0.2290     1.3630    -0.7520 C.3   1 <1>   0.1160 
  8 C       -1.5990    -2.2000     0.2900 C.3   1 <1>  -0.1600 
  9 C       -1.7200    -3.5710    -0.3710 C.3   1 <1>   0.3430 
 10 N       -3.1500    -4.0000    -0.4080 N.4   1 <1>  -0.9590 
 11 C       -3.2250    -5.4800    -0.6920 C.3   1 <1>   0.3430 
 12 C       -3.9310    -3.1980    -1.4110 C.3   1 <1>   0.2630 
 13 C       -4.3700    -6.2120     0.0250 C.3   1 <1>   0.2000 
 14 O       -4.1340    -7.5920    -0.1620 O.3   1 <1>  -0.3630 
 15 C       -5.7770    -5.8570    -0.4900 C.3   1 <1>   0.1200 
 16 C       -5.1490    -8.4400     0.1440 C.ar  1 <1>   0.0820 
 17 O       -6.7440    -6.6520     0.1600 O.3   1 <1>  -0.3630 
 18 C       -6.4520    -7.9680     0.3200 C.ar  1 <1>   0.0820 
 19 C       -4.8780    -9.7900     0.2880 C.ar  1 <1>  -0.1500 
 20 C       -7.4670    -8.8460     0.6560 C.ar  1 <1>  -0.1500 
 21 C       -5.8990   -10.6660     0.6190 C.ar  1 <1>  -0.1500 
 22 C       -7.1890   -10.1950     0.8050 C.ar  1 <1>  -0.1500 
 23 H        0.3660    -2.5510     1.0890 H     1 <1>   0.0800 
 24 H        0.3760    -1.7380    -0.4430 H     1 <1>   0.0800 
 25 H       -2.0570     1.6460     1.6600 H     1 <1>   0.0800 
 26 H       -1.7680     2.6600     0.2710 H     1 <1>   0.0800 
 27 H       -0.5550     2.5350     1.5340 H     1 <1>   0.0800 
 28 H        0.6810     0.5460    -1.2870 H     1 <1>   0.0800 
 29 H        1.0130     1.9520    -0.3020 H     1 <1>   0.0800 
 30 H       -0.3060     1.9780    -1.4570 H     1 <1>   0.0800 
 31 H       -2.0700    -1.4470    -0.3170 H     1 <1>   0.0800 
 32 H       -2.0860    -2.2200     1.2500 H     1 <1>   0.0800 
 33 H       -1.1480    -4.2820     0.2040 H     1 <1>   0.0800 
 34 H       -1.3120    -3.5410    -1.3700 H     1 <1>   0.0800 
 35 H       -3.5340    -3.8250     0.5340 H     1 <1>   0.4500 
 36 H       -2.3090    -5.9430    -0.3600 H     1 <1>   0.0800 
 37 H       -3.3080    -5.6460    -1.7540 H     1 <1>   0.0800 
 38 H       -3.5180    -3.3270    -2.3980 H     1 <1>   0.0800 
 39 H       -3.8990    -2.1490    -1.1620 H     1 <1>   0.0800 
 40 H       -4.9620    -3.5050    -1.4290 H     1 <1>   0.0800 
 41 H       -4.3140    -6.0280     1.0830 H     1 <1>   0.0800 
 42 H       -5.8570    -6.0400    -1.5480 H     1 <1>   0.0800 
 43 H       -6.0230    -4.8320    -0.2840 H     1 <1>   0.0800 
 44 H       -3.8760   -10.1520     0.1450 H     1 <1>   0.1500 
 45 H       -8.4660    -8.4750     0.7960 H     1 <1>   0.1500 
 46 H       -5.6890   -11.7160     0.7330 H     1 <1>   0.1500 
 47 H       -7.9790   -10.8790     1.0650 H     1 <1>   0.1500 
@<TRIPOS>BOND
  1   1   2  2   
  2   1   3  2   
  3   1   4  am  
  4   1   5  1   
  5   4   6  1   
  6   4   7  1   
  7   5   8  1   
  8   5  23  1   
  9   5  24  1   
 10   6  25  1   
 11   6  26  1   
 12   6  27  1   
 13   7  28  1   
 14   7  29  1   
 15   7  30  1   
 16   8   9  1   
 17   8  31  1   
 18   8  32  1   
 19   9  10  1   
 20   9  33  1   
 21   9  34  1   
 22  10  11  1   
 23  10  12  1   
 24  10  35  1   
 25  11  13  1   
 26  11  36  1   
 27  11  37  1   
 28  12  38  1   
 29  12  39  1   
 30  12  40  1   
 31  13  14  1   
 32  13  15  1   
 33  13  41  1   
 34  14  16  1   
 35  15  17  1   
 36  15  42  1   
 37  15  43  1   
 38  16  18  ar  
 39  16  19  ar  
 40  17  18  1   
 41  18  20  ar  
 42  19  21  ar  
 43  19  44  1   
 44  20  22  ar  
 45  20  45  1   
 46  21  22  ar  
 47  21  46  1   
 48  22  47  1   
@<TRIPOS>SUBSTRUCTURE
  1 ****  10 GROUP 4 **** **** 0

# MOE 2024.06 (io_trps.svl 2023.06)
