@<TRIPOS>MOLECULE
NONAME
48 50 1 0 0 
SMALL
USER_CHARGES


@<TRIPOS>ATOM
  1 O        0.2070    -0.0500    -0.1050 O.2   1 <1>  -0.5700 
  2 C        1.2300    -0.6060     0.2450 C.2   1 <1>   0.7150 
  3 N        2.2970     0.1210     0.6990 N.am  1 <1>  -0.4940 
  4 C        1.3740    -2.0400     0.1860 C.2   1 <1>  -0.2370 
  5 C        2.4980     1.5140     0.8560 C.2   1 <1>  -0.0880 
  6 N        0.6230    -2.8710    -0.6250 N.pl3 1 <1>   0.0480 
  7 C        2.2440    -2.8240     0.8900 C.2   1 <1>  -0.1500 
  8 N        1.5870     2.4470     1.2520 N.pl3 1 <1>   0.3140 
  9 C        3.6610     2.1820     0.6540 C.2   1 <1>  -0.1810 
 10 C        1.0320    -4.1680    -0.4220 C.ar  1 <1>  -0.1520 
 11 C       -0.4210    -2.4560    -1.5870 C.3   1 <1>   0.0160 
 12 C        2.0500    -4.1640     0.5230 C.ar  1 <1>   0.0000 
 13 N        2.1350     3.6780     1.3050 N.2   1 <1>  -0.7070 
 14 C        0.1970     2.2530     1.6860 C.3   1 <1>   0.0160 
 15 C        3.3670     3.5160     0.9390 C.2   1 <1>   0.1080 
 16 C        4.9930     1.6020     0.2040 C.3   1 <1>   0.0210 
 17 C        0.6030    -5.3770    -0.9820 C.ar  1 <1>  -0.1500 
 18 C        2.6510    -5.3650     0.9160 C.ar  1 <1>  -0.1500 
 19 C        4.3230     4.6940     0.8540 C.3   1 <1>   0.0210 
 20 C        5.1520     1.7330    -1.3110 C.3   1 <1>  -0.2400 
 21 C        1.2010    -6.5510    -0.5890 C.ar  1 <1>  -0.1500 
 22 C        2.2300    -6.5520     0.3630 C.ar  1 <1>  -0.1430 
 23 C        4.0360     5.5570    -0.3790 C.3   1 <1>  -0.2400 
 24 C        2.8590    -7.8740     0.7650 C.3   1 <1>  -0.0970 
 25 H        3.1390    -0.4420     0.7850 H     1 <1>   0.3700 
 26 H        2.9690    -2.5210     1.6240 H     1 <1>   0.1500 
 27 H       -0.0530    -1.6410    -2.1830 H     1 <1>   0.0800 
 28 H       -1.2920    -2.1350    -1.0450 H     1 <1>   0.0800 
 29 H       -0.6810    -3.2730    -2.2320 H     1 <1>   0.0800 
 30 H        0.1070     1.3090     2.1880 H     1 <1>   0.0800 
 31 H       -0.4420     2.2730     0.8240 H     1 <1>   0.0800 
 32 H       -0.0760     3.0470     2.3560 H     1 <1>   0.0800 
 33 H        5.0450     0.5630     0.4760 H     1 <1>   0.0800 
 34 H        5.8010     2.1040     0.7050 H     1 <1>   0.0800 
 35 H       -0.1870    -5.3890    -1.7100 H     1 <1>   0.1500 
 36 H        3.4360    -5.3340     1.6490 H     1 <1>   0.1500 
 37 H        5.3390     4.3510     0.8250 H     1 <1>   0.0800 
 38 H        4.2030     5.2910     1.7410 H     1 <1>   0.0800 
 39 H        4.3430     1.2300    -1.8110 H     1 <1>   0.0800 
 40 H        6.0830     1.2960    -1.6270 H     1 <1>   0.0800 
 41 H        5.1410     2.7680    -1.5990 H     1 <1>   0.0800 
 42 H        0.8800    -7.4860    -1.0130 H     1 <1>   0.1500 
 43 H        4.1390     4.9730    -1.2750 H     1 <1>   0.0800 
 44 H        4.7160     6.3890    -0.4200 H     1 <1>   0.0800 
 45 H        3.0280     5.9330    -0.3310 H     1 <1>   0.0800 
 46 H        3.6290    -7.7240     1.5000 H     1 <1>   0.0800 
 47 H        3.2940    -8.3480    -0.0960 H     1 <1>   0.0800 
 48 H        2.1100    -8.5230     1.1800 H     1 <1>   0.0800 
@<TRIPOS>BOND
  1   1   2  2   
  2   2   3  am  
  3   2   4  1   
  4   3   5  1   
  5   3  25  1   
  6   4   6  1   
  7   4   7  2   
  8   5   8  1   
  9   5   9  2   
 10   6  10  1   
 11   6  11  1   
 12   7  12  1   
 13   7  26  1   
 14   8  13  1   
 15   8  14  1   
 16   9  15  1   
 17   9  16  1   
 18  10  12  ar  
 19  10  17  ar  
 20  11  27  1   
 21  11  28  1   
 22  11  29  1   
 23  12  18  ar  
 24  13  15  2   
 25  14  30  1   
 26  14  31  1   
 27  14  32  1   
 28  15  19  1   
 29  16  20  1   
 30  16  33  1   
 31  16  34  1   
 32  17  21  ar  
 33  17  35  1   
 34  18  22  ar  
 35  18  36  1   
 36  19  23  1   
 37  19  37  1   
 38  19  38  1   
 39  20  39  1   
 40  20  40  1   
 41  20  41  1   
 42  21  22  ar  
 43  21  42  1   
 44  22  24  1   
 45  23  43  1   
 46  23  44  1   
 47  23  45  1   
 48  24  46  1   
 49  24  47  1   
 50  24  48  1   
@<TRIPOS>SUBSTRUCTURE
  1 ****   2 GROUP 4 **** **** 0

# MOE 2024.06 (io_trps.svl 2023.06)
