@<TRIPOS>MOLECULE
NONAME
62 65 1 0 0 
SMALL
USER_CHARGES


@<TRIPOS>ATOM
  1 O        0.5060    -1.9940     0.1800 O.3   1 <1>  -0.3630 
  2 C       -0.8100    -2.0080     0.5140 C.ar  1 <1>   0.0830 
  3 C        1.2170    -0.7930    -0.0130 C.3   1 <1>   0.1200 
  4 C       -1.3970    -3.2420     0.7750 C.ar  1 <1>  -0.1440 
  5 C       -1.5820    -0.8520     0.5990 C.ar  1 <1>  -0.1500 
  6 C        2.6680    -1.1510    -0.3220 C.3   1 <1>  -0.2400 
  7 C       -2.7390    -3.3070     1.1090 C.ar  1 <1>  -0.1500 
  8 C       -0.6030    -4.5370     0.6920 C.3   1 <1>   0.2630 
  9 C       -2.9240    -0.9290     0.9270 C.ar  1 <1>  -0.1500 
 10 C       -3.5130    -2.1600     1.1750 C.ar  1 <1>  -0.1440 
 11 O       -1.0150    -5.2020    -0.4480 O.3   1 <1>  -0.6800 
 12 C       -4.9900    -2.2630     1.5000 C.3   1 <1>   0.4860 
 13 N       -5.7570    -2.2300     0.2260 N.4   1 <1>  -0.9590 
 14 C       -7.2270    -2.0780     0.4900 C.3   1 <1>   0.3430 
 15 C       -5.4730    -3.4320    -0.6180 C.3   1 <1>   0.3430 
 16 C       -8.0440    -1.9550    -0.8080 C.3   1 <1>   0.1430 
 17 C       -6.2200    -3.3260    -1.9510 C.3   1 <1>  -0.1600 
 18 C       -9.5070    -1.9520    -0.4380 C.ar  1 <1>   0.1670 
 19 C       -7.7340    -3.1340    -1.7530 C.3   1 <1>  -0.1600 
 20 C       -7.8760    -0.5810    -1.5130 C.3   1 <1>  -0.1600 
 21 N      -10.0550    -2.7950     0.3980 N.ar  1 <1>  -0.6200 
 22 C      -10.1870    -0.9510    -1.0580 C.ar  1 <1>  -0.1430 
 23 C       -9.2860    -0.1330    -1.9480 C.3   1 <1>  -0.0170 
 24 C      -11.3630    -2.6090     0.6020 C.ar  1 <1>   0.7200 
 25 C      -11.5270    -0.8360    -0.7860 C.ar  1 <1>   0.1600 
 26 N      -12.1210    -1.6600     0.0450 N.ar  1 <1>  -0.6200 
 27 N      -11.9820    -3.4740     1.4790 N.pl3 1 <1>  -0.8380 
 28 C      -11.4910    -4.8600     1.7130 C.3   1 <1>   0.1290 
 29 C      -13.3220    -3.1720     2.0550 C.3   1 <1>   0.1290 
 30 H        1.1540    -0.2080     0.8880 H     1 <1>   0.0800 
 31 H        0.7750    -0.2610    -0.8380 H     1 <1>   0.0800 
 32 H       -1.1530     0.1150     0.4120 H     1 <1>   0.1500 
 33 H        3.0980    -1.6950     0.5000 H     1 <1>   0.0800 
 34 H        3.2400    -0.2540    -0.4750 H     1 <1>   0.0800 
 35 H        2.7200    -1.7470    -1.2150 H     1 <1>   0.0800 
 36 H       -3.1690    -4.2750     1.3090 H     1 <1>   0.1500 
 37 H       -0.8080    -5.1660     1.5400 H     1 <1>   0.0800 
 38 H        0.4590    -4.3710     0.6280 H     1 <1>   0.0800 
 39 H       -3.4960    -0.0180     0.9860 H     1 <1>   0.1500 
 40 H       -0.7490    -4.6730    -1.2260 H     1 <1>   0.4000 
 41 H       -5.2730    -1.4340     2.1280 H     1 <1>   0.0800 
 42 H       -5.1880    -3.1790     2.0340 H     1 <1>   0.0800 
 43 H       -5.4210    -1.4130    -0.2970 H     1 <1>   0.4500 
 44 H       -7.4120    -1.2100     1.1010 H     1 <1>   0.0800 
 45 H       -7.5850    -2.9410     1.0300 H     1 <1>   0.0800 
 46 H       -5.7880    -4.3240    -0.1010 H     1 <1>   0.0800 
 47 H       -4.4140    -3.5110    -0.8110 H     1 <1>   0.0800 
 48 H       -6.0510    -4.2290    -2.5120 H     1 <1>   0.0800 
 49 H       -5.8070    -2.5170    -2.5270 H     1 <1>   0.0800 
 50 H       -8.2170    -2.9850    -2.7040 H     1 <1>   0.0800 
 51 H       -8.1440    -4.0360    -1.3280 H     1 <1>   0.0800 
 52 H       -7.2070    -0.6160    -2.3540 H     1 <1>   0.0800 
 53 H       -7.5030     0.1440    -0.8100 H     1 <1>   0.0800 
 54 H       -9.4690    -0.3890    -2.9780 H     1 <1>   0.0800 
 55 H       -9.4330     0.9240    -1.8040 H     1 <1>   0.0800 
 56 H      -12.1180    -0.0650    -1.2500 H     1 <1>   0.1500 
 57 H      -10.7700    -5.1430     0.9660 H     1 <1>   0.0800 
 58 H      -12.3120    -5.5530     1.6660 H     1 <1>   0.0800 
 59 H      -11.0320    -4.9200     2.6840 H     1 <1>   0.0800 
 60 H      -13.4450    -2.1100     2.1820 H     1 <1>   0.0800 
 61 H      -13.4270    -3.6430     3.0160 H     1 <1>   0.0800 
 62 H      -14.0890    -3.5350     1.3930 H     1 <1>   0.0800 
@<TRIPOS>BOND
  1   1   2  1   
  2   1   3  1   
  3   2   4  ar  
  4   2   5  ar  
  5   3   6  1   
  6   3  30  1   
  7   3  31  1   
  8   4   7  ar  
  9   4   8  1   
 10   5   9  ar  
 11   5  32  1   
 12   6  33  1   
 13   6  34  1   
 14   6  35  1   
 15   7  10  ar  
 16   7  36  1   
 17   8  11  1   
 18   8  37  1   
 19   8  38  1   
 20   9  10  ar  
 21   9  39  1   
 22  10  12  1   
 23  11  40  1   
 24  12  13  1   
 25  12  41  1   
 26  12  42  1   
 27  13  14  1   
 28  13  15  1   
 29  13  43  1   
 30  14  16  1   
 31  14  44  1   
 32  14  45  1   
 33  15  17  1   
 34  15  46  1   
 35  15  47  1   
 36  16  18  1   
 37  16  19  1   
 38  16  20  1   
 39  17  19  1   
 40  17  48  1   
 41  17  49  1   
 42  18  21  ar  
 43  18  22  ar  
 44  19  50  1   
 45  19  51  1   
 46  20  23  1   
 47  20  52  1   
 48  20  53  1   
 49  21  24  ar  
 50  22  23  1   
 51  22  25  ar  
 52  23  54  1   
 53  23  55  1   
 54  24  26  ar  
 55  24  27  1   
 56  25  26  ar  
 57  25  56  1   
 58  27  28  1   
 59  27  29  1   
 60  28  57  1   
 61  28  58  1   
 62  28  59  1   
 63  29  60  1   
 64  29  61  1   
 65  29  62  1   
@<TRIPOS>SUBSTRUCTURE
  1 ****  13 GROUP 4 **** **** 0

# MOE 2024.06 (io_trps.svl 2023.06)
