@<TRIPOS>MOLECULE
NONAME
53 55 1 0 0 
SMALL
USER_CHARGES


@<TRIPOS>ATOM
  1 O        2.9010    -0.7580    -2.2270 O.2   1 <1>  -0.5700 
  2 C        2.1840    -1.0240    -1.2740 C.2   1 <1>   0.5440 
  3 N        1.9550     0.0170    -0.4050 N.am  1 <1>  -0.6600 
  4 C        1.7560    -2.3800    -1.0020 C.ar  1 <1>   0.0860 
  5 C        1.7310     1.3950    -0.9830 C.3   1 <1>   0.1400 
  6 C        2.7810     0.0290     0.8460 C.3   1 <1>   0.1400 
  7 C        0.4580    -2.7070    -0.5060 C.ar  1 <1>   0.0000 
  8 C        2.6580    -3.4070    -1.2070 C.ar  1 <1>  -0.1500 
  9 C        3.0010     2.2940    -0.9030 C.3   1 <1>   0.4230 
 10 C        4.1660     0.6810     0.5830 C.3   1 <1>   0.3430 
 11 C        0.1690    -4.0460    -0.1360 C.ar  1 <1>   0.0000 
 12 C       -0.5850    -1.7570    -0.3880 C.ar  1 <1>  -0.1500 
 13 C        2.3670    -4.7180    -0.8640 C.ar  1 <1>  -0.1500 
 14 N        4.1860     1.3840    -0.7480 N.4   1 <1>  -0.9590 
 15 C        2.8100     3.3460     0.2180 C.3   1 <1>  -0.1600 
 16 C        1.1570    -5.0570    -0.3050 C.ar  1 <1>   0.1000 
 17 C       -1.1180    -4.3450     0.3620 C.ar  1 <1>  -0.1500 
 18 C       -1.8200    -2.0810     0.1020 C.ar  1 <1>  -0.1500 
 19 C        5.5140     1.9470    -1.1260 C.3   1 <1>   0.2630 
 20 C        3.9580     4.3150     0.5140 C.3   1 <1>   0.1200 
 21 N        0.9350    -6.3700     0.0840 N.pl3 1 <1>  -0.8380 
 22 C       -2.0900    -3.3930     0.4880 C.ar  1 <1>  -0.1500 
 23 O        4.8830     3.6810     1.3250 O.3   1 <1>  -0.6800 
 24 C        1.1180    -7.4910    -0.8740 C.3   1 <1>   0.1290 
 25 C        0.9440    -6.7260     1.5260 C.3   1 <1>   0.1290 
 26 H        0.9020     1.8600    -0.4780 H     1 <1>   0.0800 
 27 H        1.4460     1.3000    -2.0180 H     1 <1>   0.0800 
 28 H        2.9180    -0.9750     1.2110 H     1 <1>   0.0800 
 29 H        2.2600     0.5780     1.6110 H     1 <1>   0.0800 
 30 H        3.6230    -3.1950    -1.6330 H     1 <1>   0.1500 
 31 H        3.0890     2.8230    -1.8380 H     1 <1>   0.0800 
 32 H        4.9200    -0.0880     0.5920 H     1 <1>   0.0800 
 33 H        4.3950     1.3730     1.3760 H     1 <1>   0.0800 
 34 H       -0.4210    -0.7450    -0.7000 H     1 <1>   0.1500 
 35 H        3.1050    -5.4820    -1.0230 H     1 <1>   0.1500 
 36 H        3.9630     0.6200    -1.4250 H     1 <1>   0.4500 
 37 H        2.5010     2.8810     1.1370 H     1 <1>   0.0800 
 38 H        1.9810     3.9580    -0.0900 H     1 <1>   0.0800 
 39 H       -1.3370    -5.3600     0.6380 H     1 <1>   0.1500 
 40 H       -2.5960    -1.3410     0.1900 H     1 <1>   0.1500 
 41 H        5.8330     2.6940    -0.4230 H     1 <1>   0.0800 
 42 H        5.4640     2.3920    -2.1060 H     1 <1>   0.0800 
 43 H        6.2540     1.1630    -1.1460 H     1 <1>   0.0800 
 44 H        3.5850     5.1690     1.0570 H     1 <1>   0.0800 
 45 H        4.4470     4.6550    -0.3840 H     1 <1>   0.0800 
 46 H       -3.0640    -3.6430     0.8710 H     1 <1>   0.1500 
 47 H        5.4670     4.3410     1.7600 H     1 <1>   0.4000 
 48 H        1.1280    -7.1140    -1.8820 H     1 <1>   0.0800 
 49 H        0.3050    -8.1880    -0.7750 H     1 <1>   0.0800 
 50 H        2.0470    -7.9960    -0.6770 H     1 <1>   0.0800 
 51 H        0.9190    -5.8330     2.1260 H     1 <1>   0.0800 
 52 H        1.8350    -7.2790     1.7630 H     1 <1>   0.0800 
 53 H        0.0800    -7.3250     1.7570 H     1 <1>   0.0800 
@<TRIPOS>BOND
  1   1   2  2   
  2   2   3  am  
  3   2   4  1   
  4   3   5  1   
  5   3   6  1   
  6   4   7  ar  
  7   4   8  ar  
  8   5   9  1   
  9   5  26  1   
 10   5  27  1   
 11   6  10  1   
 12   6  28  1   
 13   6  29  1   
 14   7  11  ar  
 15   7  12  ar  
 16   8  13  ar  
 17   8  30  1   
 18   9  14  1   
 19   9  15  1   
 20   9  31  1   
 21  10  14  1   
 22  10  32  1   
 23  10  33  1   
 24  11  16  ar  
 25  11  17  ar  
 26  12  18  ar  
 27  12  34  1   
 28  13  16  ar  
 29  13  35  1   
 30  14  19  1   
 31  14  36  1   
 32  15  20  1   
 33  15  37  1   
 34  15  38  1   
 35  16  21  1   
 36  17  22  ar  
 37  17  39  1   
 38  18  22  ar  
 39  18  40  1   
 40  19  41  1   
 41  19  42  1   
 42  19  43  1   
 43  20  23  1   
 44  20  44  1   
 45  20  45  1   
 46  21  24  1   
 47  21  25  1   
 48  22  46  1   
 49  23  47  1   
 50  24  48  1   
 51  24  49  1   
 52  24  50  1   
 53  25  51  1   
 54  25  52  1   
 55  25  53  1   
@<TRIPOS>SUBSTRUCTURE
  1 ****   2 GROUP 4 **** **** 0

# MOE 2024.06 (io_trps.svl 2023.06)
