@<TRIPOS>MOLECULE
NONAME
45 47 1 0 0 
SMALL
USER_CHARGES


@<TRIPOS>ATOM
  1 O        0.1880    -0.3880     0.9290 O.2   1 <1>  -0.5700 
  2 C        1.2490    -0.7860     0.4990 C.2   1 <1>   0.5690 
  3 N        2.2760     0.0450     0.1410 N.am  1 <1>  -0.4930 
  4 C        1.4040    -2.3200     0.3280 C.3   1 <1>   0.4840 
  5 C        2.3080     1.4640     0.1770 C.2   1 <1>   0.0630 
  6 N        0.0790    -3.0230     0.1270 N.4   1 <1>  -0.9590 
  7 C        2.1140    -2.9070     1.5550 C.3   1 <1>  -0.2400 
  8 C        3.3460     2.2880    -0.2680 C.2   1 <1>   0.1080 
  9 C        1.3750     2.3230     0.6350 C.2   1 <1>  -0.3020 
 10 C        0.1350    -4.5130     0.0730 C.3   1 <1>   0.4860 
 11 C       -0.6750    -2.4930    -1.0530 C.3   1 <1>   0.3430 
 12 N        3.0800     3.5450    -0.1020 N.2   1 <1>  -0.7070 
 13 C        4.6520     1.8290    -0.8800 C.3   1 <1>  -0.0590 
 14 N        1.8600     3.5690     0.4590 N.pl3 1 <1>   0.3140 
 15 C       -1.2580    -5.1020    -0.0840 C.ar  1 <1>  -0.1430 
 16 C       -2.1480    -2.8880    -0.9470 C.3   1 <1>  -0.0170 
 17 C        1.1920     4.8270     0.8110 C.3   1 <1>   0.0160 
 18 C       -2.3240    -4.3510    -0.5700 C.ar  1 <1>  -0.1430 
 19 C       -1.4610    -6.4300     0.2620 C.ar  1 <1>  -0.1500 
 20 C       -3.5740    -4.9340    -0.7030 C.ar  1 <1>  -0.1500 
 21 C       -2.7110    -7.0070     0.1260 C.ar  1 <1>  -0.1500 
 22 C       -3.7680    -6.2590    -0.3570 C.ar  1 <1>  -0.1500 
 23 H        3.1550    -0.3600    -0.1780 H     1 <1>   0.3700 
 24 H        2.0200    -2.4890    -0.5390 H     1 <1>   0.0800 
 25 H       -0.4970    -2.7710     0.9450 H     1 <1>   0.4500 
 26 H        1.4830    -2.8420     2.4250 H     1 <1>   0.0800 
 27 H        3.0080    -2.3440     1.7580 H     1 <1>   0.0800 
 28 H        2.4130    -3.9260     1.3940 H     1 <1>   0.0800 
 29 H        0.4130     2.1260     1.0690 H     1 <1>   0.1500 
 30 H        0.5690    -4.8990     0.9800 H     1 <1>   0.0800 
 31 H        0.7430    -4.8290    -0.7580 H     1 <1>   0.0800 
 32 H       -0.2620    -2.8980    -1.9620 H     1 <1>   0.0800 
 33 H       -0.6110    -1.4180    -1.0970 H     1 <1>   0.0800 
 34 H        4.4620     1.2210    -1.7430 H     1 <1>   0.0800 
 35 H        5.2200     1.2740    -0.1570 H     1 <1>   0.0800 
 36 H        5.2280     2.6850    -1.1840 H     1 <1>   0.0800 
 37 H       -2.6290    -2.6950    -1.8900 H     1 <1>   0.0800 
 38 H       -2.6270    -2.2720    -0.2070 H     1 <1>   0.0800 
 39 H        0.7950     4.7510     1.8050 H     1 <1>   0.0800 
 40 H        0.4000     5.0120     0.1100 H     1 <1>   0.0800 
 41 H        1.9070     5.6280     0.7680 H     1 <1>   0.0800 
 42 H       -0.6550    -7.0360     0.6400 H     1 <1>   0.1500 
 43 H       -4.4080    -4.3640    -1.0750 H     1 <1>   0.1500 
 44 H       -2.8650    -8.0390     0.3950 H     1 <1>   0.1500 
 45 H       -4.7410    -6.7080    -0.4630 H     1 <1>   0.1500 
@<TRIPOS>BOND
  1   1   2  2   
  2   2   3  am  
  3   2   4  1   
  4   3   5  1   
  5   3  23  1   
  6   4   6  1   
  7   4   7  1   
  8   4  24  1   
  9   5   8  1   
 10   5   9  2   
 11   6  10  1   
 12   6  11  1   
 13   6  25  1   
 14   7  26  1   
 15   7  27  1   
 16   7  28  1   
 17   8  12  2   
 18   8  13  1   
 19   9  14  1   
 20   9  29  1   
 21  10  15  1   
 22  10  30  1   
 23  10  31  1   
 24  11  16  1   
 25  11  32  1   
 26  11  33  1   
 27  12  14  1   
 28  13  34  1   
 29  13  35  1   
 30  13  36  1   
 31  14  17  1   
 32  15  18  ar  
 33  15  19  ar  
 34  16  18  1   
 35  16  37  1   
 36  16  38  1   
 37  17  39  1   
 38  17  40  1   
 39  17  41  1   
 40  18  20  ar  
 41  19  21  ar  
 42  19  42  1   
 43  20  22  ar  
 44  20  43  1   
 45  21  22  ar  
 46  21  44  1   
 47  22  45  1   
@<TRIPOS>SUBSTRUCTURE
  1 ****   2 GROUP 4 **** **** 0

# MOE 2024.06 (io_trps.svl 2023.06)
