@<TRIPOS>MOLECULE
NONAME
53 54 1 0 0 
SMALL
USER_CHARGES


@<TRIPOS>ATOM
  1 O        0.0030    -0.4040     1.4280 O.co2 1 <1>  -0.9000 
  2 C        0.8350    -0.6130     0.5380 C.2   1 <1>   0.9060 
  3 O        0.6720    -1.5100    -0.3040 O.co2 1 <1>  -0.9000 
  4 C        2.1290     0.2080     0.4760 C.3   1 <1>  -0.1060 
  5 C        3.2750    -0.8250     0.5360 C.3   1 <1>   0.2000 
  6 C        2.3110     1.1060     1.7270 C.3   1 <1>  -0.1600 
  7 C        2.1560     1.0280    -0.8540 C.3   1 <1>  -0.0160 
  8 O        3.3390    -1.5100    -0.6680 O.3   1 <1>  -0.6800 
  9 C        4.6660    -0.2640     0.9170 C.3   1 <1>   0.1400 
 10 C        3.5970     1.9370     1.6920 C.3   1 <1>   0.1400 
 11 C        1.4390     2.3790    -0.8330 C.ar  1 <1>  -0.1440 
 12 N        4.7460     1.2360     1.0320 N.am  1 <1>  -0.6600 
 13 C        2.1290     3.5310    -1.1800 C.ar  1 <1>  -0.1500 
 14 C        0.1000     2.4760    -0.4850 C.ar  1 <1>  -0.1500 
 15 C        5.8580     1.9010     0.5790 C.2   1 <1>   0.5690 
 16 C        1.4970     4.7630    -1.1650 C.ar  1 <1>  -0.1500 
 17 C       -0.5340     3.7060    -0.4670 C.ar  1 <1>  -0.1500 
 18 O        6.8210     1.3130     0.1440 O.2   1 <1>  -0.5700 
 19 C        5.9040     3.4270     0.6350 C.3   1 <1>  -0.0990 
 20 C        0.1640     4.8520    -0.8060 C.ar  1 <1>  -0.1500 
 21 C        7.2100     4.0530     0.1100 C.3   1 <1>  -0.1600 
 22 C        7.1650     5.5870     0.1850 C.3   1 <1>  -0.1600 
 23 C        8.4920     6.2550    -0.2200 C.3   1 <1>  -0.0800 
 24 C        8.4120     7.7640     0.0370 C.3   1 <1>  -0.2400 
 25 C        8.8400     6.0070    -1.6950 C.3   1 <1>  -0.2400 
 26 H        3.0220    -1.5660     1.2760 H     1 <1>   0.0800 
 27 H        2.3180     0.4850     2.6060 H     1 <1>   0.0800 
 28 H        1.4690     1.7660     1.8360 H     1 <1>   0.0800 
 29 H        3.1790     1.1910    -1.1390 H     1 <1>   0.0800 
 30 H        1.7250     0.4370    -1.6430 H     1 <1>   0.0800 
 31 H        2.3950    -1.7700    -0.8670 H     1 <1>   0.4000 
 32 H        5.3870    -0.6190     0.2020 H     1 <1>   0.0800 
 33 H        4.9360    -0.6730     1.8740 H     1 <1>   0.0800 
 34 H        3.8730     2.2040     2.6970 H     1 <1>   0.0800 
 35 H        3.3830     2.8440     1.1570 H     1 <1>   0.0800 
 36 H        3.1630     3.4700    -1.4680 H     1 <1>   0.1500 
 37 H       -0.4570     1.5920    -0.2200 H     1 <1>   0.1500 
 38 H        2.0430     5.6500    -1.4340 H     1 <1>   0.1500 
 39 H       -1.5710     3.7620    -0.1880 H     1 <1>   0.1500 
 40 H        5.0870     3.8060     0.0500 H     1 <1>   0.0800 
 41 H        5.7600     3.7290     1.6550 H     1 <1>   0.0800 
 42 H       -0.3300     5.8070    -0.7910 H     1 <1>   0.1500 
 43 H        8.0370     3.6840     0.6920 H     1 <1>   0.0800 
 44 H        7.3540     3.7360    -0.9090 H     1 <1>   0.0800 
 45 H        6.9360     5.8720     1.1980 H     1 <1>   0.0800 
 46 H        6.3730     5.9550    -0.4450 H     1 <1>   0.0800 
 47 H        9.2840     5.8530     0.3910 H     1 <1>   0.0800 
 48 H        7.6330     8.2090    -0.5580 H     1 <1>   0.0800 
 49 H        9.3460     8.2360    -0.2130 H     1 <1>   0.0800 
 50 H        8.2060     7.9570     1.0750 H     1 <1>   0.0800 
 51 H        8.0420     6.3400    -2.3340 H     1 <1>   0.0800 
 52 H        9.0160     4.9620    -1.8760 H     1 <1>   0.0800 
 53 H        9.7360     6.5400    -1.9600 H     1 <1>   0.0800 
@<TRIPOS>BOND
  1   1   2  ar  
  2   2   3  ar  
  3   2   4  1   
  4   4   5  1   
  5   4   6  1   
  6   4   7  1   
  7   5   8  1   
  8   5   9  1   
  9   5  26  1   
 10   6  10  1   
 11   6  27  1   
 12   6  28  1   
 13   7  11  1   
 14   7  29  1   
 15   7  30  1   
 16   8  31  1   
 17   9  12  1   
 18   9  32  1   
 19   9  33  1   
 20  10  12  1   
 21  10  34  1   
 22  10  35  1   
 23  11  13  ar  
 24  11  14  ar  
 25  12  15  am  
 26  13  16  ar  
 27  13  36  1   
 28  14  17  ar  
 29  14  37  1   
 30  15  18  2   
 31  15  19  1   
 32  16  20  ar  
 33  16  38  1   
 34  17  20  ar  
 35  17  39  1   
 36  19  21  1   
 37  19  40  1   
 38  19  41  1   
 39  20  42  1   
 40  21  22  1   
 41  21  43  1   
 42  21  44  1   
 43  22  23  1   
 44  22  45  1   
 45  22  46  1   
 46  23  24  1   
 47  23  25  1   
 48  23  47  1   
 49  24  48  1   
 50  24  49  1   
 51  24  50  1   
 52  25  51  1   
 53  25  52  1   
 54  25  53  1   
@<TRIPOS>SUBSTRUCTURE
  1 ****  10 GROUP 4 **** **** 0

# MOE 2024.06 (io_trps.svl 2023.06)
