@<TRIPOS>MOLECULE
NONAME
57 59 1 0 0 
SMALL
USER_CHARGES


@<TRIPOS>ATOM
  1 O       -0.0730    -1.9970     0.1510 O.2   1 <1>  -0.5700 
  2 C       -0.6940    -0.9790     0.3350 C.2   1 <1>   0.5690 
  3 N       -1.8800    -0.7460    -0.3360 N.am  1 <1>  -0.6600 
  4 C       -0.1050     0.0000     1.3560 C.3   1 <1>   0.0440 
  5 C       -2.6890     0.5030    -0.1770 C.3   1 <1>   0.1400 
  6 C       -2.3550    -1.6810    -1.3960 C.3   1 <1>   0.1400 
  7 C       -0.1550     1.4680     0.9370 C.ar  1 <1>  -0.1440 
  8 C       -4.1230     0.4030    -0.7360 C.3   1 <1>   0.4230 
  9 C       -3.8340    -2.0660    -1.1960 C.3   1 <1>  -0.1600 
 10 C       -0.8000     2.4090     1.7280 C.ar  1 <1>  -0.1500 
 11 C        0.4080     1.8630    -0.2670 C.ar  1 <1>  -0.1500 
 12 N       -5.0330     1.4680    -0.1840 N.4   1 <1>  -0.9590 
 13 C       -4.7080    -1.0100    -0.4590 C.3   1 <1>   0.0000 
 14 C       -0.9230     3.7200     1.3010 C.ar  1 <1>  -0.1500 
 15 C        0.2880     3.1730    -0.6940 C.ar  1 <1>  -0.1500 
 16 C       -6.3590     1.4420    -0.8600 C.3   1 <1>   0.3430 
 17 C       -4.4300     2.8460    -0.1310 C.3   1 <1>   0.3430 
 18 C       -6.1500    -1.0900    -1.0260 C.3   1 <1>  -0.1600 
 19 C       -4.6880    -1.3780     1.0590 C.3   1 <1>   0.1200 
 20 C       -0.3880     4.1050     0.0760 C.ar  1 <1>   0.0820 
 21 C       -7.0350     0.0940    -0.6050 C.3   1 <1>  -0.1600 
 22 C       -5.2320     3.7940     0.7740 C.3   1 <1>   0.1200 
 23 O       -5.1590    -0.3530     1.8810 O.3   1 <1>  -0.6800 
 24 O       -0.4870     5.3580    -0.4310 O.3   1 <1>  -0.3630 
 25 O       -4.5120     4.9670     0.9270 O.3   1 <1>  -0.6800 
 26 C       -1.0810     6.4040     0.3050 C.3   1 <1>   0.0400 
 27 H       -0.6240    -0.1410     2.2850 H     1 <1>   0.0800 
 28 H        0.9230    -0.2660     1.5260 H     1 <1>   0.0800 
 29 H       -2.7480     0.7320     0.8720 H     1 <1>   0.0800 
 30 H       -2.1840     1.3030    -0.6880 H     1 <1>   0.0800 
 31 H       -2.2330    -1.1960    -2.3490 H     1 <1>   0.0800 
 32 H       -1.7550    -2.5770    -1.4190 H     1 <1>   0.0800 
 33 H       -4.0610     0.5330    -1.8030 H     1 <1>   0.0800 
 34 H       -4.2260    -2.2710    -2.1770 H     1 <1>   0.0800 
 35 H       -3.8710    -3.0050    -0.6700 H     1 <1>   0.0800 
 36 H       -1.2160     2.1270     2.6800 H     1 <1>   0.1500 
 37 H        0.9330     1.1510    -0.8820 H     1 <1>   0.1500 
 38 H       -5.1970     1.1300     0.7870 H     1 <1>   0.4500 
 39 H       -1.4340     4.4260     1.9290 H     1 <1>   0.1500 
 40 H        0.7190     3.4820    -1.6300 H     1 <1>   0.1500 
 41 H       -6.9900     2.2280    -0.4790 H     1 <1>   0.0800 
 42 H       -6.2320     1.5920    -1.9200 H     1 <1>   0.0800 
 43 H       -3.4310     2.7940     0.2700 H     1 <1>   0.0800 
 44 H       -4.3730     3.2630    -1.1230 H     1 <1>   0.0800 
 45 H       -6.1120    -1.0900    -2.1030 H     1 <1>   0.0800 
 46 H       -6.6170    -2.0140    -0.7280 H     1 <1>   0.0800 
 47 H       -3.6870    -1.6110     1.3820 H     1 <1>   0.0800 
 48 H       -5.2990    -2.2490     1.2350 H     1 <1>   0.0800 
 49 H       -7.2950     0.0150     0.4360 H     1 <1>   0.0800 
 50 H       -7.9580     0.0580    -1.1580 H     1 <1>   0.0800 
 51 H       -5.3720     3.3640     1.7510 H     1 <1>   0.0800 
 52 H       -6.1820     4.0430     0.3340 H     1 <1>   0.0800 
 53 H       -5.2370    -0.6830     2.8050 H     1 <1>   0.4000 
 54 H       -5.0040     5.6200     1.4700 H     1 <1>   0.4000 
 55 H       -1.0170     7.3030    -0.2810 H     1 <1>   0.0800 
 56 H       -0.5430     6.5310     1.2280 H     1 <1>   0.0800 
 57 H       -2.1120     6.1620     0.4890 H     1 <1>   0.0800 
@<TRIPOS>BOND
  1   1   2  2   
  2   2   3  am  
  3   2   4  1   
  4   3   5  1   
  5   3   6  1   
  6   4   7  1   
  7   4  27  1   
  8   4  28  1   
  9   5   8  1   
 10   5  29  1   
 11   5  30  1   
 12   6   9  1   
 13   6  31  1   
 14   6  32  1   
 15   7  10  ar  
 16   7  11  ar  
 17   8  12  1   
 18   8  13  1   
 19   8  33  1   
 20   9  13  1   
 21   9  34  1   
 22   9  35  1   
 23  10  14  ar  
 24  10  36  1   
 25  11  15  ar  
 26  11  37  1   
 27  12  16  1   
 28  12  17  1   
 29  12  38  1   
 30  13  18  1   
 31  13  19  1   
 32  14  20  ar  
 33  14  39  1   
 34  15  20  ar  
 35  15  40  1   
 36  16  21  1   
 37  16  41  1   
 38  16  42  1   
 39  17  22  1   
 40  17  43  1   
 41  17  44  1   
 42  18  21  1   
 43  18  45  1   
 44  18  46  1   
 45  19  23  1   
 46  19  47  1   
 47  19  48  1   
 48  20  24  1   
 49  21  49  1   
 50  21  50  1   
 51  22  25  1   
 52  22  51  1   
 53  22  52  1   
 54  23  53  1   
 55  24  26  1   
 56  25  54  1   
 57  26  55  1   
 58  26  56  1   
 59  26  57  1   
@<TRIPOS>SUBSTRUCTURE
  1 ****   5 GROUP 4 **** **** 0

# MOE 2024.06 (io_trps.svl 2023.06)
