@<TRIPOS>MOLECULE
NONAME
49 50 1 0 0 
SMALL
USER_CHARGES


@<TRIPOS>ATOM
  1 O       -1.2030     0.4710     2.7070 O.2   1 <1>  -0.5700 
  2 C       -1.3940     0.7380     1.5430 C.2   1 <1>   0.5690 
  3 N       -1.7020    -0.2490     0.6330 N.am  1 <1>  -0.6600 
  4 C       -1.2900     2.2270     1.1790 C.3   1 <1>  -0.0190 
  5 C       -1.9510    -1.6460     1.1040 C.3   1 <1>   0.2840 
  6 C       -1.9230    -0.0740    -0.8330 C.3   1 <1>   0.0600 
  7 C       -2.6090     2.8250     0.6420 C.3   1 <1>  -0.1600 
  8 C       -0.0570     2.5630     0.3030 C.3   1 <1>  -0.1600 
  9 C       -3.4150    -2.0250     0.8790 C.ar  1 <1>  -0.1430 
 10 C       -2.5320     4.3560     0.4720 C.3   1 <1>   0.2000 
 11 C       -0.2540     3.8180    -0.5680 C.3   1 <1>  -0.1600 
 12 C       -3.8350    -3.0070    -0.0230 C.ar  1 <1>  -0.1440 
 13 C       -4.3540    -1.3340     1.6290 C.ar  1 <1>  -0.1500 
 14 O       -3.3880     4.7200    -0.5850 O.3   1 <1>  -0.5600 
 15 C       -1.0960     4.8640     0.1660 C.3   1 <1>   0.2000 
 16 C       -5.1990    -3.2720    -0.1580 C.ar  1 <1>  -0.1430 
 17 C       -2.7930    -3.7770    -0.8360 C.3   1 <1>  -0.0970 
 18 C       -5.7010    -1.5990     1.4930 C.ar  1 <1>  -0.1500 
 19 C       -4.7410     4.7920    -0.2550 C.3   1 <1>   0.0400 
 20 O       -1.1710     5.9860    -0.6330 O.3   1 <1>  -0.6800 
 21 C       -6.1180    -2.5640     0.6000 C.ar  1 <1>  -0.1500 
 22 C       -5.7440    -4.3260    -1.1150 C.3   1 <1>  -0.0970 
 23 H       -1.1220     2.7320     2.1150 H     1 <1>   0.0800 
 24 H       -1.2790    -2.3080     0.5910 H     1 <1>   0.0800 
 25 H       -1.7350    -1.7420     2.1540 H     1 <1>   0.0800 
 26 H       -1.3920    -0.8370    -1.3730 H     1 <1>   0.0800 
 27 H       -1.5780     0.8790    -1.1820 H     1 <1>   0.0800 
 28 H       -2.9740    -0.1600    -1.0520 H     1 <1>   0.0800 
 29 H       -3.4050     2.5840     1.3240 H     1 <1>   0.0800 
 30 H       -2.8460     2.3880    -0.3090 H     1 <1>   0.0800 
 31 H        0.7810     2.7200     0.9590 H     1 <1>   0.0800 
 32 H        0.2070     1.7370    -0.3320 H     1 <1>   0.0800 
 33 H       -2.8650     4.8450     1.3720 H     1 <1>   0.0800 
 34 H       -0.7590     3.5440    -1.4780 H     1 <1>   0.0800 
 35 H        0.7060     4.2330    -0.8230 H     1 <1>   0.0800 
 36 H       -4.0300    -0.5800     2.3270 H     1 <1>   0.1500 
 37 H       -0.5980     5.1420     1.0790 H     1 <1>   0.0800 
 38 H       -3.2260    -4.4710    -1.5280 H     1 <1>   0.0800 
 39 H       -2.1570    -4.3340    -0.1720 H     1 <1>   0.0800 
 40 H       -2.1920    -3.0920    -1.4050 H     1 <1>   0.0800 
 41 H       -6.4200    -1.0570     2.0800 H     1 <1>   0.1500 
 42 H       -5.2830     5.0960    -1.1330 H     1 <1>   0.0800 
 43 H       -4.8790     5.5220     0.5240 H     1 <1>   0.0800 
 44 H       -5.0870     3.8250     0.0640 H     1 <1>   0.0800 
 45 H       -2.0180     5.9020    -1.1280 H     1 <1>   0.4000 
 46 H       -7.1710    -2.7600     0.5040 H     1 <1>   0.1500 
 47 H       -6.8150    -4.3860    -1.0590 H     1 <1>   0.0800 
 48 H       -5.3430    -5.2920    -0.8660 H     1 <1>   0.0800 
 49 H       -5.4760    -4.0790    -2.1260 H     1 <1>   0.0800 
@<TRIPOS>BOND
  1   1   2  2   
  2   2   3  am  
  3   2   4  1   
  4   3   5  1   
  5   3   6  1   
  6   4   7  1   
  7   4   8  1   
  8   4  23  1   
  9   5   9  1   
 10   5  24  1   
 11   5  25  1   
 12   6  26  1   
 13   6  27  1   
 14   6  28  1   
 15   7  10  1   
 16   7  29  1   
 17   7  30  1   
 18   8  11  1   
 19   8  31  1   
 20   8  32  1   
 21   9  12  ar  
 22   9  13  ar  
 23  10  14  1   
 24  10  15  1   
 25  10  33  1   
 26  11  15  1   
 27  11  34  1   
 28  11  35  1   
 29  12  16  ar  
 30  12  17  1   
 31  13  18  ar  
 32  13  36  1   
 33  14  19  1   
 34  15  20  1   
 35  15  37  1   
 36  16  21  ar  
 37  16  22  1   
 38  17  38  1   
 39  17  39  1   
 40  17  40  1   
 41  18  21  ar  
 42  18  41  1   
 43  19  42  1   
 44  19  43  1   
 45  19  44  1   
 46  20  45  1   
 47  21  46  1   
 48  22  47  1   
 49  22  48  1   
 50  22  49  1   
@<TRIPOS>SUBSTRUCTURE
  1 ****   3 GROUP 4 **** **** 0

# MOE 2024.06 (io_trps.svl 2023.06)
