@<TRIPOS>MOLECULE
NONAME
39 41 1 0 0 
SMALL
USER_CHARGES


@<TRIPOS>ATOM
  1 O        1.1840     0.2200     2.7760 O.2   1 <1>  -0.5760 
  2 C        0.5260    -0.4690     2.0420 C.2   1 <1>   0.8480 
  3 N        0.7600    -0.5220     0.7110 N.pl3 1 <1>  -0.7340 
  4 C       -0.6280    -1.3640     2.5270 C.3   1 <1>   0.1620 
  5 C        1.6970     0.0380    -0.0280 C.cat 1 <1>   1.0680 
  6 N       -1.1150    -2.1970     1.3890 N.3   1 <1>  -0.8140 
  7 N        2.5990     0.8990     0.3980 N.pl3 1 <1>  -0.7050 
  8 N        1.8710    -0.2020    -1.3250 N.pl3 1 <1>  -0.7680 
  9 C       -0.4210    -3.4700     1.1610 C.3   1 <1>   0.2450 
 10 C       -2.5560    -2.3490     1.1800 C.3   1 <1>   0.1000 
 11 C        3.4020     1.2430    -0.6640 C.2   1 <1>   0.1910 
 12 C        2.9520     0.5590    -1.7340 C.2   1 <1>   0.1910 
 13 C        1.1030    -1.1250    -2.2110 C.3   1 <1>   0.2660 
 14 C       -0.5290    -3.7540    -0.3270 C.ar  1 <1>  -0.1530 
 15 C       -2.8070    -2.6170    -0.3170 C.3   1 <1>  -0.0270 
 16 C       -1.6630    -3.3500    -1.0260 C.ar  1 <1>  -0.1530 
 17 C        0.4970    -4.4070    -0.9910 C.ar  1 <1>  -0.1600 
 18 C       -1.7500    -3.5990    -2.3860 C.ar  1 <1>  -0.1600 
 19 C        0.4030    -4.6520    -2.3500 C.ar  1 <1>  -0.1600 
 20 C       -0.7200    -4.2450    -3.0470 C.ar  1 <1>  -0.1600 
 21 H        0.1170    -1.1840     0.2640 H     1 <1>   0.4430 
 22 H       -1.4190    -0.7280     2.8830 H     1 <1>   0.0700 
 23 H       -0.2990    -1.9890     3.3390 H     1 <1>   0.0700 
 24 H        2.6360     1.2040     1.3760 H     1 <1>   0.4430 
 25 H       -0.8790    -4.2620     1.7310 H     1 <1>   0.0700 
 26 H        0.6150    -3.3930     1.4430 H     1 <1>   0.0700 
 27 H       -3.0810    -1.4570     1.4760 H     1 <1>   0.0700 
 28 H       -2.9230    -3.1730     1.7700 H     1 <1>   0.0700 
 29 H        4.2250     1.9370    -0.5850 H     1 <1>   0.1400 
 30 H        3.3230     0.5610    -2.7480 H     1 <1>   0.1400 
 31 H        0.1280    -1.3300    -1.8030 H     1 <1>   0.0700 
 32 H        1.6360    -2.0540    -2.3220 H     1 <1>   0.0700 
 33 H        0.9760    -0.6810    -3.1840 H     1 <1>   0.0700 
 34 H       -2.9590    -1.6730    -0.8080 H     1 <1>   0.0700 
 35 H       -3.7170    -3.1810    -0.4230 H     1 <1>   0.0700 
 36 H        1.3710    -4.7370    -0.4570 H     1 <1>   0.1400 
 37 H       -2.6240    -3.2940    -2.9360 H     1 <1>   0.1400 
 38 H        1.1960    -5.1670    -2.8630 H     1 <1>   0.1400 
 39 H       -0.8000    -4.4420    -4.1030 H     1 <1>   0.1400 
@<TRIPOS>BOND
  1   1   2  2   
  2   2   3  1   
  3   2   4  1   
  4   3   5  ar  
  5   3  21  1   
  6   4   6  1   
  7   4  22  1   
  8   4  23  1   
  9   5   7  ar  
 10   5   8  ar  
 11   6   9  1   
 12   6  10  1   
 13   7  11  1   
 14   7  24  1   
 15   8  12  1   
 16   8  13  1   
 17   9  14  1   
 18   9  25  1   
 19   9  26  1   
 20  10  15  1   
 21  10  27  1   
 22  10  28  1   
 23  11  12  2   
 24  11  29  1   
 25  12  30  1   
 26  13  31  1   
 27  13  32  1   
 28  13  33  1   
 29  14  16  ar  
 30  14  17  ar  
 31  15  16  1   
 32  15  34  1   
 33  15  35  1   
 34  16  18  ar  
 35  17  19  ar  
 36  17  36  1   
 37  18  20  ar  
 38  18  37  1   
 39  19  20  ar  
 40  19  38  1   
 41  20  39  1   
@<TRIPOS>SUBSTRUCTURE
  1 ****   3 GROUP 4 **** **** 0

# MOE 2024.06 (io_trps.svl 2023.06)
