@<TRIPOS>MOLECULE
NONAME
42 44 1 0 0 
SMALL
USER_CHARGES


@<TRIPOS>ATOM
  1 O        0.3490     0.4330    -0.0620 O.3   1 <1>  -0.0190 
  2 N        1.1770    -0.4160    -0.5990 N.2   1 <1>  -0.4100 
  3 C        0.6920     1.6710    -0.3030 C.2   1 <1>  -0.0400 
  4 C        2.0680     0.2870    -1.1990 C.2   1 <1>   0.1080 
  5 C        1.8100     1.6460    -1.0460 C.2   1 <1>  -0.1500 
  6 C       -0.1690     2.7930     0.2540 C.3   1 <1>   0.0200 
  7 C        3.2360    -0.2920    -1.9650 C.3   1 <1>  -0.0590 
  8 C        0.4740     4.1800     0.0760 C.3   1 <1>  -0.0800 
  9 C       -0.4000     5.3600     0.4940 C.3   1 <1>   0.2000 
 10 C        1.7560     4.3810     0.8880 C.3   1 <1>   0.2090 
 11 O       -0.9560     5.1050     1.7400 O.3   1 <1>  -0.6800 
 12 C        0.6100     6.4960     0.6440 C.3   1 <1>   0.2090 
 13 N        1.8660     5.8480     1.1240 N.pl3 1 <1>  -0.8380 
 14 C        3.0320     6.4350     0.6760 C.ar  1 <1>   0.4100 
 15 N        3.3030     6.3270    -0.6200 N.ar  1 <1>  -0.6200 
 16 C        3.8490     7.1030     1.5800 C.ar  1 <1>  -0.1500 
 17 C        4.4200     6.9050    -1.0250 C.ar  1 <1>   0.1670 
 18 C        5.0110     7.7010     1.1530 C.ar  1 <1>  -0.1440 
 19 C        5.2920     7.5900    -0.1940 C.ar  1 <1>  -0.1500 
 20 C        4.7220     6.7810    -2.5030 C.3   1 <1>  -0.0970 
 21 C        5.9390     8.4430     2.0970 C.3   1 <1>  -0.0970 
 22 H        2.3970     2.4510    -1.4500 H     1 <1>   0.1500 
 23 H       -1.1210     2.7720    -0.2450 H     1 <1>   0.0800 
 24 H       -0.3450     2.6020     1.2990 H     1 <1>   0.0800 
 25 H        3.2130     0.0530    -2.9820 H     1 <1>   0.0800 
 26 H        3.1820    -1.3660    -1.9600 H     1 <1>   0.0800 
 27 H        4.1590     0.0120    -1.5070 H     1 <1>   0.0800 
 28 H        0.7230     4.3150    -0.9620 H     1 <1>   0.0800 
 29 H       -1.1910     5.5820    -0.2020 H     1 <1>   0.0800 
 30 H        2.6160     3.9990     0.3650 H     1 <1>   0.0800 
 31 H        1.6830     3.8830     1.8400 H     1 <1>   0.0800 
 32 H       -0.2350     5.1490     2.4030 H     1 <1>   0.4000 
 33 H        0.2670     7.2440     1.3370 H     1 <1>   0.0800 
 34 H        0.7800     6.9560    -0.3150 H     1 <1>   0.0800 
 35 H        3.5460     7.1360     2.6090 H     1 <1>   0.1500 
 36 H        6.1850     8.0360    -0.5930 H     1 <1>   0.1500 
 37 H        5.6380     7.2820    -2.7560 H     1 <1>   0.0800 
 38 H        3.9200     7.2160    -3.0690 H     1 <1>   0.0800 
 39 H        4.8090     5.7430    -2.7650 H     1 <1>   0.0800 
 40 H        6.0380     9.4670     1.7840 H     1 <1>   0.0800 
 41 H        6.9100     7.9810     2.0930 H     1 <1>   0.0800 
 42 H        5.5550     8.4260     3.1010 H     1 <1>   0.0800 
@<TRIPOS>BOND
  1   1   2  1   
  2   1   3  1   
  3   2   4  2   
  4   3   5  2   
  5   3   6  1   
  6   4   5  1   
  7   4   7  1   
  8   5  22  1   
  9   6   8  1   
 10   6  23  1   
 11   6  24  1   
 12   7  25  1   
 13   7  26  1   
 14   7  27  1   
 15   8   9  1   
 16   8  10  1   
 17   8  28  1   
 18   9  11  1   
 19   9  12  1   
 20   9  29  1   
 21  10  13  1   
 22  10  30  1   
 23  10  31  1   
 24  11  32  1   
 25  12  13  1   
 26  12  33  1   
 27  12  34  1   
 28  13  14  1   
 29  14  15  ar  
 30  14  16  ar  
 31  15  17  ar  
 32  16  18  ar  
 33  16  35  1   
 34  17  19  ar  
 35  17  20  1   
 36  18  19  ar  
 37  18  21  1   
 38  19  36  1   
 39  20  37  1   
 40  20  38  1   
 41  20  39  1   
 42  21  40  1   
 43  21  41  1   
 44  21  42  1   
@<TRIPOS>SUBSTRUCTURE
  1 ****  10 GROUP 4 **** **** 0

# MOE 2024.06 (io_trps.svl 2023.06)
