@<TRIPOS>MOLECULE
NONAME
44 47 1 0 0 
SMALL
USER_CHARGES


@<TRIPOS>ATOM
  1 S        0.0070     0.2630     1.2930 S.o2  1 <1>   1.5010 
  2 O       -0.9350     1.2980     1.6610 O.2   1 <1>  -0.6500 
  3 O        0.8670    -0.3070     2.3060 O.2   1 <1>  -0.6500 
  4 N       -0.8980    -1.0090     0.6290 N.am  1 <1>  -0.8490 
  5 C        1.0190     0.7890    -0.0940 C.2   1 <1>  -0.0630 
  6 C       -1.8940    -0.5310    -0.3360 C.3   1 <1>   0.1960 
  7 C       -1.5390    -1.8120     1.6750 C.3   1 <1>   0.1960 
  8 C        1.8200     0.0810    -0.9060 C.2   1 <1>  -0.0400 
  9 C        1.1630     2.0660    -0.5990 C.2   1 <1>   0.1080 
 10 C       -2.5370    -1.7240    -1.0410 C.3   1 <1>  -0.1600 
 11 C       -2.1800    -3.0520     1.0530 C.3   1 <1>  -0.1600 
 12 O        2.3850     0.8360    -1.8230 O.3   1 <1>  -0.0190 
 13 C        2.1450    -1.4010    -0.9080 C.3   1 <1>  -0.0600 
 14 N        1.9570     2.0580    -1.6040 N.2   1 <1>  -0.4100 
 15 C        0.5060     3.3290    -0.0790 C.3   1 <1>  -0.0590 
 16 C       -3.1920    -2.6680    -0.0280 C.3   1 <1>   0.4600 
 17 O       -4.2330    -1.9790     0.6350 O.3   1 <1>  -0.5600 
 18 C       -3.7740    -3.9050    -0.7000 C.2   1 <1>  -0.1400 
 19 C       -5.4920    -1.9080     0.0040 C.3   1 <1>   0.1200 
 20 S       -2.7780    -5.1200    -1.4880 S.3   1 <1>  -0.0800 
 21 C       -5.0710    -4.2280    -0.7850 C.2   1 <1>  -0.1810 
 22 C       -6.1090    -3.3080    -0.1840 C.3   1 <1>   0.0210 
 23 C       -4.2030    -6.0640    -1.9030 C.2   1 <1>  -0.1100 
 24 C       -5.3250    -5.4620    -1.4640 C.2   1 <1>  -0.1500 
 25 H       -1.4220     0.0940    -1.0740 H     1 <1>   0.0800 
 26 H       -2.6500     0.0520     0.1680 H     1 <1>   0.0800 
 27 H       -2.2820    -1.2230     2.1910 H     1 <1>   0.0800 
 28 H       -0.8050    -2.1310     2.3960 H     1 <1>   0.0800 
 29 H       -1.7740    -2.2550    -1.5810 H     1 <1>   0.0800 
 30 H       -3.2610    -1.3890    -1.7580 H     1 <1>   0.0800 
 31 H       -2.6730    -3.6330     1.8100 H     1 <1>   0.0800 
 32 H       -1.4040    -3.6600     0.6270 H     1 <1>   0.0800 
 33 H        1.6570    -1.9030    -0.0920 H     1 <1>   0.0800 
 34 H        3.2070    -1.5390    -0.8090 H     1 <1>   0.0800 
 35 H        1.8210    -1.8430    -1.8320 H     1 <1>   0.0800 
 36 H        0.7220     3.4560     0.9660 H     1 <1>   0.0800 
 37 H       -0.5590     3.2740    -0.2140 H     1 <1>   0.0800 
 38 H        0.8770     4.1850    -0.6130 H     1 <1>   0.0800 
 39 H       -5.3690    -1.4240    -0.9480 H     1 <1>   0.0800 
 40 H       -6.1320    -1.3000     0.6180 H     1 <1>   0.0800 
 41 H       -6.9620    -3.2370    -0.8350 H     1 <1>   0.0800 
 42 H       -6.4340    -3.6950     0.7640 H     1 <1>   0.0800 
 43 H       -4.0470    -6.9830    -2.4400 H     1 <1>   0.1500 
 44 H       -6.3260    -5.8350    -1.5890 H     1 <1>   0.1500 
@<TRIPOS>BOND
  1   1   2  2   
  2   1   3  2   
  3   1   4  am  
  4   1   5  1   
  5   4   6  1   
  6   4   7  1   
  7   5   8  2   
  8   5   9  1   
  9   6  10  1   
 10   6  25  1   
 11   6  26  1   
 12   7  11  1   
 13   7  27  1   
 14   7  28  1   
 15   8  12  1   
 16   8  13  1   
 17   9  14  2   
 18   9  15  1   
 19  10  16  1   
 20  10  29  1   
 21  10  30  1   
 22  11  16  1   
 23  11  31  1   
 24  11  32  1   
 25  12  14  1   
 26  13  33  1   
 27  13  34  1   
 28  13  35  1   
 29  15  36  1   
 30  15  37  1   
 31  15  38  1   
 32  16  17  1   
 33  16  18  1   
 34  17  19  1   
 35  18  20  1   
 36  18  21  2   
 37  19  22  1   
 38  19  39  1   
 39  19  40  1   
 40  20  23  1   
 41  21  22  1   
 42  21  24  1   
 43  22  41  1   
 44  22  42  1   
 45  23  24  2   
 46  23  43  1   
 47  24  44  1   
@<TRIPOS>SUBSTRUCTURE
  1 ****   6 GROUP 4 **** **** 0

# MOE 2024.06 (io_trps.svl 2023.06)
