@<TRIPOS>MOLECULE
NONAME
54 57 1 0 0 
SMALL
USER_CHARGES


@<TRIPOS>ATOM
  1 O       -1.3800    -0.9940    -2.3240 O.2   1 <1>  -0.5700 
  2 C       -1.9750    -1.1470    -1.2730 C.2   1 <1>   0.7160 
  3 N       -1.9720    -2.3920    -0.6810 N.am  1 <1>  -0.6600 
  4 C       -2.6420    -0.0200    -0.6670 C.2   1 <1>  -0.0860 
  5 C       -2.2890    -2.5900     0.7710 C.3   1 <1>   0.2200 
  6 C       -1.4090    -3.5480    -1.4220 C.3   1 <1>   0.1400 
  7 C       -2.1190     1.1610    -0.2400 C.2   1 <1>  -0.0400 
  8 C       -4.0190     0.0900    -0.3810 C.2   1 <1>  -0.1500 
  9 C       -1.1270    -3.2740     1.5300 C.3   1 <1>   0.1200 
 10 C       -3.6890    -3.2240     0.9700 C.3   1 <1>   0.1100 
 11 C       -1.8260    -4.9100    -0.8630 C.3   1 <1>  -0.0800 
 12 O       -3.0460     1.9260     0.2830 O.3   1 <1>  -0.2800 
 13 C       -0.6970     1.6780    -0.2840 C.3   1 <1>  -0.0600 
 14 C       -4.1950     1.2930     0.1990 C.2   1 <1>  -0.0400 
 15 O       -1.1830    -4.6670     1.5340 O.3   1 <1>  -0.5600 
 16 N       -3.8730    -4.6500     0.6110 N.3   1 <1>  -0.8100 
 17 C       -0.9610    -5.3550     0.3400 C.3   1 <1>   0.1200 
 18 C       -3.3540    -5.0510    -0.7070 C.3   1 <1>   0.1100 
 19 C       -5.4380     1.9790     0.7210 C.3   1 <1>  -0.0600 
 20 C       -5.2670    -5.0720     0.8440 C.3   1 <1>   0.2900 
 21 C       -5.4690    -6.5700     0.6850 C.2   1 <1>  -0.0400 
 22 O       -4.8470    -7.4100     1.4680 O.3   1 <1>  -0.0190 
 23 C       -6.2220    -7.2820    -0.1680 C.2   1 <1>  -0.1500 
 24 N       -5.1440    -8.6470     1.1850 N.2   1 <1>  -0.4100 
 25 C       -5.9710    -8.6010     0.2020 C.2   1 <1>   0.1080 
 26 C       -6.5820    -9.8230    -0.4560 C.3   1 <1>   0.0210 
 27 C       -8.0500    -9.9990    -0.0520 C.3   1 <1>  -0.2400 
 28 H       -2.3520    -1.6130     1.2140 H     1 <1>   0.0800 
 29 H       -1.7410    -3.4850    -2.4450 H     1 <1>   0.0800 
 30 H       -0.3360    -3.4680    -1.4290 H     1 <1>   0.0800 
 31 H       -4.7560    -0.6570    -0.6090 H     1 <1>   0.1500 
 32 H       -1.1800    -2.9780     2.5620 H     1 <1>   0.0800 
 33 H       -0.1740    -2.9620     1.1410 H     1 <1>   0.0800 
 34 H       -4.4010    -2.6350     0.4220 H     1 <1>   0.0800 
 35 H       -3.9300    -3.1230     2.0150 H     1 <1>   0.0800 
 36 H       -1.5650    -5.6000    -1.6450 H     1 <1>   0.0800 
 37 H       -0.0470     0.9560    -0.7450 H     1 <1>   0.0800 
 38 H       -0.3510     1.8790     0.7120 H     1 <1>   0.0800 
 39 H       -0.6640     2.5870    -0.8560 H     1 <1>   0.0800 
 40 H        0.0840    -5.2620     0.1020 H     1 <1>   0.0800 
 41 H       -1.1650    -6.3900     0.5490 H     1 <1>   0.0800 
 42 H       -3.5780    -6.0920    -0.8600 H     1 <1>   0.0800 
 43 H       -3.8560    -4.4930    -1.4800 H     1 <1>   0.0800 
 44 H       -6.2980     1.3500     0.5810 H     1 <1>   0.0800 
 45 H       -5.5880     2.9020     0.1920 H     1 <1>   0.0800 
 46 H       -5.3220     2.1910     1.7680 H     1 <1>   0.0800 
 47 H       -5.5510    -4.8050     1.8480 H     1 <1>   0.0800 
 48 H       -5.9160    -4.5530     0.1610 H     1 <1>   0.0800 
 49 H       -6.8730    -6.9530    -0.9560 H     1 <1>   0.1500 
 50 H       -6.5050    -9.7250    -1.5230 H     1 <1>   0.0800 
 51 H       -6.0230   -10.6940    -0.1610 H     1 <1>   0.0800 
 52 H       -8.6280    -9.1460    -0.3590 H     1 <1>   0.0800 
 53 H       -8.1250   -10.1000     1.0170 H     1 <1>   0.0800 
 54 H       -8.4580   -10.8810    -0.5120 H     1 <1>   0.0800 
@<TRIPOS>BOND
  1   1   2  2   
  2   2   3  am  
  3   2   4  1   
  4   3   5  1   
  5   3   6  1   
  6   4   7  2   
  7   4   8  1   
  8   5   9  1   
  9   5  10  1   
 10   5  28  1   
 11   6  11  1   
 12   6  29  1   
 13   6  30  1   
 14   7  12  1   
 15   7  13  1   
 16   8  14  2   
 17   8  31  1   
 18   9  15  1   
 19   9  32  1   
 20   9  33  1   
 21  10  16  1   
 22  10  34  1   
 23  10  35  1   
 24  11  17  1   
 25  11  18  1   
 26  11  36  1   
 27  12  14  1   
 28  13  37  1   
 29  13  38  1   
 30  13  39  1   
 31  14  19  1   
 32  15  17  1   
 33  16  18  1   
 34  16  20  1   
 35  17  40  1   
 36  17  41  1   
 37  18  42  1   
 38  18  43  1   
 39  19  44  1   
 40  19  45  1   
 41  19  46  1   
 42  20  21  1   
 43  20  47  1   
 44  20  48  1   
 45  21  22  1   
 46  21  23  2   
 47  22  24  1   
 48  23  25  1   
 49  23  49  1   
 50  24  25  2   
 51  25  26  1   
 52  26  27  1   
 53  26  50  1   
 54  26  51  1   
 55  27  52  1   
 56  27  53  1   
 57  27  54  1   
@<TRIPOS>SUBSTRUCTURE
  1 ****  10 GROUP 4 **** **** 0

# MOE 2024.06 (io_trps.svl 2023.06)
