@<TRIPOS>MOLECULE
NONAME
52 56 1 0 0 
SMALL
USER_CHARGES


@<TRIPOS>ATOM
  1 CL      -1.0710    -0.7770     1.5600 Cl    1 <1>  -0.1770 
  2 C       -0.1900    -2.2720     1.3870 C.ar  1 <1>   0.1770 
  3 C       -0.6520    -3.2320     0.5090 C.ar  1 <1>  -0.1500 
  4 C        0.9550    -2.4720     2.1340 C.ar  1 <1>  -0.1500 
  5 C        0.0350    -4.4350     0.3640 C.ar  1 <1>  -0.0230 
  6 C        1.6520    -3.6600     1.9920 C.ar  1 <1>  -0.1500 
  7 N       -0.4430    -5.4360    -0.5300 N.pl3 1 <1>   0.5930 
  8 C        1.1960    -4.6290     1.1140 C.ar  1 <1>  -0.1500 
  9 N       -1.1150    -5.1610    -1.6770 N.2   1 <1>  -0.7070 
 10 C       -0.3560    -6.7840    -0.3800 C.2   1 <1>  -0.3020 
 11 C       -1.3980    -6.2990    -2.2170 C.2   1 <1>   0.1390 
 12 C       -0.9580    -7.3650    -1.4420 C.2   1 <1>  -0.1810 
 13 C       -1.1620    -8.8280    -1.7690 C.3   1 <1>   0.5240 
 14 N       -2.1730    -9.3690    -0.8250 N.4   1 <1>  -0.9590 
 15 C       -3.5100    -8.6850    -0.9760 C.3   1 <1>   0.3430 
 16 C       -2.3170   -10.8590    -0.9560 C.3   1 <1>   0.3430 
 17 C       -4.5760    -9.2740    -0.0300 C.3   1 <1>   0.1900 
 18 C       -3.4060   -11.4200    -0.0190 C.3   1 <1>   0.1100 
 19 N       -4.7020   -10.7410    -0.2320 N.3   1 <1>  -0.8100 
 20 C       -5.9290    -8.5740    -0.2560 C.3   1 <1>   0.1200 
 21 C       -5.7930   -11.2820     0.6240 C.3   1 <1>   0.2850 
 22 O       -6.8790    -9.1020     0.6140 O.3   1 <1>  -0.5600 
 23 C       -6.0620   -12.7550     0.2820 C.3   1 <1>  -0.1950 
 24 C       -7.0970   -10.4750     0.4310 C.3   1 <1>   0.1200 
 25 C       -6.8500   -13.6200     1.2170 C.3   1 <1>  -0.2000 
 26 C       -5.3900   -13.8850     1.0030 C.3   1 <1>  -0.2000 
 27 H       -1.5450    -3.0390    -0.0610 H     1 <1>   0.1500 
 28 H        1.2930    -1.7070     2.8110 H     1 <1>   0.1500 
 29 H        2.5490    -3.8250     2.5650 H     1 <1>   0.1500 
 30 H        1.7610    -5.5400     1.0130 H     1 <1>   0.1500 
 31 H        0.1270    -7.2220     0.4740 H     1 <1>   0.1500 
 32 H       -1.9190    -6.3810    -3.1590 H     1 <1>   0.1500 
 33 H       -0.2270    -9.3520    -1.6530 H     1 <1>   0.0800 
 34 H       -1.4980    -8.9390    -2.7870 H     1 <1>   0.0800 
 35 H       -1.8370    -9.1590     0.1220 H     1 <1>   0.4500 
 36 H       -3.4090    -7.6310    -0.7730 H     1 <1>   0.0800 
 37 H       -3.8630    -8.7960    -1.9880 H     1 <1>   0.0800 
 38 H       -2.5880   -11.1110    -1.9680 H     1 <1>   0.0800 
 39 H       -1.3790   -11.3430    -0.7330 H     1 <1>   0.0800 
 40 H       -4.2770    -9.0750     0.9860 H     1 <1>   0.0800 
 41 H       -3.0990   -11.3190     1.0080 H     1 <1>   0.0800 
 42 H       -3.5080   -12.4690    -0.2320 H     1 <1>   0.0800 
 43 H       -6.2750    -8.7090    -1.2670 H     1 <1>   0.0800 
 44 H       -5.8530    -7.5210    -0.0480 H     1 <1>   0.0800 
 45 H       -5.5110   -11.2080     1.6620 H     1 <1>   0.0800 
 46 H       -6.2730   -12.8870    -0.7660 H     1 <1>   0.1000 
 47 H       -7.8350   -10.7870     1.1480 H     1 <1>   0.0800 
 48 H       -7.4950   -10.6310    -0.5570 H     1 <1>   0.0800 
 49 H       -7.1610   -13.2300     2.1720 H     1 <1>   0.1000 
 50 H       -7.5650   -14.3120     0.8060 H     1 <1>   0.1000 
 51 H       -5.1080   -14.7640     0.4480 H     1 <1>   0.1000 
 52 H       -4.7180   -13.6810     1.8190 H     1 <1>   0.1000 
@<TRIPOS>BOND
  1   1   2  1   
  2   2   3  ar  
  3   2   4  ar  
  4   3   5  ar  
  5   3  27  1   
  6   4   6  ar  
  7   4  28  1   
  8   5   7  1   
  9   5   8  ar  
 10   6   8  ar  
 11   6  29  1   
 12   7   9  1   
 13   7  10  1   
 14   8  30  1   
 15   9  11  2   
 16  10  12  2   
 17  10  31  1   
 18  11  12  1   
 19  11  32  1   
 20  12  13  1   
 21  13  14  1   
 22  13  33  1   
 23  13  34  1   
 24  14  15  1   
 25  14  16  1   
 26  14  35  1   
 27  15  17  1   
 28  15  36  1   
 29  15  37  1   
 30  16  18  1   
 31  16  38  1   
 32  16  39  1   
 33  17  19  1   
 34  17  20  1   
 35  17  40  1   
 36  18  19  1   
 37  18  41  1   
 38  18  42  1   
 39  19  21  1   
 40  20  22  1   
 41  20  43  1   
 42  20  44  1   
 43  21  23  1   
 44  21  24  1   
 45  21  45  1   
 46  22  24  1   
 47  23  25  1   
 48  23  26  1   
 49  23  46  1   
 50  24  47  1   
 51  24  48  1   
 52  25  26  1   
 53  25  49  1   
 54  25  50  1   
 55  26  51  1   
 56  26  52  1   
@<TRIPOS>SUBSTRUCTURE
  1 ****  15 GROUP 4 **** **** 0

# MOE 2024.06 (io_trps.svl 2023.06)
