@<TRIPOS>MOLECULE
NONAME
49 51 1 0 0 
SMALL
USER_CHARGES


@<TRIPOS>ATOM
  1 S       -0.5930    -1.4740     0.1050 S.3   1 <1>  -0.0800 
  2 C       -1.9680    -2.4080     0.6650 C.2   1 <1>  -0.1100 
  3 C       -1.4710     0.0270     0.3310 C.2   1 <1>  -0.1100 
  4 C       -3.0030    -1.6030     0.9820 C.2   1 <1>  -0.1810 
  5 C       -2.7120    -0.2120     0.7940 C.2   1 <1>  -0.1500 
  6 C       -4.3730    -2.0400     1.4960 C.3   1 <1>   0.0820 
  7 C       -4.6430    -3.5350     1.3570 C.2   1 <1>   0.5690 
  8 O       -4.7310    -4.1770     2.3770 O.2   1 <1>  -0.5700 
  9 N       -4.7920    -4.1170     0.1240 N.am  1 <1>  -0.6600 
 10 C       -4.9990    -5.5970    -0.0090 C.3   1 <1>   0.3640 
 11 C       -4.8360    -3.3370    -1.1530 C.3   1 <1>   0.1400 
 12 C       -3.6500    -6.2790    -0.3080 C.ar  1 <1>  -0.1430 
 13 C       -6.1300    -5.8850    -1.0400 C.3   1 <1>   0.2000 
 14 C       -4.9900    -4.2280    -2.3950 C.3   1 <1>   0.1200 
 15 C       -2.6510    -6.2020     0.6560 C.ar  1 <1>  -0.1500 
 16 C       -3.3770    -6.9810    -1.4800 C.ar  1 <1>  -0.1500 
 17 O       -6.0300    -5.1610    -2.2550 O.3   1 <1>  -0.5600 
 18 C       -7.5160    -5.5770    -0.4560 C.3   1 <1>   0.1200 
 19 C       -1.4100    -6.7820     0.4590 C.ar  1 <1>   0.0830 
 20 C       -2.1360    -7.5590    -1.6900 C.ar  1 <1>  -0.1500 
 21 O       -7.8480    -6.5070     0.5240 O.3   1 <1>  -0.6800 
 22 O       -0.5030    -6.6740     1.4590 O.3   1 <1>  -0.3630 
 23 C       -1.1390    -7.4500    -0.7380 C.ar  1 <1>   0.0830 
 24 C       -0.2180    -7.8640     2.1590 C.3   1 <1>   0.0400 
 25 O        0.0650    -8.0060    -1.0240 O.3   1 <1>  -0.3630 
 26 C        1.1650    -7.1250    -1.1010 C.3   1 <1>   0.0400 
 27 H       -1.8510    -3.4790     0.6940 H     1 <1>   0.1500 
 28 H       -0.9560     0.9400     0.0920 H     1 <1>   0.1500 
 29 H       -3.4430     0.5450     1.0170 H     1 <1>   0.1500 
 30 H       -5.1410    -1.5050     0.9720 H     1 <1>   0.0800 
 31 H       -4.4470    -1.7740     2.5340 H     1 <1>   0.0800 
 32 H       -5.3320    -5.9930     0.9360 H     1 <1>   0.0800 
 33 H       -5.6650    -2.6520    -1.1190 H     1 <1>   0.0800 
 34 H       -3.9330    -2.7630    -1.2570 H     1 <1>   0.0800 
 35 H       -6.1150    -6.9260    -1.3020 H     1 <1>   0.0800 
 36 H       -4.0740    -4.7540    -2.5920 H     1 <1>   0.0800 
 37 H       -5.2120    -3.6220    -3.2550 H     1 <1>   0.0800 
 38 H       -2.8290    -5.6890     1.5840 H     1 <1>   0.1500 
 39 H       -4.1150    -7.0880    -2.2540 H     1 <1>   0.1500 
 40 H       -8.2680    -5.6220    -1.2250 H     1 <1>   0.0800 
 41 H       -7.5230    -4.6020    -0.0020 H     1 <1>   0.0800 
 42 H       -1.9320    -8.0930    -2.6000 H     1 <1>   0.1500 
 43 H       -8.0880    -7.3670     0.1260 H     1 <1>   0.4000 
 44 H        0.4690    -7.6320     2.9520 H     1 <1>   0.0800 
 45 H        0.2240    -8.5750     1.4840 H     1 <1>   0.0800 
 46 H       -1.1350    -8.2540     2.5650 H     1 <1>   0.0800 
 47 H        2.0000    -7.6660    -1.5070 H     1 <1>   0.0800 
 48 H        1.4060    -6.7680    -0.1170 H     1 <1>   0.0800 
 49 H        0.9080    -6.3030    -1.7450 H     1 <1>   0.0800 
@<TRIPOS>BOND
  1   1   2  1   
  2   1   3  1   
  3   2   4  2   
  4   2  27  1   
  5   3   5  2   
  6   3  28  1   
  7   4   5  1   
  8   4   6  1   
  9   5  29  1   
 10   6   7  1   
 11   6  30  1   
 12   6  31  1   
 13   7   8  2   
 14   7   9  am  
 15   9  10  1   
 16   9  11  1   
 17  10  12  1   
 18  10  13  1   
 19  10  32  1   
 20  11  14  1   
 21  11  33  1   
 22  11  34  1   
 23  12  15  ar  
 24  12  16  ar  
 25  13  17  1   
 26  13  18  1   
 27  13  35  1   
 28  14  17  1   
 29  14  36  1   
 30  14  37  1   
 31  15  19  ar  
 32  15  38  1   
 33  16  20  ar  
 34  16  39  1   
 35  18  21  1   
 36  18  40  1   
 37  18  41  1   
 38  19  22  1   
 39  19  23  ar  
 40  20  23  ar  
 41  20  42  1   
 42  21  43  1   
 43  22  24  1   
 44  23  25  1   
 45  24  44  1   
 46  24  45  1   
 47  24  46  1   
 48  25  26  1   
 49  26  47  1   
 50  26  48  1   
 51  26  49  1   
@<TRIPOS>SUBSTRUCTURE
  1 ****  12 GROUP 4 **** **** 0

# MOE 2024.06 (io_trps.svl 2023.06)
