@<TRIPOS>MOLECULE
NONAME
42 43 1 0 0 
SMALL
USER_CHARGES


@<TRIPOS>ATOM
  1 O       -0.4830     0.5900     2.1650 O.2   1 <1>  -0.5700 
  2 C       -0.1200    -0.2810     1.4080 C.2   1 <1>   0.5690 
  3 N        0.8450    -0.1270     0.4620 N.am  1 <1>  -0.4930 
  4 C       -0.7620    -1.6670     1.4940 C.3   1 <1>   0.1710 
  5 C        1.6290     0.9990     0.1150 C.2   1 <1>   0.0630 
  6 N       -0.5750    -2.4950     0.2580 N.3   1 <1>  -0.8100 
  7 C        2.5650     1.0860    -0.9180 C.2   1 <1>   0.1080 
  8 C        1.6510     2.2180     0.6900 C.2   1 <1>  -0.3020 
  9 C       -0.7780    -3.9250     0.5650 C.3   1 <1>   0.1100 
 10 C       -1.5020    -2.0410    -0.7970 C.3   1 <1>   0.0300 
 11 N        3.1220     2.2550    -0.9820 N.2   1 <1>  -0.7070 
 12 C        2.9170    -0.0320    -1.8730 C.3   1 <1>  -0.0590 
 13 N        2.5550     2.9570     0.0150 N.pl3 1 <1>   0.3140 
 14 C       -0.2140    -4.8200    -0.5410 C.3   1 <1>  -0.0170 
 15 C        2.9170     4.3500     0.2910 C.3   1 <1>   0.0160 
 16 C       -0.2420    -6.2730    -0.1040 C.ar  1 <1>   0.1670 
 17 N       -1.4410    -6.8220     0.0220 N.ar  1 <1>  -0.6200 
 18 C        0.9480    -6.9440     0.1390 C.ar  1 <1>  -0.1500 
 19 C       -1.4550    -8.0900     0.4020 C.ar  1 <1>   0.1600 
 20 C        0.9180    -8.2640     0.5360 C.ar  1 <1>  -0.1500 
 21 C       -0.3250    -8.8440     0.6680 C.ar  1 <1>  -0.1500 
 22 H        0.9630    -0.9700    -0.1070 H     1 <1>   0.3700 
 23 H       -1.8100    -1.5560     1.7120 H     1 <1>   0.0800 
 24 H       -0.3050    -2.1620     2.3320 H     1 <1>   0.0800 
 25 H        1.0820     2.5820     1.5240 H     1 <1>   0.1500 
 26 H       -1.8240    -4.1360     0.7140 H     1 <1>   0.0800 
 27 H       -0.2600    -4.1700     1.4770 H     1 <1>   0.0800 
 28 H       -1.3840    -0.9860    -0.9760 H     1 <1>   0.0800 
 29 H       -2.5230    -2.2290    -0.5090 H     1 <1>   0.0800 
 30 H       -1.3010    -2.5560    -1.7200 H     1 <1>   0.0800 
 31 H        2.0330    -0.3750    -2.3760 H     1 <1>   0.0800 
 32 H        3.3610    -0.8460    -1.3310 H     1 <1>   0.0800 
 33 H        3.6190     0.3230    -2.6050 H     1 <1>   0.0800 
 34 H        0.7940    -4.5210    -0.7610 H     1 <1>   0.0800 
 35 H       -0.8040    -4.7270    -1.4340 H     1 <1>   0.0800 
 36 H        3.5150     4.3860     1.1810 H     1 <1>   0.0800 
 37 H        2.0230     4.9280     0.4230 H     1 <1>   0.0800 
 38 H        3.4800     4.7360    -0.5390 H     1 <1>   0.0800 
 39 H        1.8910    -6.4430     0.0210 H     1 <1>   0.1500 
 40 H       -2.4200    -8.5540     0.5070 H     1 <1>   0.1500 
 41 H        1.8210    -8.8150     0.7330 H     1 <1>   0.1500 
 42 H       -0.4210    -9.8700     0.9730 H     1 <1>   0.1500 
@<TRIPOS>BOND
  1   1   2  2   
  2   2   3  am  
  3   2   4  1   
  4   3   5  1   
  5   3  22  1   
  6   4   6  1   
  7   4  23  1   
  8   4  24  1   
  9   5   7  1   
 10   5   8  2   
 11   6   9  1   
 12   6  10  1   
 13   7  11  2   
 14   7  12  1   
 15   8  13  1   
 16   8  25  1   
 17   9  14  1   
 18   9  26  1   
 19   9  27  1   
 20  10  28  1   
 21  10  29  1   
 22  10  30  1   
 23  11  13  1   
 24  12  31  1   
 25  12  32  1   
 26  12  33  1   
 27  13  15  1   
 28  14  16  1   
 29  14  34  1   
 30  14  35  1   
 31  15  36  1   
 32  15  37  1   
 33  15  38  1   
 34  16  17  ar  
 35  16  18  ar  
 36  17  19  ar  
 37  18  20  ar  
 38  18  39  1   
 39  19  21  ar  
 40  19  40  1   
 41  20  21  ar  
 42  20  41  1   
 43  21  42  1   
@<TRIPOS>SUBSTRUCTURE
  1 ****   6 GROUP 4 **** **** 0

# MOE 2024.06 (io_trps.svl 2023.06)
