@<TRIPOS>MOLECULE
NONAME
52 55 1 0 0 
SMALL
USER_CHARGES


@<TRIPOS>ATOM
  1 O        0.8170     0.0670    -0.9260 O.3   1 <1>  -0.3630 
  2 C        0.5420    -1.2420    -0.6890 C.ar  1 <1>   0.0820 
  3 C        1.8990     0.6290    -0.2140 C.3   1 <1>   0.2000 
  4 C        1.0750    -1.8980     0.4240 C.ar  1 <1>   0.0820 
  5 C       -0.2750    -1.9280    -1.5710 C.ar  1 <1>  -0.1500 
  6 C        1.8360     0.1730     1.2540 C.3   1 <1>   0.1200 
  7 C        1.7990     2.1540    -0.3870 C.3   1 <1>   0.3430 
  8 O        1.8580    -1.2360     1.3140 O.3   1 <1>  -0.3630 
  9 C        0.8030    -3.2380     0.6330 C.ar  1 <1>  -0.1500 
 10 C       -0.5490    -3.2690    -1.3540 C.ar  1 <1>  -0.1500 
 11 N        2.9020     2.9440     0.2740 N.4   1 <1>  -0.9590 
 12 C       -0.0090    -3.9230    -0.2570 C.ar  1 <1>  -0.1500 
 13 C        2.5470     4.4110     0.2220 C.3   1 <1>   0.3430 
 14 C        4.2380     2.6560    -0.3420 C.3   1 <1>   0.3430 
 15 C        3.5720     5.3660     0.8710 C.3   1 <1>   0.2090 
 16 C        5.3570     2.9840     0.6440 C.3   1 <1>  -0.1600 
 17 N        4.8640     5.3940     0.1160 N.pl3 1 <1>  -0.8380 
 18 C        5.9090     4.4050     0.5030 C.3   1 <1>   0.2090 
 19 C        5.2330     6.4860    -0.6060 C.ar  1 <1>   0.1000 
 20 C        5.5620     7.7270    -0.0220 C.ar  1 <1>  -0.1430 
 21 C        5.3230     6.3900    -1.9990 C.ar  1 <1>  -0.1500 
 22 C        5.9340     8.7810    -0.8230 C.ar  1 <1>   0.2110 
 23 C        5.5360     7.9190     1.4940 C.3   1 <1>  -0.0970 
 24 C        5.7000     7.4640    -2.7620 C.ar  1 <1>   0.2110 
 25 N        5.9980     8.6470    -2.1710 N.ar  1 <1>  -0.1790 
 26 H        2.7970     0.2580    -0.6740 H     1 <1>   0.0800 
 27 H       -0.6900    -1.4200    -2.4220 H     1 <1>   0.1500 
 28 H        0.9280     0.5090     1.7230 H     1 <1>   0.0800 
 29 H        2.6810     0.5280     1.8150 H     1 <1>   0.0800 
 30 H        0.8500     2.4650     0.0190 H     1 <1>   0.0800 
 31 H        1.7930     2.3710    -1.4430 H     1 <1>   0.0800 
 32 H        1.2220    -3.7390     1.4870 H     1 <1>   0.1500 
 33 H       -1.1830    -3.8050    -2.0390 H     1 <1>   0.1500 
 34 H        2.9550     2.6760     1.2650 H     1 <1>   0.4500 
 35 H       -0.2230    -4.9650    -0.0940 H     1 <1>   0.1500 
 36 H        1.6010     4.5570     0.7160 H     1 <1>   0.0800 
 37 H        2.4230     4.7140    -0.8050 H     1 <1>   0.0800 
 38 H        4.3660     3.2170    -1.2540 H     1 <1>   0.0800 
 39 H        4.3050     1.6080    -0.5830 H     1 <1>   0.0800 
 40 H        3.7430     5.0950     1.8990 H     1 <1>   0.0800 
 41 H        3.1460     6.3540     0.8640 H     1 <1>   0.0800 
 42 H        6.1760     2.3110     0.4600 H     1 <1>   0.0800 
 43 H        5.0430     2.8080     1.6570 H     1 <1>   0.0800 
 44 H        6.6800     4.4090    -0.2510 H     1 <1>   0.0800 
 45 H        6.3670     4.7080     1.4300 H     1 <1>   0.0800 
 46 H        5.0890     5.4500    -2.4640 H     1 <1>   0.1500 
 47 H        6.1890     9.7380    -0.3950 H     1 <1>   0.1500 
 48 H        6.0280     7.0980     1.9840 H     1 <1>   0.0800 
 49 H        4.5230     7.9770     1.8490 H     1 <1>   0.0800 
 50 H        6.0430     8.8230     1.7830 H     1 <1>   0.0800 
 51 H        5.7690     7.3890    -3.8360 H     1 <1>   0.1500 
 52 H        6.2820     9.4480    -2.7480 H     1 <1>   0.4570 
@<TRIPOS>BOND
  1   1   2  1   
  2   1   3  1   
  3   2   4  ar  
  4   2   5  ar  
  5   3   6  1   
  6   3   7  1   
  7   3  26  1   
  8   4   8  1   
  9   4   9  ar  
 10   5  10  ar  
 11   5  27  1   
 12   6   8  1   
 13   6  28  1   
 14   6  29  1   
 15   7  11  1   
 16   7  30  1   
 17   7  31  1   
 18   9  12  ar  
 19   9  32  1   
 20  10  12  ar  
 21  10  33  1   
 22  11  13  1   
 23  11  14  1   
 24  11  34  1   
 25  12  35  1   
 26  13  15  1   
 27  13  36  1   
 28  13  37  1   
 29  14  16  1   
 30  14  38  1   
 31  14  39  1   
 32  15  17  1   
 33  15  40  1   
 34  15  41  1   
 35  16  18  1   
 36  16  42  1   
 37  16  43  1   
 38  17  18  1   
 39  17  19  1   
 40  18  44  1   
 41  18  45  1   
 42  19  20  ar  
 43  19  21  ar  
 44  20  22  ar  
 45  20  23  1   
 46  21  24  ar  
 47  21  46  1   
 48  22  25  ar  
 49  22  47  1   
 50  23  48  1   
 51  23  49  1   
 52  23  50  1   
 53  24  25  ar  
 54  24  51  1   
 55  25  52  1   
@<TRIPOS>SUBSTRUCTURE
  1 ****  11 GROUP 4 **** **** 0

# MOE 2024.06 (io_trps.svl 2023.06)
