@<TRIPOS>MOLECULE
NONAME
40 41 1 0 0 
SMALL
USER_CHARGES


@<TRIPOS>ATOM
  1 S       -1.1400     0.8050    -2.5670 S.3   1 <1>  -0.0800 
  2 C       -0.1240     0.4360    -1.1870 C.2   1 <1>   0.4620 
  3 C       -1.7460     2.1930    -1.7090 C.2   1 <1>  -0.1100 
  4 N       -0.2320     1.2570    -0.2140 N.2   1 <1>  -0.5650 
  5 N        0.6760    -0.6550    -1.2370 N.pl3 1 <1>  -0.8840 
  6 C       -1.1530     2.2580    -0.5040 C.2   1 <1>   0.0460 
  7 C       -1.4040     3.3260     0.5670 C.3   1 <1>   0.4010 
  8 N       -2.4110     4.3350     0.1110 N.am  1 <1>  -0.6600 
  9 C       -0.0840     4.0170     0.9710 C.3   1 <1>  -0.1600 
 10 C       -3.7440     4.0870     0.2760 C.2   1 <1>   0.7800 
 11 C       -1.8690     5.6220    -0.3970 C.3   1 <1>   0.1400 
 12 C       -0.3240     5.3740     1.6510 C.3   1 <1>  -0.1600 
 13 O       -4.1500     3.0520     0.7630 O.2   1 <1>  -0.5700 
 14 O       -4.5940     5.0340    -0.1300 O.3   1 <1>  -0.4300 
 15 C       -1.0930     6.3340     0.7220 C.3   1 <1>  -0.1600 
 16 C       -6.0030     5.0050    -0.0670 C.3   1 <1>   0.2800 
 17 C       -6.5510     3.8590    -0.9260 C.3   1 <1>  -0.2400 
 18 C       -6.4550     6.3400    -0.6600 C.3   1 <1>  -0.2400 
 19 C       -6.4680     4.9190     1.3920 C.3   1 <1>  -0.2400 
 20 H       -2.4830     2.8070    -2.1930 H     1 <1>   0.1500 
 21 H        1.1810    -0.9330    -0.3960 H     1 <1>   0.4000 
 22 H        0.6010    -1.3390    -1.9890 H     1 <1>   0.4000 
 23 H       -1.7940     2.8300     1.4390 H     1 <1>   0.0800 
 24 H        0.5270     4.1570     0.0960 H     1 <1>   0.0800 
 25 H        0.4580     3.3640     1.6320 H     1 <1>   0.0800 
 26 H       -2.6510     6.2630    -0.7660 H     1 <1>   0.0800 
 27 H       -1.2060     5.4100    -1.2180 H     1 <1>   0.0800 
 28 H        0.6120     5.8160     1.9460 H     1 <1>   0.0800 
 29 H       -0.9060     5.2090     2.5430 H     1 <1>   0.0800 
 30 H       -1.7810     6.9160     1.3100 H     1 <1>   0.0800 
 31 H       -0.4040     7.0220     0.2660 H     1 <1>   0.0800 
 32 H       -6.1480     3.9120    -1.9210 H     1 <1>   0.0800 
 33 H       -7.6220     3.9270    -0.9870 H     1 <1>   0.0800 
 34 H       -6.3120     2.9040    -0.4970 H     1 <1>   0.0800 
 35 H       -6.1170     6.4290    -1.6770 H     1 <1>   0.0800 
 36 H       -6.0580     7.1570    -0.0850 H     1 <1>   0.0800 
 37 H       -7.5270     6.4090    -0.6520 H     1 <1>   0.0800 
 38 H       -6.2280     3.9630     1.8200 H     1 <1>   0.0800 
 39 H       -7.5340     5.0380     1.4450 H     1 <1>   0.0800 
 40 H       -6.0080     5.6940     1.9780 H     1 <1>   0.0800 
@<TRIPOS>BOND
  1   1   2  1   
  2   1   3  1   
  3   2   4  2   
  4   2   5  1   
  5   3   6  2   
  6   3  20  1   
  7   4   6  1   
  8   5  21  1   
  9   5  22  1   
 10   6   7  1   
 11   7   8  1   
 12   7   9  1   
 13   7  23  1   
 14   8  10  am  
 15   8  11  1   
 16   9  12  1   
 17   9  24  1   
 18   9  25  1   
 19  10  13  2   
 20  10  14  1   
 21  11  15  1   
 22  11  26  1   
 23  11  27  1   
 24  12  15  1   
 25  12  28  1   
 26  12  29  1   
 27  14  16  1   
 28  15  30  1   
 29  15  31  1   
 30  16  17  1   
 31  16  18  1   
 32  16  19  1   
 33  17  32  1   
 34  17  33  1   
 35  17  34  1   
 36  18  35  1   
 37  18  36  1   
 38  18  37  1   
 39  19  38  1   
 40  19  39  1   
 41  19  40  1   
@<TRIPOS>SUBSTRUCTURE
  1 ****   8 GROUP 4 **** **** 0

# MOE 2024.06 (io_trps.svl 2023.06)
