@<TRIPOS>MOLECULE
NONAME
43 45 1 0 0 
SMALL
USER_CHARGES


@<TRIPOS>ATOM
  1 F        0.1330     0.8940    -0.5690 F     1 <1>  -0.3400 
  2 C        0.7500     2.0380    -0.2810 C.3   1 <1>   0.9600 
  3 F        0.3510     2.8720    -1.2390 F     1 <1>  -0.3400 
  4 O        2.1450     1.8440    -0.5010 O.3   1 <1>  -0.3630 
  5 C        0.2980     2.5830     1.1100 C.3   1 <1>   0.6000 
  6 C        2.8920     1.1330     0.3720 C.ar  1 <1>   0.0830 
  7 F        0.8770     3.7480     1.4130 F     1 <1>  -0.3400 
  8 F        0.6280     1.7750     2.1200 F     1 <1>  -0.3400 
  9 C        3.8410     1.7680     1.1940 C.ar  1 <1>   0.0860 
 10 C        2.7150    -0.2440     0.4130 C.ar  1 <1>  -0.1500 
 11 C        4.1210     3.1980     1.1750 C.2   1 <1>   0.5440 
 12 C        4.5490     0.9480     2.0800 C.ar  1 <1>  -0.1500 
 13 C        3.4400    -1.0200     1.2930 C.ar  1 <1>  -0.1500 
 14 O        4.7520     3.7260     2.0780 O.2   1 <1>  -0.5700 
 15 N        3.7940     4.0140     0.1210 N.am  1 <1>  -0.6600 
 16 C        4.3570    -0.4190     2.1340 C.ar  1 <1>  -0.1500 
 17 C        4.5230     3.9170    -1.1510 C.3   1 <1>   0.1400 
 18 C        3.4010     5.4250     0.3030 C.3   1 <1>   0.1400 
 19 C        5.3170     5.2260    -1.2110 C.3   1 <1>  -0.0800 
 20 C        4.5320     6.2310    -0.3470 C.3   1 <1>  -0.0800 
 21 C        6.6760     5.0770    -0.5180 C.3   1 <1>   0.3430 
 22 C        5.5200     6.7140     0.7130 C.3   1 <1>   0.3430 
 23 N        6.4710     5.5940     0.8540 N.4   1 <1>  -0.9590 
 24 C        7.7150     5.9200     1.6030 C.3   1 <1>   0.2630 
 25 H       -0.7650     2.7290     1.1480 H     1 <1>   0.0800 
 26 H        2.0110    -0.7220    -0.2460 H     1 <1>   0.1500 
 27 H        5.2690     1.3910     2.7470 H     1 <1>   0.1500 
 28 H        3.2940    -2.0860     1.3270 H     1 <1>   0.1500 
 29 H        4.9200    -1.0180     2.8300 H     1 <1>   0.1500 
 30 H        5.1540     3.0440    -1.1820 H     1 <1>   0.0800 
 31 H        3.8100     3.8660    -1.9570 H     1 <1>   0.0800 
 32 H        2.4730     5.5940    -0.2180 H     1 <1>   0.0800 
 33 H        3.2600     5.6620     1.3450 H     1 <1>   0.0800 
 34 H        5.4480     5.5450    -2.2300 H     1 <1>   0.0800 
 35 H        4.1320     7.0600    -0.9040 H     1 <1>   0.0800 
 36 H        7.4080     5.6820    -1.0280 H     1 <1>   0.0800 
 37 H        7.0080     4.0510    -0.5040 H     1 <1>   0.0800 
 38 H        5.0300     6.9370     1.6470 H     1 <1>   0.0800 
 39 H        6.0380     7.5910     0.3570 H     1 <1>   0.0800 
 40 H        5.9390     4.8560     1.3750 H     1 <1>   0.4500 
 41 H        8.2690     6.6920     1.0950 H     1 <1>   0.0800 
 42 H        8.3370     5.0440     1.6880 H     1 <1>   0.0800 
 43 H        7.4710     6.2620     2.5960 H     1 <1>   0.0800 
@<TRIPOS>BOND
  1   1   2  1   
  2   2   3  1   
  3   2   4  1   
  4   2   5  1   
  5   4   6  1   
  6   5   7  1   
  7   5   8  1   
  8   5  25  1   
  9   6   9  ar  
 10   6  10  ar  
 11   9  11  1   
 12   9  12  ar  
 13  10  13  ar  
 14  10  26  1   
 15  11  14  2   
 16  11  15  am  
 17  12  16  ar  
 18  12  27  1   
 19  13  16  ar  
 20  13  28  1   
 21  15  17  1   
 22  15  18  1   
 23  16  29  1   
 24  17  19  1   
 25  17  30  1   
 26  17  31  1   
 27  18  20  1   
 28  18  32  1   
 29  18  33  1   
 30  19  20  1   
 31  19  21  1   
 32  19  34  1   
 33  20  22  1   
 34  20  35  1   
 35  21  23  1   
 36  21  36  1   
 37  21  37  1   
 38  22  23  1   
 39  22  38  1   
 40  22  39  1   
 41  23  24  1   
 42  23  40  1   
 43  24  41  1   
 44  24  42  1   
 45  24  43  1   
@<TRIPOS>SUBSTRUCTURE
  1 ****  11 GROUP 4 **** **** 0

# MOE 2024.06 (io_trps.svl 2023.06)
