@<TRIPOS>MOLECULE
NONAME
44 46 1 0 0 
SMALL
USER_CHARGES


@<TRIPOS>ATOM
  1 F        0.6430     0.9840     1.8590 F     1 <1>  -0.3400 
  2 C        0.1610     2.2070     1.6530 C.3   1 <1>   1.1640 
  3 F       -0.4140     2.5480     2.8010 F     1 <1>  -0.3400 
  4 F       -0.8100     2.0480     0.7600 F     1 <1>  -0.3400 
  5 C        1.2540     3.1830     1.2020 C.ar  1 <1>  -0.1430 
  6 C        0.8990     4.5260     0.9460 C.ar  1 <1>   0.3100 
  7 C        2.5590     2.7690     1.0440 C.ar  1 <1>  -0.1500 
  8 N       -0.3920     4.9140     1.1000 N.ar  1 <1>  -0.6200 
  9 C        1.9060     5.4350     0.5320 C.ar  1 <1>   0.0000 
 10 C        3.5480     3.6610     0.6320 C.ar  1 <1>  -0.1500 
 11 C       -0.6930     6.1570     0.8640 C.ar  1 <1>   0.1600 
 12 C        1.5370     6.7810     0.2800 C.ar  1 <1>   0.1000 
 13 C        3.2260     4.9640     0.3810 C.ar  1 <1>  -0.1500 
 14 C        0.2240     7.1170     0.4580 C.ar  1 <1>  -0.1500 
 15 N        2.4550     7.7350    -0.1130 N.pl3 1 <1>  -0.8690 
 16 C        2.7560     7.9090    -1.5520 C.3   1 <1>   0.4690 
 17 C        3.9900     8.7910    -1.6960 C.2   1 <1>   0.0070 
 18 C        1.5470     8.4690    -2.3000 C.3   1 <1>  -0.2400 
 19 N        5.0320     8.4230    -2.3630 N.2   1 <1>  -0.3380 
 20 N        4.1600    10.0110    -1.1610 N.pl3 1 <1>   0.0480 
 21 N        5.9210     9.4120    -2.2870 N.2   1 <1>  -0.3380 
 22 C        5.3850    10.3400    -1.5750 C.2   1 <1>   0.0360 
 23 C        3.2910    10.8410    -0.2980 C.3   1 <1>   0.0960 
 24 C        3.7010    10.6980     1.1650 C.3   1 <1>   0.1200 
 25 O        2.9780    11.6320     1.8980 O.3   1 <1>  -0.5600 
 26 C        3.1960    11.5650     3.2710 C.3   1 <1>   0.0400 
 27 H        2.8580     1.7500     1.2320 H     1 <1>   0.1500 
 28 H        4.5600     3.3100     0.5140 H     1 <1>   0.1500 
 29 H       -1.7190     6.4570     0.9930 H     1 <1>   0.1500 
 30 H        3.9960     5.6410     0.0590 H     1 <1>   0.1500 
 31 H       -0.1030     8.1250     0.2910 H     1 <1>   0.1500 
 32 H        3.3570     7.6360     0.3650 H     1 <1>   0.4000 
 33 H        2.9910     6.9440    -1.9710 H     1 <1>   0.0800 
 34 H        1.1890     9.3740    -1.8510 H     1 <1>   0.0800 
 35 H        0.7550     7.7420    -2.3100 H     1 <1>   0.0800 
 36 H        1.8240     8.6740    -3.3180 H     1 <1>   0.0800 
 37 H        5.8590    11.2740    -1.3320 H     1 <1>   0.1500 
 38 H        2.2680    10.5390    -0.4070 H     1 <1>   0.0800 
 39 H        3.3880    11.8680    -0.6000 H     1 <1>   0.0800 
 40 H        4.7500    10.9040     1.2940 H     1 <1>   0.0800 
 41 H        3.4620     9.7130     1.5300 H     1 <1>   0.0800 
 42 H        2.6010    12.3280     3.7420 H     1 <1>   0.0800 
 43 H        4.2380    11.7390     3.4770 H     1 <1>   0.0800 
 44 H        2.8930    10.5970     3.6330 H     1 <1>   0.0800 
@<TRIPOS>BOND
  1   1   2  1   
  2   2   3  1   
  3   2   4  1   
  4   2   5  1   
  5   5   6  ar  
  6   5   7  ar  
  7   6   8  ar  
  8   6   9  ar  
  9   7  10  ar  
 10   7  27  1   
 11   8  11  ar  
 12   9  12  ar  
 13   9  13  ar  
 14  10  13  ar  
 15  10  28  1   
 16  11  14  ar  
 17  11  29  1   
 18  12  14  ar  
 19  12  15  1   
 20  13  30  1   
 21  14  31  1   
 22  15  16  1   
 23  15  32  1   
 24  16  17  1   
 25  16  18  1   
 26  16  33  1   
 27  17  19  2   
 28  17  20  1   
 29  18  34  1   
 30  18  35  1   
 31  18  36  1   
 32  19  21  1   
 33  20  22  1   
 34  20  23  1   
 35  21  22  2   
 36  22  37  1   
 37  23  24  1   
 38  23  38  1   
 39  23  39  1   
 40  24  25  1   
 41  24  40  1   
 42  24  41  1   
 43  25  26  1   
 44  26  42  1   
 45  26  43  1   
 46  26  44  1   
@<TRIPOS>SUBSTRUCTURE
  1 ****  12 GROUP 4 **** **** 0

# MOE 2024.06 (io_trps.svl 2023.06)
