@<TRIPOS>MOLECULE
NONAME
52 54 1 0 0 
SMALL
USER_CHARGES


@<TRIPOS>ATOM
  1 O       -2.2720     0.7520    -2.9550 O.2   1 <1>  -0.5700 
  2 C       -2.5190     1.1800    -1.8420 C.2   1 <1>   0.5440 
  3 N       -3.3580     0.4650    -1.0160 N.am  1 <1>  -0.6600 
  4 C       -1.9310     2.4390    -1.4260 C.ar  1 <1>   0.0860 
  5 C       -3.5490    -1.0120    -1.1870 C.3   1 <1>   0.1400 
  6 C       -4.2940     1.1160    -0.0480 C.3   1 <1>   0.1400 
  7 C       -1.3500     2.5970    -0.1700 C.ar  1 <1>  -0.1500 
  8 C       -1.9100     3.5380    -2.2810 C.ar  1 <1>  -0.1500 
  9 C       -3.3690    -1.7940     0.1410 C.3   1 <1>  -0.1060 
 10 C       -4.7030     0.1640     1.0840 C.3   1 <1>  -0.1600 
 11 C       -0.7880     3.7930     0.2350 C.ar  1 <1>   0.0830 
 12 C       -1.3580     4.7460    -1.8970 C.ar  1 <1>  -0.1500 
 13 C       -4.4140    -2.9220     0.0820 C.2   1 <1>   0.9060 
 14 C       -3.5810    -0.8360     1.3500 C.3   1 <1>   0.2000 
 15 C       -1.9700    -2.4670     0.2210 C.3   1 <1>  -0.0650 
 16 O       -0.2630     3.7890     1.4910 O.3   1 <1>  -0.3630 
 17 C       -0.7970     4.8990    -0.6310 C.ar  1 <1>   0.0830 
 18 O       -5.2110    -3.1060     1.0160 O.co2 1 <1>  -0.9000 
 19 O       -4.4450    -3.6450    -0.9210 O.co2 1 <1>  -0.9000 
 20 O       -3.8740    -1.5290     2.5050 O.3   1 <1>  -0.6800 
 21 C       -0.7490    -1.5280     0.1940 C.3   1 <1>  -0.1950 
 22 C        0.9080     4.5180     1.7830 C.3   1 <1>   0.3200 
 23 O       -0.2780     6.0880    -0.2200 O.3   1 <1>  -0.3630 
 24 C       -0.1240    -1.0710    -1.0860 C.3   1 <1>  -0.2000 
 25 C        0.5830    -2.0710    -0.2170 C.3   1 <1>  -0.2000 
 26 C        1.5650     3.8990     2.9700 C.1   1 <1>  -0.2000 
 27 C       -0.3480     7.2580    -1.0060 C.3   1 <1>   0.0400 
 28 C        2.0850     3.4010     3.9170 C.1   1 <1>  -0.1770 
 29 H       -4.5480    -1.1610    -1.5620 H     1 <1>   0.0800 
 30 H       -2.8820    -1.4020    -1.9350 H     1 <1>   0.0800 
 31 H       -3.8250     1.9810     0.3840 H     1 <1>   0.0800 
 32 H       -5.1730     1.4440    -0.5750 H     1 <1>   0.0800 
 33 H       -1.3340     1.7580     0.5040 H     1 <1>   0.1500 
 34 H       -2.3360     3.4290    -3.2650 H     1 <1>   0.1500 
 35 H       -5.5980    -0.3640     0.8040 H     1 <1>   0.0800 
 36 H       -4.9100     0.7350     1.9700 H     1 <1>   0.0800 
 37 H       -1.3770     5.5540    -2.6020 H     1 <1>   0.1500 
 38 H       -2.6890    -0.2730     1.5500 H     1 <1>   0.0800 
 39 H       -1.9290    -3.0440     1.1280 H     1 <1>   0.0800 
 40 H       -1.8830    -3.1670    -0.5930 H     1 <1>   0.0800 
 41 H       -4.5190    -2.2480     2.2160 H     1 <1>   0.4000 
 42 H       -0.7230    -0.8530     1.0310 H     1 <1>   0.1000 
 43 H        1.5630     4.4810     0.9300 H     1 <1>   0.0800 
 44 H        0.6310     5.5340     1.9980 H     1 <1>   0.0800 
 45 H       -0.5480    -1.4010    -2.0190 H     1 <1>   0.1000 
 46 H        0.2480    -0.0630    -1.1410 H     1 <1>   0.1000 
 47 H        1.4560    -1.7580     0.3270 H     1 <1>   0.1000 
 48 H        0.6490    -3.0890    -0.5590 H     1 <1>   0.1000 
 49 H        0.0910     8.0640    -0.4460 H     1 <1>   0.0800 
 50 H       -1.3810     7.4790    -1.2130 H     1 <1>   0.0800 
 51 H        0.2040     7.1030    -1.9160 H     1 <1>   0.0800 
 52 H        2.5460     2.9430     4.7740 H     1 <1>   0.1770 
@<TRIPOS>BOND
  1   1   2  2   
  2   2   3  am  
  3   2   4  1   
  4   3   5  1   
  5   3   6  1   
  6   4   7  ar  
  7   4   8  ar  
  8   5   9  1   
  9   5  29  1   
 10   5  30  1   
 11   6  10  1   
 12   6  31  1   
 13   6  32  1   
 14   7  11  ar  
 15   7  33  1   
 16   8  12  ar  
 17   8  34  1   
 18   9  13  1   
 19   9  14  1   
 20   9  15  1   
 21  10  14  1   
 22  10  35  1   
 23  10  36  1   
 24  11  16  1   
 25  11  17  ar  
 26  12  17  ar  
 27  12  37  1   
 28  13  18  ar  
 29  13  19  ar  
 30  14  20  1   
 31  14  38  1   
 32  15  21  1   
 33  15  39  1   
 34  15  40  1   
 35  16  22  1   
 36  17  23  1   
 37  20  41  1   
 38  21  24  1   
 39  21  25  1   
 40  21  42  1   
 41  22  26  1   
 42  22  43  1   
 43  22  44  1   
 44  23  27  1   
 45  24  25  1   
 46  24  45  1   
 47  24  46  1   
 48  25  47  1   
 49  25  48  1   
 50  26  28  3   
 51  27  49  1   
 52  27  50  1   
 53  27  51  1   
 54  28  52  1   
@<TRIPOS>SUBSTRUCTURE
  1 ****   7 GROUP 4 **** **** 0

# MOE 2024.06 (io_trps.svl 2023.06)
