@<TRIPOS>MOLECULE
NONAME
54 56 1 0 0 
SMALL
USER_CHARGES


@<TRIPOS>ATOM
  1 O        2.1940     0.9890     1.4850 O.2   1 <1>  -0.5700 
  2 C        2.5660     0.4230     0.4860 C.2   1 <1>   0.5690 
  3 N        3.1430     1.0060    -0.5890 N.am  1 <1>  -0.6600 
  4 C        2.4380    -1.0610     0.2840 C.3   1 <1>  -0.0990 
  5 C        3.4550     0.0490    -1.6610 C.3   1 <1>   0.1400 
  6 C        3.2890     2.4660    -0.8020 C.3   1 <1>   0.1400 
  7 C        3.2330    -1.3230    -1.0080 C.3   1 <1>  -0.1600 
  8 C        4.4050     3.0110     0.0920 C.3   1 <1>  -0.0990 
  9 C        4.6880     4.4830    -0.1520 C.2   1 <1>   0.5690 
 10 O        4.1800     5.0170    -1.1120 O.2   1 <1>  -0.5700 
 11 N        5.5290     5.1750     0.6820 N.am  1 <1>  -0.6600 
 12 C        6.2780     4.5970     1.8460 C.3   1 <1>   0.1400 
 13 C        5.7920     6.6220     0.4590 C.3   1 <1>   0.1400 
 14 C        7.7610     4.3510     1.5210 C.3   1 <1>   0.1400 
 15 C        6.9160     6.8330    -0.5650 C.3   1 <1>  -0.1600 
 16 N        8.4360     5.5720     0.9750 N.am  1 <1>  -0.6600 
 17 C        8.1020     5.8640    -0.4480 C.3   1 <1>   0.1400 
 18 C        9.3180     6.3060     1.7370 C.2   1 <1>   0.5690 
 19 O        9.5740     5.9770     2.8780 O.2   1 <1>  -0.5700 
 20 C       10.0190     7.5670     1.1720 C.3   1 <1>   0.4040 
 21 O       10.4650     8.4030     2.1940 O.3   1 <1>  -0.6800 
 22 C       11.2160     7.2310     0.2830 C.ar  1 <1>  -0.1440 
 23 C       12.0990     6.2110     0.6160 C.ar  1 <1>  -0.1500 
 24 C       11.4290     7.9500    -0.8850 C.ar  1 <1>  -0.1500 
 25 C       13.1660     5.9080    -0.2110 C.ar  1 <1>  -0.1500 
 26 C       12.4960     7.6480    -1.7130 C.ar  1 <1>  -0.1500 
 27 C       13.3640     6.6250    -1.3770 C.ar  1 <1>  -0.1500 
 28 H        2.8450    -1.5940     1.1230 H     1 <1>   0.0800 
 29 H        1.3990    -1.3050     0.1590 H     1 <1>   0.0800 
 30 H        2.7760     0.1990    -2.4830 H     1 <1>   0.0800 
 31 H        4.4720     0.1670    -1.9950 H     1 <1>   0.0800 
 32 H        3.5130     2.6590    -1.8380 H     1 <1>   0.0800 
 33 H        2.3610     2.9560    -0.5590 H     1 <1>   0.0800 
 34 H        2.7160    -1.9940    -1.6700 H     1 <1>   0.0800 
 35 H        4.1900    -1.7500    -0.7630 H     1 <1>   0.0800 
 36 H        5.3070     2.4570    -0.0870 H     1 <1>   0.0800 
 37 H        4.1010     2.8820     1.1130 H     1 <1>   0.0800 
 38 H        6.2150     5.2730     2.6810 H     1 <1>   0.0800 
 39 H        5.8370     3.6710     2.1630 H     1 <1>   0.0800 
 40 H        4.8930     7.1050     0.1120 H     1 <1>   0.0800 
 41 H        6.0660     7.0830     1.3930 H     1 <1>   0.0800 
 42 H        7.8400     3.5500     0.8080 H     1 <1>   0.0800 
 43 H        8.2590     4.0230     2.4180 H     1 <1>   0.0800 
 44 H        7.2660     7.8450    -0.4820 H     1 <1>   0.0800 
 45 H        6.4980     6.7320    -1.5500 H     1 <1>   0.0800 
 46 H        8.9570     6.2630    -0.9650 H     1 <1>   0.0800 
 47 H        7.8410     4.9420    -0.9410 H     1 <1>   0.0800 
 48 H        9.3040     8.1360     0.6090 H     1 <1>   0.0800 
 49 H       10.7550     7.8240     2.9290 H     1 <1>   0.4000 
 50 H       11.9640     5.6450     1.5230 H     1 <1>   0.1500 
 51 H       10.7670     8.7550    -1.1540 H     1 <1>   0.1500 
 52 H       13.8430     5.1150     0.0550 H     1 <1>   0.1500 
 53 H       12.6530     8.2110    -2.6160 H     1 <1>   0.1500 
 54 H       14.1940     6.3890    -2.0200 H     1 <1>   0.1500 
@<TRIPOS>BOND
  1   1   2  2   
  2   2   3  am  
  3   2   4  1   
  4   3   5  1   
  5   3   6  1   
  6   4   7  1   
  7   4  28  1   
  8   4  29  1   
  9   5   7  1   
 10   5  30  1   
 11   5  31  1   
 12   6   8  1   
 13   6  32  1   
 14   6  33  1   
 15   7  34  1   
 16   7  35  1   
 17   8   9  1   
 18   8  36  1   
 19   8  37  1   
 20   9  10  2   
 21   9  11  am  
 22  11  12  1   
 23  11  13  1   
 24  12  14  1   
 25  12  38  1   
 26  12  39  1   
 27  13  15  1   
 28  13  40  1   
 29  13  41  1   
 30  14  16  1   
 31  14  42  1   
 32  14  43  1   
 33  15  17  1   
 34  15  44  1   
 35  15  45  1   
 36  16  17  1   
 37  16  18  am  
 38  17  46  1   
 39  17  47  1   
 40  18  19  2   
 41  18  20  1   
 42  20  21  1   
 43  20  22  1   
 44  20  48  1   
 45  21  49  1   
 46  22  23  ar  
 47  22  24  ar  
 48  23  25  ar  
 49  23  50  1   
 50  24  26  ar  
 51  24  51  1   
 52  25  27  ar  
 53  25  52  1   
 54  26  27  ar  
 55  26  53  1   
 56  27  54  1   
@<TRIPOS>SUBSTRUCTURE
  1 ****  14 GROUP 4 **** **** 0

# MOE 2024.06 (io_trps.svl 2023.06)
