@<TRIPOS>MOLECULE
NONAME
43 45 1 0 0 
SMALL
USER_CHARGES


@<TRIPOS>ATOM
  1 O        1.1440     3.0960    -0.3090 O.2   1 <1>  -0.5700 
  2 C        0.1420     3.1230    -0.9900 C.2   1 <1>   0.5440 
  3 N        0.3280     2.9980    -2.3240 N.am  1 <1>  -0.8000 
  4 C       -1.1890     3.2880    -0.4330 C.ar  1 <1>   0.0860 
  5 C       -1.5220     4.2660     0.5140 C.ar  1 <1>   0.1670 
  6 C       -2.2130     2.4550    -0.8630 C.ar  1 <1>  -0.1500 
  7 N       -2.7400     4.4560     0.9960 N.ar  1 <1>  -0.6200 
  8 C       -0.4740     5.2220     1.0750 C.3   1 <1>  -0.0170 
  9 C       -3.4850     2.6350    -0.3620 C.ar  1 <1>  -0.1430 
 10 C       -3.6950     3.6550     0.5590 C.ar  1 <1>   0.1670 
 11 C       -0.0710     6.2970     0.0510 C.3   1 <1>  -0.1600 
 12 C       -4.6030     1.7120    -0.8290 C.3   1 <1>  -0.0970 
 13 C       -5.0680     3.9220     1.1500 C.3   1 <1>  -0.0970 
 14 C        1.1710     7.0870     0.4820 C.3   1 <1>   0.2000 
 15 O        1.2860     8.1920    -0.3950 O.3   1 <1>  -0.3630 
 16 C        2.4660     6.2500     0.4350 C.3   1 <1>   0.1200 
 17 C        2.4710     8.8530    -0.4120 C.ar  1 <1>   0.0830 
 18 O        3.5920     7.0610     0.7190 O.3   1 <1>  -0.3630 
 19 C        3.6180     8.2940     0.1550 C.ar  1 <1>   0.0830 
 20 C        2.5310    10.1030    -1.0020 C.ar  1 <1>  -0.1500 
 21 C        4.8090     8.9990     0.1420 C.ar  1 <1>  -0.1500 
 22 C        3.7260    10.8040    -1.0170 C.ar  1 <1>  -0.1500 
 23 C        4.8620    10.2540    -0.4440 C.ar  1 <1>  -0.1500 
 24 H        1.2790     2.9010    -2.6830 H     1 <1>   0.3700 
 25 H       -0.4170     3.0990    -3.0120 H     1 <1>   0.3700 
 26 H       -2.0060     1.6760    -1.5750 H     1 <1>   0.1500 
 27 H        0.3730     4.6530     1.4070 H     1 <1>   0.0800 
 28 H       -0.8700     5.7090     1.9500 H     1 <1>   0.0800 
 29 H       -0.8990     6.9750    -0.0660 H     1 <1>   0.0800 
 30 H        0.1270     5.8480    -0.9050 H     1 <1>   0.0800 
 31 H       -4.2130     0.8940    -1.4090 H     1 <1>   0.0800 
 32 H       -5.3010     2.2580    -1.4390 H     1 <1>   0.0800 
 33 H       -5.1240     1.3000     0.0170 H     1 <1>   0.0800 
 34 H       -5.1190     4.9270     1.5280 H     1 <1>   0.0800 
 35 H       -5.2470     3.2420     1.9620 H     1 <1>   0.0800 
 36 H       -5.8360     3.8060     0.4100 H     1 <1>   0.0800 
 37 H        1.0300     7.4790     1.4740 H     1 <1>   0.0800 
 38 H        2.6010     5.8210    -0.5420 H     1 <1>   0.0800 
 39 H        2.4460     5.4570     1.1600 H     1 <1>   0.0800 
 40 H        1.6440    10.5210    -1.4420 H     1 <1>   0.1500 
 41 H        5.6840     8.5630     0.5870 H     1 <1>   0.1500 
 42 H        3.7720    11.7770    -1.4750 H     1 <1>   0.1500 
 43 H        5.7890    10.8010    -0.4550 H     1 <1>   0.1500 
@<TRIPOS>BOND
  1   1   2  2   
  2   2   3  am  
  3   2   4  1   
  4   3  24  1   
  5   3  25  1   
  6   4   5  ar  
  7   4   6  ar  
  8   5   7  ar  
  9   5   8  1   
 10   6   9  ar  
 11   6  26  1   
 12   7  10  ar  
 13   8  11  1   
 14   8  27  1   
 15   8  28  1   
 16   9  10  ar  
 17   9  12  1   
 18  10  13  1   
 19  11  14  1   
 20  11  29  1   
 21  11  30  1   
 22  12  31  1   
 23  12  32  1   
 24  12  33  1   
 25  13  34  1   
 26  13  35  1   
 27  13  36  1   
 28  14  15  1   
 29  14  16  1   
 30  14  37  1   
 31  15  17  1   
 32  16  18  1   
 33  16  38  1   
 34  16  39  1   
 35  17  19  ar  
 36  17  20  ar  
 37  18  19  1   
 38  19  21  ar  
 39  20  22  ar  
 40  20  40  1   
 41  21  23  ar  
 42  21  41  1   
 43  22  23  ar  
 44  22  42  1   
 45  23  43  1   
@<TRIPOS>SUBSTRUCTURE
  1 ****  11 GROUP 4 **** **** 0

# MOE 2024.06 (io_trps.svl 2023.06)
