@<TRIPOS>MOLECULE
NONAME
44 46 1 0 0 
SMALL
USER_CHARGES


@<TRIPOS>ATOM
  1 O        0.4090    -0.1920    -0.6720 O.co2 1 <1>  -0.9000 
  2 C        1.1870    -1.0490    -1.1270 C.2   1 <1>   0.9790 
  3 O        2.0010    -0.7190    -2.0060 O.co2 1 <1>  -0.9000 
  4 C        1.1340    -2.4260    -0.6490 C.ar  1 <1>  -0.1790 
  5 C        0.2220    -2.8260     0.3280 C.ar  1 <1>  -0.1500 
  6 C        1.9960    -3.4020    -1.1510 C.ar  1 <1>  -0.1500 
  7 C        0.1560    -4.1350     0.7680 C.ar  1 <1>  -0.1500 
  8 C        1.9390    -4.7120    -0.7180 C.ar  1 <1>  -0.1500 
  9 C        1.0080    -5.0900     0.2370 C.ar  1 <1>  -0.1430 
 10 C        0.9100    -6.5350     0.6710 C.3   1 <1>   0.4870 
 11 N        0.2530    -7.2770    -0.4340 N.4   1 <1>  -0.9590 
 12 C       -1.2090    -6.9610    -0.4840 C.3   1 <1>   0.3430 
 13 C        0.3770    -8.7520    -0.2380 C.3   1 <1>   0.3430 
 14 C       -1.9060    -8.1210     0.2340 C.3   1 <1>   0.2000 
 15 C       -1.0460    -9.3180    -0.1690 C.3   1 <1>  -0.0800 
 16 O       -1.8120    -7.9120     1.6080 O.3   1 <1>  -0.6800 
 17 C       -1.1450   -10.5610     0.7350 C.3   1 <1>   0.0210 
 18 C       -0.2710   -11.6860     0.2140 C.2   1 <1>   0.1080 
 19 N        1.0150   -11.5730     0.0680 N.2   1 <1>  -0.7070 
 20 C       -0.7340   -12.9440    -0.1540 C.2   1 <1>  -0.1500 
 21 N        1.4100   -12.7800    -0.3920 N.pl3 1 <1>   0.3000 
 22 C        0.3670   -13.6210    -0.5400 C.2   1 <1>  -0.3320 
 23 C        0.4890   -15.0490    -1.0420 C.3   1 <1>  -0.0600 
 24 H       -0.4420    -2.0810     0.7380 H     1 <1>   0.1500 
 25 H        2.7180    -3.1070    -1.8960 H     1 <1>   0.1500 
 26 H       -0.5660    -4.3900     1.5240 H     1 <1>   0.1500 
 27 H        2.6310    -5.4220    -1.1370 H     1 <1>   0.1500 
 28 H        0.3360    -6.6210     1.5800 H     1 <1>   0.0800 
 29 H        1.9010    -6.9210     0.8470 H     1 <1>   0.0800 
 30 H        0.7010    -6.9640    -1.3040 H     1 <1>   0.4500 
 31 H       -1.4420    -6.0150    -0.0230 H     1 <1>   0.0800 
 32 H       -1.5330    -6.9380    -1.5110 H     1 <1>   0.0800 
 33 H        0.9270    -9.2160    -1.0420 H     1 <1>   0.0800 
 34 H        0.8860    -8.9640     0.6880 H     1 <1>   0.0800 
 35 H       -2.9440    -8.2130    -0.0390 H     1 <1>   0.0800 
 36 H       -1.3220    -9.6120    -1.1670 H     1 <1>   0.0800 
 37 H       -2.4070    -8.5150     2.1020 H     1 <1>   0.4000 
 38 H       -2.1640   -10.9000     0.7810 H     1 <1>   0.0800 
 39 H       -0.8230   -10.3310     1.7360 H     1 <1>   0.0800 
 40 H       -1.7540   -13.2860    -0.1260 H     1 <1>   0.1500 
 41 H        2.3940   -13.0030    -0.5910 H     1 <1>   0.2700 
 42 H       -0.4790   -15.5160    -1.0680 H     1 <1>   0.0800 
 43 H        1.1260   -15.6200    -0.3900 H     1 <1>   0.0800 
 44 H        0.9010   -15.0620    -2.0350 H     1 <1>   0.0800 
@<TRIPOS>BOND
  1   1   2  ar  
  2   2   3  ar  
  3   2   4  1   
  4   4   5  ar  
  5   4   6  ar  
  6   5   7  ar  
  7   5  24  1   
  8   6   8  ar  
  9   6  25  1   
 10   7   9  ar  
 11   7  26  1   
 12   8   9  ar  
 13   8  27  1   
 14   9  10  1   
 15  10  11  1   
 16  10  28  1   
 17  10  29  1   
 18  11  12  1   
 19  11  13  1   
 20  11  30  1   
 21  12  14  1   
 22  12  31  1   
 23  12  32  1   
 24  13  15  1   
 25  13  33  1   
 26  13  34  1   
 27  14  15  1   
 28  14  16  1   
 29  14  35  1   
 30  15  17  1   
 31  15  36  1   
 32  16  37  1   
 33  17  18  1   
 34  17  38  1   
 35  17  39  1   
 36  18  19  2   
 37  18  20  1   
 38  19  21  1   
 39  20  22  2   
 40  20  40  1   
 41  21  22  1   
 42  21  41  1   
 43  22  23  1   
 44  23  42  1   
 45  23  43  1   
 46  23  44  1   
@<TRIPOS>SUBSTRUCTURE
  1 ****  11 GROUP 4 **** **** 0

# MOE 2024.06 (io_trps.svl 2023.06)
