@<TRIPOS>MOLECULE
NONAME
40 41 1 0 0 
SMALL
USER_CHARGES


@<TRIPOS>ATOM
  1 CL      -2.0400     0.3330    -0.7940 Cl    1 <1>  -0.1770 
  2 C       -2.7560    -1.0660    -0.0350 C.ar  1 <1>   0.1770 
  3 C       -3.3390    -0.9540     1.2140 C.ar  1 <1>   0.1600 
  4 C       -2.7360    -2.2780    -0.6850 C.ar  1 <1>  -0.1500 
  5 N       -3.9060    -1.9670     1.8570 N.ar  1 <1>  -0.6200 
  6 C       -3.3140    -3.3650    -0.0390 C.ar  1 <1>   0.0860 
  7 C       -3.8800    -3.1270     1.2170 C.ar  1 <1>   0.1600 
  8 C       -3.3310    -4.6810    -0.6480 C.2   1 <1>   0.5440 
  9 O       -3.2320    -4.8020    -1.8510 O.2   1 <1>  -0.5700 
 10 N       -3.4580    -5.8170     0.0990 N.am  1 <1>  -0.7300 
 11 C       -3.3520    -7.2010    -0.4270 C.3   1 <1>   0.2200 
 12 C       -4.7240    -7.8490    -0.5340 C.3   1 <1>  -0.0800 
 13 C       -2.7210    -8.0760     0.6460 C.3   1 <1>   0.1200 
 14 C       -4.9780    -8.3440     0.8960 C.3   1 <1>   0.1200 
 15 C       -5.8260    -6.9440    -1.1270 C.3   1 <1>  -0.0550 
 16 O       -3.7470    -8.3020     1.5610 O.3   1 <1>  -0.5600 
 17 S       -7.3710    -7.7910    -1.4670 S.o2  1 <1>   1.3330 
 18 O       -7.0630    -9.0300    -2.1440 O.2   1 <1>  -0.6500 
 19 O       -8.3010    -6.8590    -2.0630 O.2   1 <1>  -0.6500 
 20 N       -7.9670    -8.1770     0.0780 N.am  1 <1>  -0.8490 
 21 C       -8.8240    -9.3670     0.0570 C.3   1 <1>   0.1160 
 22 C       -8.6810    -7.0670     0.7190 C.3   1 <1>   0.1160 
 23 H       -3.3370     0.0080     1.6990 H     1 <1>   0.1500 
 24 H       -2.2880    -2.3800    -1.6590 H     1 <1>   0.1500 
 25 H       -4.3480    -3.9500     1.7270 H     1 <1>   0.1500 
 26 H       -3.5000    -5.7880     1.1210 H     1 <1>   0.3700 
 27 H       -2.8030    -7.2240    -1.3540 H     1 <1>   0.0800 
 28 H       -4.6260    -8.7170    -1.1640 H     1 <1>   0.0800 
 29 H       -1.8870    -7.6060     1.1370 H     1 <1>   0.0800 
 30 H       -2.4210    -9.0270     0.2400 H     1 <1>   0.0800 
 31 H       -5.3500    -9.3550     0.9090 H     1 <1>   0.0800 
 32 H       -5.6570    -7.7020     1.4310 H     1 <1>   0.0800 
 33 H       -5.4570    -6.5390    -2.0500 H     1 <1>   0.0800 
 34 H       -6.0110    -6.1180    -0.4700 H     1 <1>   0.0800 
 35 H       -9.1780    -9.5910     1.0480 H     1 <1>   0.0800 
 36 H       -8.2680   -10.2170    -0.3010 H     1 <1>   0.0800 
 37 H       -9.6680    -9.2090    -0.5950 H     1 <1>   0.0800 
 38 H       -8.9540    -7.3350     1.7250 H     1 <1>   0.0800 
 39 H       -9.5740    -6.8230     0.1660 H     1 <1>   0.0800 
 40 H       -8.0520    -6.1940     0.7590 H     1 <1>   0.0800 
@<TRIPOS>BOND
  1   1   2  1   
  2   2   3  ar  
  3   2   4  ar  
  4   3   5  ar  
  5   3  23  1   
  6   4   6  ar  
  7   4  24  1   
  8   5   7  ar  
  9   6   7  ar  
 10   6   8  1   
 11   7  25  1   
 12   8   9  2   
 13   8  10  am  
 14  10  11  1   
 15  10  26  1   
 16  11  12  1   
 17  11  13  1   
 18  11  27  1   
 19  12  14  1   
 20  12  15  1   
 21  12  28  1   
 22  13  16  1   
 23  13  29  1   
 24  13  30  1   
 25  14  16  1   
 26  14  31  1   
 27  14  32  1   
 28  15  17  1   
 29  15  33  1   
 30  15  34  1   
 31  17  18  2   
 32  17  19  2   
 33  17  20  am  
 34  20  21  1   
 35  20  22  1   
 36  21  35  1   
 37  21  36  1   
 38  21  37  1   
 39  22  38  1   
 40  22  39  1   
 41  22  40  1   
@<TRIPOS>SUBSTRUCTURE
  1 ****  10 GROUP 4 **** **** 0

# MOE 2024.06 (io_trps.svl 2023.06)
