@<TRIPOS>MOLECULE
NONAME
56 60 1 0 0 
SMALL
USER_CHARGES


@<TRIPOS>ATOM
  1 N        0.3030     0.6940    -0.7660 N.ar  1 <1>  -0.6200 
  2 C       -0.7930     0.0510    -1.1110 C.ar  1 <1>   0.7710 
  3 C        0.1710     1.7440     0.0220 C.ar  1 <1>   0.4100 
  4 N       -2.0220     0.4090    -0.7000 N.ar  1 <1>  -0.1790 
  5 N       -0.6350    -1.0000    -1.9110 N.pl3 1 <1>  -0.9000 
  6 N        1.2990     2.4180     0.3640 N.pl3 1 <1>  -0.8380 
  7 C       -1.0910     2.1580     0.4930 C.ar  1 <1>  -0.1500 
  8 C       -2.2000     1.4730     0.1200 C.ar  1 <1>   0.2170 
  9 C        2.6410     1.7480     0.4510 C.3   1 <1>   0.2090 
 10 C        1.3880     3.9080     0.4840 C.3   1 <1>   0.2090 
 11 C       -3.6050     1.8300     0.5730 C.3   1 <1>  -0.0970 
 12 C        3.6100     2.3360    -0.5900 C.3   1 <1>   0.2090 
 13 C        2.3990     4.4960    -0.5290 C.3   1 <1>   0.2090 
 14 N        3.7570     3.8350    -0.4340 N.pl3 1 <1>  -0.8380 
 15 C        4.9380     4.4610    -0.2190 C.ar  1 <1>   0.4610 
 16 N        5.0400     5.7730    -0.4450 N.ar  1 <1>  -0.1790 
 17 C        6.1170     3.8100     0.2320 C.ar  1 <1>  -0.1500 
 18 C        6.1920     6.5200    -0.2860 C.ar  1 <1>   0.3610 
 19 C        7.2940     4.4720     0.4130 C.ar  1 <1>  -0.1430 
 20 C        7.3660     5.8740     0.1510 C.ar  1 <1>   0.0000 
 21 C        6.1930     7.8940    -0.5580 C.ar  1 <1>  -0.1500 
 22 C        8.5300     3.7230     0.9000 C.3   1 <1>  -0.0970 
 23 C        8.5300     6.6490     0.3020 C.ar  1 <1>  -0.1500 
 24 C        7.3490     8.6130    -0.3980 C.ar  1 <1>  -0.1430 
 25 C        8.5050     7.9920     0.0290 C.ar  1 <1>  -0.1430 
 26 C        7.5800    10.0880    -0.6280 C.3   1 <1>  -0.0170 
 27 C        9.6430     8.9790     0.1340 C.3   1 <1>  -0.0170 
 28 C        8.9410    10.3440     0.0370 C.3   1 <1>  -0.1600 
 29 H       -2.8010    -0.1550    -1.0220 H     1 <1>   0.4570 
 30 H       -1.3420    -1.6290    -2.2930 H     1 <1>   0.4000 
 31 H        0.3210    -1.2350    -2.1990 H     1 <1>   0.4000 
 32 H       -1.1450     3.0010     1.1550 H     1 <1>   0.1500 
 33 H        2.5510     0.6870     0.2940 H     1 <1>   0.0800 
 34 H        3.0480     1.8940     1.4360 H     1 <1>   0.0800 
 35 H        1.6960     4.1630     1.4840 H     1 <1>   0.0800 
 36 H        0.4270     4.3570     0.3070 H     1 <1>   0.0800 
 37 H       -4.0440     1.0130     1.1180 H     1 <1>   0.0800 
 38 H       -4.2270     2.0640    -0.2740 H     1 <1>   0.0800 
 39 H       -3.5850     2.6900     1.2200 H     1 <1>   0.0800 
 40 H        3.2140     2.1250    -1.5690 H     1 <1>   0.0800 
 41 H        4.5520     1.8270    -0.5250 H     1 <1>   0.0800 
 42 H        2.4670     5.5530    -0.3510 H     1 <1>   0.0800 
 43 H        2.0070     4.3520    -1.5230 H     1 <1>   0.0800 
 44 H        4.2250     6.2390    -0.8200 H     1 <1>   0.4570 
 45 H        6.0680     2.7630     0.4530 H     1 <1>   0.1500 
 46 H        5.3020     8.3930    -0.8920 H     1 <1>   0.1500 
 47 H        8.3180     2.6800     1.0570 H     1 <1>   0.0800 
 48 H        8.8720     4.1370     1.8320 H     1 <1>   0.0800 
 49 H        9.3200     3.7970     0.1740 H     1 <1>   0.0800 
 50 H        9.4490     6.1980     0.6330 H     1 <1>   0.1500 
 51 H        6.8070    10.6930    -0.1860 H     1 <1>   0.0800 
 52 H        7.6370    10.2850    -1.6850 H     1 <1>   0.0800 
 53 H       10.3160     8.8420    -0.6940 H     1 <1>   0.0800 
 54 H       10.1790     8.8750     1.0610 H     1 <1>   0.0800 
 55 H        8.7760    10.7190     1.0330 H     1 <1>   0.0800 
 56 H        9.5290    11.0590    -0.5110 H     1 <1>   0.0800 
@<TRIPOS>BOND
  1   1   2  ar  
  2   1   3  ar  
  3   2   4  ar  
  4   2   5  1   
  5   3   6  1   
  6   3   7  ar  
  7   4   8  ar  
  8   4  29  1   
  9   5  30  1   
 10   5  31  1   
 11   6   9  1   
 12   6  10  1   
 13   7   8  ar  
 14   7  32  1   
 15   8  11  1   
 16   9  12  1   
 17   9  33  1   
 18   9  34  1   
 19  10  13  1   
 20  10  35  1   
 21  10  36  1   
 22  11  37  1   
 23  11  38  1   
 24  11  39  1   
 25  12  14  1   
 26  12  40  1   
 27  12  41  1   
 28  13  14  1   
 29  13  42  1   
 30  13  43  1   
 31  14  15  1   
 32  15  16  ar  
 33  15  17  ar  
 34  16  18  ar  
 35  16  44  1   
 36  17  19  ar  
 37  17  45  1   
 38  18  20  ar  
 39  18  21  ar  
 40  19  20  ar  
 41  19  22  1   
 42  20  23  ar  
 43  21  24  ar  
 44  21  46  1   
 45  22  47  1   
 46  22  48  1   
 47  22  49  1   
 48  23  25  ar  
 49  23  50  1   
 50  24  25  ar  
 51  24  26  1   
 52  25  27  1   
 53  26  28  1   
 54  26  51  1   
 55  26  52  1   
 56  27  28  1   
 57  27  53  1   
 58  27  54  1   
 59  28  55  1   
 60  28  56  1   
@<TRIPOS>SUBSTRUCTURE
  1 ****  14 GROUP 4 **** **** 0

# MOE 2024.06 (io_trps.svl 2023.06)
