@<TRIPOS>MOLECULE
NONAME
57 60 1 0 0 
SMALL
USER_CHARGES


@<TRIPOS>ATOM
  1 O        0.4350    -0.2370     2.1900 O.3   1 <1>  -0.6800 
  2 C        1.0010    -0.1580     0.9250 C.3   1 <1>   0.2000 
  3 C        1.8720    -1.3880     0.7190 C.3   1 <1>  -0.0800 
  4 C        2.0210     0.9870     0.9370 C.3   1 <1>   0.3430 
  5 C        3.0730    -1.0570     1.6040 C.3   1 <1>   0.3430 
  6 C        2.2570    -1.5760    -0.7680 C.3   1 <1>  -0.0160 
  7 N        3.3140     0.4240     1.4820 N.4   1 <1>  -0.9590 
  8 C        3.4150    -2.5430    -0.9580 C.ar  1 <1>   0.1670 
  9 C        4.5290     0.7440     0.6710 C.3   1 <1>   0.4230 
 10 N        4.6420    -2.0330    -0.8880 N.ar  1 <1>  -0.6200 
 11 C        3.1360    -3.8810    -1.1950 C.ar  1 <1>  -0.1500 
 12 C        5.7920     0.2180     1.3660 C.3   1 <1>  -0.1600 
 13 C        4.6680     2.2560     0.4490 C.3   1 <1>  -0.1600 
 14 C        5.6220    -2.9080    -1.0870 C.ar  1 <1>   0.1600 
 15 C        4.1690    -4.7710    -1.3820 C.ar  1 <1>  -0.1500 
 16 C        7.0310     0.5330     0.5330 C.3   1 <1>   0.3430 
 17 C        5.9250     2.5730    -0.3590 C.3   1 <1>   0.3430 
 18 C        5.4450    -4.2590    -1.3280 C.ar  1 <1>  -0.1500 
 19 N        7.1280     2.0010     0.3130 N.4   1 <1>  -0.9590 
 20 C        8.3740     2.3520    -0.4340 C.3   1 <1>   0.4860 
 21 C        8.5290     3.8580    -0.4060 C.ar  1 <1>  -0.1430 
 22 C        8.9140     4.5020     0.7620 C.ar  1 <1>  -0.1500 
 23 C        8.2750     4.6070    -1.5470 C.ar  1 <1>  -0.1500 
 24 C        9.0250     5.8810     0.7920 C.ar  1 <1>  -0.1500 
 25 C        8.3880     5.9860    -1.5140 C.ar  1 <1>  -0.1500 
 26 C        8.7600     6.6230    -0.3440 C.ar  1 <1>  -0.1500 
 27 H       -0.3560    -0.8190     2.1970 H     1 <1>   0.4000 
 28 H        0.2190    -0.0260     0.1950 H     1 <1>   0.0800 
 29 H        1.3880    -2.2840     1.0670 H     1 <1>   0.0800 
 30 H        1.6580     1.8090     1.5320 H     1 <1>   0.0800 
 31 H        2.1660     1.3210    -0.0760 H     1 <1>   0.0800 
 32 H        3.9330    -1.6460     1.3380 H     1 <1>   0.0800 
 33 H        2.8100    -1.2850     2.6250 H     1 <1>   0.0800 
 34 H        2.5290    -0.6420    -1.2260 H     1 <1>   0.0800 
 35 H        1.4000    -1.9430    -1.3070 H     1 <1>   0.0800 
 36 H        3.4180     0.7850     2.4400 H     1 <1>   0.4500 
 37 H        4.4390     0.2640    -0.2920 H     1 <1>   0.0800 
 38 H        2.1210    -4.2350    -1.2380 H     1 <1>   0.1500 
 39 H        5.8990     0.6520     2.3450 H     1 <1>   0.0800 
 40 H        5.7520    -0.8490     1.4750 H     1 <1>   0.0800 
 41 H        3.8320     2.6370    -0.1080 H     1 <1>   0.0800 
 42 H        4.7120     2.7760     1.3890 H     1 <1>   0.0800 
 43 H        6.6320    -2.5390    -1.0610 H     1 <1>   0.1500 
 44 H        3.9890    -5.8170    -1.5690 H     1 <1>   0.1500 
 45 H        6.9660     0.0230    -0.4160 H     1 <1>   0.0800 
 46 H        7.9110     0.1780     1.0480 H     1 <1>   0.0800 
 47 H        6.0290     3.6450    -0.4500 H     1 <1>   0.0800 
 48 H        5.8340     2.1620    -1.3530 H     1 <1>   0.0800 
 49 H        6.2940    -4.9030    -1.4770 H     1 <1>   0.1500 
 50 H        7.2300     2.4790     1.2190 H     1 <1>   0.4500 
 51 H        9.2330     1.9000     0.0350 H     1 <1>   0.0800 
 52 H        8.3170     2.0040    -1.4530 H     1 <1>   0.0800 
 53 H        9.1400     3.9500     1.6590 H     1 <1>   0.1500 
 54 H        7.9920     4.1370    -2.4740 H     1 <1>   0.1500 
 55 H        9.3240     6.3830     1.6980 H     1 <1>   0.1500 
 56 H        8.1910     6.5690    -2.3990 H     1 <1>   0.1500 
 57 H        8.8480     7.6960    -0.3200 H     1 <1>   0.1500 
@<TRIPOS>BOND
  1   1   2  1   
  2   1  27  1   
  3   2   3  1   
  4   2   4  1   
  5   2  28  1   
  6   3   5  1   
  7   3   6  1   
  8   3  29  1   
  9   4   7  1   
 10   4  30  1   
 11   4  31  1   
 12   5   7  1   
 13   5  32  1   
 14   5  33  1   
 15   6   8  1   
 16   6  34  1   
 17   6  35  1   
 18   7   9  1   
 19   7  36  1   
 20   8  10  ar  
 21   8  11  ar  
 22   9  12  1   
 23   9  13  1   
 24   9  37  1   
 25  10  14  ar  
 26  11  15  ar  
 27  11  38  1   
 28  12  16  1   
 29  12  39  1   
 30  12  40  1   
 31  13  17  1   
 32  13  41  1   
 33  13  42  1   
 34  14  18  ar  
 35  14  43  1   
 36  15  18  ar  
 37  15  44  1   
 38  16  19  1   
 39  16  45  1   
 40  16  46  1   
 41  17  19  1   
 42  17  47  1   
 43  17  48  1   
 44  18  49  1   
 45  19  20  1   
 46  19  50  1   
 47  20  21  1   
 48  20  51  1   
 49  20  52  1   
 50  21  22  ar  
 51  21  23  ar  
 52  22  24  ar  
 53  22  53  1   
 54  23  25  ar  
 55  23  54  1   
 56  24  26  ar  
 57  24  55  1   
 58  25  26  ar  
 59  25  56  1   
 60  26  57  1   
@<TRIPOS>SUBSTRUCTURE
  1 ****   9 GROUP 4 **** **** 0

# MOE 2024.06 (io_trps.svl 2023.06)
