@<TRIPOS>MOLECULE
NONAME
52 54 1 0 0 
SMALL
USER_CHARGES


@<TRIPOS>ATOM
  1 S        0.8440     0.4640    -1.7550 S.o2  1 <1>   1.3330 
  2 O        1.0820    -0.9510    -1.9360 O.2   1 <1>  -0.6500 
  3 O        0.3400     1.2520    -2.8570 O.2   1 <1>  -0.6500 
  4 N       -0.2470     0.6480    -0.4650 N.am  1 <1>  -0.8490 
  5 C        2.3580     1.2060    -1.1430 C.3   1 <1>  -0.0550 
  6 C       -1.3020    -0.3690    -0.4870 C.3   1 <1>   0.1160 
  7 C       -0.8500     1.9850    -0.4020 C.3   1 <1>   0.1160 
  8 C        3.0530     0.4030    -0.0210 C.3   1 <1>  -0.0800 
  9 C        4.4130     0.9380     0.4020 C.3   1 <1>   0.2200 
 10 C        2.2880     0.3390     1.3080 C.3   1 <1>   0.1200 
 11 N        4.3800     2.4130     0.5270 N.am  1 <1>  -0.7300 
 12 C        4.5280     0.3350     1.7930 C.3   1 <1>   0.1200 
 13 O        3.2420     0.4230     2.3280 O.3   1 <1>  -0.5600 
 14 C        4.8080     3.3090    -0.3990 C.2   1 <1>   0.7150 
 15 O        5.2720     2.8830    -1.4380 O.2   1 <1>  -0.5700 
 16 C        4.6560     4.7170    -0.1260 C.2   1 <1>  -0.2370 
 17 N        4.8550     5.7280    -1.0490 N.pl3 1 <1>   0.0480 
 18 C        4.2890     5.3030     1.0540 C.2   1 <1>  -0.1500 
 19 C        4.6040     6.9370    -0.4390 C.ar  1 <1>  -0.1520 
 20 C        5.2530     5.5650    -2.4650 C.3   1 <1>   0.0160 
 21 C        4.2470     6.6930     0.8810 C.ar  1 <1>   0.0000 
 22 C        4.6540     8.2510    -0.9200 C.ar  1 <1>  -0.1500 
 23 C        3.9350     7.7580     1.7330 C.ar  1 <1>  -0.1500 
 24 C        4.3460     9.2940    -0.0770 C.ar  1 <1>  -0.1500 
 25 C        3.9820     9.0490     1.2620 C.ar  1 <1>   0.0820 
 26 O        3.6650    10.0390     2.1430 O.3   1 <1>  -0.3630 
 27 C        3.6930    11.3940     1.7550 C.3   1 <1>   0.0400 
 28 H        3.0450     1.2860    -1.9640 H     1 <1>   0.0800 
 29 H        2.1490     2.2010    -0.8060 H     1 <1>   0.0800 
 30 H       -1.9690    -0.2340     0.3470 H     1 <1>   0.0800 
 31 H       -0.8690    -1.3530    -0.4140 H     1 <1>   0.0800 
 32 H       -1.8640    -0.3060    -1.4050 H     1 <1>   0.0800 
 33 H       -1.4630     2.0720     0.4790 H     1 <1>   0.0800 
 34 H       -1.4610     2.1650    -1.2720 H     1 <1>   0.0800 
 35 H       -0.0840     2.7390    -0.3580 H     1 <1>   0.0800 
 36 H        3.1900    -0.6080    -0.3640 H     1 <1>   0.0800 
 37 H        5.2110     0.6260    -0.2520 H     1 <1>   0.0800 
 38 H        1.7420    -0.5840     1.4110 H     1 <1>   0.0800 
 39 H        1.6170     1.1720     1.4250 H     1 <1>   0.0800 
 40 H        3.9410     2.7570     1.3810 H     1 <1>   0.3700 
 41 H        5.2230     0.8610     2.4240 H     1 <1>   0.0800 
 42 H        4.7930    -0.7070     1.7400 H     1 <1>   0.0800 
 43 H        4.0610     4.8260     1.9900 H     1 <1>   0.1500 
 44 H        4.5530     4.9150    -2.9580 H     1 <1>   0.0800 
 45 H        6.2340     5.1290    -2.5070 H     1 <1>   0.0800 
 46 H        5.2640     6.5140    -2.9640 H     1 <1>   0.0800 
 47 H        4.9320     8.4450    -1.9390 H     1 <1>   0.1500 
 48 H        3.6610     7.5610     2.7520 H     1 <1>   0.1500 
 49 H        4.3870    10.2960    -0.4560 H     1 <1>   0.1500 
 50 H        3.4130    11.9900     2.6050 H     1 <1>   0.0800 
 51 H        2.9870    11.5430     0.9570 H     1 <1>   0.0800 
 52 H        4.6900    11.6480     1.4440 H     1 <1>   0.0800 
@<TRIPOS>BOND
  1   1   2  2   
  2   1   3  2   
  3   1   4  am  
  4   1   5  1   
  5   4   6  1   
  6   4   7  1   
  7   5   8  1   
  8   5  28  1   
  9   5  29  1   
 10   6  30  1   
 11   6  31  1   
 12   6  32  1   
 13   7  33  1   
 14   7  34  1   
 15   7  35  1   
 16   8   9  1   
 17   8  10  1   
 18   8  36  1   
 19   9  11  1   
 20   9  12  1   
 21   9  37  1   
 22  10  13  1   
 23  10  38  1   
 24  10  39  1   
 25  11  14  am  
 26  11  40  1   
 27  12  13  1   
 28  12  41  1   
 29  12  42  1   
 30  14  15  2   
 31  14  16  1   
 32  16  17  1   
 33  16  18  2   
 34  17  19  1   
 35  17  20  1   
 36  18  21  1   
 37  18  43  1   
 38  19  21  ar  
 39  19  22  ar  
 40  20  44  1   
 41  20  45  1   
 42  20  46  1   
 43  21  23  ar  
 44  22  24  ar  
 45  22  47  1   
 46  23  25  ar  
 47  23  48  1   
 48  24  25  ar  
 49  24  49  1   
 50  25  26  1   
 51  26  27  1   
 52  27  50  1   
 53  27  51  1   
 54  27  52  1   
@<TRIPOS>SUBSTRUCTURE
  1 ****  16 GROUP 4 **** **** 0

# MOE 2024.06 (io_trps.svl 2023.06)
