@<TRIPOS>MOLECULE
NONAME
43 45 1 0 0 
SMALL
USER_CHARGES


@<TRIPOS>ATOM
  1 O       -2.3200     0.5340     2.2370 O.2   1 <1>  -0.5700 
  2 C       -2.6250     0.9040     1.1140 C.2   1 <1>   0.5440 
  3 N       -3.4930     0.0870     0.4110 N.am  1 <1>  -0.6600 
  4 C       -2.0790     2.1700     0.6050 C.ar  1 <1>   0.3960 
  5 C       -4.0830     0.3540    -0.9270 C.3   1 <1>   0.1400 
  6 C       -3.9510    -1.2320     0.9190 C.3   1 <1>   0.1400 
  7 N       -1.9810     2.4230    -0.7030 N.ar  1 <1>  -0.6200 
  8 C       -1.6430     3.1310     1.5020 C.ar  1 <1>  -0.1500 
  9 C       -5.1540    -0.7240    -1.1040 C.3   1 <1>   0.2000 
 10 C       -4.6520    -1.9040    -0.2690 C.3   1 <1>  -0.0800 
 11 C       -1.4730     3.5870    -1.0510 C.ar  1 <1>   0.4760 
 12 C       -1.1310     4.3100     1.0260 C.ar  1 <1>   0.1660 
 13 O       -6.3340    -0.2690    -0.5390 O.3   1 <1>  -0.6800 
 14 C       -3.6800    -2.7800    -1.0830 C.3   1 <1>  -0.0160 
 15 N       -1.0440     4.5500    -0.2590 N.ar  1 <1>  -0.6200 
 16 C       -1.3660     3.8640    -2.5310 C.3   1 <1>  -0.0970 
 17 C       -0.6410     5.3950     1.9610 C.3   1 <1>  -0.0970 
 18 C       -3.2190    -3.9930    -0.2890 C.ar  1 <1>  -0.1430 
 19 C       -1.9700    -4.0540     0.2970 C.ar  1 <1>  -0.1500 
 20 C       -4.0280    -5.0980    -0.1150 C.ar  1 <1>  -0.1500 
 21 C       -1.6030    -5.1830     1.0110 C.ar  1 <1>   0.1600 
 22 C       -3.5640    -6.1780     0.6180 C.ar  1 <1>   0.1600 
 23 N       -2.3710    -6.2470     1.1860 N.ar  1 <1>  -0.6200 
 24 H       -4.4990     1.3450    -0.9900 H     1 <1>   0.0800 
 25 H       -3.3170     0.2370    -1.6740 H     1 <1>   0.0800 
 26 H       -3.1220    -1.8060     1.2950 H     1 <1>   0.0800 
 27 H       -4.6490    -1.0710     1.7230 H     1 <1>   0.0800 
 28 H       -1.7080     2.9460     2.5580 H     1 <1>   0.1500 
 29 H       -5.3450    -0.9660    -2.1360 H     1 <1>   0.0800 
 30 H       -5.4720    -2.5170     0.0640 H     1 <1>   0.0800 
 31 H       -6.1420     0.0830     0.3530 H     1 <1>   0.4000 
 32 H       -2.8240    -2.2030    -1.3870 H     1 <1>   0.0800 
 33 H       -4.1720    -3.1240    -1.9770 H     1 <1>   0.0800 
 34 H       -1.9390     4.7390    -2.7730 H     1 <1>   0.0800 
 35 H       -1.7340     3.0330    -3.1030 H     1 <1>   0.0800 
 36 H       -0.3370     4.0370    -2.7870 H     1 <1>   0.0800 
 37 H       -0.7530     5.1000     2.9890 H     1 <1>   0.0800 
 38 H       -1.2030     6.2950     1.7940 H     1 <1>   0.0800 
 39 H        0.3970     5.5940     1.7670 H     1 <1>   0.0800 
 40 H       -1.2800    -3.2350     0.2090 H     1 <1>   0.1500 
 41 H       -5.0130    -5.1290    -0.5410 H     1 <1>   0.1500 
 42 H       -0.6270    -5.2100     1.4630 H     1 <1>   0.1500 
 43 H       -4.2090    -7.0300     0.7430 H     1 <1>   0.1500 
@<TRIPOS>BOND
  1   1   2  2   
  2   2   3  am  
  3   2   4  1   
  4   3   5  1   
  5   3   6  1   
  6   4   7  ar  
  7   4   8  ar  
  8   5   9  1   
  9   5  24  1   
 10   5  25  1   
 11   6  10  1   
 12   6  26  1   
 13   6  27  1   
 14   7  11  ar  
 15   8  12  ar  
 16   8  28  1   
 17   9  10  1   
 18   9  13  1   
 19   9  29  1   
 20  10  14  1   
 21  10  30  1   
 22  11  15  ar  
 23  11  16  1   
 24  12  15  ar  
 25  12  17  1   
 26  13  31  1   
 27  14  18  1   
 28  14  32  1   
 29  14  33  1   
 30  16  34  1   
 31  16  35  1   
 32  16  36  1   
 33  17  37  1   
 34  17  38  1   
 35  17  39  1   
 36  18  19  ar  
 37  18  20  ar  
 38  19  21  ar  
 39  19  40  1   
 40  20  22  ar  
 41  20  41  1   
 42  21  23  ar  
 43  21  42  1   
 44  22  23  ar  
 45  22  43  1   
@<TRIPOS>SUBSTRUCTURE
  1 ****   3 GROUP 4 **** **** 0

# MOE 2024.06 (io_trps.svl 2023.06)
