@<TRIPOS>MOLECULE
NONAME
52 55 1 0 0 
SMALL
USER_CHARGES


@<TRIPOS>ATOM
  1 O        0.7100    -0.7360    -1.5580 O.2   1 <1>  -0.5700 
  2 C        1.3010    -1.6940    -1.1360 C.2   1 <1>   0.5690 
  3 N        0.6690    -2.6650    -0.4470 N.am  1 <1>  -0.7300 
  4 C        2.7900    -1.8350    -1.3470 C.3   1 <1>  -0.0990 
  5 C        1.3540    -3.7960     0.2090 C.3   1 <1>   0.1400 
  6 C        3.1590    -3.3000    -1.6440 C.3   1 <1>  -0.0800 
  7 C        2.5360    -4.3080    -0.6480 C.3   1 <1>  -0.0800 
  8 C        4.6790    -3.5300    -1.6260 C.3   1 <1>  -0.1600 
  9 C        3.7030    -4.8180     0.2040 C.3   1 <1>  -0.1600 
 10 C        4.9150    -4.7370    -0.7210 C.3   1 <1>   0.4230 
 11 N        6.2510    -4.7320    -0.0420 N.4   1 <1>  -0.9590 
 12 C        6.4210    -3.8850     1.1900 C.3   1 <1>   0.4860 
 13 C        6.6730    -6.1340     0.2490 C.3   1 <1>   0.2630 
 14 C        6.5800    -2.4250     0.8190 C.ar  1 <1>  -0.1440 
 15 C        5.6130    -1.5310     1.2150 C.ar  1 <1>   0.0820 
 16 C        7.7000    -2.0050     0.0570 C.ar  1 <1>   0.0000 
 17 O        4.5920    -1.9850     1.9850 O.3   1 <1>  -0.3630 
 18 C        5.6910    -0.1880     0.8050 C.ar  1 <1>  -0.1500 
 19 C        7.7430    -0.6620    -0.3840 C.ar  1 <1>   0.0000 
 20 C        8.7880    -2.8430    -0.2940 C.ar  1 <1>  -0.1500 
 21 C        3.6630    -1.1070     2.5910 C.3   1 <1>   0.0400 
 22 C        6.7260     0.2240     0.0170 C.ar  1 <1>  -0.1500 
 23 C        8.8040    -0.2380    -1.2060 C.ar  1 <1>  -0.1500 
 24 C        9.8110    -2.4010    -1.0860 C.ar  1 <1>  -0.1500 
 25 C        9.8150    -1.0860    -1.5570 C.ar  1 <1>  -0.1500 
 26 H       -0.3350    -2.5420    -0.2890 H     1 <1>   0.3700 
 27 H        3.0930    -1.2030    -2.1620 H     1 <1>   0.0800 
 28 H        3.2790    -1.4930    -0.4560 H     1 <1>   0.0800 
 29 H        1.7040    -3.4540     1.1690 H     1 <1>   0.0800 
 30 H        0.6510    -4.5950     0.3760 H     1 <1>   0.0800 
 31 H        2.7770    -3.5300    -2.6260 H     1 <1>   0.0800 
 32 H        2.1700    -5.1390    -1.2300 H     1 <1>   0.0800 
 33 H        5.1770    -2.6500    -1.2740 H     1 <1>   0.0800 
 34 H        5.0330    -3.7390    -2.6200 H     1 <1>   0.0800 
 35 H        3.5260    -5.8230     0.5410 H     1 <1>   0.0800 
 36 H        3.8100    -4.1700     1.0490 H     1 <1>   0.0800 
 37 H        4.8670    -5.5990    -1.3670 H     1 <1>   0.0800 
 38 H        6.9010    -4.3220    -0.7290 H     1 <1>   0.4500 
 39 H        5.5920    -4.0180     1.8630 H     1 <1>   0.0800 
 40 H        7.3100    -4.1870     1.7170 H     1 <1>   0.0800 
 41 H        6.0070    -6.5830     0.9680 H     1 <1>   0.0800 
 42 H        7.6750    -6.1510     0.6480 H     1 <1>   0.0800 
 43 H        6.6560    -6.7250    -0.6530 H     1 <1>   0.0800 
 44 H        4.9410     0.5240     1.0950 H     1 <1>   0.1500 
 45 H        8.8380    -3.8480     0.0760 H     1 <1>   0.1500 
 46 H        3.0110    -1.6860     3.2200 H     1 <1>   0.0800 
 47 H        3.0860    -0.6170     1.8260 H     1 <1>   0.0800 
 48 H        4.1970    -0.3870     3.1870 H     1 <1>   0.0800 
 49 H        6.7830     1.2480    -0.3090 H     1 <1>   0.1500 
 50 H        8.8090     0.7800    -1.5550 H     1 <1>   0.1500 
 51 H       10.6320    -3.0460    -1.3520 H     1 <1>   0.1500 
 52 H       10.6250    -0.7540    -2.1850 H     1 <1>   0.1500 
@<TRIPOS>BOND
  1   1   2  2   
  2   2   3  am  
  3   2   4  1   
  4   3   5  1   
  5   3  26  1   
  6   4   6  1   
  7   4  27  1   
  8   4  28  1   
  9   5   7  1   
 10   5  29  1   
 11   5  30  1   
 12   6   7  1   
 13   6   8  1   
 14   6  31  1   
 15   7   9  1   
 16   7  32  1   
 17   8  10  1   
 18   8  33  1   
 19   8  34  1   
 20   9  10  1   
 21   9  35  1   
 22   9  36  1   
 23  10  11  1   
 24  10  37  1   
 25  11  12  1   
 26  11  13  1   
 27  11  38  1   
 28  12  14  1   
 29  12  39  1   
 30  12  40  1   
 31  13  41  1   
 32  13  42  1   
 33  13  43  1   
 34  14  15  ar  
 35  14  16  ar  
 36  15  17  1   
 37  15  18  ar  
 38  16  19  ar  
 39  16  20  ar  
 40  17  21  1   
 41  18  22  ar  
 42  18  44  1   
 43  19  22  ar  
 44  19  23  ar  
 45  20  24  ar  
 46  20  45  1   
 47  21  46  1   
 48  21  47  1   
 49  21  48  1   
 50  22  49  1   
 51  23  25  ar  
 52  23  50  1   
 53  24  25  ar  
 54  24  51  1   
 55  25  52  1   
@<TRIPOS>SUBSTRUCTURE
  1 ****  14 GROUP 4 **** **** 0

# MOE 2024.06 (io_trps.svl 2023.06)
