@<TRIPOS>MOLECULE
NONAME
53 56 1 0 0 
SMALL
USER_CHARGES


@<TRIPOS>ATOM
  1 O       -0.2480     0.0890     1.1020 O.3   1 <1>  -0.2800 
  2 C        0.8210    -0.5410     0.6460 C.2   1 <1>   0.4250 
  3 C       -1.0580    -0.8180     1.5600 C.2   1 <1>  -0.0400 
  4 N        0.7300    -1.8320     0.7850 N.2   1 <1>  -0.5650 
  5 C        1.9160     0.2090     0.0660 C.ar  1 <1>   0.0530 
  6 C       -0.4690    -2.0080     1.3760 C.2   1 <1>   0.0460 
  7 C       -2.3840    -0.3800     2.1520 C.3   1 <1>  -0.0600 
  8 C        3.0940    -0.4250    -0.3350 C.ar  1 <1>  -0.1500 
  9 C        1.8430     1.5920    -0.1180 C.ar  1 <1>  -0.1500 
 10 C       -0.9660    -3.4050     1.7070 C.3   1 <1>   0.5240 
 11 C        4.1410     0.2830    -0.8930 C.ar  1 <1>  -0.1500 
 12 C        2.8860     2.3080    -0.6760 C.ar  1 <1>  -0.1500 
 13 N       -0.7230    -4.2710     0.5200 N.4   1 <1>  -0.9590 
 14 C        4.0490     1.6530    -1.0700 C.ar  1 <1>   0.0820 
 15 C       -1.6590    -3.9170    -0.5870 C.3   1 <1>   0.3430 
 16 C       -0.9250    -5.7170     0.8350 C.3   1 <1>   0.3430 
 17 O        5.1160     2.2740    -1.6250 O.3   1 <1>  -0.3620 
 18 C       -2.7630    -4.9760    -0.5310 C.3   1 <1>   0.2000 
 19 C       -2.0070    -6.2410    -0.1260 C.3   1 <1>  -0.0800 
 20 C        5.1260     3.6660    -1.8490 C.3   1 <1>   0.0400 
 21 O       -3.6380    -4.6450     0.5000 O.3   1 <1>  -0.6800 
 22 C       -1.4060    -6.9560    -1.3570 C.3   1 <1>  -0.0170 
 23 C       -0.7140    -8.2590    -0.9850 C.ar  1 <1>   0.1670 
 24 N        0.4700    -8.1480    -0.4050 N.ar  1 <1>  -0.6200 
 25 C       -1.3240    -9.4830    -1.2620 C.ar  1 <1>   0.1600 
 26 C        1.0040    -9.3300    -0.1330 C.ar  1 <1>   0.1600 
 27 N       -0.7970   -10.6610    -0.9790 N.ar  1 <1>  -0.6200 
 28 C        0.3900   -10.5460    -0.4100 C.ar  1 <1>   0.1600 
 29 H       -2.9580    -1.2260     2.4830 H     1 <1>   0.0800 
 30 H       -2.9510     0.1580     1.4150 H     1 <1>   0.0800 
 31 H       -2.2080     0.2700     2.9910 H     1 <1>   0.0800 
 32 H        3.1910    -1.4880    -0.2060 H     1 <1>   0.1500 
 33 H        0.9530     2.1190     0.1800 H     1 <1>   0.1500 
 34 H       -2.0140    -3.3870     1.9570 H     1 <1>   0.0800 
 35 H       -0.4090    -3.7780     2.5500 H     1 <1>   0.0800 
 36 H        5.0410    -0.2200    -1.1970 H     1 <1>   0.1500 
 37 H        2.7790     3.3690    -0.7960 H     1 <1>   0.1500 
 38 H        0.2470    -4.0570     0.2340 H     1 <1>   0.4500 
 39 H       -2.0610    -2.9220    -0.4860 H     1 <1>   0.0800 
 40 H       -1.1420    -3.9930    -1.5290 H     1 <1>   0.0800 
 41 H       -0.0010    -6.2590     0.7380 H     1 <1>   0.0800 
 42 H       -1.2780    -5.8240     1.8480 H     1 <1>   0.0800 
 43 H       -3.3180    -5.0550    -1.4510 H     1 <1>   0.0800 
 44 H       -2.6540    -6.9340     0.3820 H     1 <1>   0.0800 
 45 H        6.0690     3.9260    -2.2930 H     1 <1>   0.0800 
 46 H        5.0140     4.1720    -0.9060 H     1 <1>   0.0800 
 47 H        4.3230     3.9170    -2.5200 H     1 <1>   0.0800 
 48 H       -4.4520    -5.1920     0.4640 H     1 <1>   0.4000 
 49 H       -0.6910    -6.3240    -1.8550 H     1 <1>   0.0800 
 50 H       -2.1900    -7.1690    -2.0630 H     1 <1>   0.0800 
 51 H       -2.2880    -9.4940    -1.7390 H     1 <1>   0.1500 
 52 H        1.9750    -9.3420     0.3310 H     1 <1>   0.1500 
 53 H        0.9010   -11.4570    -0.1510 H     1 <1>   0.1500 
@<TRIPOS>BOND
  1   1   2  1   
  2   1   3  1   
  3   2   4  2   
  4   2   5  1   
  5   3   6  2   
  6   3   7  1   
  7   4   6  1   
  8   5   8  ar  
  9   5   9  ar  
 10   6  10  1   
 11   7  29  1   
 12   7  30  1   
 13   7  31  1   
 14   8  11  ar  
 15   8  32  1   
 16   9  12  ar  
 17   9  33  1   
 18  10  13  1   
 19  10  34  1   
 20  10  35  1   
 21  11  14  ar  
 22  11  36  1   
 23  12  14  ar  
 24  12  37  1   
 25  13  15  1   
 26  13  16  1   
 27  13  38  1   
 28  14  17  1   
 29  15  18  1   
 30  15  39  1   
 31  15  40  1   
 32  16  19  1   
 33  16  41  1   
 34  16  42  1   
 35  17  20  1   
 36  18  19  1   
 37  18  21  1   
 38  18  43  1   
 39  19  22  1   
 40  19  44  1   
 41  20  45  1   
 42  20  46  1   
 43  20  47  1   
 44  21  48  1   
 45  22  23  1   
 46  22  49  1   
 47  22  50  1   
 48  23  24  ar  
 49  23  25  ar  
 50  24  26  ar  
 51  25  27  ar  
 52  25  51  1   
 53  26  28  ar  
 54  26  52  1   
 55  27  28  ar  
 56  28  53  1   
@<TRIPOS>SUBSTRUCTURE
  1 ****  13 GROUP 4 **** **** 0

# MOE 2024.06 (io_trps.svl 2023.06)
