@<TRIPOS>MOLECULE
NONAME
50 52 1 0 0 
SMALL
USER_CHARGES


@<TRIPOS>ATOM
  1 O       -0.9280    -0.8330     1.5290 O.co2 1 <1>  -0.9000 
  2 C       -1.7100    -1.7860     1.4740 C.2   1 <1>   0.9060 
  3 O       -2.0110    -2.4870     2.4440 O.co2 1 <1>  -0.9000 
  4 C       -2.4610    -2.0200     0.1600 C.3   1 <1>   0.2370 
  5 N       -3.7340    -1.2050     0.0090 N.4   1 <1>  -0.9590 
  6 C       -4.6970    -1.5740     1.0920 C.3   1 <1>   0.3430 
  7 C       -3.4200     0.2510     0.0610 C.3   1 <1>   0.3430 
  8 C       -6.1290    -1.1240     0.7140 C.3   1 <1>   0.1900 
  9 C       -4.6300     1.1540    -0.2620 C.3   1 <1>  -0.0800 
 10 N       -6.2270    -0.7920    -0.7550 N.3   1 <1>  -0.8100 
 11 C       -6.6140     0.0040     1.6440 C.3   1 <1>   0.1200 
 12 C       -5.2210     1.8130     0.9960 C.3   1 <1>   0.1200 
 13 C       -5.7360     0.5470    -1.1550 C.3   1 <1>   0.1100 
 14 C       -7.5790    -1.0560    -1.3110 C.3   1 <1>   0.2530 
 15 O       -5.5750     0.8820     1.9620 O.3   1 <1>  -0.5600 
 16 C       -7.9500    -2.5350    -1.2430 C.ar  1 <1>   0.1670 
 17 N       -8.7980    -2.9210    -0.3110 N.ar  1 <1>  -0.6200 
 18 C       -7.3980    -3.4320    -2.1260 C.ar  1 <1>  -0.1500 
 19 C       -9.0770    -4.2170    -0.2740 C.ar  1 <1>   0.4770 
 20 C       -7.7570    -4.7510    -2.0000 C.ar  1 <1>   0.1600 
 21 N       -8.5920    -5.1580    -1.0740 N.ar  1 <1>  -0.6200 
 22 C      -10.0540    -4.6650     0.8220 C.3   1 <1>   0.0630 
 23 C       -9.3520    -5.5330     1.8790 C.3   1 <1>  -0.2400 
 24 C      -11.2740    -5.4070     0.2490 C.3   1 <1>  -0.2400 
 25 H       -2.6920    -3.0680     0.1110 H     1 <1>   0.0800 
 26 H       -1.7810    -1.7840    -0.6380 H     1 <1>   0.0800 
 27 H       -4.2540    -1.3920    -0.8600 H     1 <1>   0.4500 
 28 H       -4.6970    -2.6430     1.2200 H     1 <1>   0.0800 
 29 H       -4.3920    -1.1410     2.0320 H     1 <1>   0.0800 
 30 H       -3.0290     0.5020     1.0360 H     1 <1>   0.0800 
 31 H       -2.6400     0.4540    -0.6540 H     1 <1>   0.0800 
 32 H       -6.7590    -1.9680     0.9230 H     1 <1>   0.0800 
 33 H       -4.2290     1.9790    -0.8230 H     1 <1>   0.0800 
 34 H       -6.9340    -0.4310     2.5750 H     1 <1>   0.0800 
 35 H       -7.4420     0.5480     1.2250 H     1 <1>   0.0800 
 36 H       -6.0850     2.4110     0.7620 H     1 <1>   0.0800 
 37 H       -4.4830     2.4560     1.4470 H     1 <1>   0.0800 
 38 H       -5.3620     0.4720    -2.1620 H     1 <1>   0.0800 
 39 H       -6.5630     1.2370    -1.1780 H     1 <1>   0.0800 
 40 H       -8.3160    -0.4790    -0.7790 H     1 <1>   0.0800 
 41 H       -7.6070    -0.7540    -2.3430 H     1 <1>   0.0800 
 42 H       -6.7080    -3.1170    -2.8850 H     1 <1>   0.1500 
 43 H       -7.3500    -5.4900    -2.6700 H     1 <1>   0.1500 
 44 H      -10.4190    -3.7810     1.3170 H     1 <1>   0.0800 
 45 H       -8.9930    -6.4440     1.4340 H     1 <1>   0.0800 
 46 H      -10.0310    -5.7800     2.6750 H     1 <1>   0.0800 
 47 H       -8.5150    -5.0010     2.2930 H     1 <1>   0.0800 
 48 H      -10.9670    -6.3210    -0.2290 H     1 <1>   0.0800 
 49 H      -11.7660    -4.7900    -0.4810 H     1 <1>   0.0800 
 50 H      -11.9730    -5.6420     1.0310 H     1 <1>   0.0800 
@<TRIPOS>BOND
  1   1   2  ar  
  2   2   3  ar  
  3   2   4  1   
  4   4   5  1   
  5   4  25  1   
  6   4  26  1   
  7   5   6  1   
  8   5   7  1   
  9   5  27  1   
 10   6   8  1   
 11   6  28  1   
 12   6  29  1   
 13   7   9  1   
 14   7  30  1   
 15   7  31  1   
 16   8  10  1   
 17   8  11  1   
 18   8  32  1   
 19   9  12  1   
 20   9  13  1   
 21   9  33  1   
 22  10  13  1   
 23  10  14  1   
 24  11  15  1   
 25  11  34  1   
 26  11  35  1   
 27  12  15  1   
 28  12  36  1   
 29  12  37  1   
 30  13  38  1   
 31  13  39  1   
 32  14  16  1   
 33  14  40  1   
 34  14  41  1   
 35  16  17  ar  
 36  16  18  ar  
 37  17  19  ar  
 38  18  20  ar  
 39  18  42  1   
 40  19  21  ar  
 41  19  22  1   
 42  20  21  ar  
 43  20  43  1   
 44  22  23  1   
 45  22  24  1   
 46  22  44  1   
 47  23  45  1   
 48  23  46  1   
 49  23  47  1   
 50  24  48  1   
 51  24  49  1   
 52  24  50  1   
@<TRIPOS>SUBSTRUCTURE
  1 ****   8 GROUP 4 **** **** 0

# MOE 2024.06 (io_trps.svl 2023.06)
