@<TRIPOS>MOLECULE
NONAME
50 53 1 0 0 
SMALL
USER_CHARGES


@<TRIPOS>ATOM
  1 S        0.3220     1.4620    -2.4080 S.3   1 <1>  -0.0800 
  2 C       -0.8510     1.5620    -1.1020 C.2   1 <1>  -0.1400 
  3 C       -0.6110     0.1930    -3.1910 C.2   1 <1>  -0.1100 
  4 C       -1.8550     0.6980    -1.3020 C.2   1 <1>  -0.1810 
  5 C       -0.7080     2.5310     0.0690 C.3   1 <1>   0.4600 
  6 C       -1.7220    -0.0940    -2.4860 C.2   1 <1>  -0.1500 
  7 C       -2.9950     0.6400    -0.3100 C.3   1 <1>   0.0210 
  8 O       -1.7270     2.2510     1.0060 O.3   1 <1>  -0.5600 
  9 C       -0.8810     3.9930    -0.3840 C.3   1 <1>  -0.1600 
 10 C        0.6120     2.2940     0.8140 C.3   1 <1>  -0.1600 
 11 C       -3.0090     1.9450     0.5110 C.3   1 <1>   0.1200 
 12 C        0.4560     4.7260    -0.5090 C.3   1 <1>   0.1400 
 13 C        0.9810     3.5050     1.6660 C.3   1 <1>   0.1400 
 14 N        1.1880     4.7070     0.7970 N.am  1 <1>  -0.6600 
 15 C        2.0180     5.7110     1.2240 C.2   1 <1>   0.5690 
 16 O        2.5450     5.6820     2.3120 O.2   1 <1>  -0.5700 
 17 C        2.3030     6.9010     0.3250 C.3   1 <1>  -0.0990 
 18 C        3.4340     7.7860     0.8660 C.3   1 <1>   0.0960 
 19 N        3.7480     8.8580    -0.1000 N.pl3 1 <1>   0.0480 
 20 C        4.8330     9.0120    -0.9040 C.2   1 <1>   0.0070 
 21 C        2.9620     9.9130    -0.3820 C.2   1 <1>  -0.3020 
 22 N        4.7730    10.0650    -1.6540 N.2   1 <1>  -0.5650 
 23 C        6.0210     8.0630    -0.9340 C.3   1 <1>   0.0200 
 24 C        3.6000    10.6330    -1.3280 C.2   1 <1>   0.0770 
 25 C        5.7000     6.7680    -1.6880 C.3   1 <1>  -0.2400 
 26 H       -0.2220    -0.2110    -4.1090 H     1 <1>   0.1500 
 27 H       -2.4590    -0.8320    -2.7490 H     1 <1>   0.1500 
 28 H       -2.8670    -0.2030     0.3440 H     1 <1>   0.0800 
 29 H       -3.9310     0.5340    -0.8270 H     1 <1>   0.0800 
 30 H       -1.4830     4.5280     0.3280 H     1 <1>   0.0800 
 31 H       -1.3870     4.0210    -1.3320 H     1 <1>   0.0800 
 32 H        1.4140     2.1190     0.1200 H     1 <1>   0.0800 
 33 H        0.5240     1.4160     1.4280 H     1 <1>   0.0800 
 34 H       -3.6710     1.8470     1.3540 H     1 <1>   0.0800 
 35 H       -3.3440     2.7670    -0.0970 H     1 <1>   0.0800 
 36 H        0.2660     5.7380    -0.8200 H     1 <1>   0.0800 
 37 H        1.0630     4.2490    -1.2600 H     1 <1>   0.0800 
 38 H        1.8810     3.2950     2.2180 H     1 <1>   0.0800 
 39 H        0.1940     3.7110     2.3720 H     1 <1>   0.0800 
 40 H        1.4060     7.4860     0.2430 H     1 <1>   0.0800 
 41 H        2.5790     6.5380    -0.6480 H     1 <1>   0.0800 
 42 H        4.3130     7.1930     1.0420 H     1 <1>   0.0800 
 43 H        3.1400     8.2340     1.7990 H     1 <1>   0.0800 
 44 H        2.0150    10.0940     0.0920 H     1 <1>   0.1500 
 45 H        6.3400     7.8440     0.0690 H     1 <1>   0.0800 
 46 H        6.8370     8.5590    -1.4300 H     1 <1>   0.0800 
 47 H        3.2730    11.5460    -1.7980 H     1 <1>   0.1500 
 48 H        4.9370     6.2080    -1.1810 H     1 <1>   0.0800 
 49 H        6.5830     6.1580    -1.7620 H     1 <1>   0.0800 
 50 H        5.3590     7.0020    -2.6810 H     1 <1>   0.0800 
@<TRIPOS>BOND
  1   1   2  1   
  2   1   3  1   
  3   2   4  2   
  4   2   5  1   
  5   3   6  2   
  6   3  26  1   
  7   4   6  1   
  8   4   7  1   
  9   5   8  1   
 10   5   9  1   
 11   5  10  1   
 12   6  27  1   
 13   7  11  1   
 14   7  28  1   
 15   7  29  1   
 16   8  11  1   
 17   9  12  1   
 18   9  30  1   
 19   9  31  1   
 20  10  13  1   
 21  10  32  1   
 22  10  33  1   
 23  11  34  1   
 24  11  35  1   
 25  12  14  1   
 26  12  36  1   
 27  12  37  1   
 28  13  14  1   
 29  13  38  1   
 30  13  39  1   
 31  14  15  am  
 32  15  16  2   
 33  15  17  1   
 34  17  18  1   
 35  17  40  1   
 36  17  41  1   
 37  18  19  1   
 38  18  42  1   
 39  18  43  1   
 40  19  20  1   
 41  19  21  1   
 42  20  22  2   
 43  20  23  1   
 44  21  24  2   
 45  21  44  1   
 46  22  24  1   
 47  23  25  1   
 48  23  45  1   
 49  23  46  1   
 50  24  47  1   
 51  25  48  1   
 52  25  49  1   
 53  25  50  1   
@<TRIPOS>SUBSTRUCTURE
  1 ****  12 GROUP 4 **** **** 0

# MOE 2024.06 (io_trps.svl 2023.06)
