@<TRIPOS>MOLECULE
Untitled Document
58 61 1 0 0 
SMALL
USER_CHARGES


@<TRIPOS>ATOM
  1 O        2.7810    -1.6930     0.3590 O.3   1 <1>  -0.5600 
  2 C        3.8760    -1.6280    -0.5140 C.3   1 <1>   0.1200 
  3 C        1.7860    -0.7380     0.1030 C.3   1 <1>   0.1200 
  4 C        4.5990    -0.2680    -0.3910 C.3   1 <1>   0.3430 
  5 C        2.3690     0.6950     0.0490 C.3   1 <1>   0.3430 
  6 N        3.8180     0.7130     0.4430 N.4   1 <1>  -0.9590 
  7 C        4.3900     2.0860     0.4540 C.3   1 <1>   0.3430 
  8 C        5.7730     2.0870     1.0990 C.3   1 <1>  -0.1600 
  9 C        6.2820     3.5200     1.2480 C.3   1 <1>   0.1200 
 10 O        7.5450     3.4640     1.8630 O.3   1 <1>  -0.3630 
 11 C        8.6420     3.5370     1.0730 C.ar  1 <1>   0.0820 
 12 C        8.9640     4.7100     0.3580 C.ar  1 <1>   0.0820 
 13 C        9.4640     2.4420     1.0110 C.ar  1 <1>  -0.1500 
 14 O        8.1200     5.7720     0.4500 O.3   1 <1>  -0.3620 
 15 C       10.1210     4.7330    -0.3890 C.ar  1 <1>  -0.1500 
 16 C       10.6320     2.4460     0.2240 C.ar  1 <1>   0.0000 
 17 C        8.4960     7.0530    -0.0100 C.3   1 <1>   0.0400 
 18 C       10.9720     3.6230    -0.4530 C.ar  1 <1>   0.3100 
 19 C       11.5330     1.3650     0.0660 C.ar  1 <1>   0.4100 
 20 N       12.1210     3.7080    -1.1520 N.ar  1 <1>  -0.6200 
 21 N       12.6580     1.4810    -0.5690 N.ar  1 <1>  -0.6200 
 22 N       11.2830     0.1140     0.5640 N.pl3 1 <1>  -0.6000 
 23 C       12.8860     2.6630    -1.1540 C.ar  1 <1>   0.4700 
 24 C       10.1100    -0.6390     0.4640 C.ar  1 <1>   0.1000 
 25 C        9.2920    -0.5550    -0.6560 C.ar  1 <1>  -0.1500 
 26 C        9.7600    -1.5100     1.4850 C.ar  1 <1>  -0.1500 
 27 C        8.1490    -1.3310    -0.7760 C.ar  1 <1>   0.0730 
 28 C        8.6220    -2.2880     1.3840 C.ar  1 <1>  -0.1500 
 29 C        7.3330    -1.2450    -1.9500 C.1   1 <1>  -0.0730 
 30 C        7.8240    -2.2010     0.2560 C.ar  1 <1>  -0.1500 
 31 C        6.6880    -1.1860    -2.9500 C.1   1 <1>  -0.1770 
 32 H        3.5250    -1.7850    -1.5200 H     1 <1>   0.0800 
 33 H        4.5480    -2.4310    -0.2650 H     1 <1>   0.0800 
 34 H        1.0570    -0.8110     0.8920 H     1 <1>   0.0800 
 35 H        1.3000    -0.9860    -0.8250 H     1 <1>   0.0800 
 36 H        4.7630     0.1300    -1.3780 H     1 <1>   0.0800 
 37 H        5.5680    -0.4320     0.0530 H     1 <1>   0.0800 
 38 H        1.7970     1.3310     0.7040 H     1 <1>   0.0800 
 39 H        2.2590     1.0770    -0.9520 H     1 <1>   0.0800 
 40 H        3.8400     0.3240     1.3980 H     1 <1>   0.4500 
 41 H        3.7430     2.7380     1.0190 H     1 <1>   0.0800 
 42 H        4.4580     2.4680    -0.5520 H     1 <1>   0.0800 
 43 H        6.4710     1.5420     0.4890 H     1 <1>   0.0800 
 44 H        5.7210     1.6410     2.0770 H     1 <1>   0.0800 
 45 H        5.6410     4.1000     1.8890 H     1 <1>   0.0800 
 46 H        6.3660     4.0100     0.2930 H     1 <1>   0.0800 
 47 H        9.2160     1.5680     1.5840 H     1 <1>   0.1500 
 48 H       10.4230     5.5970    -0.9470 H     1 <1>   0.1500 
 49 H        7.7200     7.7460     0.2580 H     1 <1>   0.0800 
 50 H        8.6070     7.0240    -1.0800 H     1 <1>   0.0800 
 51 H        9.4180     7.3380     0.4650 H     1 <1>   0.0800 
 52 H       12.1400    -0.4370     0.6360 H     1 <1>   0.4000 
 53 H       13.8170     2.7340    -1.6930 H     1 <1>   0.1500 
 54 H        9.5640     0.1120    -1.4540 H     1 <1>   0.1500 
 55 H       10.3850    -1.5790     2.3580 H     1 <1>   0.1500 
 56 H        8.3630    -2.9660     2.1800 H     1 <1>   0.1500 
 57 H        6.9540    -2.8280     0.1770 H     1 <1>   0.1500 
 58 H        6.1530    -1.1500    -3.8840 H     1 <1>   0.1770 
@<TRIPOS>BOND
  1   1   2  1   
  2   1   3  1   
  3   2   4  1   
  4   2  32  1   
  5   2  33  1   
  6   3   5  1   
  7   3  34  1   
  8   3  35  1   
  9   4   6  1   
 10   4  36  1   
 11   4  37  1   
 12   5   6  1   
 13   5  38  1   
 14   5  39  1   
 15   6   7  1   
 16   6  40  1   
 17   7   8  1   
 18   7  41  1   
 19   7  42  1   
 20   8   9  1   
 21   8  43  1   
 22   8  44  1   
 23   9  10  1   
 24   9  45  1   
 25   9  46  1   
 26  10  11  1   
 27  11  12  ar  
 28  11  13  ar  
 29  12  14  1   
 30  12  15  ar  
 31  13  16  ar  
 32  13  47  1   
 33  14  17  1   
 34  15  18  ar  
 35  15  48  1   
 36  16  18  ar  
 37  16  19  ar  
 38  17  49  1   
 39  17  50  1   
 40  17  51  1   
 41  18  20  ar  
 42  19  21  ar  
 43  19  22  1   
 44  20  23  ar  
 45  21  23  ar  
 46  22  24  1   
 47  22  52  1   
 48  23  53  1   
 49  24  25  ar  
 50  24  26  ar  
 51  25  27  ar  
 52  25  54  1   
 53  26  28  ar  
 54  26  55  1   
 55  27  29  1   
 56  27  30  ar  
 57  28  30  ar  
 58  28  56  1   
 59  29  31  3   
 60  30  57  1   
 61  31  58  1   
@<TRIPOS>SUBSTRUCTURE
  1 ****  13 GROUP 4 **** **** 0

# MOE 2024.06 (io_trps.svl 2023.06)
