@<TRIPOS>MOLECULE
NONAME
47 48 1 0 0 
SMALL
USER_CHARGES


@<TRIPOS>ATOM
  1 S        0.4340     0.1270    -0.9390 S.o2  1 <1>   1.3330 
  2 O        0.3560     0.8740    -2.1740 O.2   1 <1>  -0.6500 
  3 O        0.4330    -1.3170    -0.9780 O.2   1 <1>  -0.6500 
  4 N       -0.8460     0.6210     0.0610 N.am  1 <1>  -0.8490 
  5 C        1.8800     0.7260    -0.0670 C.3   1 <1>  -0.0550 
  6 C       -2.0920     0.8010    -0.6910 C.3   1 <1>   0.1160 
  7 C       -1.0770    -0.2850     1.1920 C.3   1 <1>   0.1160 
  8 C        3.2100     0.3410    -0.7600 C.3   1 <1>  -0.0800 
  9 C        4.4340     1.0890    -0.2410 C.3   1 <1>   0.2200 
 10 C        3.5950    -1.0860    -0.3770 C.3   1 <1>   0.1200 
 11 N        4.1720     2.5150     0.0710 N.am  1 <1>  -0.7300 
 12 C        4.8550     0.2600     0.9780 C.3   1 <1>   0.1200 
 13 O        4.1830    -0.9630     0.8770 O.3   1 <1>  -0.5600 
 14 C        5.1050     3.3880     0.5330 C.2   1 <1>   0.7150 
 15 O        6.2050     2.9690     0.8280 O.2   1 <1>  -0.5700 
 16 C        4.7440     4.7660     0.6490 C.2   1 <1>  -0.2370 
 17 N        5.5030     5.8450     0.2970 N.pl3 1 <1>   0.3140 
 18 C        3.5720     5.2800     1.1170 C.2   1 <1>  -0.1500 
 19 N        4.8440     6.9990     0.5230 N.2   1 <1>  -0.7070 
 20 C        6.8580     5.9280    -0.3420 C.3   1 <1>   0.1760 
 21 C        3.6980     6.6500     1.0180 C.2   1 <1>   0.1390 
 22 C        6.9900     5.0400    -1.5890 C.3   1 <1>  -0.2400 
 23 C        7.9870     5.6850     0.6700 C.3   1 <1>  -0.2400 
 24 H        1.7880     1.7910    -0.0110 H     1 <1>   0.0800 
 25 H        1.8810     0.3520     0.9390 H     1 <1>   0.0800 
 26 H       -2.8810     1.1260    -0.0340 H     1 <1>   0.0800 
 27 H       -2.3810    -0.1240    -1.1630 H     1 <1>   0.0800 
 28 H       -1.9590     1.5500    -1.4530 H     1 <1>   0.0800 
 29 H       -1.8400     0.1160     1.8370 H     1 <1>   0.0800 
 30 H       -0.1750    -0.4040     1.7670 H     1 <1>   0.0800 
 31 H       -1.3910    -1.2550     0.8400 H     1 <1>   0.0800 
 32 H        3.1240     0.4420    -1.8280 H     1 <1>   0.0800 
 33 H        5.2260     1.0350    -0.9710 H     1 <1>   0.0800 
 34 H        4.3330    -1.4850    -1.0520 H     1 <1>   0.0800 
 35 H        2.7640    -1.7670    -0.3100 H     1 <1>   0.0800 
 36 H        3.3420     2.9250    -0.3550 H     1 <1>   0.3700 
 37 H        4.5580     0.7270     1.9000 H     1 <1>   0.0800 
 38 H        5.9150     0.0750     0.9780 H     1 <1>   0.0800 
 39 H        2.7160     4.7540     1.4980 H     1 <1>   0.1500 
 40 H        6.9580     6.9460    -0.6780 H     1 <1>   0.0800 
 41 H        2.9430     7.3620     1.3110 H     1 <1>   0.1500 
 42 H        7.0440     4.0000    -1.3320 H     1 <1>   0.0800 
 43 H        7.8930     5.2940    -2.1140 H     1 <1>   0.0800 
 44 H        6.1580     5.2060    -2.2510 H     1 <1>   0.0800 
 45 H        7.9930     4.6710     1.0190 H     1 <1>   0.0800 
 46 H        7.8720     6.3460     1.5100 H     1 <1>   0.0800 
 47 H        8.9370     5.8860     0.2100 H     1 <1>   0.0800 
@<TRIPOS>BOND
  1   1   2  2   
  2   1   3  2   
  3   1   4  am  
  4   1   5  1   
  5   4   6  1   
  6   4   7  1   
  7   5   8  1   
  8   5  24  1   
  9   5  25  1   
 10   6  26  1   
 11   6  27  1   
 12   6  28  1   
 13   7  29  1   
 14   7  30  1   
 15   7  31  1   
 16   8   9  1   
 17   8  10  1   
 18   8  32  1   
 19   9  11  1   
 20   9  12  1   
 21   9  33  1   
 22  10  13  1   
 23  10  34  1   
 24  10  35  1   
 25  11  14  am  
 26  11  36  1   
 27  12  13  1   
 28  12  37  1   
 29  12  38  1   
 30  14  15  2   
 31  14  16  1   
 32  16  17  1   
 33  16  18  2   
 34  17  19  1   
 35  17  20  1   
 36  18  21  1   
 37  18  39  1   
 38  19  21  2   
 39  20  22  1   
 40  20  23  1   
 41  20  40  1   
 42  21  41  1   
 43  22  42  1   
 44  22  43  1   
 45  22  44  1   
 46  23  45  1   
 47  23  46  1   
 48  23  47  1   
@<TRIPOS>SUBSTRUCTURE
  1 ****  11 GROUP 4 **** **** 0

# MOE 2024.06 (io_trps.svl 2023.06)
