@<TRIPOS>MOLECULE
NONAME
56 58 1 0 0 
SMALL
USER_CHARGES


@<TRIPOS>ATOM
  1 O       -1.4900     1.6240    -2.1480 O.2   1 <1>  -0.5700 
  2 C       -2.1870     2.5640    -1.8320 C.2   1 <1>   0.5440 
  3 N       -3.5230     2.3550    -1.8920 N.am  1 <1>  -0.8000 
  4 C       -1.6160     3.8270    -1.4010 C.ar  1 <1>   0.0860 
  5 C       -2.3140     5.0340    -1.4900 C.ar  1 <1>  -0.1500 
  6 C       -0.3250     3.8890    -0.8760 C.ar  1 <1>  -0.1500 
  7 C       -1.7570     6.2270    -1.0690 C.ar  1 <1>  -0.1500 
  8 C        0.2360     5.0790    -0.4550 C.ar  1 <1>  -0.1500 
  9 C       -0.4720     6.2740    -0.5390 C.ar  1 <1>   0.1170 
 10 N        0.0460     7.5140    -0.1410 N.am  1 <1>  -0.5470 
 11 C        1.0780     7.8110     0.7170 C.2   1 <1>   0.5690 
 12 O        1.7070     6.9780     1.3240 O.2   1 <1>  -0.5700 
 13 C        1.4880     9.2770     0.9280 C.3   1 <1>   0.4040 
 14 N        2.9630     9.4910     1.1930 N.4   1 <1>  -0.9590 
 15 C        3.3320    10.9110     1.5060 C.3   1 <1>   0.4230 
 16 C        3.7380     8.9400     0.0340 C.3   1 <1>   0.3430 
 17 C        4.8500    10.9980     1.7500 C.3   1 <1>  -0.1600 
 18 C        2.6230    11.4980     2.7530 C.3   1 <1>  -0.1600 
 19 C        5.2370     8.9960     0.3060 C.3   1 <1>  -0.1600 
 20 C        5.6820    10.4280     0.5980 C.3   1 <1>  -0.1600 
 21 C        1.1190    11.8560     2.7000 C.3   1 <1>  -0.0170 
 22 C        0.5770    12.1860     1.3140 C.ar  1 <1>  -0.1440 
 23 C        1.2670    13.0240     0.4520 C.ar  1 <1>  -0.1500 
 24 C       -0.6390    11.6530     0.9040 C.ar  1 <1>  -0.1500 
 25 C        0.7770    13.2750    -0.8170 C.ar  1 <1>   0.0820 
 26 C       -1.1360    11.9200    -0.3620 C.ar  1 <1>  -0.1500 
 27 O        1.4880    14.0600    -1.6380 O.3   1 <1>  -0.5320 
 28 C       -0.4240    12.7270    -1.2310 C.ar  1 <1>  -0.1500 
 29 H       -3.8510     1.4270    -2.1640 H     1 <1>   0.3700 
 30 H       -4.2180     2.9870    -1.5000 H     1 <1>   0.3700 
 31 H       -3.3070     5.0370    -1.9040 H     1 <1>   0.1500 
 32 H        0.2450     2.9770    -0.8020 H     1 <1>   0.1500 
 33 H       -2.3340     7.1300    -1.1560 H     1 <1>   0.1500 
 34 H        1.2360     5.0610    -0.0640 H     1 <1>   0.1500 
 35 H       -0.4660     8.3040    -0.5340 H     1 <1>   0.3700 
 36 H        0.9250     9.6270     1.7690 H     1 <1>   0.0800 
 37 H        1.1930     9.8520     0.0670 H     1 <1>   0.0800 
 38 H        3.2060     8.9020     2.0030 H     1 <1>   0.4500 
 39 H        3.1050    11.5220     0.6480 H     1 <1>   0.0800 
 40 H        3.5180     9.5110    -0.8540 H     1 <1>   0.0800 
 41 H        3.4590     7.9130    -0.1450 H     1 <1>   0.0800 
 42 H        5.1000    10.4800     2.6590 H     1 <1>   0.0800 
 43 H        5.1290    12.0300     1.8850 H     1 <1>   0.0800 
 44 H        3.1200    12.4270     2.9720 H     1 <1>   0.0800 
 45 H        2.8040    10.8630     3.6020 H     1 <1>   0.0800 
 46 H        5.7660     8.6270    -0.5560 H     1 <1>   0.0800 
 47 H        5.4780     8.3510     1.1340 H     1 <1>   0.0800 
 48 H        6.7280    10.4420     0.8580 H     1 <1>   0.0800 
 49 H        5.5520    11.0380    -0.2810 H     1 <1>   0.0800 
 50 H        0.9440    12.7060     3.3380 H     1 <1>   0.0800 
 51 H        0.5520    11.0480     3.1270 H     1 <1>   0.0800 
 52 H        2.1850    13.5020     0.7460 H     1 <1>   0.1500 
 53 H       -1.2200    11.0380     1.5710 H     1 <1>   0.1500 
 54 H       -2.0850    11.5130    -0.6680 H     1 <1>   0.1500 
 55 H        1.0180    14.2920    -2.4600 H     1 <1>   0.4500 
 56 H       -0.8100    12.9340    -2.2140 H     1 <1>   0.1500 
@<TRIPOS>BOND
  1   1   2  2   
  2   2   3  am  
  3   2   4  1   
  4   3  29  1   
  5   3  30  1   
  6   4   5  ar  
  7   4   6  ar  
  8   5   7  ar  
  9   5  31  1   
 10   6   8  ar  
 11   6  32  1   
 12   7   9  ar  
 13   7  33  1   
 14   8   9  ar  
 15   8  34  1   
 16   9  10  1   
 17  10  11  am  
 18  10  35  1   
 19  11  12  2   
 20  11  13  1   
 21  13  14  1   
 22  13  36  1   
 23  13  37  1   
 24  14  15  1   
 25  14  16  1   
 26  14  38  1   
 27  15  17  1   
 28  15  18  1   
 29  15  39  1   
 30  16  19  1   
 31  16  40  1   
 32  16  41  1   
 33  17  20  1   
 34  17  42  1   
 35  17  43  1   
 36  18  21  1   
 37  18  44  1   
 38  18  45  1   
 39  19  20  1   
 40  19  46  1   
 41  19  47  1   
 42  20  48  1   
 43  20  49  1   
 44  21  22  1   
 45  21  50  1   
 46  21  51  1   
 47  22  23  ar  
 48  22  24  ar  
 49  23  25  ar  
 50  23  52  1   
 51  24  26  ar  
 52  24  53  1   
 53  25  27  1   
 54  25  28  ar  
 55  26  28  ar  
 56  26  54  1   
 57  27  55  1   
 58  28  56  1   
@<TRIPOS>SUBSTRUCTURE
  1 ****  11 GROUP 4 **** **** 0

# MOE 2024.06 (io_trps.svl 2023.06)
