@<TRIPOS>MOLECULE
NONAME
35 36 1 0 0 
SMALL
USER_CHARGES


@<TRIPOS>ATOM
  1 O        0.1980     0.3560    -1.5130 O.2   1 <1>  -0.5770 
  2 C        0.9440    -0.3340    -0.8490 C.2   1 <1>   0.9960 
  3 N        2.0080     0.2600    -0.2400 N.pl3 1 <1>  -0.7350 
  4 C        0.7700    -1.7590    -0.6690 C.2   1 <1>   0.1930 
  5 C        2.3830     1.5320    -0.2650 C.cat 1 <1>   1.0680 
  6 N        1.5670    -2.5050     0.0390 N.2   1 <1>  -0.4180 
  7 C       -0.2320    -2.5600    -1.1950 C.2   1 <1>  -0.1610 
  8 N        1.7750     2.5130    -0.9050 N.pl3 1 <1>  -0.7050 
  9 N        3.4560     2.0090     0.3680 N.pl3 1 <1>  -0.7690 
 10 O        1.1560    -3.7480     0.0170 O.3   1 <1>  -0.0310 
 11 C        0.0710    -3.7750    -0.7290 C.2   1 <1>  -0.0520 
 12 C        2.4700     3.6790    -0.6890 C.2   1 <1>   0.1900 
 13 C        3.5140     3.3680     0.1010 C.2   1 <1>   0.1900 
 14 C        4.4610     1.3120     1.2180 C.3   1 <1>   0.2650 
 15 C       -0.6410    -5.1000    -0.9460 C.3   1 <1>   0.0080 
 16 C       -1.2420    -5.6680     0.3520 C.3   1 <1>  -0.0910 
 17 C       -1.8560    -7.0500     0.0930 C.3   1 <1>  -0.2500 
 18 C       -2.3080    -4.7340     0.9430 C.3   1 <1>  -0.2500 
 19 H        2.5700    -0.3940     0.2920 H     1 <1>   0.4420 
 20 H       -1.0470    -2.2490    -1.8240 H     1 <1>   0.1390 
 21 H        0.9230     2.3620    -1.4590 H     1 <1>   0.4420 
 22 H        2.1770     4.6310    -1.1060 H     1 <1>   0.1390 
 23 H        4.2870     4.0150     0.4880 H     1 <1>   0.1390 
 24 H        4.2140     0.2710     1.3380 H     1 <1>   0.0690 
 25 H        4.4960     1.7720     2.1910 H     1 <1>   0.0690 
 26 H        5.4350     1.3850     0.7640 H     1 <1>   0.0690 
 27 H        0.0670    -5.8020    -1.3500 H     1 <1>   0.0690 
 28 H       -1.4220    -4.9670    -1.6730 H     1 <1>   0.0690 
 29 H       -0.4510    -5.7830     1.0750 H     1 <1>   0.0690 
 30 H       -2.6570    -6.9820    -0.6220 H     1 <1>   0.0690 
 31 H       -2.2450    -7.4610     1.0070 H     1 <1>   0.0690 
 32 H       -1.1100    -7.7250    -0.2880 H     1 <1>   0.0690 
 33 H       -3.1060    -4.5760     0.2390 H     1 <1>   0.0690 
 34 H       -1.8780    -3.7830     1.1990 H     1 <1>   0.0690 
 35 H       -2.7220    -5.1640     1.8380 H     1 <1>   0.0690 
@<TRIPOS>BOND
  1   1   2  2   
  2   2   3  1   
  3   2   4  1   
  4   3   5  ar  
  5   3  19  1   
  6   4   6  2   
  7   4   7  1   
  8   5   8  ar  
  9   5   9  ar  
 10   6  10  1   
 11   7  11  2   
 12   7  20  1   
 13   8  12  1   
 14   8  21  1   
 15   9  13  1   
 16   9  14  1   
 17  10  11  1   
 18  11  15  1   
 19  12  13  2   
 20  12  22  1   
 21  13  23  1   
 22  14  24  1   
 23  14  25  1   
 24  14  26  1   
 25  15  16  1   
 26  15  27  1   
 27  15  28  1   
 28  16  17  1   
 29  16  18  1   
 30  16  29  1   
 31  17  30  1   
 32  17  31  1   
 33  17  32  1   
 34  18  33  1   
 35  18  34  1   
 36  18  35  1   
@<TRIPOS>SUBSTRUCTURE
  1 ****   4 GROUP 4 **** **** 0

# MOE 2024.06 (io_trps.svl 2023.06)
