@<TRIPOS>MOLECULE
NONAME
50 52 1 0 0 
SMALL
USER_CHARGES


@<TRIPOS>ATOM
  1 O        2.0110     2.3160     1.1260 O.2   1 <1>  -0.5700 
  2 C        1.9570     1.2710     0.5050 C.2   1 <1>   0.5440 
  3 N        1.4610     1.3050    -0.7680 N.am  1 <1>  -0.7300 
  4 C        2.4280     0.0380     1.1010 C.ar  1 <1>   0.0860 
  5 C        0.9970     2.5050    -1.5070 C.3   1 <1>   0.0600 
  6 C        1.9330    -1.2420     0.7540 C.ar  1 <1>   0.4100 
  7 C        3.4340     0.0920     2.0570 C.ar  1 <1>  -0.1500 
  8 N        2.4120    -2.3830     1.2590 N.ar  1 <1>  -0.6200 
  9 N        0.8740    -1.4250    -0.1280 N.pl3 1 <1>  -0.8380 
 10 C        3.9110    -1.0830     2.5880 C.ar  1 <1>  -0.1500 
 11 C        3.3750    -2.2790     2.1530 C.ar  1 <1>   0.1600 
 12 C        0.8470    -2.6240    -1.0150 C.3   1 <1>   0.2090 
 13 C       -0.4830    -0.9900     0.3050 C.3   1 <1>   0.2090 
 14 C        0.1610    -3.8140    -0.2950 C.3   1 <1>   0.4230 
 15 C       -1.1570    -2.1340     1.0760 C.3   1 <1>  -0.1600 
 16 N        0.2100    -5.1350    -1.0530 N.4   1 <1>  -0.9590 
 17 C       -1.2410    -3.4790     0.2980 C.3   1 <1>   0.0000 
 18 C       -0.6970    -6.1840    -0.4870 C.3   1 <1>   0.3430 
 19 C       -0.0210    -4.9970    -2.5260 C.3   1 <1>   0.2630 
 20 C       -1.6060    -4.6010     1.3150 C.3   1 <1>  -0.1600 
 21 C       -2.3920    -3.4030    -0.7480 C.3   1 <1>   0.1200 
 22 C       -0.9430    -5.9620     1.0060 C.3   1 <1>  -0.1600 
 23 O       -2.0550    -2.6590    -1.8670 O.3   1 <1>  -0.6800 
 24 H        1.2720     0.3880    -1.1940 H     1 <1>   0.3700 
 25 H        1.2460     3.4000    -0.9620 H     1 <1>   0.0800 
 26 H       -0.0700     2.4630    -1.6380 H     1 <1>   0.0800 
 27 H        1.4740     2.5440    -2.4710 H     1 <1>   0.0800 
 28 H        3.8350     1.0420     2.3700 H     1 <1>   0.1500 
 29 H        4.6920    -1.0740     3.3280 H     1 <1>   0.1500 
 30 H        3.7630    -3.1930     2.5700 H     1 <1>   0.1500 
 31 H        0.3400    -2.3650    -1.9250 H     1 <1>   0.0800 
 32 H        1.8590    -2.8950    -1.2620 H     1 <1>   0.0800 
 33 H       -0.4070    -0.1260     0.9450 H     1 <1>   0.0800 
 34 H       -1.0660    -0.7090    -0.5550 H     1 <1>   0.0800 
 35 H        0.7760    -3.9650     0.5760 H     1 <1>   0.0800 
 36 H       -0.5830    -2.2660     1.9760 H     1 <1>   0.0800 
 37 H       -2.1390    -1.8160     1.3790 H     1 <1>   0.0800 
 38 H        1.1730    -5.4710    -0.9190 H     1 <1>   0.4500 
 39 H       -1.6460    -6.1560    -0.9970 H     1 <1>   0.0800 
 40 H       -0.2680    -7.1610    -0.6460 H     1 <1>   0.0800 
 41 H       -1.0070    -4.6060    -2.7180 H     1 <1>   0.0800 
 42 H        0.0690    -5.9560    -3.0110 H     1 <1>   0.0800 
 43 H        0.7020    -4.3280    -2.9620 H     1 <1>   0.0800 
 44 H       -1.3020    -4.3270     2.3110 H     1 <1>   0.0800 
 45 H       -2.6750    -4.7250     1.3560 H     1 <1>   0.0800 
 46 H       -3.2630    -2.9490    -0.3030 H     1 <1>   0.0800 
 47 H       -2.6720    -4.3820    -1.0910 H     1 <1>   0.0800 
 48 H       -1.5690    -6.7530     1.3840 H     1 <1>   0.0800 
 49 H       -0.0020    -6.0350     1.5250 H     1 <1>   0.0800 
 50 H       -2.8600    -2.3860    -2.3580 H     1 <1>   0.4000 
@<TRIPOS>BOND
  1   1   2  2   
  2   2   3  am  
  3   2   4  1   
  4   3   5  1   
  5   3  24  1   
  6   4   6  ar  
  7   4   7  ar  
  8   5  25  1   
  9   5  26  1   
 10   5  27  1   
 11   6   8  ar  
 12   6   9  1   
 13   7  10  ar  
 14   7  28  1   
 15   8  11  ar  
 16   9  12  1   
 17   9  13  1   
 18  10  11  ar  
 19  10  29  1   
 20  11  30  1   
 21  12  14  1   
 22  12  31  1   
 23  12  32  1   
 24  13  15  1   
 25  13  33  1   
 26  13  34  1   
 27  14  16  1   
 28  14  17  1   
 29  14  35  1   
 30  15  17  1   
 31  15  36  1   
 32  15  37  1   
 33  16  18  1   
 34  16  19  1   
 35  16  38  1   
 36  17  20  1   
 37  17  21  1   
 38  18  22  1   
 39  18  39  1   
 40  18  40  1   
 41  19  41  1   
 42  19  42  1   
 43  19  43  1   
 44  20  22  1   
 45  20  44  1   
 46  20  45  1   
 47  21  23  1   
 48  21  46  1   
 49  21  47  1   
 50  22  48  1   
 51  22  49  1   
 52  23  50  1   
@<TRIPOS>SUBSTRUCTURE
  1 ****   9 GROUP 4 **** **** 0

# MOE 2024.06 (io_trps.svl 2023.06)
