@<TRIPOS>MOLECULE
NONAME
49 51 1 0 0 
SMALL
USER_CHARGES


@<TRIPOS>ATOM
  1 O       -0.5130     0.4300     2.1430 O.2   1 <1>  -0.5700 
  2 C       -1.0720     0.6900     1.1030 C.2   1 <1>   0.5690 
  3 N       -1.7310    -0.2910     0.3890 N.am  1 <1>  -0.6600 
  4 C       -1.0080     2.1610     0.6660 C.3   1 <1>  -0.0190 
  5 C       -1.8700    -1.6670     0.9500 C.3   1 <1>   0.1400 
  6 C       -2.3790    -0.1400    -0.9450 C.3   1 <1>   0.1400 
  7 C       -2.3920     2.8470     0.6390 C.3   1 <1>  -0.1600 
  8 C       -0.1710     2.3920    -0.6180 C.3   1 <1>  -0.1600 
  9 C       -3.3540    -2.0110     1.0960 C.3   1 <1>  -0.1600 
 10 C       -3.8720    -0.4520    -0.8230 C.3   1 <1>  -0.1600 
 11 C       -2.2980     4.3620     0.3640 C.3   1 <1>   0.2000 
 12 C       -0.6260     3.6190    -1.4280 C.3   1 <1>  -0.1600 
 13 C       -4.0840    -1.8520    -0.2440 C.3   1 <1>   0.2000 
 14 O       -3.4740     4.7500    -0.3050 O.3   1 <1>  -0.5600 
 15 C       -1.0660     4.7510    -0.4980 C.3   1 <1>   0.2000 
 16 O       -5.4710    -2.0220    -0.0440 O.3   1 <1>  -0.3630 
 17 C       -4.5860     4.9460     0.5130 C.3   1 <1>   0.0400 
 18 O       -1.3840     5.8420    -1.2800 O.3   1 <1>  -0.6800 
 19 C       -6.0660    -3.2240     0.0220 C.ar  1 <1>   0.7030 
 20 N       -5.3190    -4.3140    -0.1550 N.ar  1 <1>  -0.6200 
 21 N       -7.3690    -3.1740     0.2630 N.ar  1 <1>  -0.6200 
 22 C       -5.9600    -5.4570    -0.0770 C.ar  1 <1>   0.1600 
 23 C       -7.9790    -4.3340     0.3340 C.ar  1 <1>   0.1600 
 24 C       -7.3100    -5.5220     0.1690 C.ar  1 <1>  -0.1500 
 25 H       -0.4690     2.6640     1.4510 H     1 <1>   0.0800 
 26 H       -1.3920    -2.3680     0.2870 H     1 <1>   0.0800 
 27 H       -1.3920    -1.7450     1.9120 H     1 <1>   0.0800 
 28 H       -2.2510     0.8470    -1.3440 H     1 <1>   0.0800 
 29 H       -1.9200    -0.8290    -1.6330 H     1 <1>   0.0800 
 30 H       -2.8760     2.6910     1.5870 H     1 <1>   0.0800 
 31 H       -3.0040     2.4010    -0.1200 H     1 <1>   0.0800 
 32 H        0.8550     2.5300    -0.3220 H     1 <1>   0.0800 
 33 H       -0.1860     1.5270    -1.2560 H     1 <1>   0.0800 
 34 H       -3.7900    -1.3570     1.8310 H     1 <1>   0.0800 
 35 H       -3.4440    -3.0230     1.4440 H     1 <1>   0.0800 
 36 H       -4.3260    -0.3960    -1.7960 H     1 <1>   0.0800 
 37 H       -4.3340     0.2800    -0.1850 H     1 <1>   0.0800 
 38 H       -2.2310     4.9040     1.2920 H     1 <1>   0.0800 
 39 H       -1.4550     3.3450    -2.0580 H     1 <1>   0.0800 
 40 H        0.1810     3.9540    -2.0560 H     1 <1>   0.0800 
 41 H       -3.7370    -2.5830    -0.9550 H     1 <1>   0.0800 
 42 H       -0.2410     5.0290     0.1360 H     1 <1>   0.0800 
 43 H       -5.4070     5.2580    -0.1080 H     1 <1>   0.0800 
 44 H       -4.3660     5.7160     1.2340 H     1 <1>   0.0800 
 45 H       -4.8380     4.0240     1.0070 H     1 <1>   0.0800 
 46 H       -2.3610     5.8010    -1.4020 H     1 <1>   0.4000 
 47 H       -5.3950    -6.3630    -0.2140 H     1 <1>   0.1500 
 48 H       -9.0390    -4.3330     0.5280 H     1 <1>   0.1500 
 49 H       -7.8220    -6.4630     0.2300 H     1 <1>   0.1500 
@<TRIPOS>BOND
  1   1   2  2   
  2   2   3  am  
  3   2   4  1   
  4   3   5  1   
  5   3   6  1   
  6   4   7  1   
  7   4   8  1   
  8   4  25  1   
  9   5   9  1   
 10   5  26  1   
 11   5  27  1   
 12   6  10  1   
 13   6  28  1   
 14   6  29  1   
 15   7  11  1   
 16   7  30  1   
 17   7  31  1   
 18   8  12  1   
 19   8  32  1   
 20   8  33  1   
 21   9  13  1   
 22   9  34  1   
 23   9  35  1   
 24  10  13  1   
 25  10  36  1   
 26  10  37  1   
 27  11  14  1   
 28  11  15  1   
 29  11  38  1   
 30  12  15  1   
 31  12  39  1   
 32  12  40  1   
 33  13  16  1   
 34  13  41  1   
 35  14  17  1   
 36  15  18  1   
 37  15  42  1   
 38  16  19  1   
 39  17  43  1   
 40  17  44  1   
 41  17  45  1   
 42  18  46  1   
 43  19  20  ar  
 44  19  21  ar  
 45  20  22  ar  
 46  21  23  ar  
 47  22  24  ar  
 48  22  47  1   
 49  23  24  ar  
 50  23  48  1   
 51  24  49  1   
@<TRIPOS>SUBSTRUCTURE
  1 ****  10 GROUP 4 **** **** 0

# MOE 2024.06 (io_trps.svl 2023.06)
