@<TRIPOS>MOLECULE
NONAME
52 55 1 0 0 
SMALL
USER_CHARGES


@<TRIPOS>ATOM
  1 O       -0.9420     0.3280    -2.6930 O.2   1 <1>  -0.5700 
  2 C       -1.6050     0.9700    -1.9010 C.2   1 <1>   0.7160 
  3 N       -2.5810     0.3300    -1.1750 N.am  1 <1>  -0.6600 
  4 C       -1.3750     2.3790    -1.7180 C.2   1 <1>  -0.0860 
  5 C       -3.4110     0.9790    -0.1290 C.3   1 <1>   0.1400 
  6 C       -2.7030    -1.1420    -1.1050 C.3   1 <1>   0.1400 
  7 C       -0.4710     3.0710    -0.9630 C.2   1 <1>  -0.3320 
  8 C       -2.1260     3.3830    -2.3310 C.2   1 <1>   0.1390 
  9 C       -4.0040    -0.1740     0.6850 C.3   1 <1>   0.2000 
 10 C       -3.1970    -1.4190     0.3140 C.3   1 <1>  -0.0800 
 11 N       -0.7190     4.3780    -1.1550 N.pl3 1 <1>   0.3000 
 12 C        0.6440     2.5680    -0.0550 C.3   1 <1>   0.1000 
 13 N       -1.7510     4.5750    -1.9940 N.2   1 <1>  -0.7070 
 14 O       -3.8980     0.0630     2.0460 O.3   1 <1>  -0.6800 
 15 C       -4.0070    -2.7180     0.4450 C.3   1 <1>  -0.0170 
 16 C        1.7210     1.8420    -0.8740 C.3   1 <1>  -0.1600 
 17 C        0.0930     1.6570     1.0520 C.3   1 <1>  -0.1600 
 18 C       -3.1670    -3.9280     0.0660 C.ar  1 <1>  -0.1430 
 19 C        2.8480     1.3120     0.0250 C.3   1 <1>  -0.1600 
 20 C        1.2170     1.1360     1.9590 C.3   1 <1>  -0.1600 
 21 C       -3.2270    -4.5010    -1.1880 C.ar  1 <1>  -0.1500 
 22 C       -2.2970    -4.5130     0.9630 C.ar  1 <1>  -0.1500 
 23 C        2.2930     0.4120     1.1380 C.3   1 <1>  -0.1600 
 24 C       -2.4340    -5.6000    -1.4760 C.ar  1 <1>   0.1600 
 25 C       -1.5490    -5.6120     0.5740 C.ar  1 <1>   0.1600 
 26 N       -1.5960    -6.1690    -0.6250 N.ar  1 <1>  -0.6200 
 27 H       -2.8000     1.6170     0.4850 H     1 <1>   0.0800 
 28 H       -4.1930     1.5560    -0.5900 H     1 <1>   0.0800 
 29 H       -3.4230    -1.4660    -1.8370 H     1 <1>   0.0800 
 30 H       -1.7580    -1.6260    -1.2940 H     1 <1>   0.0800 
 31 H       -2.9360     3.1880    -3.0140 H     1 <1>   0.1500 
 32 H       -5.0470    -0.2910     0.4430 H     1 <1>   0.0800 
 33 H       -2.3250    -1.4810     0.9420 H     1 <1>   0.0800 
 34 H       -0.2060     5.1630    -0.7350 H     1 <1>   0.2700 
 35 H        1.1090     3.4170     0.4190 H     1 <1>   0.0800 
 36 H       -2.9610     0.1460     2.3050 H     1 <1>   0.4000 
 37 H       -4.8810    -2.6720    -0.1810 H     1 <1>   0.0800 
 38 H       -4.3440    -2.8250     1.4620 H     1 <1>   0.0800 
 39 H        1.2780     1.0150    -1.4000 H     1 <1>   0.0800 
 40 H        2.1290     2.5130    -1.6090 H     1 <1>   0.0800 
 41 H       -0.6240     2.2020     1.6410 H     1 <1>   0.0800 
 42 H       -0.4050     0.8150     0.6090 H     1 <1>   0.0800 
 43 H        3.5500     0.7550    -0.5710 H     1 <1>   0.0800 
 44 H        3.3750     2.1410     0.4660 H     1 <1>   0.0800 
 45 H        1.6660     1.9610     2.4860 H     1 <1>   0.0800 
 46 H        0.8090     0.4610     2.6910 H     1 <1>   0.0800 
 47 H       -3.8800    -4.1080    -1.9450 H     1 <1>   0.1500 
 48 H       -2.1950    -4.1280     1.9610 H     1 <1>   0.1500 
 49 H        3.0950     0.1030     1.7850 H     1 <1>   0.0800 
 50 H        1.8670    -0.4730     0.6960 H     1 <1>   0.0800 
 51 H       -2.4920    -6.0330    -2.4600 H     1 <1>   0.1500 
 52 H       -0.8750    -6.0560     1.2870 H     1 <1>   0.1500 
@<TRIPOS>BOND
  1   1   2  2   
  2   2   3  am  
  3   2   4  1   
  4   3   5  1   
  5   3   6  1   
  6   4   7  2   
  7   4   8  1   
  8   5   9  1   
  9   5  27  1   
 10   5  28  1   
 11   6  10  1   
 12   6  29  1   
 13   6  30  1   
 14   7  11  1   
 15   7  12  1   
 16   8  13  2   
 17   8  31  1   
 18   9  10  1   
 19   9  14  1   
 20   9  32  1   
 21  10  15  1   
 22  10  33  1   
 23  11  13  1   
 24  11  34  1   
 25  12  16  1   
 26  12  17  1   
 27  12  35  1   
 28  14  36  1   
 29  15  18  1   
 30  15  37  1   
 31  15  38  1   
 32  16  19  1   
 33  16  39  1   
 34  16  40  1   
 35  17  20  1   
 36  17  41  1   
 37  17  42  1   
 38  18  21  ar  
 39  18  22  ar  
 40  19  23  1   
 41  19  43  1   
 42  19  44  1   
 43  20  23  1   
 44  20  45  1   
 45  20  46  1   
 46  21  24  ar  
 47  21  47  1   
 48  22  25  ar  
 49  22  48  1   
 50  23  49  1   
 51  23  50  1   
 52  24  26  ar  
 53  24  51  1   
 54  25  26  ar  
 55  25  52  1   
@<TRIPOS>SUBSTRUCTURE
  1 ****   3 GROUP 4 **** **** 0

# MOE 2024.06 (io_trps.svl 2023.06)
