@<TRIPOS>MOLECULE
NONAME
52 55 1 0 0 
SMALL
USER_CHARGES


@<TRIPOS>ATOM
  1 O       -1.4210     0.5150     1.4770 O.3   1 <1>  -0.5600 
  2 C       -1.8810     1.5990     0.7360 C.3   1 <1>   0.1200 
  3 C       -1.0740    -0.6350     0.7770 C.3   1 <1>   0.1200 
  4 C       -3.2550     1.3450     0.0790 C.3   1 <1>   0.4230 
  5 C       -2.3280    -1.4170     0.3550 C.3   1 <1>  -0.0800 
  6 N       -3.1150     0.5050    -1.1810 N.4   1 <1>  -0.9590 
  7 C       -4.3190     0.8630     1.1160 C.3   1 <1>   0.2090 
  8 C       -3.4040    -1.4810     1.4540 C.3   1 <1>   0.2090 
  9 C       -2.9170    -0.9770    -0.9900 C.3   1 <1>   0.3430 
 10 C       -4.2930     0.7070    -2.0770 C.3   1 <1>   0.2630 
 11 N       -4.5870    -0.6170     1.1350 N.pl3 1 <1>  -0.8380 
 12 C       -5.8200    -1.1630     0.9950 C.ar  1 <1>   0.4100 
 13 N       -5.9200    -2.2310     0.2280 N.ar  1 <1>  -0.6200 
 14 C       -6.9340    -0.6160     1.6580 C.ar  1 <1>  -0.1500 
 15 C       -7.1110    -2.8120     0.1290 C.ar  1 <1>   0.7710 
 16 C       -8.1420    -1.2170     1.5290 C.ar  1 <1>   0.2180 
 17 N       -8.1990    -2.3230     0.7530 N.ar  1 <1>  -0.1790 
 18 N       -7.2400    -3.9280    -0.6270 N.pl3 1 <1>  -0.8380 
 19 C       -9.4090    -0.7250     2.2080 C.3   1 <1>  -0.0970 
 20 C       -8.4560    -4.7670    -0.8350 C.3   1 <1>   0.2090 
 21 C       -6.0810    -4.5440    -1.3330 C.3   1 <1>   0.2090 
 22 C       -7.9460    -6.0590    -1.4580 C.3   1 <1>  -0.1600 
 23 C       -6.6730    -5.6550    -2.1880 C.3   1 <1>  -0.1600 
 24 H       -1.9720     2.4180     1.4280 H     1 <1>   0.0800 
 25 H       -1.1370     1.8670     0.0070 H     1 <1>   0.0800 
 26 H       -0.4470    -0.3760    -0.0600 H     1 <1>   0.0800 
 27 H       -0.4920    -1.2370     1.4550 H     1 <1>   0.0800 
 28 H       -3.5800     2.3230    -0.2360 H     1 <1>   0.0800 
 29 H       -1.9980    -2.4290     0.2090 H     1 <1>   0.0800 
 30 H       -2.2800     0.8520    -1.6700 H     1 <1>   0.4500 
 31 H       -5.2360     1.3790     0.8960 H     1 <1>   0.0800 
 32 H       -4.0180     1.1750     2.1020 H     1 <1>   0.0800 
 33 H       -2.9930    -1.1920     2.4080 H     1 <1>   0.0800 
 34 H       -3.7320    -2.5020     1.5580 H     1 <1>   0.0800 
 35 H       -3.8690    -1.4740    -1.0950 H     1 <1>   0.0800 
 36 H       -2.2830    -1.3440    -1.7800 H     1 <1>   0.0800 
 37 H       -5.1840     0.3250    -1.6040 H     1 <1>   0.0800 
 38 H       -4.1490     0.1830    -3.0090 H     1 <1>   0.0800 
 39 H       -4.4310     1.7540    -2.2900 H     1 <1>   0.0800 
 40 H       -6.7960     0.2550     2.2710 H     1 <1>   0.1500 
 41 H       -9.0560    -2.8420     0.6070 H     1 <1>   0.4570 
 42 H       -9.2070     0.1570     2.7910 H     1 <1>   0.0800 
 43 H       -9.7980    -1.4790     2.8700 H     1 <1>   0.0800 
 44 H      -10.1590    -0.4790     1.4770 H     1 <1>   0.0800 
 45 H       -8.9660    -4.9750     0.0910 H     1 <1>   0.0800 
 46 H       -9.1210    -4.2740    -1.5250 H     1 <1>   0.0800 
 47 H       -5.5610    -3.8230    -1.9400 H     1 <1>   0.0800 
 48 H       -5.4010    -4.9590    -0.6060 H     1 <1>   0.0800 
 49 H       -7.7120    -6.7610    -0.6760 H     1 <1>   0.0800 
 50 H       -8.6720    -6.5020    -2.1170 H     1 <1>   0.0800 
 51 H       -6.9140    -5.2620    -3.1600 H     1 <1>   0.0800 
 52 H       -5.9900    -6.4780    -2.3050 H     1 <1>   0.0800 
@<TRIPOS>BOND
  1   1   2  1   
  2   1   3  1   
  3   2   4  1   
  4   2  24  1   
  5   2  25  1   
  6   3   5  1   
  7   3  26  1   
  8   3  27  1   
  9   4   6  1   
 10   4   7  1   
 11   4  28  1   
 12   5   8  1   
 13   5   9  1   
 14   5  29  1   
 15   6   9  1   
 16   6  10  1   
 17   6  30  1   
 18   7  11  1   
 19   7  31  1   
 20   7  32  1   
 21   8  11  1   
 22   8  33  1   
 23   8  34  1   
 24   9  35  1   
 25   9  36  1   
 26  10  37  1   
 27  10  38  1   
 28  10  39  1   
 29  11  12  1   
 30  12  13  ar  
 31  12  14  ar  
 32  13  15  ar  
 33  14  16  ar  
 34  14  40  1   
 35  15  17  ar  
 36  15  18  1   
 37  16  17  ar  
 38  16  19  1   
 39  17  41  1   
 40  18  20  1   
 41  18  21  1   
 42  19  42  1   
 43  19  43  1   
 44  19  44  1   
 45  20  22  1   
 46  20  45  1   
 47  20  46  1   
 48  21  23  1   
 49  21  47  1   
 50  21  48  1   
 51  22  23  1   
 52  22  49  1   
 53  22  50  1   
 54  23  51  1   
 55  23  52  1   
@<TRIPOS>SUBSTRUCTURE
  1 ****  13 GROUP 4 **** **** 0

# MOE 2024.06 (io_trps.svl 2023.06)
