@<TRIPOS>MOLECULE
NONAME
47 49 1 0 0 
SMALL
USER_CHARGES


@<TRIPOS>ATOM
  1 O       -2.9630    -1.7850    -2.5360 O.2   1 <1>  -0.5700 
  2 C       -2.7500    -1.8690    -1.3480 C.2   1 <1>   0.5690 
  3 N       -2.4860    -0.7690    -0.5720 N.am  1 <1>  -0.6600 
  4 C       -2.7960    -3.2550    -0.7270 C.3   1 <1>  -0.0190 
  5 C       -2.3070    -0.8770     0.9150 C.3   1 <1>   0.2200 
  6 C       -2.6160     0.6140    -1.1060 C.3   1 <1>   0.0600 
  7 C       -1.4400    -3.6210    -0.1040 C.3   1 <1>   0.1200 
  8 C       -3.9870    -3.4400     0.2360 C.3   1 <1>   0.1400 
  9 C       -1.0580    -1.7150     1.2530 C.3   1 <1>   0.1200 
 10 C       -3.5720    -1.3930     1.6500 C.3   1 <1>   0.1400 
 11 O       -1.2910    -3.0920     1.1770 O.3   1 <1>  -0.5600 
 12 N       -4.5200    -2.1440     0.7630 N.am  1 <1>  -0.6600 
 13 C       -5.6770    -1.5380     0.3250 C.2   1 <1>   0.5690 
 14 O       -6.0710    -0.5060     0.8190 O.2   1 <1>  -0.5700 
 15 C       -6.4960    -2.1070    -0.8290 C.3   1 <1>   0.0440 
 16 C       -7.2310    -3.4030    -0.4960 C.ar  1 <1>  -0.1440 
 17 C       -7.2530    -4.4460    -1.4090 C.ar  1 <1>  -0.1500 
 18 C       -7.8860    -3.5540     0.7160 C.ar  1 <1>  -0.1500 
 19 C       -7.9110    -5.6260    -1.1100 C.ar  1 <1>  -0.1500 
 20 C       -8.5430    -4.7350     1.0150 C.ar  1 <1>  -0.1500 
 21 C       -8.5580    -5.7800     0.1050 C.ar  1 <1>  -0.1440 
 22 C       -9.2810    -7.0750     0.4340 C.3   1 <1>  -0.0170 
 23 C      -10.7360    -7.0130    -0.0370 C.3   1 <1>  -0.2400 
 24 H       -2.9380    -3.9490    -1.5350 H     1 <1>   0.0800 
 25 H       -2.1070     0.1100     1.2930 H     1 <1>   0.0800 
 26 H       -1.7320     1.1820    -0.8720 H     1 <1>   0.0800 
 27 H       -3.4750     1.0910    -0.6660 H     1 <1>   0.0800 
 28 H       -2.7410     0.6010    -2.1750 H     1 <1>   0.0800 
 29 H       -0.6230    -3.2900    -0.7230 H     1 <1>   0.0800 
 30 H       -1.3750    -4.6910    -0.0030 H     1 <1>   0.0800 
 31 H       -3.6950    -4.0590     1.0680 H     1 <1>   0.0800 
 32 H       -4.7610    -3.9730    -0.2800 H     1 <1>   0.0800 
 33 H       -0.7690    -1.5140     2.2690 H     1 <1>   0.0800 
 34 H       -0.2340    -1.4560     0.6110 H     1 <1>   0.0800 
 35 H       -4.0740    -0.5450     2.0810 H     1 <1>   0.0800 
 36 H       -3.2880    -2.0240     2.4740 H     1 <1>   0.0800 
 37 H       -7.2240    -1.3720    -1.1220 H     1 <1>   0.0800 
 38 H       -5.8390    -2.2510    -1.6660 H     1 <1>   0.0800 
 39 H       -6.7600    -4.3450    -2.3600 H     1 <1>   0.1500 
 40 H       -7.8880    -2.7520     1.4360 H     1 <1>   0.1500 
 41 H       -7.9200    -6.4260    -1.8290 H     1 <1>   0.1500 
 42 H       -9.0460    -4.8350     1.9600 H     1 <1>   0.1500 
 43 H       -8.7820    -7.9010    -0.0430 H     1 <1>   0.0800 
 44 H       -9.2530    -7.2470     1.4960 H     1 <1>   0.0800 
 45 H      -10.7740    -6.8580    -1.1000 H     1 <1>   0.0800 
 46 H      -11.2470    -6.2010     0.4480 H     1 <1>   0.0800 
 47 H      -11.2420    -7.9320     0.1980 H     1 <1>   0.0800 
@<TRIPOS>BOND
  1   1   2  2   
  2   2   3  am  
  3   2   4  1   
  4   3   5  1   
  5   3   6  1   
  6   4   7  1   
  7   4   8  1   
  8   4  24  1   
  9   5   9  1   
 10   5  10  1   
 11   5  25  1   
 12   6  26  1   
 13   6  27  1   
 14   6  28  1   
 15   7  11  1   
 16   7  29  1   
 17   7  30  1   
 18   8  12  1   
 19   8  31  1   
 20   8  32  1   
 21   9  11  1   
 22   9  33  1   
 23   9  34  1   
 24  10  12  1   
 25  10  35  1   
 26  10  36  1   
 27  12  13  am  
 28  13  14  2   
 29  13  15  1   
 30  15  16  1   
 31  15  37  1   
 32  15  38  1   
 33  16  17  ar  
 34  16  18  ar  
 35  17  19  ar  
 36  17  39  1   
 37  18  20  ar  
 38  18  40  1   
 39  19  21  ar  
 40  19  41  1   
 41  20  21  ar  
 42  20  42  1   
 43  21  22  1   
 44  22  23  1   
 45  22  43  1   
 46  22  44  1   
 47  23  45  1   
 48  23  46  1   
 49  23  47  1   
@<TRIPOS>SUBSTRUCTURE
  1 ****   8 GROUP 4 **** **** 0

# MOE 2024.06 (io_trps.svl 2023.06)
