@<TRIPOS>MOLECULE
NONAME
52 54 1 0 0 
SMALL
USER_CHARGES


@<TRIPOS>ATOM
  1 O       -1.2640     0.4740     0.9710 O.2   1 <1>  -0.5700 
  2 C       -2.1550     1.2960     1.0880 C.2   1 <1>   0.5440 
  3 N       -3.4400     0.8290     1.2470 N.am  1 <1>  -0.6600 
  4 C       -1.8540     2.7170     1.0350 C.ar  1 <1>   0.0860 
  5 C       -3.6790    -0.5840     1.6600 C.3   1 <1>   0.1400 
  6 C       -4.5950     1.4300     0.5200 C.3   1 <1>   0.1400 
  7 C       -0.8480     3.2080     0.2060 C.ar  1 <1>  -0.1500 
  8 C       -2.5500     3.6420     1.8160 C.ar  1 <1>  -0.1500 
  9 C       -3.8960    -1.4390     0.3900 C.3   1 <1>   0.4230 
 10 C       -4.8830     0.5830    -0.7300 C.3   1 <1>  -0.1600 
 11 C       -0.5500     4.5580     0.1390 C.ar  1 <1>   0.0830 
 12 C       -2.2650     4.9940     1.7590 C.ar  1 <1>  -0.1500 
 13 N       -4.0300    -2.9140     0.6500 N.4   1 <1>  -0.9590 
 14 C       -5.1250    -0.9160    -0.3870 C.3   1 <1>  -0.1060 
 15 O        0.4470     4.9220    -0.7040 O.3   1 <1>  -0.3620 
 16 C       -1.2680     5.4590     0.9210 C.ar  1 <1>  -0.1500 
 17 C       -4.1140    -3.6920    -0.6110 C.3   1 <1>   0.3430 
 18 C       -3.0320    -3.4760     1.5980 C.3   1 <1>   0.2630 
 19 C       -6.3740    -1.0760     0.5020 C.2   1 <1>   0.9060 
 20 C       -5.2830    -1.7100    -1.7060 C.3   1 <1>  -0.1600 
 21 C        0.8470     6.2820    -0.8260 C.3   1 <1>   0.1810 
 22 C       -5.3060    -3.2250    -1.4510 C.3   1 <1>  -0.1600 
 23 O       -6.4280    -2.0330     1.2930 O.co2 1 <1>  -0.9000 
 24 O       -7.2840    -0.2520     0.4260 O.co2 1 <1>  -0.9000 
 25 C        2.0040     6.4470    -1.8060 C.2   1 <1>   0.5690 
 26 O        2.3560     7.5560    -2.1150 O.2   1 <1>  -0.5700 
 27 N        2.6360     5.3730    -2.3220 N.am  1 <1>  -0.8000 
 28 H       -2.8250    -0.9330     2.2100 H     1 <1>   0.0800 
 29 H       -4.5380    -0.6240     2.3070 H     1 <1>   0.0800 
 30 H       -5.4590     1.4480     1.1660 H     1 <1>   0.0800 
 31 H       -4.3800     2.4410     0.2240 H     1 <1>   0.0800 
 32 H       -0.2850     2.5190    -0.3970 H     1 <1>   0.1500 
 33 H       -3.3230     3.2910     2.4770 H     1 <1>   0.1500 
 34 H       -3.0250    -1.2920    -0.2250 H     1 <1>   0.0800 
 35 H       -5.7530     0.9850    -1.2220 H     1 <1>   0.0800 
 36 H       -4.0550     0.6840    -1.4090 H     1 <1>   0.0800 
 37 H       -2.8210     5.6850     2.3700 H     1 <1>   0.1500 
 38 H       -4.9920    -2.9490     1.0850 H     1 <1>   0.4500 
 39 H       -1.0690     6.5140     0.8970 H     1 <1>   0.1500 
 40 H       -3.2050    -3.5640    -1.1750 H     1 <1>   0.0800 
 41 H       -4.2330    -4.7390    -0.3850 H     1 <1>   0.0800 
 42 H       -2.0340    -3.3270     1.2200 H     1 <1>   0.0800 
 43 H       -3.2040    -4.5310     1.7330 H     1 <1>   0.0800 
 44 H       -3.1190    -2.9940     2.5570 H     1 <1>   0.0800 
 45 H       -6.1980    -1.4140    -2.1920 H     1 <1>   0.0800 
 46 H       -4.4670    -1.4790    -2.3700 H     1 <1>   0.0800 
 47 H        0.0070     6.8530    -1.1760 H     1 <1>   0.0800 
 48 H        1.1550     6.6340     0.1410 H     1 <1>   0.0800 
 49 H       -5.3010    -3.7450    -2.3920 H     1 <1>   0.0800 
 50 H       -6.2180    -3.4950    -0.9440 H     1 <1>   0.0800 
 51 H        3.4060     5.4930    -2.9800 H     1 <1>   0.3700 
 52 H        2.3520     4.4190    -2.0940 H     1 <1>   0.3700 
@<TRIPOS>BOND
  1   1   2  2   
  2   2   3  am  
  3   2   4  1   
  4   3   5  1   
  5   3   6  1   
  6   4   7  ar  
  7   4   8  ar  
  8   5   9  1   
  9   5  28  1   
 10   5  29  1   
 11   6  10  1   
 12   6  30  1   
 13   6  31  1   
 14   7  11  ar  
 15   7  32  1   
 16   8  12  ar  
 17   8  33  1   
 18   9  13  1   
 19   9  14  1   
 20   9  34  1   
 21  10  14  1   
 22  10  35  1   
 23  10  36  1   
 24  11  15  1   
 25  11  16  ar  
 26  12  16  ar  
 27  12  37  1   
 28  13  17  1   
 29  13  18  1   
 30  13  38  1   
 31  14  19  1   
 32  14  20  1   
 33  15  21  1   
 34  16  39  1   
 35  17  22  1   
 36  17  40  1   
 37  17  41  1   
 38  18  42  1   
 39  18  43  1   
 40  18  44  1   
 41  19  23  ar  
 42  19  24  ar  
 43  20  22  1   
 44  20  45  1   
 45  20  46  1   
 46  21  25  1   
 47  21  47  1   
 48  21  48  1   
 49  22  49  1   
 50  22  50  1   
 51  25  26  2   
 52  25  27  am  
 53  27  51  1   
 54  27  52  1   
@<TRIPOS>SUBSTRUCTURE
  1 ****   2 GROUP 4 **** **** 0

# MOE 2024.06 (io_trps.svl 2023.06)
