@<TRIPOS>MOLECULE
NONAME
50 52 1 0 0 
SMALL
USER_CHARGES


@<TRIPOS>ATOM
  1 O        0.7260    -1.7420     0.7340 O.3   1 <1>  -0.5600 
  2 C        0.0690    -2.2190    -0.4180 C.3   1 <1>   0.2800 
  3 C        0.5100    -0.4040     1.0930 C.3   1 <1>   0.1200 
  4 C       -1.3860    -1.6850    -0.4790 C.3   1 <1>  -0.1600 
  5 C        0.1020    -3.7590    -0.3150 C.3   1 <1>  -0.1600 
  6 C        0.8930    -1.8170    -1.6550 C.3   1 <1>  -0.1600 
  7 C       -0.9620    -0.1700     1.4670 C.3   1 <1>  -0.1600 
  8 C       -1.9150    -1.2240     0.8840 C.3   1 <1>   0.2800 
  9 C        1.4750    -4.3860    -0.5970 C.3   1 <1>   0.3430 
 10 C        2.3470    -2.3120    -1.6050 C.3   1 <1>   0.3430 
 11 O       -1.8790    -2.3110     1.7380 O.3   1 <1>  -0.6800 
 12 C       -3.3740    -0.7220     0.8050 C.3   1 <1>   0.1200 
 13 N        2.5320    -3.3440    -0.5410 N.4   1 <1>  -0.9590 
 14 O       -3.8610    -0.4450     2.0760 O.3   1 <1>  -0.6800 
 15 C        3.9030    -3.9150    -0.4590 C.3   1 <1>   0.3430 
 16 C        4.9020    -2.8260    -0.0760 C.3   1 <1>  -0.1600 
 17 C        6.2820    -3.4180     0.2590 C.3   1 <1>   0.0960 
 18 N        7.2190    -2.3480     0.6530 N.pl3 1 <1>   0.3140 
 19 N        6.9360    -1.4990     1.6560 N.2   1 <1>  -0.7070 
 20 C        8.4160    -2.0710     0.1000 C.2   1 <1>  -0.3020 
 21 C        7.9620    -0.7060     1.7220 C.2   1 <1>   0.1390 
 22 C        8.9240    -1.0150     0.7680 C.2   1 <1>  -0.1500 
 23 H        0.7970     0.2260     0.2690 H     1 <1>   0.0800 
 24 H        1.1460    -0.1760     1.9320 H     1 <1>   0.0800 
 25 H       -2.0500    -2.4210    -0.8970 H     1 <1>   0.0800 
 26 H       -1.4230    -0.8420    -1.1450 H     1 <1>   0.0800 
 27 H       -0.5890    -4.1840    -1.0200 H     1 <1>   0.0800 
 28 H       -0.2340    -4.0670     0.6580 H     1 <1>   0.0800 
 29 H        0.8870    -0.7510    -1.7900 H     1 <1>   0.0800 
 30 H        0.4270    -2.2330    -2.5310 H     1 <1>   0.0800 
 31 H       -1.2380     0.8010     1.0960 H     1 <1>   0.0800 
 32 H       -1.0730    -0.1240     2.5360 H     1 <1>   0.0800 
 33 H        1.4710    -4.8420    -1.5740 H     1 <1>   0.0800 
 34 H        1.6690    -5.1550     0.1340 H     1 <1>   0.0800 
 35 H        2.9880    -1.4710    -1.3930 H     1 <1>   0.0800 
 36 H        2.6260    -2.7120    -2.5660 H     1 <1>   0.0800 
 37 H       -0.9400    -2.4690     1.9650 H     1 <1>   0.4000 
 38 H       -4.0040    -1.4750     0.3650 H     1 <1>   0.0800 
 39 H       -3.4440     0.1770     0.2190 H     1 <1>   0.0800 
 40 H        2.3280    -2.8300     0.3410 H     1 <1>   0.4500 
 41 H       -3.6370    -1.2060     2.6540 H     1 <1>   0.4000 
 42 H        4.1790    -4.3580    -1.4030 H     1 <1>   0.0800 
 43 H        3.9210    -4.6850     0.2960 H     1 <1>   0.0800 
 44 H        4.5360    -2.3050     0.7930 H     1 <1>   0.0800 
 45 H        5.0200    -2.1260    -0.8840 H     1 <1>   0.0800 
 46 H        6.6910    -3.9350    -0.5900 H     1 <1>   0.0800 
 47 H        6.2070    -4.1040     1.0830 H     1 <1>   0.0800 
 48 H        8.8380    -2.6260    -0.7180 H     1 <1>   0.1500 
 49 H        8.0490     0.0960     2.4360 H     1 <1>   0.1500 
 50 H        9.8600    -0.5040     0.6230 H     1 <1>   0.1500 
@<TRIPOS>BOND
  1   1   2  1   
  2   1   3  1   
  3   2   4  1   
  4   2   5  1   
  5   2   6  1   
  6   3   7  1   
  7   3  23  1   
  8   3  24  1   
  9   4   8  1   
 10   4  25  1   
 11   4  26  1   
 12   5   9  1   
 13   5  27  1   
 14   5  28  1   
 15   6  10  1   
 16   6  29  1   
 17   6  30  1   
 18   7   8  1   
 19   7  31  1   
 20   7  32  1   
 21   8  11  1   
 22   8  12  1   
 23   9  13  1   
 24   9  33  1   
 25   9  34  1   
 26  10  13  1   
 27  10  35  1   
 28  10  36  1   
 29  11  37  1   
 30  12  14  1   
 31  12  38  1   
 32  12  39  1   
 33  13  15  1   
 34  13  40  1   
 35  14  41  1   
 36  15  16  1   
 37  15  42  1   
 38  15  43  1   
 39  16  17  1   
 40  16  44  1   
 41  16  45  1   
 42  17  18  1   
 43  17  46  1   
 44  17  47  1   
 45  18  19  1   
 46  18  20  1   
 47  19  21  2   
 48  20  22  2   
 49  20  48  1   
 50  21  22  1   
 51  21  49  1   
 52  22  50  1   
@<TRIPOS>SUBSTRUCTURE
  1 ****   1 GROUP 4 **** **** 0

# MOE 2024.06 (io_trps.svl 2023.06)
