@<TRIPOS>MOLECULE
NONAME
52 54 1 0 0 
SMALL
USER_CHARGES


@<TRIPOS>ATOM
  1 O        0.9440     0.0340    -1.5860 O.2   1 <1>  -0.5700 
  2 C        1.6510    -0.4540    -0.7240 C.2   1 <1>   0.7150 
  3 N        2.3650     0.4120     0.0960 N.am  1 <1>  -0.6600 
  4 C        1.7210    -1.8970    -0.6050 C.2   1 <1>   0.0550 
  5 C        3.0460    -0.0340     1.3470 C.3   1 <1>   0.1400 
  6 C        2.2960     1.8900    -0.1120 C.3   1 <1>   0.1400 
  7 O        2.8440    -2.5150    -0.2490 O.3   1 <1>  -0.2800 
  8 C        0.7720    -2.8310    -0.8300 C.2   1 <1>   0.0460 
  9 C        4.5370    -0.3260     1.0890 C.3   1 <1>   0.3430 
 10 C        3.6580     2.5680     0.0690 C.3   1 <1>  -0.1600 
 11 C        2.4870    -3.7850    -0.2870 C.2   1 <1>   0.2980 
 12 N        1.2760    -4.0380    -0.6150 N.2   1 <1>  -0.5650 
 13 C       -0.6750    -2.6950    -1.2610 C.3   1 <1>  -0.0590 
 14 N        5.3540     0.8810     0.7260 N.4   1 <1>  -0.9590 
 15 C        4.8330     1.7120    -0.4040 C.3   1 <1>   0.3430 
 16 C        3.5480    -4.8220     0.0620 C.3   1 <1>   0.0200 
 17 C        6.7900     0.5450     0.5100 C.3   1 <1>   0.5230 
 18 C        3.0420    -6.2710     0.0120 C.3   1 <1>  -0.2400 
 19 C        7.6240     1.7710     0.8460 C.2   1 <1>   0.0060 
 20 N        7.1710     2.7550     1.5490 N.2   1 <1>  -0.3380 
 21 N        8.8930     1.9800     0.4680 N.pl3 1 <1>   0.0480 
 22 N        8.1460     3.6510     1.6410 N.2   1 <1>  -0.3380 
 23 C        9.1550     3.1760     0.9980 C.2   1 <1>   0.0360 
 24 C        9.8210     1.1440    -0.3270 C.3   1 <1>   0.0960 
 25 C        9.5200     1.2670    -1.8240 C.3   1 <1>  -0.2400 
 26 H        2.5710    -0.9270     1.7150 H     1 <1>   0.0800 
 27 H        2.9410     0.7130     2.1140 H     1 <1>   0.0800 
 28 H        1.5780     2.3150     0.5700 H     1 <1>   0.0800 
 29 H        1.9490     2.1000    -1.1110 H     1 <1>   0.0800 
 30 H        4.6050    -1.0560     0.3000 H     1 <1>   0.0800 
 31 H        4.9480    -0.7720     1.9800 H     1 <1>   0.0800 
 32 H        3.7960     2.8750     1.0900 H     1 <1>   0.0800 
 33 H        3.6420     3.4690    -0.5180 H     1 <1>   0.0800 
 34 H       -0.9650    -1.6650    -1.3400 H     1 <1>   0.0800 
 35 H       -1.3120    -3.1800    -0.5440 H     1 <1>   0.0800 
 36 H       -0.8100    -3.1670    -2.2160 H     1 <1>   0.0800 
 37 H        5.3940     1.5280     1.5330 H     1 <1>   0.4500 
 38 H        5.6130     2.3790    -0.7370 H     1 <1>   0.0800 
 39 H        4.5370     1.0920    -1.2350 H     1 <1>   0.0800 
 40 H        3.9140    -4.6150     1.0500 H     1 <1>   0.0800 
 41 H        4.3640    -4.7140    -0.6290 H     1 <1>   0.0800 
 42 H        6.9550     0.2420    -0.5100 H     1 <1>   0.0800 
 43 H        7.0840    -0.2590     1.1650 H     1 <1>   0.0800 
 44 H        2.2310    -6.4060     0.7060 H     1 <1>   0.0800 
 45 H        3.8330    -6.9540     0.2660 H     1 <1>   0.0800 
 46 H        2.6860    -6.5060    -0.9760 H     1 <1>   0.0800 
 47 H       10.1030     3.6760     0.8950 H     1 <1>   0.1500 
 48 H        9.7390     0.1200    -0.0090 H     1 <1>   0.0800 
 49 H       10.8290     1.4710    -0.1340 H     1 <1>   0.0800 
 50 H        8.5310     0.9160    -2.0560 H     1 <1>   0.0800 
 51 H       10.2260     0.6760    -2.3820 H     1 <1>   0.0800 
 52 H        9.6190     2.2900    -2.1430 H     1 <1>   0.0800 
@<TRIPOS>BOND
  1   1   2  2   
  2   2   3  am  
  3   2   4  1   
  4   3   5  1   
  5   3   6  1   
  6   4   7  1   
  7   4   8  2   
  8   5   9  1   
  9   5  26  1   
 10   5  27  1   
 11   6  10  1   
 12   6  28  1   
 13   6  29  1   
 14   7  11  1   
 15   8  12  1   
 16   8  13  1   
 17   9  14  1   
 18   9  30  1   
 19   9  31  1   
 20  10  15  1   
 21  10  32  1   
 22  10  33  1   
 23  11  12  2   
 24  11  16  1   
 25  13  34  1   
 26  13  35  1   
 27  13  36  1   
 28  14  15  1   
 29  14  17  1   
 30  14  37  1   
 31  15  38  1   
 32  15  39  1   
 33  16  18  1   
 34  16  40  1   
 35  16  41  1   
 36  17  19  1   
 37  17  42  1   
 38  17  43  1   
 39  18  44  1   
 40  18  45  1   
 41  18  46  1   
 42  19  20  2   
 43  19  21  1   
 44  20  22  1   
 45  21  23  1   
 46  21  24  1   
 47  22  23  2   
 48  23  47  1   
 49  24  25  1   
 50  24  48  1   
 51  24  49  1   
 52  25  50  1   
 53  25  51  1   
 54  25  52  1   
@<TRIPOS>SUBSTRUCTURE
  1 ****   9 GROUP 4 **** **** 0

# MOE 2024.06 (io_trps.svl 2023.06)
