@<TRIPOS>MOLECULE
NONAME
51 54 1 0 0 
SMALL
USER_CHARGES


@<TRIPOS>ATOM
  1 O        1.4760    -0.8020    -2.2750 O.2   1 <1>  -0.5700 
  2 C        1.6970    -1.1020    -1.1240 C.2   1 <1>   0.5690 
  3 N        2.2140    -0.2140    -0.1990 N.am  1 <1>  -0.4770 
  4 C        1.3840    -2.5540    -0.7230 C.3   1 <1>   0.1710 
  5 C        2.6400     1.1080    -0.3850 C.ar  1 <1>   0.1170 
  6 C        2.3470    -0.5550     1.2460 C.3   1 <1>   0.1400 
  7 N        0.3490    -2.7250     0.3370 N.3   1 <1>  -0.8100 
  8 C        3.0870     1.6660     0.7930 C.ar  1 <1>  -0.1430 
  9 C        2.6640     1.8710    -1.5470 C.ar  1 <1>  -0.1500 
 10 C        2.9780     0.6730     1.9200 C.3   1 <1>  -0.0170 
 11 C       -0.9520    -2.1280    -0.0540 C.3   1 <1>   0.1100 
 12 C        0.0890    -4.1410     0.6230 C.3   1 <1>   0.1100 
 13 C        3.5560     2.9650     0.8510 C.ar  1 <1>  -0.1500 
 14 C        3.1320     3.1740    -1.5050 C.ar  1 <1>  -0.1500 
 15 C       -2.0000    -3.2520    -0.0890 C.3   1 <1>   0.2000 
 16 C       -1.1500    -4.5140    -0.1880 C.3   1 <1>  -0.0800 
 17 C        3.5760     3.7210    -0.3100 C.ar  1 <1>  -0.1500 
 18 O       -2.7240    -3.2820     1.1100 O.3   1 <1>  -0.5600 
 19 C       -1.8370    -5.8010     0.3020 C.3   1 <1>   0.0200 
 20 C       -3.7980    -2.3970     1.1750 C.3   1 <1>   0.0400 
 21 C       -1.0110    -7.0490     0.0350 C.2   1 <1>  -0.0400 
 22 O       -1.3970    -8.1830     0.5570 O.3   1 <1>  -0.0190 
 23 C        0.1080    -7.2850    -0.6690 C.2   1 <1>  -0.1500 
 24 N       -0.5970    -9.1610     0.2440 N.2   1 <1>  -0.4100 
 25 C        0.3200    -8.6490    -0.4940 C.2   1 <1>   0.1080 
 26 C        1.4670    -9.4340    -1.0890 C.3   1 <1>  -0.0590 
 27 H        2.3020    -3.0020    -0.3880 H     1 <1>   0.0800 
 28 H        1.0730    -3.0790    -1.6090 H     1 <1>   0.0800 
 29 H        1.3730    -0.7440     1.6630 H     1 <1>   0.0800 
 30 H        2.9700    -1.4230     1.3700 H     1 <1>   0.0800 
 31 H        2.3220     1.4550    -2.4760 H     1 <1>   0.1500 
 32 H        2.3460     1.0440     2.7070 H     1 <1>   0.0800 
 33 H        3.9490     0.4340     2.3140 H     1 <1>   0.0800 
 34 H       -1.2280    -1.3630     0.6490 H     1 <1>   0.0800 
 35 H       -0.8870    -1.6850    -1.0330 H     1 <1>   0.0800 
 36 H        0.9360    -4.7640     0.3940 H     1 <1>   0.0800 
 37 H       -0.1340    -4.2350     1.6730 H     1 <1>   0.0800 
 38 H        3.9000     3.3830     1.7810 H     1 <1>   0.1500 
 39 H        3.1490     3.7630    -2.4040 H     1 <1>   0.1500 
 40 H       -2.6840    -3.1600    -0.9150 H     1 <1>   0.0800 
 41 H       -0.8600    -4.6390    -1.2160 H     1 <1>   0.0800 
 42 H        3.9380     4.7340    -0.2850 H     1 <1>   0.1500 
 43 H       -2.7870    -5.9100    -0.1900 H     1 <1>   0.0800 
 44 H       -2.0240    -5.7330     1.3590 H     1 <1>   0.0800 
 45 H       -4.2620    -2.5080     2.1390 H     1 <1>   0.0800 
 46 H       -4.5060    -2.6420     0.4020 H     1 <1>   0.0800 
 47 H       -3.4440    -1.3880     1.0600 H     1 <1>   0.0800 
 48 H        0.7220    -6.6190    -1.2450 H     1 <1>   0.1500 
 49 H        2.4000    -8.9580    -0.8510 H     1 <1>   0.0800 
 50 H        1.3560    -9.4870    -2.1570 H     1 <1>   0.0800 
 51 H        1.4740   -10.4320    -0.6900 H     1 <1>   0.0800 
@<TRIPOS>BOND
  1   1   2  2   
  2   2   3  am  
  3   2   4  1   
  4   3   5  1   
  5   3   6  1   
  6   4   7  1   
  7   4  27  1   
  8   4  28  1   
  9   5   8  ar  
 10   5   9  ar  
 11   6  10  1   
 12   6  29  1   
 13   6  30  1   
 14   7  11  1   
 15   7  12  1   
 16   8  10  1   
 17   8  13  ar  
 18   9  14  ar  
 19   9  31  1   
 20  10  32  1   
 21  10  33  1   
 22  11  15  1   
 23  11  34  1   
 24  11  35  1   
 25  12  16  1   
 26  12  36  1   
 27  12  37  1   
 28  13  17  ar  
 29  13  38  1   
 30  14  17  ar  
 31  14  39  1   
 32  15  16  1   
 33  15  18  1   
 34  15  40  1   
 35  16  19  1   
 36  16  41  1   
 37  17  42  1   
 38  18  20  1   
 39  19  21  1   
 40  19  43  1   
 41  19  44  1   
 42  20  45  1   
 43  20  46  1   
 44  20  47  1   
 45  21  22  1   
 46  21  23  2   
 47  22  24  1   
 48  23  25  1   
 49  23  48  1   
 50  24  25  2   
 51  25  26  1   
 52  26  49  1   
 53  26  50  1   
 54  26  51  1   
@<TRIPOS>SUBSTRUCTURE
  1 ****   7 GROUP 4 **** **** 0

# MOE 2024.06 (io_trps.svl 2023.06)
