@<TRIPOS>MOLECULE
NONAME
48 51 1 0 0 
SMALL
USER_CHARGES


@<TRIPOS>ATOM
  1 O        0.0990     1.2480     1.0410 O.2   1 <1>  -0.5700 
  2 C       -0.0050     2.2830     0.4350 C.2   1 <1>   0.5690 
  3 N        0.1580     3.4680     1.0670 N.am  1 <1>  -0.7300 
  4 C       -0.3440     2.2710    -1.0600 C.3   1 <1>   0.1810 
  5 C        0.0980     4.7780     0.3730 C.3   1 <1>   0.3640 
  6 O       -0.0090     3.4810    -1.7070 O.3   1 <1>  -0.5600 
  7 C       -0.6940     5.7690     1.2150 C.ar  1 <1>  -0.1440 
  8 C       -0.4950     4.6430    -1.0510 C.3   1 <1>   0.2610 
  9 C       -1.8590     5.3990     1.8750 C.ar  1 <1>   0.1600 
 10 C       -0.2640     7.0780     1.3230 C.ar  1 <1>  -0.1500 
 11 C       -0.2350     5.9280    -1.8500 C.2   1 <1>   0.5690 
 12 N       -2.6040     6.2070     2.6120 N.ar  1 <1>  -0.6200 
 13 C       -1.0320     7.9350     2.0780 C.ar  1 <1>  -0.1500 
 14 O       -1.2070     6.5890    -2.1340 O.2   1 <1>  -0.5700 
 15 N        1.0260     6.3630    -2.1940 N.am  1 <1>  -0.6600 
 16 C       -2.1760     7.4560     2.6920 C.ar  1 <1>   0.1600 
 17 C        1.2110     7.7770    -2.6670 C.3   1 <1>   0.3210 
 18 C        2.2890     5.5680    -2.1190 C.3   1 <1>   0.0600 
 19 C        1.5480     8.7250    -1.5150 C.2   1 <1>   0.3350 
 20 N        0.8130     9.6930    -1.1310 N.2   1 <1>  -0.4100 
 21 N        2.6650     8.6040    -0.8020 N.2   1 <1>  -0.5650 
 22 O        1.4140    10.2620    -0.1320 O.3   1 <1>  -0.0190 
 23 C        2.5150     9.5670     0.0170 C.2   1 <1>   0.3170 
 24 C        3.4880     9.9420     1.1260 C.3   1 <1>   0.1610 
 25 C        2.8610    10.0310     2.5430 C.3   1 <1>   0.0000 
 26 C        3.8140    11.4550     1.2550 C.3   1 <1>   0.0000 
 27 C        3.7960    11.2440     2.7920 C.3   1 <1>   0.0000 
 28 H        0.4010     3.4640     2.0590 H     1 <1>   0.3700 
 29 H       -1.3970     2.0980    -1.1890 H     1 <1>   0.0800 
 30 H        0.1990     1.4800    -1.5430 H     1 <1>   0.0800 
 31 H        1.1060     5.1430     0.2910 H     1 <1>   0.0800 
 32 H       -1.5620     4.5330    -0.9690 H     1 <1>   0.0800 
 33 H       -2.2050     4.3820     1.7950 H     1 <1>   0.1500 
 34 H        0.6280     7.4280     0.8330 H     1 <1>   0.1500 
 35 H       -0.7520     8.9680     2.1850 H     1 <1>   0.1500 
 36 H       -2.7700     8.1360     3.2790 H     1 <1>   0.1500 
 37 H        2.0050     7.8140    -3.3910 H     1 <1>   0.0800 
 38 H        0.3170     8.1270    -3.1520 H     1 <1>   0.0800 
 39 H        2.7700     5.5640    -3.0820 H     1 <1>   0.0800 
 40 H        2.1070     4.5490    -1.8360 H     1 <1>   0.0800 
 41 H        2.9580     6.0090    -1.4000 H     1 <1>   0.0800 
 42 H        4.3810     9.3400     1.1250 H     1 <1>   0.0000 
 43 H        1.8210    10.3090     2.5380 H     1 <1>   0.0000 
 44 H        3.0760     9.1820     3.1670 H     1 <1>   0.0000 
 45 H        4.7800    11.7250     0.8660 H     1 <1>   0.0000 
 46 H        3.0200    12.1000     0.9210 H     1 <1>   0.0000 
 47 H        4.7560    10.9550     3.1830 H     1 <1>   0.0000 
 48 H        3.3310    12.0480     3.3360 H     1 <1>   0.0000 
@<TRIPOS>BOND
  1   1   2  2   
  2   2   3  am  
  3   2   4  1   
  4   3   5  1   
  5   3  28  1   
  6   4   6  1   
  7   4  29  1   
  8   4  30  1   
  9   5   7  1   
 10   5   8  1   
 11   5  31  1   
 12   6   8  1   
 13   7   9  ar  
 14   7  10  ar  
 15   8  11  1   
 16   8  32  1   
 17   9  12  ar  
 18   9  33  1   
 19  10  13  ar  
 20  10  34  1   
 21  11  14  2   
 22  11  15  am  
 23  12  16  ar  
 24  13  16  ar  
 25  13  35  1   
 26  15  17  1   
 27  15  18  1   
 28  16  36  1   
 29  17  19  1   
 30  17  37  1   
 31  17  38  1   
 32  18  39  1   
 33  18  40  1   
 34  18  41  1   
 35  19  20  2   
 36  19  21  1   
 37  20  22  1   
 38  21  23  2   
 39  22  23  1   
 40  23  24  1   
 41  24  25  1   
 42  24  26  1   
 43  24  42  1   
 44  25  27  1   
 45  25  43  1   
 46  25  44  1   
 47  26  27  1   
 48  26  45  1   
 49  26  46  1   
 50  27  47  1   
 51  27  48  1   
@<TRIPOS>SUBSTRUCTURE
  1 ****  10 GROUP 4 **** **** 0

# MOE 2024.06 (io_trps.svl 2023.06)
