@<TRIPOS>MOLECULE
NONAME
50 52 1 0 0 
SMALL
USER_CHARGES


@<TRIPOS>ATOM
  1 O       -2.1310    -1.6290     2.0110 O.co2 1 <1>  -0.9000 
  2 C       -3.2810    -2.0480     2.1640 C.2   1 <1>   0.9060 
  3 O       -3.8910    -2.0060     3.2380 O.co2 1 <1>  -0.9000 
  4 C       -4.0460    -2.5290     0.9270 C.3   1 <1>   0.2370 
  5 N       -4.8850    -1.4700     0.2350 N.4   1 <1>  -0.9590 
  6 C       -5.7960    -0.8410     1.2400 C.3   1 <1>   0.3430 
  7 C       -4.0040    -0.4530    -0.3990 C.3   1 <1>   0.3430 
  8 C       -6.8940     0.0600     0.6180 C.3   1 <1>   0.1900 
  9 C       -4.7710     0.5240    -1.3110 C.3   1 <1>  -0.0800 
 10 N       -7.1890    -0.1770    -0.8290 N.3   1 <1>  -0.8100 
 11 C       -6.5930     1.5450     0.8850 C.3   1 <1>   0.1200 
 12 C       -4.8880     1.9280    -0.6990 C.3   1 <1>   0.1200 
 13 C       -6.1160    -0.0080    -1.8380 C.3   1 <1>   0.1100 
 14 C       -8.1100    -1.2970    -1.1290 C.3   1 <1>   0.2900 
 15 O       -5.2590     1.8680     0.6370 O.3   1 <1>  -0.5600 
 16 C       -7.5280    -2.6650    -0.7620 C.2   1 <1>   0.0060 
 17 N       -6.5900    -3.2460    -1.4450 N.2   1 <1>  -0.5650 
 18 N       -7.9380    -3.3920     0.3110 N.pl3 1 <1>   0.0480 
 19 C       -6.3860    -4.4100    -0.8030 C.2   1 <1>   0.0770 
 20 C       -7.1920    -4.5110     0.2730 C.2   1 <1>  -0.3020 
 21 C       -8.9820    -3.0940     1.3120 C.3   1 <1>   0.0960 
 22 C      -10.3350    -3.5920     0.8160 C.3   1 <1>   0.1200 
 23 O      -11.3000    -3.1010     1.6850 O.3   1 <1>  -0.5600 
 24 C      -12.5960    -3.5110     1.3830 C.3   1 <1>   0.0400 
 25 H       -4.6830    -3.3310     1.2490 H     1 <1>   0.0800 
 26 H       -3.3250    -2.9280     0.2380 H     1 <1>   0.0800 
 27 H       -5.4870    -1.9160    -0.4860 H     1 <1>   0.4500 
 28 H       -6.2780    -1.6230     1.8030 H     1 <1>   0.0800 
 29 H       -5.2170    -0.2660     1.9460 H     1 <1>   0.0800 
 30 H       -3.4760     0.0960     0.3670 H     1 <1>   0.0800 
 31 H       -3.2650    -0.9670    -0.9920 H     1 <1>   0.0800 
 32 H       -7.8000    -0.1340     1.1630 H     1 <1>   0.0800 
 33 H       -4.1520     0.6530    -2.1800 H     1 <1>   0.0800 
 34 H       -6.7640     1.7550     1.9270 H     1 <1>   0.0800 
 35 H       -7.2340     2.1830     0.3020 H     1 <1>   0.0800 
 36 H       -5.5920     2.5410    -1.2370 H     1 <1>   0.0800 
 37 H       -3.9270     2.4130    -0.7270 H     1 <1>   0.0800 
 38 H       -5.9320    -0.9430    -2.3380 H     1 <1>   0.0800 
 39 H       -6.4820     0.6710    -2.5900 H     1 <1>   0.0800 
 40 H       -9.0400    -1.1360    -0.6140 H     1 <1>   0.0800 
 41 H       -8.3320    -1.2940    -2.1830 H     1 <1>   0.0800 
 42 H       -5.6610    -5.1270    -1.1540 H     1 <1>   0.1500 
 43 H       -7.2760    -5.3060     0.9920 H     1 <1>   0.1500 
 44 H       -8.7320    -3.5830     2.2360 H     1 <1>   0.0800 
 45 H       -9.0230    -2.0350     1.4780 H     1 <1>   0.0800 
 46 H      -10.3700    -4.6680     0.8250 H     1 <1>   0.0800 
 47 H      -10.5460    -3.2170    -0.1710 H     1 <1>   0.0800 
 48 H      -13.2630    -3.0780     2.1080 H     1 <1>   0.0800 
 49 H      -12.6530    -4.5850     1.4360 H     1 <1>   0.0800 
 50 H      -12.8610    -3.1650     0.3980 H     1 <1>   0.0800 
@<TRIPOS>BOND
  1   1   2  ar  
  2   2   3  ar  
  3   2   4  1   
  4   4   5  1   
  5   4  25  1   
  6   4  26  1   
  7   5   6  1   
  8   5   7  1   
  9   5  27  1   
 10   6   8  1   
 11   6  28  1   
 12   6  29  1   
 13   7   9  1   
 14   7  30  1   
 15   7  31  1   
 16   8  10  1   
 17   8  11  1   
 18   8  32  1   
 19   9  12  1   
 20   9  13  1   
 21   9  33  1   
 22  10  13  1   
 23  10  14  1   
 24  11  15  1   
 25  11  34  1   
 26  11  35  1   
 27  12  15  1   
 28  12  36  1   
 29  12  37  1   
 30  13  38  1   
 31  13  39  1   
 32  14  16  1   
 33  14  40  1   
 34  14  41  1   
 35  16  17  2   
 36  16  18  1   
 37  17  19  1   
 38  18  20  1   
 39  18  21  1   
 40  19  20  2   
 41  19  42  1   
 42  20  43  1   
 43  21  22  1   
 44  21  44  1   
 45  21  45  1   
 46  22  23  1   
 47  22  46  1   
 48  22  47  1   
 49  23  24  1   
 50  24  48  1   
 51  24  49  1   
 52  24  50  1   
@<TRIPOS>SUBSTRUCTURE
  1 ****   6 GROUP 4 **** **** 0

# MOE 2024.06 (io_trps.svl 2023.06)
