@<TRIPOS>MOLECULE
NONAME
39 41 1 0 0 
SMALL
USER_CHARGES


@<TRIPOS>ATOM
  1 O       -2.0770     0.5760    -2.5090 O.2   1 <1>  -0.5700 
  2 C       -1.5770     0.4370    -1.4190 C.2   1 <1>   0.5690 
  3 N       -1.4280    -0.7860    -0.8570 N.am  1 <1>  -0.7300 
  4 C       -1.1080     1.6610    -0.6520 C.3   1 <1>  -0.0040 
  5 C       -1.8390    -2.0710    -1.4650 C.3   1 <1>   0.2200 
  6 C       -1.4020     1.5790     0.8570 C.3   1 <1>  -0.1950 
  7 C       -3.1140    -2.6010    -0.8230 C.3   1 <1>  -0.0800 
  8 C       -0.8480    -3.1490    -1.0470 C.3   1 <1>   0.1200 
  9 C       -0.6220     2.4000     1.8320 C.3   1 <1>  -0.2000 
 10 C       -0.4510     0.9080     1.7980 C.3   1 <1>  -0.2000 
 11 C       -2.5970    -3.3300     0.4230 C.3   1 <1>   0.1200 
 12 C       -4.2090    -1.5570    -0.5370 C.3   1 <1>  -0.0170 
 13 O       -1.2200    -3.5010     0.2510 O.3   1 <1>  -0.5600 
 14 C       -5.4620    -2.2210     0.0130 C.ar  1 <1>  -0.1440 
 15 C       -5.7420    -2.2540     1.3640 C.ar  1 <1>  -0.1500 
 16 C       -6.3840    -2.8270    -0.8160 C.ar  1 <1>  -0.1500 
 17 C       -6.8950    -2.8800     1.8080 C.ar  1 <1>   0.1600 
 18 C       -7.5070    -3.4260    -0.2690 C.ar  1 <1>   0.1600 
 19 N       -7.7840    -3.4690     1.0240 N.ar  1 <1>  -0.6200 
 20 H       -1.0520    -0.8660     0.0920 H     1 <1>   0.3700 
 21 H       -0.0540     1.7790    -0.8190 H     1 <1>   0.0800 
 22 H       -1.6030     2.5250    -1.0560 H     1 <1>   0.0800 
 23 H       -1.9180    -1.9770    -2.5350 H     1 <1>   0.0800 
 24 H       -2.4550     1.4660     1.0570 H     1 <1>   0.1000 
 25 H       -3.5260    -3.3460    -1.4810 H     1 <1>   0.0800 
 26 H        0.1710    -2.8060    -1.0550 H     1 <1>   0.0800 
 27 H       -0.9490    -4.0220    -1.6680 H     1 <1>   0.0800 
 28 H        0.1840     3.0180     1.4760 H     1 <1>   0.1000 
 29 H       -1.1400     2.8430     2.6670 H     1 <1>   0.1000 
 30 H       -0.8460     0.3280     2.6150 H     1 <1>   0.1000 
 31 H        0.4830     0.5170     1.4300 H     1 <1>   0.1000 
 32 H       -3.0590    -4.2950     0.5410 H     1 <1>   0.0800 
 33 H       -2.7420    -2.7450     1.3150 H     1 <1>   0.0800 
 34 H       -4.4520    -1.0360    -1.4480 H     1 <1>   0.0800 
 35 H       -3.8570    -0.8240     0.1680 H     1 <1>   0.0800 
 36 H       -5.0780    -1.8000     2.0760 H     1 <1>   0.1500 
 37 H       -6.2400    -2.8390    -1.8800 H     1 <1>   0.1500 
 38 H       -7.0980    -2.8970     2.8660 H     1 <1>   0.1500 
 39 H       -8.2150    -3.8940    -0.9310 H     1 <1>   0.1500 
@<TRIPOS>BOND
  1   1   2  2   
  2   2   3  am  
  3   2   4  1   
  4   3   5  1   
  5   3  20  1   
  6   4   6  1   
  7   4  21  1   
  8   4  22  1   
  9   5   7  1   
 10   5   8  1   
 11   5  23  1   
 12   6   9  1   
 13   6  10  1   
 14   6  24  1   
 15   7  11  1   
 16   7  12  1   
 17   7  25  1   
 18   8  13  1   
 19   8  26  1   
 20   8  27  1   
 21   9  10  1   
 22   9  28  1   
 23   9  29  1   
 24  10  30  1   
 25  10  31  1   
 26  11  13  1   
 27  11  32  1   
 28  11  33  1   
 29  12  14  1   
 30  12  34  1   
 31  12  35  1   
 32  14  15  ar  
 33  14  16  ar  
 34  15  17  ar  
 35  15  36  1   
 36  16  18  ar  
 37  16  37  1   
 38  17  19  ar  
 39  17  38  1   
 40  18  19  ar  
 41  18  39  1   
@<TRIPOS>SUBSTRUCTURE
  1 ****  12 GROUP 4 **** **** 0

# MOE 2024.06 (io_trps.svl 2023.06)
