@<TRIPOS>MOLECULE
NONAME
55 57 1 0 0 
SMALL
USER_CHARGES


@<TRIPOS>ATOM
  1 O        0.7620    -0.0600     2.5130 O.2   1 <1>  -0.5700 
  2 C        1.7360    -0.6740     2.1460 C.2   1 <1>   0.5690 
  3 N        2.9970    -0.1370     2.2410 N.am  1 <1>  -0.6600 
  4 C        1.4860    -2.0640     1.5700 C.3   1 <1>  -0.0990 
  5 C        4.2700    -0.9060     2.1140 C.3   1 <1>   0.1400 
  6 C        3.1580     1.3100     2.5620 C.3   1 <1>   0.1400 
  7 C        0.5200    -2.0460     0.3680 C.3   1 <1>  -0.0800 
  8 C        4.7930    -0.9010     0.6690 C.3   1 <1>   0.1100 
  9 C        4.2820     1.9900     1.7670 C.3   1 <1>  -0.1600 
 10 C        0.2330    -3.4780    -0.1160 C.3   1 <1>   0.1200 
 11 C        1.0620    -1.1930    -0.7930 C.3   1 <1>  -0.1600 
 12 N        5.3670     0.3880     0.2360 N.3   1 <1>  -0.8100 
 13 C        4.4140     1.5130     0.3180 C.3   1 <1>   0.1100 
 14 O       -0.6220    -3.4500    -1.2190 O.3   1 <1>  -0.5600 
 15 C        0.1360    -1.3240    -2.0080 C.3   1 <1>  -0.1600 
 16 C        5.9090     0.2550    -1.1520 C.3   1 <1>   0.1710 
 17 C       -0.1160    -2.7980    -2.3430 C.3   1 <1>   0.1200 
 18 C        6.6740     1.4650    -1.7160 C.2   1 <1>   0.5690 
 19 O        6.2380     1.9880    -2.7170 O.2   1 <1>  -0.5700 
 20 N        7.8210     1.9190    -1.1200 N.am  1 <1>  -0.6600 
 21 C        8.6160     3.0380    -1.6620 C.3   1 <1>   0.1400 
 22 C        8.3910     1.4200     0.1500 C.3   1 <1>   0.1400 
 23 C        9.9040     3.0240    -0.8470 C.3   1 <1>  -0.1600 
 24 C        9.5050     2.4050     0.4910 C.3   1 <1>  -0.1600 
 25 H        1.0580    -2.6600     2.3540 H     1 <1>   0.0800 
 26 H        2.3990    -2.5340     1.2670 H     1 <1>   0.0800 
 27 H        4.1070    -1.9200     2.4320 H     1 <1>   0.0800 
 28 H        5.0190    -0.4930     2.7670 H     1 <1>   0.0800 
 29 H        3.3410     1.4200     3.6170 H     1 <1>   0.0800 
 30 H        2.2380     1.8230     2.3390 H     1 <1>   0.0800 
 31 H       -0.4160    -1.6230     0.6980 H     1 <1>   0.0800 
 32 H        4.0000    -1.1900     0.0030 H     1 <1>   0.0800 
 33 H        5.5640    -1.6490     0.6020 H     1 <1>   0.0800 
 34 H        5.2220     1.8720     2.2750 H     1 <1>   0.0800 
 35 H        4.0690     3.0430     1.7570 H     1 <1>   0.0800 
 36 H       -0.2560    -4.0450     0.6570 H     1 <1>   0.0800 
 37 H        1.1390    -3.9840    -0.4020 H     1 <1>   0.0800 
 38 H        2.0430    -1.5340    -1.0680 H     1 <1>   0.0800 
 39 H        1.1290    -0.1590    -0.5010 H     1 <1>   0.0800 
 40 H        4.7900     2.3430    -0.2560 H     1 <1>   0.0800 
 41 H        3.4560     1.2380    -0.0930 H     1 <1>   0.0800 
 42 H        0.5740    -0.8300    -2.8570 H     1 <1>   0.0800 
 43 H       -0.8070    -0.8500    -1.8000 H     1 <1>   0.0800 
 44 H        5.0970     0.0400    -1.8240 H     1 <1>   0.0800 
 45 H        6.5830    -0.5810    -1.1830 H     1 <1>   0.0800 
 46 H       -0.8460    -2.8860    -3.1290 H     1 <1>   0.0800 
 47 H        0.7900    -3.2910    -2.6470 H     1 <1>   0.0800 
 48 H        8.0760     3.9570    -1.5080 H     1 <1>   0.0800 
 49 H        8.8040     2.9020    -2.7140 H     1 <1>   0.0800 
 50 H        8.7920     0.4330    -0.0050 H     1 <1>   0.0800 
 51 H        7.6460     1.3950     0.9270 H     1 <1>   0.0800 
 52 H       10.3180     4.0110    -0.7370 H     1 <1>   0.0800 
 53 H       10.6220     2.3940    -1.3420 H     1 <1>   0.0800 
 54 H       10.3300     1.9220     0.9820 H     1 <1>   0.0800 
 55 H        9.1080     3.1660     1.1400 H     1 <1>   0.0800 
@<TRIPOS>BOND
  1   1   2  2   
  2   2   3  am  
  3   2   4  1   
  4   3   5  1   
  5   3   6  1   
  6   4   7  1   
  7   4  25  1   
  8   4  26  1   
  9   5   8  1   
 10   5  27  1   
 11   5  28  1   
 12   6   9  1   
 13   6  29  1   
 14   6  30  1   
 15   7  10  1   
 16   7  11  1   
 17   7  31  1   
 18   8  12  1   
 19   8  32  1   
 20   8  33  1   
 21   9  13  1   
 22   9  34  1   
 23   9  35  1   
 24  10  14  1   
 25  10  36  1   
 26  10  37  1   
 27  11  15  1   
 28  11  38  1   
 29  11  39  1   
 30  12  13  1   
 31  12  16  1   
 32  13  40  1   
 33  13  41  1   
 34  14  17  1   
 35  15  17  1   
 36  15  42  1   
 37  15  43  1   
 38  16  18  1   
 39  16  44  1   
 40  16  45  1   
 41  17  46  1   
 42  17  47  1   
 43  18  19  2   
 44  18  20  am  
 45  20  21  1   
 46  20  22  1   
 47  21  23  1   
 48  21  48  1   
 49  21  49  1   
 50  22  24  1   
 51  22  50  1   
 52  22  51  1   
 53  23  24  1   
 54  23  52  1   
 55  23  53  1   
 56  24  54  1   
 57  24  55  1   
@<TRIPOS>SUBSTRUCTURE
  1 ****  12 GROUP 4 **** **** 0

# MOE 2024.06 (io_trps.svl 2023.06)
