@<TRIPOS>MOLECULE
NONAME
46 48 1 0 0 
SMALL
USER_CHARGES


@<TRIPOS>ATOM
  1 S       -0.2420    -0.1060     0.2710 S.3   1 <1>  -0.0800 
  2 C        0.9480    -1.3820     0.4280 C.2   1 <1>   0.1980 
  3 C        0.8280     0.9610     1.1330 C.2   1 <1>  -0.1100 
  4 N        2.0050    -1.0410     1.0500 N.2   1 <1>  -0.5650 
  5 C        0.6140    -2.7320    -0.1660 C.3   1 <1>   0.0200 
  6 C        1.9430     0.2850     1.4500 C.2   1 <1>   0.0770 
  7 C       -0.3060    -3.5030     0.7780 C.3   1 <1>   0.1400 
  8 N       -0.5870    -4.8500     0.2310 N.am  1 <1>  -0.7300 
  9 C       -1.5960    -5.1520    -0.6310 C.2   1 <1>   0.5690 
 10 O       -2.3520    -4.2990    -1.0290 O.2   1 <1>  -0.5700 
 11 C       -1.7610    -6.5980    -1.1010 C.3   1 <1>   0.2610 
 12 O       -0.5080    -7.2640    -1.0720 O.3   1 <1>  -0.5600 
 13 C       -2.8080    -7.3150    -0.2090 C.3   1 <1>   0.3640 
 14 C       -0.5640    -8.5860    -1.5470 C.3   1 <1>   0.1810 
 15 N       -2.6470    -8.8090    -0.1760 N.am  1 <1>  -0.6600 
 16 C       -4.2310    -6.9650    -0.6630 C.ar  1 <1>  -0.1430 
 17 C       -1.6000    -9.4300    -0.8030 C.2   1 <1>   0.5690 
 18 C       -3.6510    -9.5640     0.6290 C.3   1 <1>   0.0600 
 19 C       -5.0710    -6.1310     0.0760 C.ar  1 <1>  -0.1430 
 20 C       -4.6980    -7.5040    -1.8580 C.ar  1 <1>  -0.1500 
 21 O       -1.4620   -10.6310    -0.8030 O.2   1 <1>  -0.5700 
 22 C       -6.3460    -5.8540    -0.3960 C.ar  1 <1>  -0.1500 
 23 C       -4.6440    -5.4980     1.3940 C.3   1 <1>  -0.0970 
 24 C       -5.9700    -7.2220    -2.3190 C.ar  1 <1>  -0.1500 
 25 C       -6.7960    -6.3940    -1.5860 C.ar  1 <1>  -0.1500 
 26 H        0.5090     1.9710     1.3060 H     1 <1>   0.1500 
 27 H        0.1340    -2.5940    -1.1180 H     1 <1>   0.0800 
 28 H        1.5270    -3.2800    -0.3090 H     1 <1>   0.0800 
 29 H        2.7880     0.6850     1.9850 H     1 <1>   0.1500 
 30 H       -1.2320    -2.9640     0.8970 H     1 <1>   0.0800 
 31 H        0.1580    -3.5980     1.7460 H     1 <1>   0.0800 
 32 H        0.1120    -5.5810     0.4050 H     1 <1>   0.3700 
 33 H       -2.0990    -6.5790    -2.1210 H     1 <1>   0.0800 
 34 H       -2.6540    -6.9700     0.7960 H     1 <1>   0.0800 
 35 H       -0.7980    -8.5670    -2.5960 H     1 <1>   0.0800 
 36 H        0.4090    -9.0230    -1.4160 H     1 <1>   0.0800 
 37 H       -3.7550    -9.1170     1.6010 H     1 <1>   0.0800 
 38 H       -3.3460   -10.5890     0.7530 H     1 <1>   0.0800 
 39 H       -4.6060    -9.5500     0.1310 H     1 <1>   0.0800 
 40 H       -4.0720    -8.1570    -2.4390 H     1 <1>   0.1500 
 41 H       -7.0030    -5.2090     0.1610 H     1 <1>   0.1500 
 42 H       -5.4330    -4.8940     1.8050 H     1 <1>   0.0800 
 43 H       -3.7910    -4.8620     1.2420 H     1 <1>   0.0800 
 44 H       -4.4000    -6.2590     2.1120 H     1 <1>   0.0800 
 45 H       -6.3160    -7.6460    -3.2450 H     1 <1>   0.1500 
 46 H       -7.7870    -6.1680    -1.9400 H     1 <1>   0.1500 
@<TRIPOS>BOND
  1   1   2  1   
  2   1   3  1   
  3   2   4  2   
  4   2   5  1   
  5   3   6  2   
  6   3  26  1   
  7   4   6  1   
  8   5   7  1   
  9   5  27  1   
 10   5  28  1   
 11   6  29  1   
 12   7   8  1   
 13   7  30  1   
 14   7  31  1   
 15   8   9  am  
 16   8  32  1   
 17   9  10  2   
 18   9  11  1   
 19  11  12  1   
 20  11  13  1   
 21  11  33  1   
 22  12  14  1   
 23  13  15  1   
 24  13  16  1   
 25  13  34  1   
 26  14  17  1   
 27  14  35  1   
 28  14  36  1   
 29  15  17  am  
 30  15  18  1   
 31  16  19  ar  
 32  16  20  ar  
 33  17  21  2   
 34  18  37  1   
 35  18  38  1   
 36  18  39  1   
 37  19  22  ar  
 38  19  23  1   
 39  20  24  ar  
 40  20  40  1   
 41  22  25  ar  
 42  22  41  1   
 43  23  42  1   
 44  23  43  1   
 45  23  44  1   
 46  24  25  ar  
 47  24  45  1   
 48  25  46  1   
@<TRIPOS>SUBSTRUCTURE
  1 ****   9 GROUP 4 **** **** 0

# MOE 2024.06 (io_trps.svl 2023.06)
