@<TRIPOS>MOLECULE
NONAME
57 60 1 0 0 
SMALL
USER_CHARGES


@<TRIPOS>ATOM
  1 O        0.0640     0.2690     0.4290 O.2   1 <1>  -0.5700 
  2 C        0.9950     0.8550    -0.0920 C.2   1 <1>   0.5440 
  3 N        1.0910     2.2250     0.0520 N.am  1 <1>  -0.6600 
  4 C        1.9830     0.0950    -0.8400 C.ar  1 <1>   0.0860 
  5 C       -0.0940     3.0310     0.5150 C.3   1 <1>   0.2200 
  6 C        2.4290     2.8890     0.1410 C.3   1 <1>   0.1400 
  7 C        2.4480    -1.1280    -0.3670 C.ar  1 <1>  -0.1500 
  8 C        2.4940     0.5550    -2.0550 C.ar  1 <1>  -0.1500 
  9 C        0.2300     4.5230     0.8420 C.3   1 <1>   0.1380 
 10 C       -1.3240     2.8650    -0.3980 C.3   1 <1>  -0.1600 
 11 C        2.5980     3.7020     1.4380 C.3   1 <1>  -0.1600 
 12 C        3.4020    -1.8690    -1.0530 C.ar  1 <1>   0.1000 
 13 C        3.4420    -0.1690    -2.7540 C.ar  1 <1>  -0.1500 
 14 C        0.7100     5.4190    -0.3430 C.2   1 <1>  -0.2760 
 15 C       -1.0650     5.1470     1.4460 C.3   1 <1>   0.1200 
 16 C        1.3360     4.4500     1.9210 C.3   1 <1>  -0.1600 
 17 C       -2.2810     4.0520    -0.2580 C.3   1 <1>   0.1200 
 18 N        3.8630    -3.0910    -0.5760 N.pl3 1 <1>  -0.8380 
 19 C        3.8940    -1.3740    -2.2520 C.ar  1 <1>  -0.1500 
 20 C        0.7350     5.0880    -1.6430 C.2   1 <1>  -0.2880 
 21 C        1.2260     6.8150     0.0310 C.3   1 <1>  -0.0220 
 22 O       -2.2470     4.4920     1.0630 O.3   1 <1>  -0.5600 
 23 C        3.1250    -4.2890    -1.0480 C.3   1 <1>   0.1290 
 24 C        4.3010    -3.1640     0.8430 C.3   1 <1>   0.1290 
 25 C        1.2340     5.9960    -2.7600 C.3   1 <1>   0.2580 
 26 C        1.2870     7.7380    -1.1930 C.3   1 <1>   0.1200 
 27 O        1.9380     7.0810    -2.2350 O.3   1 <1>  -0.5600 
 28 H       -0.3920     2.5960     1.4540 H     1 <1>   0.0800 
 29 H        3.2170     2.1580     0.0950 H     1 <1>   0.0800 
 30 H        2.5510     3.5370    -0.7070 H     1 <1>   0.0800 
 31 H        2.0500    -1.5120     0.5530 H     1 <1>   0.1500 
 32 H        2.1380     1.4900    -2.4510 H     1 <1>   0.1500 
 33 H       -1.8490     1.9750    -0.1000 H     1 <1>   0.0800 
 34 H       -1.0490     2.7370    -1.4250 H     1 <1>   0.0800 
 35 H        2.9280     3.0380     2.2170 H     1 <1>   0.0800 
 36 H        3.3890     4.4120     1.2760 H     1 <1>   0.0800 
 37 H        3.8290     0.2020    -3.6880 H     1 <1>   0.1500 
 38 H       -1.1740     6.1760     1.1600 H     1 <1>   0.0800 
 39 H       -1.0350     5.1060     2.5210 H     1 <1>   0.0800 
 40 H        1.6010     5.4260     2.2840 H     1 <1>   0.0800 
 41 H        0.9460     3.9100     2.7670 H     1 <1>   0.0800 
 42 H       -3.2900     3.7550    -0.4880 H     1 <1>   0.0800 
 43 H       -2.0000     4.8690    -0.9000 H     1 <1>   0.0800 
 44 H        4.6330    -1.9490    -2.7800 H     1 <1>   0.1500 
 45 H        0.4180     4.1420    -2.0320 H     1 <1>   0.1500 
 46 H        2.2170     6.7340     0.4390 H     1 <1>   0.0800 
 47 H        0.6060     7.2860     0.7690 H     1 <1>   0.0800 
 48 H        3.7750    -5.1470    -1.0350 H     1 <1>   0.0800 
 49 H        2.7790    -4.1330    -2.0560 H     1 <1>   0.0800 
 50 H        2.2750    -4.4730    -0.4140 H     1 <1>   0.0800 
 51 H        5.0540    -3.9250     0.9500 H     1 <1>   0.0800 
 52 H        3.4650    -3.3980     1.4790 H     1 <1>   0.0800 
 53 H        4.7190    -2.2200     1.1450 H     1 <1>   0.0800 
 54 H        0.4120     6.3710    -3.3450 H     1 <1>   0.0800 
 55 H        1.9090     5.4620    -3.4040 H     1 <1>   0.0800 
 56 H        1.8420     8.6310    -0.9660 H     1 <1>   0.0800 
 57 H        0.2980     8.0090    -1.5220 H     1 <1>   0.0800 
@<TRIPOS>BOND
  1   1   2  2   
  2   2   3  am  
  3   2   4  1   
  4   3   5  1   
  5   3   6  1   
  6   4   7  ar  
  7   4   8  ar  
  8   5   9  1   
  9   5  10  1   
 10   5  28  1   
 11   6  11  1   
 12   6  29  1   
 13   6  30  1   
 14   7  12  ar  
 15   7  31  1   
 16   8  13  ar  
 17   8  32  1   
 18   9  14  1   
 19   9  15  1   
 20   9  16  1   
 21  10  17  1   
 22  10  33  1   
 23  10  34  1   
 24  11  16  1   
 25  11  35  1   
 26  11  36  1   
 27  12  18  1   
 28  12  19  ar  
 29  13  19  ar  
 30  13  37  1   
 31  14  20  2   
 32  14  21  1   
 33  15  22  1   
 34  15  38  1   
 35  15  39  1   
 36  16  40  1   
 37  16  41  1   
 38  17  22  1   
 39  17  42  1   
 40  17  43  1   
 41  18  23  1   
 42  18  24  1   
 43  19  44  1   
 44  20  25  1   
 45  20  45  1   
 46  21  26  1   
 47  21  46  1   
 48  21  47  1   
 49  23  48  1   
 50  23  49  1   
 51  23  50  1   
 52  24  51  1   
 53  24  52  1   
 54  24  53  1   
 55  25  27  1   
 56  25  54  1   
 57  25  55  1   
 58  26  27  1   
 59  26  56  1   
 60  26  57  1   
@<TRIPOS>SUBSTRUCTURE
  1 ****   3 GROUP 4 **** **** 0

# MOE 2024.06 (io_trps.svl 2023.06)
