@<TRIPOS>MOLECULE
NONAME
45 46 1 0 0 
SMALL
USER_CHARGES


@<TRIPOS>ATOM
  1 O       -0.6510     1.0610     1.6970 O.3   1 <1>  -0.0190 
  2 N       -0.1630     2.1820     1.2550 N.2   1 <1>  -0.4100 
  3 C       -1.4720     0.6770     0.7500 C.2   1 <1>   0.2980 
  4 C       -0.6990     2.3960     0.1180 C.2   1 <1>   0.3350 
  5 N       -1.5480     1.4540    -0.2560 N.2   1 <1>  -0.5650 
  6 C       -2.2370    -0.6160     0.9280 C.3   1 <1>  -0.0600 
  7 C       -0.4020     3.6150    -0.7560 C.3   1 <1>   0.5240 
  8 N        0.9430     4.2200    -0.4110 N.4   1 <1>  -0.9590 
  9 C        1.0420     5.6540    -0.8230 C.3   1 <1>   0.3430 
 10 C        2.0290     3.3430    -0.9660 C.3   1 <1>   0.2630 
 11 C        1.9050     6.4770     0.1580 C.3   1 <1>  -0.0800 
 12 C        1.9050     7.9780    -0.1690 C.3   1 <1>   0.3430 
 13 C        3.3900     6.1030     0.2150 C.3   1 <1>  -0.1600 
 14 N        3.3060     8.4640     0.0380 N.4   1 <1>  -0.9590 
 15 C        4.0760     7.3740     0.6910 C.3   1 <1>   0.3430 
 16 C        3.3910     9.7350     0.8400 C.3   1 <1>   0.3430 
 17 C        2.8220    10.9520     0.1010 C.3   1 <1>   0.1200 
 18 O        2.8520    12.0120     0.9930 O.3   1 <1>  -0.5600 
 19 C        2.4070    13.2250     0.4690 C.3   1 <1>   0.0400 
 20 H       -2.8520    -0.5570     1.8070 H     1 <1>   0.0800 
 21 H       -1.5490    -1.4350     1.0330 H     1 <1>   0.0800 
 22 H       -2.8640    -0.7940     0.0740 H     1 <1>   0.0800 
 23 H       -1.1870     4.3330    -0.5910 H     1 <1>   0.0800 
 24 H       -0.4270     3.3190    -1.7910 H     1 <1>   0.0800 
 25 H        0.9810     4.1360     0.6210 H     1 <1>   0.4500 
 26 H        0.0520     6.0830    -0.8400 H     1 <1>   0.0800 
 27 H        1.4440     5.7210    -1.8220 H     1 <1>   0.0800 
 28 H        2.0000     3.3390    -2.0440 H     1 <1>   0.0800 
 29 H        1.9040     2.3290    -0.6180 H     1 <1>   0.0800 
 30 H        2.9990     3.6880    -0.6480 H     1 <1>   0.0800 
 31 H        1.4820     6.3800     1.1430 H     1 <1>   0.0800 
 32 H        1.2210     8.4980     0.4840 H     1 <1>   0.0800 
 33 H        1.6090     8.1520    -1.1920 H     1 <1>   0.0800 
 34 H        3.7700     5.8520    -0.7610 H     1 <1>   0.0800 
 35 H        3.5860     5.2880     0.8910 H     1 <1>   0.0800 
 36 H        3.7430     8.6430    -0.8790 H     1 <1>   0.4500 
 37 H        5.1200     7.4000     0.4170 H     1 <1>   0.0800 
 38 H        3.9880     7.4530     1.7630 H     1 <1>   0.0800 
 39 H        4.4220     9.9450     1.0760 H     1 <1>   0.0800 
 40 H        2.8550     9.6160     1.7670 H     1 <1>   0.0800 
 41 H        1.7990    10.7940    -0.1920 H     1 <1>   0.0800 
 42 H        3.4300    11.2050    -0.7510 H     1 <1>   0.0800 
 43 H        2.4710    13.9690     1.2440 H     1 <1>   0.0800 
 44 H        1.3830    13.1260     0.1500 H     1 <1>   0.0800 
 45 H        3.0360    13.5130    -0.3570 H     1 <1>   0.0800 
@<TRIPOS>BOND
  1   1   2  1   
  2   1   3  1   
  3   2   4  2   
  4   3   5  2   
  5   3   6  1   
  6   4   5  1   
  7   4   7  1   
  8   6  20  1   
  9   6  21  1   
 10   6  22  1   
 11   7   8  1   
 12   7  23  1   
 13   7  24  1   
 14   8   9  1   
 15   8  10  1   
 16   8  25  1   
 17   9  11  1   
 18   9  26  1   
 19   9  27  1   
 20  10  28  1   
 21  10  29  1   
 22  10  30  1   
 23  11  12  1   
 24  11  13  1   
 25  11  31  1   
 26  12  14  1   
 27  12  32  1   
 28  12  33  1   
 29  13  15  1   
 30  13  34  1   
 31  13  35  1   
 32  14  15  1   
 33  14  16  1   
 34  14  36  1   
 35  15  37  1   
 36  15  38  1   
 37  16  17  1   
 38  16  39  1   
 39  16  40  1   
 40  17  18  1   
 41  17  41  1   
 42  17  42  1   
 43  18  19  1   
 44  19  43  1   
 45  19  44  1   
 46  19  45  1   
@<TRIPOS>SUBSTRUCTURE
  1 ****   9 GROUP 4 **** **** 0

# MOE 2024.06 (io_trps.svl 2023.06)
