@<TRIPOS>MOLECULE
NONAME
50 52 1 0 0 
SMALL
USER_CHARGES


@<TRIPOS>ATOM
  1 S       -0.6450    -0.0020     1.4010 S.o2  1 <1>   1.3330 
  2 O       -1.0260    -0.6220     2.6460 O.2   1 <1>  -0.6500 
  3 O       -0.8060     1.4180     1.2000 O.2   1 <1>  -0.6500 
  4 N       -1.4860    -0.7960     0.1050 N.am  1 <1>  -0.6930 
  5 C        1.0460    -0.4180     1.0360 C.3   1 <1>  -0.1350 
  6 C       -1.5080    -2.1750    -0.0440 C.ar  1 <1>   0.1990 
  7 C       -2.1090     0.0730    -0.9240 C.3   1 <1>   0.1160 
  8 C       -1.9690    -3.0100     0.9690 C.ar  1 <1>  -0.1500 
  9 C       -1.0560    -2.7680    -1.2190 C.ar  1 <1>  -0.1500 
 10 C       -1.9710    -4.3830     0.8160 C.ar  1 <1>  -0.1500 
 11 C       -1.0640    -4.1410    -1.3720 C.ar  1 <1>  -0.1500 
 12 C       -1.5280    -4.9860    -0.3630 C.ar  1 <1>   0.0860 
 13 C       -1.5320    -6.4230    -0.5400 C.2   1 <1>   0.5440 
 14 O       -0.5490    -6.9740    -0.9980 O.2   1 <1>  -0.5700 
 15 N       -2.6280    -7.1930    -0.2190 N.am  1 <1>  -0.6600 
 16 C       -4.0180    -6.6840    -0.1050 C.3   1 <1>   0.1400 
 17 C       -2.6270    -8.6700    -0.3730 C.3   1 <1>   0.1400 
 18 C       -4.9080    -7.9090    -0.3220 C.3   1 <1>   0.2000 
 19 C       -4.0370    -9.1130     0.0240 C.3   1 <1>  -0.0800 
 20 O       -6.0250    -7.8790     0.4980 O.3   1 <1>  -0.6800 
 21 C       -4.5090   -10.4050    -0.6640 C.3   1 <1>  -0.0160 
 22 C       -3.6610   -11.5990    -0.2590 C.ar  1 <1>   0.1670 
 23 N       -2.5350   -11.7760    -0.9320 N.ar  1 <1>  -0.6200 
 24 C       -4.0870   -12.4260     0.7700 C.ar  1 <1>  -0.1500 
 25 C       -1.8020   -12.8150    -0.5650 C.ar  1 <1>   0.1600 
 26 C       -3.3140   -13.5050     1.1420 C.ar  1 <1>  -0.1500 
 27 C       -2.1390   -13.6960     0.4480 C.ar  1 <1>  -0.1500 
 28 H        1.1800    -1.4820     1.0670 H     1 <1>   0.0800 
 29 H        1.6980     0.0320     1.7580 H     1 <1>   0.0800 
 30 H        1.3130    -0.0630     0.0610 H     1 <1>   0.0800 
 31 H       -2.6680    -0.5180    -1.6290 H     1 <1>   0.0800 
 32 H       -1.3480     0.6260    -1.4460 H     1 <1>   0.0800 
 33 H       -2.7810     0.7680    -0.4490 H     1 <1>   0.0800 
 34 H       -2.3310    -2.5770     1.8850 H     1 <1>   0.1500 
 35 H       -0.6890    -2.1460    -2.0140 H     1 <1>   0.1500 
 36 H       -2.3140    -5.0050     1.6230 H     1 <1>   0.1500 
 37 H       -0.7030    -4.5840    -2.2850 H     1 <1>   0.1500 
 38 H       -4.1680    -6.2760     0.8780 H     1 <1>   0.0800 
 39 H       -4.2100    -5.9350    -0.8540 H     1 <1>   0.0800 
 40 H       -2.4190    -8.9180    -1.4010 H     1 <1>   0.0800 
 41 H       -1.8760    -9.1210     0.2540 H     1 <1>   0.0800 
 42 H       -5.2370    -7.9440    -1.3470 H     1 <1>   0.0800 
 43 H       -4.0330    -9.2590     1.0900 H     1 <1>   0.0800 
 44 H       -5.7560    -7.8530     1.4370 H     1 <1>   0.4000 
 45 H       -4.4660   -10.2910    -1.7330 H     1 <1>   0.0800 
 46 H       -5.5350   -10.5920    -0.4010 H     1 <1>   0.0800 
 47 H       -5.0130   -12.2290     1.2780 H     1 <1>   0.1500 
 48 H       -0.8820   -12.9720    -1.1020 H     1 <1>   0.1500 
 49 H       -3.6140   -14.1670     1.9360 H     1 <1>   0.1500 
 50 H       -1.4890   -14.5170     0.6870 H     1 <1>   0.1500 
@<TRIPOS>BOND
  1   1   2  2   
  2   1   3  2   
  3   1   4  am  
  4   1   5  1   
  5   4   6  1   
  6   4   7  1   
  7   5  28  1   
  8   5  29  1   
  9   5  30  1   
 10   6   8  ar  
 11   6   9  ar  
 12   7  31  1   
 13   7  32  1   
 14   7  33  1   
 15   8  10  ar  
 16   8  34  1   
 17   9  11  ar  
 18   9  35  1   
 19  10  12  ar  
 20  10  36  1   
 21  11  12  ar  
 22  11  37  1   
 23  12  13  1   
 24  13  14  2   
 25  13  15  am  
 26  15  16  1   
 27  15  17  1   
 28  16  18  1   
 29  16  38  1   
 30  16  39  1   
 31  17  19  1   
 32  17  40  1   
 33  17  41  1   
 34  18  19  1   
 35  18  20  1   
 36  18  42  1   
 37  19  21  1   
 38  19  43  1   
 39  20  44  1   
 40  21  22  1   
 41  21  45  1   
 42  21  46  1   
 43  22  23  ar  
 44  22  24  ar  
 45  23  25  ar  
 46  24  26  ar  
 47  24  47  1   
 48  25  27  ar  
 49  25  48  1   
 50  26  27  ar  
 51  26  49  1   
 52  27  50  1   
@<TRIPOS>SUBSTRUCTURE
  1 ****  13 GROUP 4 **** **** 0

# MOE 2024.06 (io_trps.svl 2023.06)
