@<TRIPOS>MOLECULE
NONAME
54 57 1 0 0 
SMALL
USER_CHARGES


@<TRIPOS>ATOM
  1 F        0.1260     1.4790     1.6890 F     1 <1>  -0.3400 
  2 C        0.1430     1.0990     0.4030 C.3   1 <1>   0.3400 
  3 C       -1.3640     0.8930    -0.0210 C.3   1 <1>   0.2760 
  4 C        1.0600    -0.1780     0.3660 C.3   1 <1>   0.2000 
  5 C        0.7940     2.2850    -0.3900 C.3   1 <1>  -0.0800 
  6 C       -2.0950     2.2590     0.0610 C.2   1 <1>  -0.2760 
  7 C       -2.1190    -0.1250     0.8580 C.2   1 <1>  -0.2880 
  8 C       -1.5070     0.3490    -1.4560 C.3   1 <1>  -0.2400 
  9 O        0.6620    -1.1320     1.2910 O.3   1 <1>  -0.6800 
 10 C        2.5500     0.0870     0.6790 C.3   1 <1>  -0.1600 
 11 C        2.2600     2.4780     0.0460 C.3   1 <1>  -0.0800 
 12 C       -0.0140     3.5930    -0.2610 C.3   1 <1>  -0.1600 
 13 C       -3.1980     2.4620     0.8120 C.2   1 <1>  -0.1360 
 14 C       -1.4580     3.3960    -0.7250 C.3   1 <1>  -0.0220 
 15 C       -3.2170     0.1590     1.5830 C.2   1 <1>  -0.1360 
 16 C        3.1360     1.2310    -0.1780 C.3   1 <1>   0.0000 
 17 C        3.0740     3.6330    -0.5450 C.3   1 <1>  -0.1600 
 18 C       -3.8270     1.4550     1.6160 C.2   1 <1>   0.5410 
 19 C        4.5480     1.7730     0.2130 C.3   1 <1>   0.3410 
 20 C        3.1600     0.7630    -1.6650 C.3   1 <1>  -0.2400 
 21 C        4.5460     3.2070    -0.3730 C.3   1 <1>  -0.1600 
 22 O       -4.8140     1.6830     2.2740 O.2   1 <1>  -0.5700 
 23 O        4.6100     1.9370     1.6000 O.3   1 <1>  -0.6800 
 24 C        5.7380     0.8970    -0.2410 C.2   1 <1>   0.4480 
 25 O        6.4230     1.1580    -1.1930 O.2   1 <1>  -0.5700 
 26 C        6.0200    -0.3630     0.5740 C.3   1 <1>   0.1810 
 27 O        5.9800    -1.4940    -0.2430 O.3   1 <1>  -0.6800 
 28 H        0.9860    -0.6410    -0.6010 H     1 <1>   0.0800 
 29 H        0.7930     2.0410    -1.4340 H     1 <1>   0.0800 
 30 H       -1.7070    -1.1170     0.8370 H     1 <1>   0.1500 
 31 H       -2.5500     0.3000    -1.7170 H     1 <1>   0.0800 
 32 H       -1.1040    -0.6450    -1.5280 H     1 <1>   0.0800 
 33 H       -1.0150     0.9680    -2.1810 H     1 <1>   0.0800 
 34 H        0.5490    -0.6970     2.1630 H     1 <1>   0.4000 
 35 H        2.6390     0.3360     1.7220 H     1 <1>   0.0800 
 36 H        3.1070    -0.8180     0.5070 H     1 <1>   0.0800 
 37 H        2.2220     2.6730     1.1050 H     1 <1>   0.0800 
 38 H       -0.0160     3.9220     0.7640 H     1 <1>   0.0800 
 39 H        0.4340     4.3700    -0.8560 H     1 <1>   0.0800 
 40 H       -3.6850     3.4170     0.8680 H     1 <1>   0.1500 
 41 H       -1.4850     3.1860    -1.7800 H     1 <1>   0.0800 
 42 H       -2.0040     4.3100    -0.5680 H     1 <1>   0.0800 
 43 H       -3.7140    -0.5800     2.1840 H     1 <1>   0.1500 
 44 H        2.8490     3.7550    -1.5910 H     1 <1>   0.0800 
 45 H        2.8700     4.5580    -0.0330 H     1 <1>   0.0800 
 46 H        2.1920     0.4950    -2.0390 H     1 <1>   0.0800 
 47 H        3.7820    -0.1100    -1.7710 H     1 <1>   0.0800 
 48 H        3.5580     1.5210    -2.3150 H     1 <1>   0.0800 
 49 H        5.0980     3.8890     0.2500 H     1 <1>   0.0800 
 50 H        5.0080     3.2120    -1.3450 H     1 <1>   0.0800 
 51 H        3.9430     2.5960     1.8710 H     1 <1>   0.4000 
 52 H        5.3020    -0.4970     1.3630 H     1 <1>   0.0800 
 53 H        7.0030    -0.2970     1.0040 H     1 <1>   0.0800 
 54 H        6.5340    -1.3300    -1.0360 H     1 <1>   0.4000 
@<TRIPOS>BOND
  1   1   2  1   
  2   2   3  1   
  3   2   4  1   
  4   2   5  1   
  5   3   6  1   
  6   3   7  1   
  7   3   8  1   
  8   4   9  1   
  9   4  10  1   
 10   4  28  1   
 11   5  11  1   
 12   5  12  1   
 13   5  29  1   
 14   6  13  2   
 15   6  14  1   
 16   7  15  2   
 17   7  30  1   
 18   8  31  1   
 19   8  32  1   
 20   8  33  1   
 21   9  34  1   
 22  10  16  1   
 23  10  35  1   
 24  10  36  1   
 25  11  16  1   
 26  11  17  1   
 27  11  37  1   
 28  12  14  1   
 29  12  38  1   
 30  12  39  1   
 31  13  18  1   
 32  13  40  1   
 33  14  41  1   
 34  14  42  1   
 35  15  18  1   
 36  15  43  1   
 37  16  19  1   
 38  16  20  1   
 39  17  21  1   
 40  17  44  1   
 41  17  45  1   
 42  18  22  2   
 43  19  21  1   
 44  19  23  1   
 45  19  24  1   
 46  20  46  1   
 47  20  47  1   
 48  20  48  1   
 49  21  49  1   
 50  21  50  1   
 51  23  51  1   
 52  24  25  2   
 53  24  26  1   
 54  26  27  1   
 55  26  52  1   
 56  26  53  1   
 57  27  54  1   
@<TRIPOS>SUBSTRUCTURE
  1 ****   2 GROUP 4 **** **** 0

# MOE 2024.06 (io_trps.svl 2023.06)
