@<TRIPOS>MOLECULE
NONAME
50 53 1 0 0 
SMALL
USER_CHARGES


@<TRIPOS>ATOM
  1 S       -1.4430     1.9660    -1.8710 S.3   1 <1>  -0.0800 
  2 C       -1.3150     2.8190    -0.3260 C.2   1 <1>  -0.0450 
  3 C       -2.8820     1.1070    -1.3640 C.2   1 <1>  -0.1100 
  4 C       -0.2570     3.7750    -0.1030 C.2   1 <1>   0.7150 
  5 C       -2.3480     2.4300     0.4640 C.2   1 <1>  -0.1500 
  6 C       -3.2250     1.4650    -0.1140 C.2   1 <1>  -0.1500 
  7 O       -0.4560     4.7130     0.6480 O.2   1 <1>  -0.5700 
  8 N        0.9890     3.6710    -0.6860 N.am  1 <1>  -0.6600 
  9 C        1.8720     4.8690    -0.8370 C.3   1 <1>   0.1400 
 10 C        1.6780     2.3660    -0.8830 C.3   1 <1>   0.1400 
 11 C        3.0690     4.7910     0.1250 C.3   1 <1>   0.2890 
 12 C        2.8750     2.2650     0.0720 C.3   1 <1>  -0.1600 
 13 N        4.0170     5.8990    -0.1320 N.pl3 1 <1>  -0.8690 
 14 C        3.8240     3.4690    -0.0530 C.3   1 <1>  -0.1600 
 15 C        4.3110     6.8320     0.8240 C.ar  1 <1>   0.4100 
 16 N        4.2690     8.0670     0.3740 N.ar  1 <1>  -0.6200 
 17 C        4.6360     6.5060     2.1500 C.ar  1 <1>   0.1600 
 18 C        4.5660     8.9920     1.3070 C.ar  1 <1>   0.3960 
 19 N        4.9260     7.3830     3.0880 N.ar  1 <1>  -0.6200 
 20 C        4.5720    10.4230     0.9870 C.2   1 <1>   0.5440 
 21 C        4.8850     8.6240     2.6180 C.ar  1 <1>   0.1600 
 22 O        5.3360    11.1600     1.5890 O.2   1 <1>  -0.5700 
 23 N        3.7360    11.0110     0.0550 N.am  1 <1>  -0.6600 
 24 C        3.7850    12.4550    -0.2640 C.3   1 <1>   0.1400 
 25 C        2.6360    10.3450    -0.6770 C.3   1 <1>   0.1400 
 26 C        2.7970    12.6380    -1.4110 C.3   1 <1>  -0.1600 
 27 C        1.8080    11.4860    -1.2560 C.3   1 <1>  -0.1600 
 28 H       -3.3260     0.4200    -2.0620 H     1 <1>   0.1500 
 29 H       -2.5210     2.8110     1.4570 H     1 <1>   0.1500 
 30 H       -4.0720     1.0870     0.4330 H     1 <1>   0.1500 
 31 H        1.3160     5.7700    -0.6420 H     1 <1>   0.0800 
 32 H        2.2280     4.9030    -1.8520 H     1 <1>   0.0800 
 33 H        2.0110     2.2940    -1.9050 H     1 <1>   0.0800 
 34 H        1.0080     1.5470    -0.6870 H     1 <1>   0.0800 
 35 H        2.6900     4.8600     1.1320 H     1 <1>   0.0800 
 36 H        3.4150     1.3580    -0.1350 H     1 <1>   0.0800 
 37 H        2.5060     2.1980     1.0810 H     1 <1>   0.0800 
 38 H        3.8900     6.3430    -1.0450 H     1 <1>   0.4000 
 39 H        4.5980     3.3950     0.6900 H     1 <1>   0.0800 
 40 H        4.2840     3.4530    -1.0260 H     1 <1>   0.0800 
 41 H        4.6560     5.4670     2.4190 H     1 <1>   0.1500 
 42 H        5.1200     9.4080     3.3180 H     1 <1>   0.1500 
 43 H        4.7820    12.7510    -0.5440 H     1 <1>   0.0800 
 44 H        3.4730    13.0150     0.6010 H     1 <1>   0.0800 
 45 H        2.0510     9.7230    -0.0210 H     1 <1>   0.0800 
 46 H        3.0550     9.7470    -1.4680 H     1 <1>   0.0800 
 47 H        3.3260    12.5440    -2.3430 H     1 <1>   0.0800 
 48 H        2.3180    13.6000    -1.3750 H     1 <1>   0.0800 
 49 H        1.0420    11.7540    -0.5490 H     1 <1>   0.0800 
 50 H        1.3460    11.2120    -2.1870 H     1 <1>   0.0800 
@<TRIPOS>BOND
  1   1   2  1   
  2   1   3  1   
  3   2   4  1   
  4   2   5  2   
  5   3   6  2   
  6   3  28  1   
  7   4   7  2   
  8   4   8  am  
  9   5   6  1   
 10   5  29  1   
 11   6  30  1   
 12   8   9  1   
 13   8  10  1   
 14   9  11  1   
 15   9  31  1   
 16   9  32  1   
 17  10  12  1   
 18  10  33  1   
 19  10  34  1   
 20  11  13  1   
 21  11  14  1   
 22  11  35  1   
 23  12  14  1   
 24  12  36  1   
 25  12  37  1   
 26  13  15  1   
 27  13  38  1   
 28  14  39  1   
 29  14  40  1   
 30  15  16  ar  
 31  15  17  ar  
 32  16  18  ar  
 33  17  19  ar  
 34  17  41  1   
 35  18  20  1   
 36  18  21  ar  
 37  19  21  ar  
 38  20  22  2   
 39  20  23  am  
 40  21  42  1   
 41  23  24  1   
 42  23  25  1   
 43  24  26  1   
 44  24  43  1   
 45  24  44  1   
 46  25  27  1   
 47  25  45  1   
 48  25  46  1   
 49  26  27  1   
 50  26  47  1   
 51  26  48  1   
 52  27  49  1   
 53  27  50  1   
@<TRIPOS>SUBSTRUCTURE
  1 ****  11 GROUP 4 **** **** 0

# MOE 2024.06 (io_trps.svl 2023.06)
