@<TRIPOS>MOLECULE
NONAME
49 51 1 0 0 
SMALL
USER_CHARGES


@<TRIPOS>ATOM
  1 O        0.4340    -0.2380     0.1600 O.2   1 <1>  -0.5700 
  2 C        1.3710    -0.7920    -0.3850 C.2   1 <1>   0.7150 
  3 N        2.3870    -0.0240    -0.8830 N.am  1 <1>  -0.7300 
  4 C        1.4140    -2.2340    -0.5040 C.2   1 <1>   0.0550 
  5 C        2.4100     1.4620    -0.8970 C.3   1 <1>   0.1400 
  6 O        0.5100    -2.9830     0.1180 O.3   1 <1>  -0.2800 
  7 C        2.2520    -3.0690    -1.1820 C.2   1 <1>  -0.1500 
  8 C        2.8120     2.0070     0.4770 C.3   1 <1>  -0.0160 
  9 C        0.7290    -4.2500    -0.1420 C.2   1 <1>  -0.0400 
 10 C        1.8070    -4.3720    -0.9480 C.2   1 <1>  -0.1500 
 11 C        3.1870     3.4780     0.3960 C.ar  1 <1>   0.1670 
 12 C       -0.2020    -5.2920     0.4560 C.3   1 <1>   0.5230 
 13 N        2.3020     4.2920    -0.1590 N.ar  1 <1>  -0.6200 
 14 C        4.4150     3.9100     0.8950 C.ar  1 <1>   0.1600 
 15 N       -1.6060    -4.9940     0.0510 N.4   1 <1>  -0.9590 
 16 C        2.7200     5.5460    -0.1790 C.ar  1 <1>   0.1600 
 17 N        4.8380     5.1630     0.8710 N.ar  1 <1>  -0.6200 
 18 C       -2.2100    -3.9230     0.9030 C.3   1 <1>   0.3430 
 19 C       -2.4480    -6.2210     0.0150 C.3   1 <1>   0.3430 
 20 C        3.9470     5.9670     0.3190 C.ar  1 <1>   0.1600 
 21 C       -3.5870    -3.5480     0.3580 C.3   1 <1>  -0.1600 
 22 C       -3.8280    -5.8830    -0.5490 C.3   1 <1>  -0.1600 
 23 C       -4.5120    -4.7700     0.2570 C.3   1 <1>  -0.0800 
 24 C       -5.8490    -4.3820    -0.3840 C.3   1 <1>  -0.2400 
 25 H        3.1800    -0.4840    -1.3270 H     1 <1>   0.3700 
 26 H        1.4350     1.8400    -1.1600 H     1 <1>   0.0800 
 27 H        3.1100     1.7970    -1.6430 H     1 <1>   0.0800 
 28 H        3.0990    -2.8080    -1.7930 H     1 <1>   0.1500 
 29 H        3.6420     1.4410     0.8570 H     1 <1>   0.0800 
 30 H        1.9840     1.8980     1.1540 H     1 <1>   0.0800 
 31 H        2.2620    -5.2610    -1.3520 H     1 <1>   0.1500 
 32 H       -0.1140    -5.2870     1.5300 H     1 <1>   0.0800 
 33 H        0.0910    -6.2620     0.0930 H     1 <1>   0.0800 
 34 H        5.0800     3.1880     1.3350 H     1 <1>   0.1500 
 35 H       -1.5510    -4.6060    -0.8990 H     1 <1>   0.4500 
 36 H        2.0590     6.2780    -0.6100 H     1 <1>   0.1500 
 37 H       -1.5850    -3.0440     0.9100 H     1 <1>   0.0800 
 38 H       -2.3080    -4.2730     1.9180 H     1 <1>   0.0800 
 39 H       -2.5560    -6.6200     1.0110 H     1 <1>   0.0800 
 40 H       -1.9840    -6.9720    -0.6050 H     1 <1>   0.0800 
 41 H        4.1990     7.0110     0.2570 H     1 <1>   0.1500 
 42 H       -3.4690    -3.0860    -0.6070 H     1 <1>   0.0800 
 43 H       -4.0290    -2.8160     1.0110 H     1 <1>   0.0800 
 44 H       -4.4400    -6.7680    -0.5250 H     1 <1>   0.0800 
 45 H       -3.7290    -5.5890    -1.5800 H     1 <1>   0.0800 
 46 H       -4.7110    -5.1340     1.2530 H     1 <1>   0.0800 
 47 H       -5.7050    -4.0070    -1.3820 H     1 <1>   0.0800 
 48 H       -6.3370    -3.6190     0.1990 H     1 <1>   0.0800 
 49 H       -6.5040    -5.2350    -0.4320 H     1 <1>   0.0800 
@<TRIPOS>BOND
  1   1   2  2   
  2   2   3  am  
  3   2   4  1   
  4   3   5  1   
  5   3  25  1   
  6   4   6  1   
  7   4   7  2   
  8   5   8  1   
  9   5  26  1   
 10   5  27  1   
 11   6   9  1   
 12   7  10  1   
 13   7  28  1   
 14   8  11  1   
 15   8  29  1   
 16   8  30  1   
 17   9  10  2   
 18   9  12  1   
 19  10  31  1   
 20  11  13  ar  
 21  11  14  ar  
 22  12  15  1   
 23  12  32  1   
 24  12  33  1   
 25  13  16  ar  
 26  14  17  ar  
 27  14  34  1   
 28  15  18  1   
 29  15  19  1   
 30  15  35  1   
 31  16  20  ar  
 32  16  36  1   
 33  17  20  ar  
 34  18  21  1   
 35  18  37  1   
 36  18  38  1   
 37  19  22  1   
 38  19  39  1   
 39  19  40  1   
 40  20  41  1   
 41  21  23  1   
 42  21  42  1   
 43  21  43  1   
 44  22  23  1   
 45  22  44  1   
 46  22  45  1   
 47  23  24  1   
 48  23  46  1   
 49  24  47  1   
 50  24  48  1   
 51  24  49  1   
@<TRIPOS>SUBSTRUCTURE
  1 ****   1 GROUP 4 **** **** 0

# MOE 2024.06 (io_trps.svl 2023.06)
