@<TRIPOS>MOLECULE
NONAME
61 66 1 0 0 
SMALL
USER_CHARGES


@<TRIPOS>ATOM
  1 O       -1.0810     2.2400     2.2410 O.2   1 <1>  -0.5700 
  2 C       -1.4950     1.7680     1.2000 C.2   1 <1>   0.5440 
  3 N       -1.0890     2.1820    -0.0340 N.am  1 <1>  -0.6600 
  4 C       -2.4570     0.7140     1.0590 C.ar  1 <1>   0.0860 
  5 C       -1.7730     1.4080    -1.1020 C.3   1 <1>   0.2840 
  6 C       -0.0970     3.2460    -0.3180 C.3   1 <1>   0.1400 
  7 C       -2.6510     0.4700    -0.2890 C.ar  1 <1>  -0.1440 
  8 C       -3.1570    -0.0290     2.0010 C.ar  1 <1>  -0.1500 
  9 C        1.1880     2.6770    -0.9450 C.3   1 <1>  -0.0800 
 10 C       -3.5320    -0.5030    -0.7230 C.ar  1 <1>  -0.1500 
 11 C       -4.0430    -1.0070     1.5770 C.ar  1 <1>  -0.1500 
 12 C        1.8510     1.6170    -0.0440 C.3   1 <1>  -0.1600 
 13 C        2.1770     3.8190    -1.2370 C.3   1 <1>  -0.1600 
 14 C       -4.2290    -1.2430     0.2210 C.ar  1 <1>  -0.1500 
 15 C        3.1570     1.0950    -0.6590 C.3   1 <1>  -0.1600 
 16 C        3.4840     3.2950    -1.8480 C.3   1 <1>  -0.1600 
 17 C        4.1530     2.2390    -0.9460 C.3   1 <1>  -0.0190 
 18 C        5.4710     1.7420    -1.5640 C.2   1 <1>   0.5690 
 19 O        5.4480     0.6980    -2.1760 O.2   1 <1>  -0.5700 
 20 N        6.6380     2.4610    -1.4480 N.am  1 <1>  -0.6600 
 21 C        6.7690     3.8130    -0.8180 C.3   1 <1>   0.3200 
 22 C        7.9340     1.8970    -1.9570 C.3   1 <1>   0.1400 
 23 C        8.0160     3.8480     0.0490 C.2   1 <1>  -0.3320 
 24 C        8.9200     1.6600    -0.8020 C.3   1 <1>   0.0210 
 25 N        8.3460     4.8410     0.9290 N.pl3 1 <1>   0.0330 
 26 C        8.9750     2.8980     0.0680 C.2   1 <1>  -0.1810 
 27 C        9.5390     4.5040     1.5210 C.ar  1 <1>  -0.1520 
 28 C        9.9600     3.2820     1.0020 C.ar  1 <1>   0.0000 
 29 C       10.2990     5.1730     2.4830 C.ar  1 <1>  -0.1500 
 30 C       11.1570     2.7160     1.4510 C.ar  1 <1>  -0.1500 
 31 C       11.4750     4.6050     2.9150 C.ar  1 <1>  -0.1500 
 32 C       11.9050     3.3760     2.3990 C.ar  1 <1>  -0.1500 
 33 H       -1.0580     0.8590    -1.6900 H     1 <1>   0.0800 
 34 H       -2.3630     2.0600    -1.7220 H     1 <1>   0.0800 
 35 H        0.1480     3.7480     0.6040 H     1 <1>   0.0800 
 36 H       -0.5410     3.9690    -0.9790 H     1 <1>   0.0800 
 37 H       -3.0000     0.1670     3.0470 H     1 <1>   0.1500 
 38 H        0.9310     2.2180    -1.8840 H     1 <1>   0.0800 
 39 H       -3.6770    -0.6880    -1.7730 H     1 <1>   0.1500 
 40 H       -4.5880    -1.5860     2.3020 H     1 <1>   0.1500 
 41 H        1.1830     0.7860     0.1010 H     1 <1>   0.0800 
 42 H        2.0530     2.0420     0.9250 H     1 <1>   0.0800 
 43 H        2.3990     4.3430    -0.3230 H     1 <1>   0.0800 
 44 H        1.7270     4.5220    -1.9180 H     1 <1>   0.0800 
 45 H       -4.9190    -2.0040    -0.0980 H     1 <1>   0.1500 
 46 H        2.9300     0.5760    -1.5750 H     1 <1>   0.0800 
 47 H        3.6110     0.3860     0.0110 H     1 <1>   0.0800 
 48 H        4.1550     4.1190    -2.0110 H     1 <1>   0.0800 
 49 H        3.2770     2.8520    -2.8080 H     1 <1>   0.0800 
 50 H        4.3750     2.6790     0.0070 H     1 <1>   0.0800 
 51 H        5.9160     4.0510    -0.2130 H     1 <1>   0.0800 
 52 H        6.8520     4.5540    -1.5940 H     1 <1>   0.0800 
 53 H        8.3640     2.6000    -2.6480 H     1 <1>   0.0800 
 54 H        7.7770     0.9730    -2.4850 H     1 <1>   0.0800 
 55 H        9.8950     1.4460    -1.2000 H     1 <1>   0.0800 
 56 H        8.5970     0.8200    -0.2150 H     1 <1>   0.0800 
 57 H        7.8160     5.6930     1.1320 H     1 <1>   0.2700 
 58 H        9.9630     6.1160     2.8760 H     1 <1>   0.1500 
 59 H       11.4730     1.7720     1.0470 H     1 <1>   0.1500 
 60 H       12.0790     5.1000     3.6550 H     1 <1>   0.1500 
 61 H       12.8280     2.9530     2.7530 H     1 <1>   0.1500 
@<TRIPOS>BOND
  1   1   2  2   
  2   2   3  am  
  3   2   4  1   
  4   3   5  1   
  5   3   6  1   
  6   4   7  ar  
  7   4   8  ar  
  8   5   7  1   
  9   5  33  1   
 10   5  34  1   
 11   6   9  1   
 12   6  35  1   
 13   6  36  1   
 14   7  10  ar  
 15   8  11  ar  
 16   8  37  1   
 17   9  12  1   
 18   9  13  1   
 19   9  38  1   
 20  10  14  ar  
 21  10  39  1   
 22  11  14  ar  
 23  11  40  1   
 24  12  15  1   
 25  12  41  1   
 26  12  42  1   
 27  13  16  1   
 28  13  43  1   
 29  13  44  1   
 30  14  45  1   
 31  15  17  1   
 32  15  46  1   
 33  15  47  1   
 34  16  17  1   
 35  16  48  1   
 36  16  49  1   
 37  17  18  1   
 38  17  50  1   
 39  18  19  2   
 40  18  20  am  
 41  20  21  1   
 42  20  22  1   
 43  21  23  1   
 44  21  51  1   
 45  21  52  1   
 46  22  24  1   
 47  22  53  1   
 48  22  54  1   
 49  23  25  1   
 50  23  26  2   
 51  24  26  1   
 52  24  55  1   
 53  24  56  1   
 54  25  27  1   
 55  25  57  1   
 56  26  28  1   
 57  27  28  ar  
 58  27  29  ar  
 59  28  30  ar  
 60  29  31  ar  
 61  29  58  1   
 62  30  32  ar  
 63  30  59  1   
 64  31  32  ar  
 65  31  60  1   
 66  32  61  1   
@<TRIPOS>SUBSTRUCTURE
  1 ****  17 GROUP 4 **** **** 0

# MOE 2024.06 (io_trps.svl 2023.06)
