@<TRIPOS>MOLECULE
NONAME
50 53 1 0 0 
SMALL
USER_CHARGES


@<TRIPOS>ATOM
  1 O       -1.7690     0.4350    -1.9070 O.2   1 <1>  -0.5700 
  2 C       -1.8530     0.8690    -0.7760 C.2   1 <1>   0.5440 
  3 N       -2.2130     0.0010     0.2170 N.am  1 <1>  -0.7300 
  4 C       -1.5920     2.2620    -0.5090 C.ar  1 <1>   0.0860 
  5 C       -2.4280    -1.4530     0.0320 C.3   1 <1>   0.2200 
  6 C       -1.5540     3.2040    -1.5200 C.ar  1 <1>   0.1600 
  7 C       -1.3560     2.7680     0.7560 C.ar  1 <1>   0.1600 
  8 C       -3.9210    -1.7370    -0.0300 C.3   1 <1>  -0.0800 
  9 C       -2.0310    -2.1860     1.3070 C.3   1 <1>   0.1200 
 10 N       -1.3310     4.4790    -1.3130 N.ar  1 <1>  -0.6200 
 11 N       -1.1320     4.0350     0.9990 N.ar  1 <1>  -0.6200 
 12 C       -4.3000    -1.8390     1.4540 C.3   1 <1>   0.1200 
 13 C       -4.2140    -3.0380    -0.8010 C.3   1 <1>  -0.0170 
 14 O       -3.1160    -2.0470     2.1710 O.3   1 <1>  -0.5600 
 15 C       -1.1280     4.8570    -0.0510 C.ar  1 <1>   0.7200 
 16 C       -5.7050    -3.3290    -0.8680 C.ar  1 <1>  -0.1430 
 17 N       -0.8950     6.1890     0.1840 N.pl3 1 <1>  -0.8380 
 18 C       -6.2980    -4.3090    -0.0980 C.ar  1 <1>  -0.1500 
 19 C       -6.5450    -2.6260    -1.7080 C.ar  1 <1>  -0.1500 
 20 C       -0.6250     6.7590     1.5420 C.3   1 <1>   0.2090 
 21 C       -0.8320     7.2220    -0.8980 C.3   1 <1>   0.2090 
 22 C       -7.6620    -4.5290    -0.1980 C.ar  1 <1>   0.1600 
 23 C       -7.8970    -2.9250    -1.7340 C.ar  1 <1>   0.1600 
 24 C       -1.4640     8.0270     1.7780 C.3   1 <1>   0.1200 
 25 C       -1.6580     8.4630    -0.5160 C.3   1 <1>   0.1200 
 26 N       -8.4760    -3.8580    -0.9970 N.ar  1 <1>  -0.6200 
 27 O       -1.2840     8.9540     0.7430 O.3   1 <1>  -0.5600 
 28 H       -2.4520     0.3260     1.1560 H     1 <1>   0.3700 
 29 H       -1.8880    -1.8100    -0.8300 H     1 <1>   0.0800 
 30 H       -1.7150     2.8820    -2.5360 H     1 <1>   0.1500 
 31 H       -1.3480     2.1010     1.5990 H     1 <1>   0.1500 
 32 H       -4.4490    -0.9300    -0.5070 H     1 <1>   0.0800 
 33 H       -1.1460    -1.7790     1.7630 H     1 <1>   0.0800 
 34 H       -1.8930    -3.2360     1.1180 H     1 <1>   0.0800 
 35 H       -4.9770    -2.6480     1.6620 H     1 <1>   0.0800 
 36 H       -4.7320    -0.9170     1.8020 H     1 <1>   0.0800 
 37 H       -3.7070    -3.8680    -0.3400 H     1 <1>   0.0800 
 38 H       -3.8370    -2.9480    -1.8060 H     1 <1>   0.0800 
 39 H       -5.7150    -4.9060     0.5800 H     1 <1>   0.1500 
 40 H       -6.1600    -1.8490    -2.3450 H     1 <1>   0.1500 
 41 H       -0.8520     6.0500     2.3180 H     1 <1>   0.0800 
 42 H        0.4190     7.0070     1.6180 H     1 <1>   0.0800 
 43 H        0.1930     7.5130    -1.0470 H     1 <1>   0.0800 
 44 H       -1.2030     6.8390    -1.8310 H     1 <1>   0.0800 
 45 H       -8.1060    -5.2970     0.4110 H     1 <1>   0.1500 
 46 H       -8.5360    -2.3660    -2.3960 H     1 <1>   0.1500 
 47 H       -1.1680     8.5000     2.6970 H     1 <1>   0.0800 
 48 H       -2.5090     7.7770     1.8390 H     1 <1>   0.0800 
 49 H       -2.7060     8.2200    -0.4930 H     1 <1>   0.0800 
 50 H       -1.5010     9.2480    -1.2340 H     1 <1>   0.0800 
@<TRIPOS>BOND
  1   1   2  2   
  2   2   3  am  
  3   2   4  1   
  4   3   5  1   
  5   3  28  1   
  6   4   6  ar  
  7   4   7  ar  
  8   5   8  1   
  9   5   9  1   
 10   5  29  1   
 11   6  10  ar  
 12   6  30  1   
 13   7  11  ar  
 14   7  31  1   
 15   8  12  1   
 16   8  13  1   
 17   8  32  1   
 18   9  14  1   
 19   9  33  1   
 20   9  34  1   
 21  10  15  ar  
 22  11  15  ar  
 23  12  14  1   
 24  12  35  1   
 25  12  36  1   
 26  13  16  1   
 27  13  37  1   
 28  13  38  1   
 29  15  17  1   
 30  16  18  ar  
 31  16  19  ar  
 32  17  20  1   
 33  17  21  1   
 34  18  22  ar  
 35  18  39  1   
 36  19  23  ar  
 37  19  40  1   
 38  20  24  1   
 39  20  41  1   
 40  20  42  1   
 41  21  25  1   
 42  21  43  1   
 43  21  44  1   
 44  22  26  ar  
 45  22  45  1   
 46  23  26  ar  
 47  23  46  1   
 48  24  27  1   
 49  24  47  1   
 50  24  48  1   
 51  25  27  1   
 52  25  49  1   
 53  25  50  1   
@<TRIPOS>SUBSTRUCTURE
  1 ****   2 GROUP 4 **** **** 0

# MOE 2024.06 (io_trps.svl 2023.06)
