@<TRIPOS>MOLECULE
NONAME
45 46 1 0 0 
SMALL
USER_CHARGES


@<TRIPOS>ATOM
  1 S       -0.0210     0.2640    -0.9400 S.o2  1 <1>   1.3330 
  2 O       -0.3670    -1.1250    -1.1280 O.2   1 <1>  -0.6500 
  3 O       -0.3650     1.2420    -1.9470 O.2   1 <1>  -0.6500 
  4 N        1.6390     0.3620    -0.6160 N.am  1 <1>  -0.8490 
  5 C       -0.7380     0.8160     0.6160 C.3   1 <1>  -0.0550 
  6 C        2.2240    -0.8820    -0.1040 C.3   1 <1>   0.1160 
  7 C        2.4360     0.8420    -1.7550 C.3   1 <1>   0.1160 
  8 C       -0.5150     2.2900     1.0490 C.3   1 <1>  -0.0800 
  9 C       -1.0690     3.3190     0.0520 C.3   1 <1>   0.2000 
 10 C        0.9580     2.6820     1.2740 C.3   1 <1>   0.3430 
 11 O       -1.7240     4.3130     0.7720 O.3   1 <1>  -0.6800 
 12 C        0.1610     3.9090    -0.6460 C.3   1 <1>   0.3430 
 13 N        1.2620     3.7890     0.3410 N.4   1 <1>  -0.9590 
 14 C        1.6430     5.0670     1.0070 C.3   1 <1>   0.4860 
 15 C        2.1410     6.0580    -0.0370 C.ar  1 <1>  -0.1440 
 16 C        3.3310     5.7580    -0.7050 C.ar  1 <1>  -0.1790 
 17 C        1.4480     7.2250    -0.3200 C.ar  1 <1>  -0.1500 
 18 C        3.9930     4.5110    -0.3970 C.2   1 <1>   0.9790 
 19 C        3.8040     6.6560    -1.6580 C.ar  1 <1>  -0.1500 
 20 C        1.9330     8.1040    -1.2720 C.ar  1 <1>  -0.1500 
 21 O        3.6500     3.4950    -1.0240 O.co2 1 <1>  -0.9000 
 22 O        4.5800     4.3610     0.6800 O.co2 1 <1>  -0.9000 
 23 C        3.1110     7.8190    -1.9390 C.ar  1 <1>  -0.1500 
 24 H       -1.7980     0.6550     0.5590 H     1 <1>   0.0800 
 25 H       -0.3760     0.1760     1.3970 H     1 <1>   0.0800 
 26 H        3.2520    -0.7180     0.1760 H     1 <1>   0.0800 
 27 H        2.1860    -1.6520    -0.8570 H     1 <1>   0.0800 
 28 H        1.6830    -1.2210     0.7630 H     1 <1>   0.0800 
 29 H        3.4680     0.9580    -1.4680 H     1 <1>   0.0800 
 30 H        2.0820     1.8040    -2.0860 H     1 <1>   0.0800 
 31 H        2.3730     0.1510    -2.5790 H     1 <1>   0.0800 
 32 H       -1.0280     2.3950     1.9900 H     1 <1>   0.0800 
 33 H       -1.7730     2.9110    -0.6540 H     1 <1>   0.0800 
 34 H        1.6210     1.8550     1.0860 H     1 <1>   0.0800 
 35 H        1.1100     3.0020     2.2910 H     1 <1>   0.0800 
 36 H       -1.1600     4.6780     1.4780 H     1 <1>   0.4000 
 37 H       -0.0040     4.9270    -0.9580 H     1 <1>   0.0800 
 38 H        0.4050     3.3170    -1.5110 H     1 <1>   0.0800 
 39 H        2.1270     3.5090    -0.1970 H     1 <1>   0.4500 
 40 H        0.8050     5.4820     1.5380 H     1 <1>   0.0800 
 41 H        2.4420     4.8820     1.7090 H     1 <1>   0.0800 
 42 H        0.5330     7.4620     0.1930 H     1 <1>   0.1500 
 43 H        4.7200     6.4320    -2.1790 H     1 <1>   0.1500 
 44 H        1.3980     9.0110    -1.4940 H     1 <1>   0.1500 
 45 H        3.4910     8.5020    -2.6790 H     1 <1>   0.1500 
@<TRIPOS>BOND
  1   1   2  2   
  2   1   3  2   
  3   1   4  am  
  4   1   5  1   
  5   4   6  1   
  6   4   7  1   
  7   5   8  1   
  8   5  24  1   
  9   5  25  1   
 10   6  26  1   
 11   6  27  1   
 12   6  28  1   
 13   7  29  1   
 14   7  30  1   
 15   7  31  1   
 16   8   9  1   
 17   8  10  1   
 18   8  32  1   
 19   9  11  1   
 20   9  12  1   
 21   9  33  1   
 22  10  13  1   
 23  10  34  1   
 24  10  35  1   
 25  11  36  1   
 26  12  13  1   
 27  12  37  1   
 28  12  38  1   
 29  13  14  1   
 30  13  39  1   
 31  14  15  1   
 32  14  40  1   
 33  14  41  1   
 34  15  16  ar  
 35  15  17  ar  
 36  16  18  1   
 37  16  19  ar  
 38  17  20  ar  
 39  17  42  1   
 40  18  21  ar  
 41  18  22  ar  
 42  19  23  ar  
 43  19  43  1   
 44  20  23  ar  
 45  20  44  1   
 46  23  45  1   
@<TRIPOS>SUBSTRUCTURE
  1 ****  13 GROUP 4 **** **** 0

# MOE 2024.06 (io_trps.svl 2023.06)
