@<TRIPOS>MOLECULE
NONAME
42 45 1 0 0 
SMALL
USER_CHARGES


@<TRIPOS>ATOM
  1 S       -0.4930     0.9210     1.9570 S.3   1 <1>  -0.0800 
  2 C       -0.2220     1.9770     0.5870 C.2   1 <1>  -0.1400 
  3 C        0.9950     1.4810     2.7070 C.2   1 <1>  -0.1100 
  4 C        0.9150     2.6740     0.7100 C.2   1 <1>  -0.1810 
  5 C       -1.1780     2.0660    -0.5700 C.3   1 <1>   0.0200 
  6 C        1.6130     2.3940     1.9330 C.2   1 <1>  -0.1500 
  7 C        1.3620     3.6500    -0.3810 C.3   1 <1>   0.4610 
  8 C       -0.8630     3.3700    -1.3200 C.3   1 <1>   0.1200 
  9 O        0.5240     3.5250    -1.5160 O.3   1 <1>  -0.5600 
 10 C        1.3080     5.1010     0.1210 C.3   1 <1>  -0.1600 
 11 C        2.7760     3.3030    -0.8620 C.3   1 <1>  -0.1600 
 12 C        1.8320     6.0770    -0.9340 C.3   1 <1>   0.1400 
 13 C        3.2880     4.3110    -1.8920 C.3   1 <1>   0.1400 
 14 N        3.2180     5.6810    -1.3070 N.am  1 <1>  -0.6600 
 15 C        4.3550     6.4310    -1.1140 C.2   1 <1>   0.5690 
 16 O        5.4460     6.0040    -1.4150 O.2   1 <1>  -0.5700 
 17 C        4.2760     7.8280    -0.4950 C.3   1 <1>  -0.0190 
 18 C        5.5490     8.6520    -0.6370 C.3   1 <1>   0.1200 
 19 C        4.0720     7.8300     1.0180 C.3   1 <1>  -0.1600 
 20 O        5.4590     9.6000     0.3760 O.3   1 <1>  -0.5600 
 21 C        4.8810     9.0310     1.5060 C.3   1 <1>   0.1200 
 22 H        1.2520     1.0600     3.6630 H     1 <1>   0.1500 
 23 H       -2.1940     2.0830    -0.2190 H     1 <1>   0.0800 
 24 H       -1.0480     1.2200    -1.2200 H     1 <1>   0.0800 
 25 H        2.5400     2.8840     2.1740 H     1 <1>   0.1500 
 26 H       -1.2260     4.2170    -0.7660 H     1 <1>   0.0800 
 27 H       -1.3330     3.3650    -2.2880 H     1 <1>   0.0800 
 28 H        1.9150     5.1910     1.0020 H     1 <1>   0.0800 
 29 H        0.3050     5.3580     0.4000 H     1 <1>   0.0800 
 30 H        2.7720     2.3150    -1.2860 H     1 <1>   0.0800 
 31 H        3.4550     3.2960    -0.0300 H     1 <1>   0.0800 
 32 H        1.7940     7.0780    -0.5480 H     1 <1>   0.0800 
 33 H        1.2090     6.0380    -1.8120 H     1 <1>   0.0800 
 34 H        2.6800     4.2740    -2.7800 H     1 <1>   0.0800 
 35 H        4.2970     4.0600    -2.1710 H     1 <1>   0.0800 
 36 H        3.4950     8.3850    -0.9760 H     1 <1>   0.0800 
 37 H        5.6190     9.1470    -1.5890 H     1 <1>   0.0800 
 38 H        6.4320     8.0620    -0.4580 H     1 <1>   0.0800 
 39 H        4.4690     6.9330     1.4600 H     1 <1>   0.0800 
 40 H        3.0350     7.9230     1.2870 H     1 <1>   0.0800 
 41 H        5.6710     8.7280     2.1720 H     1 <1>   0.0800 
 42 H        4.2630     9.7740     1.9800 H     1 <1>   0.0800 
@<TRIPOS>BOND
  1   1   2  1   
  2   1   3  1   
  3   2   4  2   
  4   2   5  1   
  5   3   6  2   
  6   3  22  1   
  7   4   6  1   
  8   4   7  1   
  9   5   8  1   
 10   5  23  1   
 11   5  24  1   
 12   6  25  1   
 13   7   9  1   
 14   7  10  1   
 15   7  11  1   
 16   8   9  1   
 17   8  26  1   
 18   8  27  1   
 19  10  12  1   
 20  10  28  1   
 21  10  29  1   
 22  11  13  1   
 23  11  30  1   
 24  11  31  1   
 25  12  14  1   
 26  12  32  1   
 27  12  33  1   
 28  13  14  1   
 29  13  34  1   
 30  13  35  1   
 31  14  15  am  
 32  15  16  2   
 33  15  17  1   
 34  17  18  1   
 35  17  19  1   
 36  17  36  1   
 37  18  20  1   
 38  18  37  1   
 39  18  38  1   
 40  19  21  1   
 41  19  39  1   
 42  19  40  1   
 43  20  21  1   
 44  21  41  1   
 45  21  42  1   
@<TRIPOS>SUBSTRUCTURE
  1 ****  10 GROUP 4 **** **** 0

# MOE 2024.06 (io_trps.svl 2023.06)
