@<TRIPOS>MOLECULE
NONAME
45 47 1 0 0 
SMALL
USER_CHARGES


@<TRIPOS>ATOM
  1 CL       0.3340    -0.9000     1.0300 Cl    1 <1>  -0.1770 
  2 C       -0.6440    -2.2200     0.4440 C.ar  1 <1>   0.1770 
  3 C       -0.0390    -3.2780    -0.2050 C.ar  1 <1>  -0.1500 
  4 C       -2.0120    -2.1920     0.6330 C.ar  1 <1>  -0.1500 
  5 C       -0.8200    -4.3230    -0.6680 C.ar  1 <1>  -0.1500 
  6 C       -2.7810    -3.2410     0.1630 C.ar  1 <1>  -0.1500 
  7 C       -2.2070    -4.3330    -0.4960 C.ar  1 <1>   0.0530 
  8 C       -3.0020    -5.4330    -0.9890 C.2   1 <1>   0.0870 
  9 O       -2.5490    -6.1910    -1.9610 O.3   1 <1>  -0.0190 
 10 C       -4.2210    -5.9230    -0.6530 C.2   1 <1>  -0.2330 
 11 N       -3.3820    -7.1420    -2.2950 N.2   1 <1>  -0.4100 
 12 C       -4.4010    -6.9980    -1.5230 C.2   1 <1>   0.3720 
 13 C       -5.1430    -5.5000     0.3460 C.2   1 <1>   1.0330 
 14 N       -5.5100    -7.8440    -1.5950 N.pl3 1 <1>  -0.8210 
 15 O       -5.1650    -6.0410     1.4630 O.co2 1 <1>  -0.9000 
 16 O       -5.9350    -4.5700     0.1110 O.co2 1 <1>  -0.9000 
 17 C       -5.6300    -8.7560    -0.4280 C.3   1 <1>   0.2090 
 18 C       -6.7930    -7.1450    -1.8620 C.3   1 <1>   0.2090 
 19 C       -6.6490    -9.8640    -0.7500 C.3   1 <1>  -0.0800 
 20 C       -7.8490    -8.1890    -2.2340 C.3   1 <1>  -0.1600 
 21 C       -8.0120    -9.2440    -1.1260 C.3   1 <1>  -0.1600 
 22 C       -6.7630   -10.8410     0.4360 C.3   1 <1>  -0.1600 
 23 C       -7.6350   -12.0580     0.1200 C.3   1 <1>   0.1200 
 24 O       -7.5630   -12.9320     1.1990 O.3   1 <1>  -0.5600 
 25 C       -8.3150   -14.0900     1.0380 C.3   1 <1>   0.0400 
 26 H        1.0270    -3.2820    -0.3430 H     1 <1>   0.1500 
 27 H       -2.4700    -1.3630     1.1400 H     1 <1>   0.1500 
 28 H       -0.3500    -5.1500    -1.1700 H     1 <1>   0.1500 
 29 H       -3.8480    -3.2080     0.3090 H     1 <1>   0.1500 
 30 H       -5.9490    -8.2020     0.4390 H     1 <1>   0.0800 
 31 H       -4.6670    -9.1870    -0.2170 H     1 <1>   0.0800 
 32 H       -6.6590    -6.4430    -2.6670 H     1 <1>   0.0800 
 33 H       -7.1120    -6.6040    -0.9870 H     1 <1>   0.0800 
 34 H       -6.2660   -10.4040    -1.5990 H     1 <1>   0.0800 
 35 H       -7.5510    -8.6640    -3.1510 H     1 <1>   0.0800 
 36 H       -8.7880    -7.6930    -2.4040 H     1 <1>   0.0800 
 37 H       -8.4380    -8.7720    -0.2570 H     1 <1>   0.0800 
 38 H       -8.6930   -10.0030    -1.4660 H     1 <1>   0.0800 
 39 H       -7.1680   -10.3280     1.2910 H     1 <1>   0.0800 
 40 H       -5.7780   -11.1920     0.6910 H     1 <1>   0.0800 
 41 H       -7.2710   -12.5640    -0.7580 H     1 <1>   0.0800 
 42 H       -8.6620   -11.7690    -0.0170 H     1 <1>   0.0800 
 43 H       -8.1900   -14.6940     1.9190 H     1 <1>   0.0800 
 44 H       -7.9590   -14.6280     0.1760 H     1 <1>   0.0800 
 45 H       -9.3520   -13.8270     0.9210 H     1 <1>   0.0800 
@<TRIPOS>BOND
  1   1   2  1   
  2   2   3  ar  
  3   2   4  ar  
  4   3   5  ar  
  5   3  26  1   
  6   4   6  ar  
  7   4  27  1   
  8   5   7  ar  
  9   5  28  1   
 10   6   7  ar  
 11   6  29  1   
 12   7   8  1   
 13   8   9  1   
 14   8  10  2   
 15   9  11  1   
 16  10  12  1   
 17  10  13  1   
 18  11  12  2   
 19  12  14  1   
 20  13  15  ar  
 21  13  16  ar  
 22  14  17  1   
 23  14  18  1   
 24  17  19  1   
 25  17  30  1   
 26  17  31  1   
 27  18  20  1   
 28  18  32  1   
 29  18  33  1   
 30  19  21  1   
 31  19  22  1   
 32  19  34  1   
 33  20  21  1   
 34  20  35  1   
 35  20  36  1   
 36  21  37  1   
 37  21  38  1   
 38  22  23  1   
 39  22  39  1   
 40  22  40  1   
 41  23  24  1   
 42  23  41  1   
 43  23  42  1   
 44  24  25  1   
 45  25  43  1   
 46  25  44  1   
 47  25  45  1   
@<TRIPOS>SUBSTRUCTURE
  1 ****  10 GROUP 4 **** **** 0

# MOE 2024.06 (io_trps.svl 2023.06)
