@<TRIPOS>MOLECULE
NONAME
40 41 1 0 0 
SMALL
USER_CHARGES


@<TRIPOS>ATOM
  1 F        0.6310     0.9820    -0.4850 F     1 <1>  -0.1900 
  2 C       -0.6240     1.2860    -0.7200 C.ar  1 <1>   0.1900 
  3 C       -1.1370     2.4830    -0.2330 C.ar  1 <1>   0.1000 
  4 C       -1.4000     0.4090    -1.4520 C.ar  1 <1>   0.1600 
  5 N       -0.3820     3.3890     0.5070 N.pl3 1 <1>  -0.8690 
  6 C       -2.4730     2.6930    -0.5390 C.ar  1 <1>  -0.1500 
  7 N       -2.6780     0.6210    -1.7510 N.ar  1 <1>  -0.6200 
  8 C       -0.3890     4.8240     0.1690 C.3   1 <1>   0.4330 
  9 C       -3.1770     1.7580    -1.2800 C.ar  1 <1>   0.1600 
 10 C        1.0620     5.2380    -0.0300 C.ar  1 <1>  -0.1430 
 11 C       -1.1370     5.5810     1.2820 C.3   1 <1>  -0.1600 
 12 C        1.9550     5.2700     1.0340 C.ar  1 <1>   0.1600 
 13 C        1.5230     5.5830    -1.2860 C.ar  1 <1>  -0.1500 
 14 C       -1.5050     7.0640     1.0220 C.3   1 <1>   0.0000 
 15 N        3.2290     5.6200     0.9490 N.ar  1 <1>  -0.6200 
 16 C        2.8480     5.9490    -1.3940 C.ar  1 <1>  -0.1500 
 17 C       -2.3160     7.2220    -0.2740 C.3   1 <1>  -0.2400 
 18 C       -2.3740     7.5460     2.1940 C.3   1 <1>  -0.2400 
 19 C       -0.2660     7.9690     0.9540 C.3   1 <1>  -0.2400 
 20 C        3.6440     5.9520    -0.2620 C.ar  1 <1>   0.1600 
 21 H       -0.9520    -0.5020    -1.8080 H     1 <1>   0.1500 
 22 H        0.5890     3.0780     0.6480 H     1 <1>   0.4000 
 23 H       -2.9690     3.5790    -0.1940 H     1 <1>   0.1500 
 24 H       -0.9180     4.9490    -0.7600 H     1 <1>   0.0800 
 25 H       -4.2140     1.9530    -1.4990 H     1 <1>   0.1500 
 26 H       -0.5720     5.5160     2.1930 H     1 <1>   0.0800 
 27 H       -2.0550     5.0490     1.4570 H     1 <1>   0.0800 
 28 H        1.6070     4.9910     2.0130 H     1 <1>   0.1500 
 29 H        0.8820     5.5690    -2.1510 H     1 <1>   0.1500 
 30 H        3.2630     6.2300    -2.3440 H     1 <1>   0.1500 
 31 H       -3.1740     6.5730    -0.2660 H     1 <1>   0.0800 
 32 H       -1.7180     6.9960    -1.1380 H     1 <1>   0.0800 
 33 H       -2.6630     8.2360    -0.3740 H     1 <1>   0.0800 
 34 H       -3.2730     6.9600     2.2700 H     1 <1>   0.0800 
 35 H       -2.6560     8.5750     2.0620 H     1 <1>   0.0800 
 36 H       -1.8360     7.4620     3.1220 H     1 <1>   0.0800 
 37 H        0.3170     7.7730     0.0730 H     1 <1>   0.0800 
 38 H        0.3600     7.8230     1.8170 H     1 <1>   0.0800 
 39 H       -0.5570     9.0040     0.9230 H     1 <1>   0.0800 
 40 H        4.6770     6.2410    -0.3580 H     1 <1>   0.1500 
@<TRIPOS>BOND
  1   1   2  1   
  2   2   3  ar  
  3   2   4  ar  
  4   3   5  1   
  5   3   6  ar  
  6   4   7  ar  
  7   4  21  1   
  8   5   8  1   
  9   5  22  1   
 10   6   9  ar  
 11   6  23  1   
 12   7   9  ar  
 13   8  10  1   
 14   8  11  1   
 15   8  24  1   
 16   9  25  1   
 17  10  12  ar  
 18  10  13  ar  
 19  11  14  1   
 20  11  26  1   
 21  11  27  1   
 22  12  15  ar  
 23  12  28  1   
 24  13  16  ar  
 25  13  29  1   
 26  14  17  1   
 27  14  18  1   
 28  14  19  1   
 29  15  20  ar  
 30  16  20  ar  
 31  16  30  1   
 32  17  31  1   
 33  17  32  1   
 34  17  33  1   
 35  18  34  1   
 36  18  35  1   
 37  18  36  1   
 38  19  37  1   
 39  19  38  1   
 40  19  39  1   
 41  20  40  1   
@<TRIPOS>SUBSTRUCTURE
  1 ****   8 GROUP 4 **** **** 0

# MOE 2024.06 (io_trps.svl 2023.06)
