@<TRIPOS>MOLECULE
NONAME
52 55 1 0 0 
SMALL
USER_CHARGES


@<TRIPOS>ATOM
  1 O        0.2500     1.2510     1.2350 O.2   1 <1>  -0.5700 
  2 C        0.1980     2.3020     0.6490 C.2   1 <1>   0.5690 
  3 N       -0.5240     3.3330     1.1420 N.am  1 <1>  -0.7300 
  4 C        0.9320     2.4810    -0.6820 C.3   1 <1>   0.1810 
  5 C       -0.6640     4.6420     0.4610 C.3   1 <1>   0.3640 
  6 O        1.1510     3.8400    -0.9940 O.3   1 <1>  -0.5600 
  7 C       -2.1410     5.0160     0.4030 C.ar  1 <1>  -0.1440 
  8 C       -0.0210     4.6450    -0.9500 C.3   1 <1>   0.2610 
  9 C       -3.1090     4.0850     0.0450 C.ar  1 <1>  -0.1500 
 10 C       -2.5340     6.3130     0.7040 C.ar  1 <1>  -0.1500 
 11 C        0.2600     6.0940    -1.3690 C.2   1 <1>   0.5690 
 12 C       -4.4450     4.4430    -0.0040 C.ar  1 <1>  -0.1500 
 13 C       -3.8700     6.6720     0.6540 C.ar  1 <1>  -0.1500 
 14 O       -0.5270     6.6270    -2.1150 O.2   1 <1>  -0.5700 
 15 N        1.3360     6.7960    -0.8940 N.am  1 <1>  -0.6600 
 16 C       -4.8260     5.7370     0.3000 C.ar  1 <1>  -0.1500 
 17 C        1.5550     8.2350    -1.2340 C.3   1 <1>   0.2840 
 18 C        2.4950     6.2610    -0.1220 C.3   1 <1>   0.2840 
 19 C        2.8410     8.5720    -0.5190 C.ar  1 <1>   0.1670 
 20 C        3.3570     7.4760     0.0980 C.ar  1 <1>  -0.1430 
 21 N        3.4100     9.7540    -0.4740 N.ar  1 <1>  -0.6200 
 22 C        4.5270     7.6260     0.7930 C.ar  1 <1>   0.1600 
 23 C        4.5450     9.8110     0.2230 C.ar  1 <1>   0.4770 
 24 N        5.1280     8.7940     0.8620 N.ar  1 <1>  -0.6200 
 25 C        5.2410    11.2040     0.2870 C.3   1 <1>   0.1440 
 26 C        4.2970    12.2390     0.9280 C.3   1 <1>  -0.2400 
 27 C        6.5460    11.1940     1.1150 C.3   1 <1>  -0.2400 
 28 C        5.6010    11.6800    -1.1340 C.3   1 <1>  -0.2400 
 29 H       -1.0590     3.1940     2.0010 H     1 <1>   0.3700 
 30 H        0.3590     2.0360    -1.4740 H     1 <1>   0.0800 
 31 H        1.8900     1.9960    -0.6300 H     1 <1>   0.0800 
 32 H       -0.1550     5.3730     1.0650 H     1 <1>   0.0800 
 33 H       -0.7190     4.2310    -1.6560 H     1 <1>   0.0800 
 34 H       -2.8340     3.0720    -0.1960 H     1 <1>   0.1500 
 35 H       -1.8070     7.0580     0.9750 H     1 <1>   0.1500 
 36 H       -5.1880     3.7160    -0.2810 H     1 <1>   0.1500 
 37 H       -4.1660     7.6800     0.8870 H     1 <1>   0.1500 
 38 H       -5.8650     6.0170     0.2610 H     1 <1>   0.1500 
 39 H        1.6640     8.3610    -2.2960 H     1 <1>   0.0800 
 40 H        0.7430     8.8380    -0.8690 H     1 <1>   0.0800 
 41 H        2.1710     5.8400     0.8140 H     1 <1>   0.0800 
 42 H        3.0230     5.5250    -0.7030 H     1 <1>   0.0800 
 43 H        4.9800     6.7900     1.2990 H     1 <1>   0.1500 
 44 H        4.7700    13.2030     0.9900 H     1 <1>   0.0800 
 45 H        4.0250    11.9240     1.9200 H     1 <1>   0.0800 
 46 H        3.3980    12.3400     0.3470 H     1 <1>   0.0800 
 47 H        6.9960    12.1700     1.1350 H     1 <1>   0.0800 
 48 H        7.2520    10.5030     0.6900 H     1 <1>   0.0800 
 49 H        6.3440    10.8910     2.1270 H     1 <1>   0.0800 
 50 H        6.0950    12.6350    -1.1050 H     1 <1>   0.0800 
 51 H        4.7140    11.7750    -1.7350 H     1 <1>   0.0800 
 52 H        6.2530    10.9670    -1.6060 H     1 <1>   0.0800 
@<TRIPOS>BOND
  1   1   2  2   
  2   2   3  am  
  3   2   4  1   
  4   3   5  1   
  5   3  29  1   
  6   4   6  1   
  7   4  30  1   
  8   4  31  1   
  9   5   7  1   
 10   5   8  1   
 11   5  32  1   
 12   6   8  1   
 13   7   9  ar  
 14   7  10  ar  
 15   8  11  1   
 16   8  33  1   
 17   9  12  ar  
 18   9  34  1   
 19  10  13  ar  
 20  10  35  1   
 21  11  14  2   
 22  11  15  am  
 23  12  16  ar  
 24  12  36  1   
 25  13  16  ar  
 26  13  37  1   
 27  15  17  1   
 28  15  18  1   
 29  16  38  1   
 30  17  19  1   
 31  17  39  1   
 32  17  40  1   
 33  18  20  1   
 34  18  41  1   
 35  18  42  1   
 36  19  20  ar  
 37  19  21  ar  
 38  20  22  ar  
 39  21  23  ar  
 40  22  24  ar  
 41  22  43  1   
 42  23  24  ar  
 43  23  25  1   
 44  25  26  1   
 45  25  27  1   
 46  25  28  1   
 47  26  44  1   
 48  26  45  1   
 49  26  46  1   
 50  27  47  1   
 51  27  48  1   
 52  27  49  1   
 53  28  50  1   
 54  28  51  1   
 55  28  52  1   
@<TRIPOS>SUBSTRUCTURE
  1 ****  15 GROUP 4 **** **** 0

# MOE 2024.06 (io_trps.svl 2023.06)
