@<TRIPOS>MOLECULE
NONAME
51 53 1 0 0 
SMALL
USER_CHARGES


@<TRIPOS>ATOM
  1 O       -0.1670     0.2540    -1.0600 O.2   1 <1>  -0.5700 
  2 C       -1.1940     0.8820    -0.9730 C.2   1 <1>   0.5690 
  3 N       -2.4060     0.2630    -0.8320 N.am  1 <1>  -0.6600 
  4 C       -1.0980     2.3950    -1.0070 C.3   1 <1>  -0.0990 
  5 C       -3.7260     0.9170    -0.6560 C.3   1 <1>   0.1400 
  6 C       -2.5430    -1.2110    -0.7670 C.3   1 <1>   0.1400 
  7 C       -0.8660     2.9630     0.3970 C.3   1 <1>  -0.0160 
  8 C       -4.7170    -0.2280    -0.4340 C.3   1 <1>   0.2000 
  9 C       -3.8770    -1.4480    -0.0580 C.3   1 <1>  -0.0800 
 10 C       -0.8190     4.4810     0.3530 C.ar  1 <1>  -0.1440 
 11 O       -5.6070     0.0620     0.5880 O.3   1 <1>  -0.6800 
 12 C       -4.5650    -2.7740    -0.4290 C.3   1 <1>  -0.0170 
 13 C        0.3640     5.1330     0.0450 C.ar  1 <1>  -0.1500 
 14 C       -1.9560     5.2270     0.6160 C.ar  1 <1>  -0.1500 
 15 C       -3.7340    -3.9790    -0.0170 C.ar  1 <1>   0.1670 
 16 C        0.4180     6.5240    -0.0030 C.ar  1 <1>   0.0820 
 17 C       -1.9110     6.6090     0.5710 C.ar  1 <1>  -0.1500 
 18 N       -2.7640    -4.3370    -0.8420 N.ar  1 <1>  -0.6200 
 19 C       -4.0110    -4.6410     1.1780 C.ar  1 <1>   0.1600 
 20 O        1.5550     7.2080    -0.3020 O.3   1 <1>  -0.3630 
 21 C       -0.7300     7.2650     0.2630 C.ar  1 <1>  -0.1440 
 22 C       -2.0940    -5.3860    -0.3970 C.ar  1 <1>   0.1600 
 23 N       -3.3420    -5.6910     1.6260 N.ar  1 <1>  -0.6200 
 24 C        2.7670     6.5440    -0.5820 C.3   1 <1>   0.0400 
 25 C       -0.6980     8.7860     0.2190 C.3   1 <1>  -0.0970 
 26 C       -2.3730    -6.0410     0.7970 C.ar  1 <1>   0.1600 
 27 H       -0.2730     2.6670    -1.6390 H     1 <1>   0.0800 
 28 H       -1.9850     2.8190    -1.4370 H     1 <1>   0.0800 
 29 H       -3.6950     1.5730     0.1970 H     1 <1>   0.0800 
 30 H       -3.9870     1.4700    -1.5420 H     1 <1>   0.0800 
 31 H       -2.5630    -1.6060    -1.7690 H     1 <1>   0.0800 
 32 H       -1.7230    -1.6570    -0.2290 H     1 <1>   0.0800 
 33 H        0.0620     2.5820     0.7890 H     1 <1>   0.0800 
 34 H       -1.6520     2.6420     1.0580 H     1 <1>   0.0800 
 35 H       -5.2800    -0.4000    -1.3360 H     1 <1>   0.0800 
 36 H       -3.6760    -1.4350     0.9990 H     1 <1>   0.0800 
 37 H       -5.1290     0.1910     1.4300 H     1 <1>   0.4000 
 38 H       -4.7360    -2.8160    -1.4910 H     1 <1>   0.0800 
 39 H       -5.5250    -2.8200     0.0530 H     1 <1>   0.0800 
 40 H        1.2350     4.5410    -0.1570 H     1 <1>   0.1500 
 41 H       -2.8840     4.7390     0.8570 H     1 <1>   0.1500 
 42 H       -2.8030     7.1720     0.7790 H     1 <1>   0.1500 
 43 H       -4.8190    -4.2870     1.7920 H     1 <1>   0.1500 
 44 H       -1.2830    -5.7470    -1.0050 H     1 <1>   0.1500 
 45 H        3.5160     7.2890    -0.7850 H     1 <1>   0.0800 
 46 H        2.6290     5.9180    -1.4460 H     1 <1>   0.0800 
 47 H        3.0520     5.9630     0.2760 H     1 <1>   0.0800 
 48 H       -1.6610     9.2040     0.4480 H     1 <1>   0.0800 
 49 H       -0.4040     9.1140    -0.7610 H     1 <1>   0.0800 
 50 H        0.0160     9.1550     0.9340 H     1 <1>   0.0800 
 51 H       -1.7700    -6.8860     1.0760 H     1 <1>   0.1500 
@<TRIPOS>BOND
  1   1   2  2   
  2   2   3  am  
  3   2   4  1   
  4   3   5  1   
  5   3   6  1   
  6   4   7  1   
  7   4  27  1   
  8   4  28  1   
  9   5   8  1   
 10   5  29  1   
 11   5  30  1   
 12   6   9  1   
 13   6  31  1   
 14   6  32  1   
 15   7  10  1   
 16   7  33  1   
 17   7  34  1   
 18   8   9  1   
 19   8  11  1   
 20   8  35  1   
 21   9  12  1   
 22   9  36  1   
 23  10  13  ar  
 24  10  14  ar  
 25  11  37  1   
 26  12  15  1   
 27  12  38  1   
 28  12  39  1   
 29  13  16  ar  
 30  13  40  1   
 31  14  17  ar  
 32  14  41  1   
 33  15  18  ar  
 34  15  19  ar  
 35  16  20  1   
 36  16  21  ar  
 37  17  21  ar  
 38  17  42  1   
 39  18  22  ar  
 40  19  23  ar  
 41  19  43  1   
 42  20  24  1   
 43  21  25  1   
 44  22  26  ar  
 45  22  44  1   
 46  23  26  ar  
 47  24  45  1   
 48  24  46  1   
 49  24  47  1   
 50  25  48  1   
 51  25  49  1   
 52  25  50  1   
 53  26  51  1   
@<TRIPOS>SUBSTRUCTURE
  1 ****   2 GROUP 4 **** **** 0

# MOE 2024.06 (io_trps.svl 2023.06)
