@<TRIPOS>MOLECULE
NONAME
47 49 1 0 0 
SMALL
USER_CHARGES


@<TRIPOS>ATOM
  1 S        0.0190     0.0470     0.9460 S.o2  1 <1>   1.4470 
  2 O       -0.1000     1.3540     0.3520 O.2   1 <1>  -0.6500 
  3 O       -0.0640    -0.1290     2.3730 O.2   1 <1>  -0.6500 
  4 N       -1.3450    -0.7140     0.4000 N.am  1 <1>  -0.9780 
  5 C        1.3740    -0.9140     0.2190 C.ar  1 <1>  -0.0090 
  6 C        1.5360    -2.2560     0.5240 C.ar  1 <1>  -0.1500 
  7 C        2.2770    -0.3390    -0.6650 C.ar  1 <1>  -0.1500 
  8 C        2.5480    -3.0400    -0.0280 C.ar  1 <1>   0.0860 
  9 C        3.2990    -1.0850    -1.2220 C.ar  1 <1>  -0.1500 
 10 C        3.4410    -2.4270    -0.9130 C.ar  1 <1>  -0.1430 
 11 C        2.6240    -4.4480     0.3200 C.2   1 <1>   0.5440 
 12 C        4.5770    -3.2200    -1.5460 C.3   1 <1>  -0.0960 
 13 O        3.5980    -4.8920     0.8960 O.2   1 <1>  -0.5700 
 14 N        1.5950    -5.3040     0.0080 N.am  1 <1>  -0.6600 
 15 C        0.4920    -5.0040    -0.9380 C.3   1 <1>   0.1400 
 16 C        1.6260    -6.7470     0.3440 C.3   1 <1>   0.1400 
 17 C       -0.0210    -6.3730    -1.3780 C.3   1 <1>   0.2000 
 18 C        0.3340    -7.3240    -0.2370 C.3   1 <1>  -0.0800 
 19 O       -1.3900    -6.3650    -1.5880 O.3   1 <1>  -0.6800 
 20 C        0.4630    -8.7850    -0.6920 C.3   1 <1>   0.0200 
 21 C        0.8820    -9.6770     0.4600 C.2   1 <1>  -0.0400 
 22 O        0.1020    -9.8130     1.4990 O.3   1 <1>  -0.0190 
 23 C        1.9800   -10.4190     0.6690 C.2   1 <1>  -0.1500 
 24 N        0.6200   -10.6030     2.3940 N.2   1 <1>  -0.4100 
 25 C        1.7520   -10.9840     1.9210 C.2   1 <1>   0.1080 
 26 C        2.7010   -11.9190     2.6360 C.3   1 <1>  -0.0590 
 27 H       -1.7290    -0.0480    -0.2670 H     1 <1>   0.4200 
 28 H       -1.9630    -0.6810     1.2080 H     1 <1>   0.4200 
 29 H        0.8520    -2.7180     1.2170 H     1 <1>   0.1500 
 30 H        2.1810     0.7040    -0.9220 H     1 <1>   0.1500 
 31 H        3.9870    -0.6090    -1.9010 H     1 <1>   0.1500 
 32 H        5.1020    -2.6340    -2.2790 H     1 <1>   0.0800 
 33 H        4.1940    -4.1010    -2.0280 H     1 <1>   0.0800 
 34 H        5.2780    -3.5210    -0.7870 H     1 <1>   0.0800 
 35 H       -0.2760    -4.4540    -0.4230 H     1 <1>   0.0800 
 36 H        0.8540    -4.4410    -1.7810 H     1 <1>   0.0800 
 37 H        2.4940    -7.1930    -0.1130 H     1 <1>   0.0800 
 38 H        1.6780    -6.8880     1.4110 H     1 <1>   0.0800 
 39 H        0.4610    -6.6620    -2.2970 H     1 <1>   0.0800 
 40 H       -0.4160    -7.2560     0.5330 H     1 <1>   0.0800 
 41 H       -1.8640    -6.1940    -0.7500 H     1 <1>   0.4000 
 42 H        1.1900    -8.8610    -1.4810 H     1 <1>   0.0800 
 43 H       -0.4820    -9.1280    -1.0750 H     1 <1>   0.0800 
 44 H        2.8450   -10.5650     0.0490 H     1 <1>   0.1500 
 45 H        2.8800   -12.7890     2.0330 H     1 <1>   0.0800 
 46 H        2.2760   -12.2260     3.5740 H     1 <1>   0.0800 
 47 H        3.6330   -11.4180     2.8240 H     1 <1>   0.0800 
@<TRIPOS>BOND
  1   1   2  2   
  2   1   3  2   
  3   1   4  am  
  4   1   5  1   
  5   4  27  1   
  6   4  28  1   
  7   5   6  ar  
  8   5   7  ar  
  9   6   8  ar  
 10   6  29  1   
 11   7   9  ar  
 12   7  30  1   
 13   8  10  ar  
 14   8  11  1   
 15   9  10  ar  
 16   9  31  1   
 17  10  12  1   
 18  11  13  2   
 19  11  14  am  
 20  12  32  1   
 21  12  33  1   
 22  12  34  1   
 23  14  15  1   
 24  14  16  1   
 25  15  17  1   
 26  15  35  1   
 27  15  36  1   
 28  16  18  1   
 29  16  37  1   
 30  16  38  1   
 31  17  18  1   
 32  17  19  1   
 33  17  39  1   
 34  18  20  1   
 35  18  40  1   
 36  19  41  1   
 37  20  21  1   
 38  20  42  1   
 39  20  43  1   
 40  21  22  1   
 41  21  23  2   
 42  22  24  1   
 43  23  25  1   
 44  23  44  1   
 45  24  25  2   
 46  25  26  1   
 47  26  45  1   
 48  26  46  1   
 49  26  47  1   
@<TRIPOS>SUBSTRUCTURE
  1 ****  14 GROUP 4 **** **** 0

# MOE 2024.06 (io_trps.svl 2023.06)
