@<TRIPOS>MOLECULE
NONAME
51 55 1 0 0 
SMALL
USER_CHARGES


@<TRIPOS>ATOM
  1 O       -1.4930     0.0520    -1.1570 O.2   1 <1>  -0.5700 
  2 C       -1.7620     0.4280    -0.0280 C.2   1 <1>   0.7150 
  3 N       -1.9870    -0.5170     0.9290 N.am  1 <1>  -0.7300 
  4 C       -1.8820     1.8270     0.3070 C.2   1 <1>   0.1020 
  5 C       -2.1290    -1.9690     0.6900 C.3   1 <1>   0.2200 
  6 N       -2.3260     2.2920     1.4480 N.2   1 <1>  -0.3380 
  7 N       -1.5720     2.8520    -0.5090 N.pl3 1 <1>   0.0480 
  8 C       -3.6060    -2.3230     0.5870 C.3   1 <1>  -0.0800 
  9 C       -1.6270    -2.8090     1.8670 C.3   1 <1>   0.1200 
 10 N       -2.3190     3.6160     1.3790 N.2   1 <1>  -0.3380 
 11 C       -1.8710     3.9280     0.2120 C.2   1 <1>   0.0070 
 12 C       -1.0760     2.8610    -1.9080 C.3   1 <1>   0.0960 
 13 C       -3.7130    -3.5990     1.4110 C.3   1 <1>   0.1200 
 14 C       -4.0890    -2.4660    -0.8650 C.3   1 <1>  -0.0160 
 15 O       -2.7370    -3.4700     2.3910 O.3   1 <1>  -0.5600 
 16 C       -1.6870     5.3430    -0.3070 C.3   1 <1>   0.0200 
 17 C       -0.5990     4.2650    -2.3230 C.3   1 <1>  -0.1600 
 18 C       -5.5930    -2.7090    -0.9230 C.ar  1 <1>  -0.1440 
 19 C       -1.5650     5.3600    -1.8400 C.3   1 <1>  -0.1600 
 20 C       -6.5310    -1.6690    -0.7140 C.ar  1 <1>   0.0000 
 21 C       -6.0800    -3.9570    -1.1780 C.ar  1 <1>  -0.1500 
 22 C       -7.9060    -2.0050    -0.7680 C.ar  1 <1>   0.3100 
 23 C       -6.1880    -0.3210    -0.4540 C.ar  1 <1>  -0.1500 
 24 C       -7.4620    -4.1800    -1.2170 C.ar  1 <1>   0.1600 
 25 N       -8.3530    -3.2610    -1.0200 N.ar  1 <1>  -0.6200 
 26 C       -8.8600    -0.9980    -0.5510 C.ar  1 <1>  -0.1500 
 27 C       -7.1440     0.6360    -0.2480 C.ar  1 <1>  -0.1500 
 28 C       -8.4970     0.2970    -0.2950 C.ar  1 <1>  -0.1500 
 29 H       -2.2960    -0.1740     1.8440 H     1 <1>   0.3700 
 30 H       -1.5900    -2.2530    -0.1980 H     1 <1>   0.0800 
 31 H       -4.1930    -1.5780     1.0950 H     1 <1>   0.0800 
 32 H       -1.1810    -2.2120     2.6430 H     1 <1>   0.0800 
 33 H       -0.9300    -3.5560     1.5290 H     1 <1>   0.0800 
 34 H       -0.2690     2.1560    -2.0040 H     1 <1>   0.0800 
 35 H       -1.8820     2.5450    -2.5460 H     1 <1>   0.0800 
 36 H       -3.4840    -4.4740     0.8260 H     1 <1>   0.0800 
 37 H       -4.6770    -3.7070     1.8790 H     1 <1>   0.0800 
 38 H       -3.5680    -3.2800    -1.3390 H     1 <1>   0.0800 
 39 H       -3.8470    -1.5780    -1.4240 H     1 <1>   0.0800 
 40 H       -2.5150     5.9540     0.0060 H     1 <1>   0.0800 
 41 H       -0.7910     5.7470     0.1310 H     1 <1>   0.0800 
 42 H        0.3780     4.4410    -1.9080 H     1 <1>   0.0800 
 43 H       -0.5060     4.3040    -3.3950 H     1 <1>   0.0800 
 44 H       -2.5370     5.1940    -2.2730 H     1 <1>   0.0800 
 45 H       -1.2200     6.3270    -2.1630 H     1 <1>   0.0800 
 46 H       -5.4290    -4.7940    -1.3510 H     1 <1>   0.1500 
 47 H       -5.1550    -0.0340    -0.4170 H     1 <1>   0.1500 
 48 H       -7.8040    -5.1800    -1.4220 H     1 <1>   0.1500 
 49 H       -9.8950    -1.2820    -0.5950 H     1 <1>   0.1500 
 50 H       -6.8660     1.6580    -0.0460 H     1 <1>   0.1500 
 51 H       -9.2400     1.0580    -0.1300 H     1 <1>   0.1500 
@<TRIPOS>BOND
  1   1   2  2   
  2   2   3  am  
  3   2   4  1   
  4   3   5  1   
  5   3  29  1   
  6   4   6  2   
  7   4   7  1   
  8   5   8  1   
  9   5   9  1   
 10   5  30  1   
 11   6  10  1   
 12   7  11  1   
 13   7  12  1   
 14   8  13  1   
 15   8  14  1   
 16   8  31  1   
 17   9  15  1   
 18   9  32  1   
 19   9  33  1   
 20  10  11  2   
 21  11  16  1   
 22  12  17  1   
 23  12  34  1   
 24  12  35  1   
 25  13  15  1   
 26  13  36  1   
 27  13  37  1   
 28  14  18  1   
 29  14  38  1   
 30  14  39  1   
 31  16  19  1   
 32  16  40  1   
 33  16  41  1   
 34  17  19  1   
 35  17  42  1   
 36  17  43  1   
 37  18  20  ar  
 38  18  21  ar  
 39  19  44  1   
 40  19  45  1   
 41  20  22  ar  
 42  20  23  ar  
 43  21  24  ar  
 44  21  46  1   
 45  22  25  ar  
 46  22  26  ar  
 47  23  27  ar  
 48  23  47  1   
 49  24  25  ar  
 50  24  48  1   
 51  26  28  ar  
 52  26  49  1   
 53  27  28  ar  
 54  27  50  1   
 55  28  51  1   
@<TRIPOS>SUBSTRUCTURE
  1 ****   2 GROUP 4 **** **** 0

# MOE 2024.06 (io_trps.svl 2023.06)
