@<TRIPOS>MOLECULE
NONAME
36 37 1 0 0 
SMALL
USER_CHARGES


@<TRIPOS>ATOM
  1 CL      -0.4140    -0.3700     0.1320 Cl    1 <1>  -0.1770 
  2 C        1.0730    -1.2960     0.1750 C.ar  1 <1>   0.1770 
  3 C        1.2740    -2.3210    -0.7430 C.ar  1 <1>  -0.0090 
  4 C        2.0150    -0.9620     1.1440 C.ar  1 <1>  -0.1440 
  5 S        0.0270    -2.7530    -1.9810 S.o2  1 <1>   1.4470 
  6 C        2.4700    -3.0300    -0.6710 C.ar  1 <1>  -0.1500 
  7 C        3.1940    -1.6950     1.1750 C.ar  1 <1>   0.1770 
  8 C        1.7300     0.1720     2.1290 C.3   1 <1>  -0.0970 
  9 O        0.5060    -3.8670    -2.7720 O.2   1 <1>  -0.6500 
 10 O       -0.3980    -1.5650    -2.6910 O.2   1 <1>  -0.6500 
 11 N       -1.2670    -3.3240    -1.0520 N.am  1 <1>  -0.8490 
 12 C        3.4260    -2.7200     0.2790 C.ar  1 <1>  -0.1500 
 13 CL       4.4490    -1.3580     2.3450 Cl    1 <1>  -0.1770 
 14 C       -0.9680    -4.5680    -0.3060 C.3   1 <1>   0.1960 
 15 C       -2.5440    -3.3400    -1.7570 C.3   1 <1>   0.1960 
 16 C       -2.2050    -5.4200    -0.0150 C.3   1 <1>  -0.1860 
 17 C       -3.7000    -3.5130    -0.7570 C.3   1 <1>  -0.1600 
 18 C       -1.8740    -6.4140     1.0660 C.2   1 <1>   0.9060 
 19 C       -3.4270    -4.5680     0.3280 C.3   1 <1>   0.2000 
 20 O       -1.7080    -7.5920     0.7490 O.co2 1 <1>  -0.9000 
 21 O       -1.7590    -6.0110     2.2310 O.co2 1 <1>  -0.9000 
 22 O       -3.1970    -3.9230     1.5280 O.3   1 <1>  -0.6800 
 23 H        2.6540    -3.8360    -1.3640 H     1 <1>   0.1500 
 24 H        2.5260     0.3180     2.8330 H     1 <1>   0.0800 
 25 H        0.8340    -0.0450     2.6840 H     1 <1>   0.0800 
 26 H        1.5870     1.0940     1.5940 H     1 <1>   0.0800 
 27 H        4.3470    -3.2730     0.3300 H     1 <1>   0.1500 
 28 H       -0.2670    -5.1830    -0.8450 H     1 <1>   0.0800 
 29 H       -0.5080    -4.2910     0.6290 H     1 <1>   0.0800 
 30 H       -2.6870    -2.4150    -2.2890 H     1 <1>   0.0800 
 31 H       -2.5420    -4.1440    -2.4750 H     1 <1>   0.0800 
 32 H       -2.4310    -5.9920    -0.8940 H     1 <1>   0.0800 
 33 H       -4.5700    -3.8080    -1.3120 H     1 <1>   0.0800 
 34 H       -3.9160    -2.5640    -0.3000 H     1 <1>   0.0800 
 35 H       -4.2870    -5.2000     0.4720 H     1 <1>   0.0800 
 36 H       -2.6770    -4.5660     2.0940 H     1 <1>   0.4000 
@<TRIPOS>BOND
  1   1   2  1   
  2   2   3  ar  
  3   2   4  ar  
  4   3   5  1   
  5   3   6  ar  
  6   4   7  ar  
  7   4   8  1   
  8   5   9  2   
  9   5  10  2   
 10   5  11  am  
 11   6  12  ar  
 12   6  23  1   
 13   7  12  ar  
 14   7  13  1   
 15   8  24  1   
 16   8  25  1   
 17   8  26  1   
 18  11  14  1   
 19  11  15  1   
 20  12  27  1   
 21  14  16  1   
 22  14  28  1   
 23  14  29  1   
 24  15  17  1   
 25  15  30  1   
 26  15  31  1   
 27  16  18  1   
 28  16  19  1   
 29  16  32  1   
 30  17  19  1   
 31  17  33  1   
 32  17  34  1   
 33  18  20  ar  
 34  18  21  ar  
 35  19  22  1   
 36  19  35  1   
 37  22  36  1   
@<TRIPOS>SUBSTRUCTURE
  1 ****  11 GROUP 4 **** **** 0

# MOE 2024.06 (io_trps.svl 2023.06)
