@<TRIPOS>MOLECULE
NONAME
53 55 1 0 0 
SMALL
USER_CHARGES


@<TRIPOS>ATOM
  1 CL       0.7440    -3.1600    -0.6700 Cl    1 <1>  -0.1770 
  2 C       -0.7420    -3.2440     0.2580 C.ar  1 <1>   0.1770 
  3 C       -0.7770    -3.2200     1.6570 C.ar  1 <1>   0.0830 
  4 C       -1.9040    -3.3720    -0.4750 C.ar  1 <1>  -0.1500 
  5 O        0.2860    -3.0850     2.4890 O.3   1 <1>  -0.3630 
  6 C       -2.0100    -3.3490     2.2810 C.ar  1 <1>  -0.1500 
  7 C       -3.1420    -3.5100     0.1470 C.ar  1 <1>   0.0860 
  8 C        1.4230    -2.3250     2.1470 C.3   1 <1>   0.0400 
  9 C       -3.1710    -3.4850     1.5410 C.ar  1 <1>  -0.1500 
 10 C       -4.3410    -3.6940    -0.6450 C.2   1 <1>   0.5440 
 11 O       -4.7330    -2.7620    -1.3220 O.2   1 <1>  -0.5700 
 12 N       -5.0480    -4.8820    -0.6780 N.am  1 <1>  -0.6600 
 13 C       -4.6100    -6.1230     0.0680 C.3   1 <1>   0.3640 
 14 C       -6.3710    -4.9220    -1.3730 C.3   1 <1>   0.1400 
 15 C       -3.1520    -6.4350    -0.2850 C.ar  1 <1>  -0.1430 
 16 C       -5.4620    -7.4110    -0.1750 C.3   1 <1>   0.2000 
 17 C       -6.7550    -6.3340    -1.8080 C.3   1 <1>   0.1200 
 18 C       -2.2250    -6.6550     0.7230 C.ar  1 <1>  -0.1500 
 19 C       -2.7230    -6.4770    -1.6040 C.ar  1 <1>  -0.1500 
 20 O       -6.7400    -7.1640    -0.6950 O.3   1 <1>  -0.5600 
 21 C       -5.6890    -8.2270     1.1100 C.3   1 <1>   0.1200 
 22 C       -0.8920    -6.8910     0.4370 C.ar  1 <1>   0.0830 
 23 C       -1.3950    -6.7190    -1.9080 C.ar  1 <1>  -0.1500 
 24 O       -4.5010    -8.4720     1.7900 O.3   1 <1>  -0.6800 
 25 O       -0.0860    -7.0770     1.5160 O.3   1 <1>  -0.3630 
 26 C       -0.4610    -6.9220    -0.8960 C.ar  1 <1>   0.0830 
 27 C        1.1550    -6.4090     1.5750 C.3   1 <1>   0.0400 
 28 O        0.8510    -7.1630    -1.1790 O.3   1 <1>  -0.3630 
 29 C        1.4200    -6.7270    -2.3940 C.3   1 <1>   0.0400 
 30 H       -1.8550    -3.3840    -1.5490 H     1 <1>   0.1500 
 31 H       -2.0500    -3.3380     3.3560 H     1 <1>   0.1500 
 32 H        1.9050    -2.0180     3.0570 H     1 <1>   0.0800 
 33 H        1.1160    -1.4580     1.5870 H     1 <1>   0.0800 
 34 H        2.0940    -2.9390     1.5740 H     1 <1>   0.0800 
 35 H       -4.1170    -3.5770     2.0450 H     1 <1>   0.1500 
 36 H       -4.6640    -5.8940     1.1180 H     1 <1>   0.0800 
 37 H       -7.1270    -4.5380    -0.7100 H     1 <1>   0.0800 
 38 H       -6.3470    -4.2900    -2.2450 H     1 <1>   0.0800 
 39 H       -4.9590    -8.0390    -0.8890 H     1 <1>   0.0800 
 40 H       -6.0760    -6.7140    -2.5510 H     1 <1>   0.0800 
 41 H       -7.7530    -6.3380    -2.2090 H     1 <1>   0.0800 
 42 H       -2.5250    -6.6330     1.7570 H     1 <1>   0.1500 
 43 H       -3.4250    -6.3080    -2.4030 H     1 <1>   0.1500 
 44 H       -6.1420    -9.1740     0.8750 H     1 <1>   0.0800 
 45 H       -6.3320    -7.6820     1.7780 H     1 <1>   0.0800 
 46 H       -1.1060    -6.7490    -2.9410 H     1 <1>   0.1500 
 47 H       -3.8850    -9.0150     1.2550 H     1 <1>   0.4000 
 48 H        1.4240    -6.2930     2.6090 H     1 <1>   0.0800 
 49 H        1.0610    -5.4440     1.1110 H     1 <1>   0.0800 
 50 H        1.8930    -7.0030     1.0690 H     1 <1>   0.0800 
 51 H        2.4870    -6.8370    -2.3190 H     1 <1>   0.0800 
 52 H        1.1690    -5.6920    -2.5470 H     1 <1>   0.0800 
 53 H        1.0480    -7.3390    -3.1950 H     1 <1>   0.0800 
@<TRIPOS>BOND
  1   1   2  1   
  2   2   3  ar  
  3   2   4  ar  
  4   3   5  1   
  5   3   6  ar  
  6   4   7  ar  
  7   4  30  1   
  8   5   8  1   
  9   6   9  ar  
 10   6  31  1   
 11   7   9  ar  
 12   7  10  1   
 13   8  32  1   
 14   8  33  1   
 15   8  34  1   
 16   9  35  1   
 17  10  11  2   
 18  10  12  am  
 19  12  13  1   
 20  12  14  1   
 21  13  15  1   
 22  13  16  1   
 23  13  36  1   
 24  14  17  1   
 25  14  37  1   
 26  14  38  1   
 27  15  18  ar  
 28  15  19  ar  
 29  16  20  1   
 30  16  21  1   
 31  16  39  1   
 32  17  20  1   
 33  17  40  1   
 34  17  41  1   
 35  18  22  ar  
 36  18  42  1   
 37  19  23  ar  
 38  19  43  1   
 39  21  24  1   
 40  21  44  1   
 41  21  45  1   
 42  22  25  1   
 43  22  26  ar  
 44  23  26  ar  
 45  23  46  1   
 46  24  47  1   
 47  25  27  1   
 48  26  28  1   
 49  27  48  1   
 50  27  49  1   
 51  27  50  1   
 52  28  29  1   
 53  29  51  1   
 54  29  52  1   
 55  29  53  1   
@<TRIPOS>SUBSTRUCTURE
  1 ****  15 GROUP 4 **** **** 0

# MOE 2024.06 (io_trps.svl 2023.06)
