@<TRIPOS>MOLECULE
NONAME
39 41 1 0 0 
SMALL
USER_CHARGES


@<TRIPOS>ATOM
  1 F       -0.3260    -0.5050     0.5740 F     1 <1>  -0.1900 
  2 C       -0.8090    -1.6920     0.3020 C.ar  1 <1>   0.1900 
  3 C       -0.0040    -2.7240    -0.1940 C.ar  1 <1>   0.0820 
  4 C       -2.1570    -1.8760     0.5380 C.ar  1 <1>  -0.1500 
  5 O        1.3320    -2.6650    -0.4660 O.3   1 <1>  -0.3630 
  6 C       -0.6090    -3.9460    -0.4420 C.ar  1 <1>  -0.1500 
  7 C       -2.7250    -3.1100     0.2810 C.ar  1 <1>  -0.1500 
  8 C        2.0820    -1.4740    -0.3740 C.3   1 <1>   0.0400 
  9 C       -1.9690    -4.1720    -0.2170 C.ar  1 <1>   0.0530 
 10 C       -2.5490    -5.4700    -0.4730 C.2   1 <1>   0.0870 
 11 O       -1.8150    -6.5420    -0.2730 O.3   1 <1>  -0.0190 
 12 C       -3.7710    -5.9030    -0.8870 C.2   1 <1>  -0.2330 
 13 N       -2.4590    -7.6540    -0.5110 N.2   1 <1>  -0.4100 
 14 C       -3.6320    -7.2900    -0.8880 C.2   1 <1>   0.3720 
 15 C       -4.9740    -5.2170    -1.2530 C.2   1 <1>   1.0330 
 16 N       -4.6410    -8.1720    -1.2370 N.pl3 1 <1>  -0.8520 
 17 O       -4.9680    -4.0070    -1.5270 O.co2 1 <1>  -0.9000 
 18 O       -6.0640    -5.8230    -1.2850 O.co2 1 <1>  -0.9000 
 19 C       -4.9480    -9.1950    -0.2200 C.3   1 <1>   0.2090 
 20 C       -6.3760    -9.7120    -0.4120 C.3   1 <1>   0.0000 
 21 C       -7.5010    -8.6890    -0.0990 C.3   1 <1>   0.0000 
 22 C       -6.9180   -10.5550     0.7720 C.3   1 <1>   0.0000 
 23 C       -8.2870    -9.8670     0.5330 C.3   1 <1>   0.0000 
 24 H       -2.7570    -1.0680     0.9130 H     1 <1>   0.1500 
 25 H       -0.0050    -4.7480    -0.8270 H     1 <1>   0.1500 
 26 H       -3.7770    -3.2530     0.4620 H     1 <1>   0.1500 
 27 H        3.0850    -1.6850    -0.6970 H     1 <1>   0.0800 
 28 H        2.0920    -1.1450     0.6500 H     1 <1>   0.0800 
 29 H        1.6410    -0.7310    -1.0150 H     1 <1>   0.0800 
 30 H       -5.4840    -7.5760    -1.3970 H     1 <1>   0.4000 
 31 H       -4.8420    -8.7650     0.7620 H     1 <1>   0.0800 
 32 H       -4.2480   -10.0060    -0.3170 H     1 <1>   0.0800 
 33 H       -6.5250   -10.2140    -1.3540 H     1 <1>   0.0000 
 34 H       -7.9680    -8.2730    -0.9740 H     1 <1>   0.0000 
 35 H       -7.2120    -7.9490     0.6290 H     1 <1>   0.0000 
 36 H       -6.4840   -10.2870     1.7210 H     1 <1>   0.0000 
 37 H       -6.9250   -11.6150     0.5860 H     1 <1>   0.0000 
 38 H       -8.8960   -10.3910    -0.1830 H     1 <1>   0.0000 
 39 H       -8.8080    -9.6070     1.4370 H     1 <1>   0.0000 
@<TRIPOS>BOND
  1   1   2  1   
  2   2   3  ar  
  3   2   4  ar  
  4   3   5  1   
  5   3   6  ar  
  6   4   7  ar  
  7   4  24  1   
  8   5   8  1   
  9   6   9  ar  
 10   6  25  1   
 11   7   9  ar  
 12   7  26  1   
 13   8  27  1   
 14   8  28  1   
 15   8  29  1   
 16   9  10  1   
 17  10  11  1   
 18  10  12  2   
 19  11  13  1   
 20  12  14  1   
 21  12  15  1   
 22  13  14  2   
 23  14  16  1   
 24  15  17  ar  
 25  15  18  ar  
 26  16  19  1   
 27  16  30  1   
 28  19  20  1   
 29  19  31  1   
 30  19  32  1   
 31  20  21  1   
 32  20  22  1   
 33  20  33  1   
 34  21  23  1   
 35  21  34  1   
 36  21  35  1   
 37  22  23  1   
 38  22  36  1   
 39  22  37  1   
 40  23  38  1   
 41  23  39  1   
@<TRIPOS>SUBSTRUCTURE
  1 ****  10 GROUP 4 **** **** 0

# MOE 2024.06 (io_trps.svl 2023.06)
