@<TRIPOS>MOLECULE
NONAME
41 43 1 0 0 
SMALL
USER_CHARGES


@<TRIPOS>ATOM
  1 O       -3.0410    -0.3050    -1.6730 O.2   1 <1>  -0.5700 
  2 C       -2.9430     0.4710    -0.7370 C.2   1 <1>   0.7670 
  3 N       -2.9170     1.8100    -1.0510 N.2   1 <1>  -0.6610 
  4 C       -2.8630     0.0320     0.6210 C.2   1 <1>   0.0290 
  5 C       -2.7700     2.6570    -0.1070 C.2   1 <1>   0.4390 
  6 C       -2.9340    -1.3590     0.9600 C.2   1 <1>   0.6160 
  7 C       -2.6920     0.9910     1.5770 C.2   1 <1>  -0.0500 
  8 N       -2.6470     2.3000     1.2030 N.pl3 1 <1>  -0.5500 
  9 C       -2.7250     4.1330    -0.4150 C.3   1 <1>  -0.1790 
 10 O       -2.1120    -1.8050     1.7410 O.2   1 <1>  -0.5700 
 11 N       -3.9360    -2.2060     0.5350 N.am  1 <1>  -0.6600 
 12 C       -5.1730    -1.8180    -0.1850 C.3   1 <1>   0.1400 
 13 C       -4.0040    -3.6410     0.9220 C.3   1 <1>   0.1400 
 14 C       -6.2020    -2.8500     0.2640 C.3   1 <1>   0.2000 
 15 C       -5.3940    -4.1330     0.4770 C.3   1 <1>  -0.0800 
 16 O       -6.7060    -2.4550     1.4930 O.3   1 <1>  -0.6800 
 17 C       -5.3220    -4.9670    -0.8180 C.3   1 <1>  -0.0170 
 18 C       -4.8080    -6.3740    -0.5510 C.ar  1 <1>   0.1670 
 19 N       -3.4980    -6.5520    -0.6120 N.ar  1 <1>  -0.6200 
 20 C       -5.7120    -7.3860    -0.2610 C.ar  1 <1>  -0.1500 
 21 C       -3.0710    -7.7820    -0.3760 C.ar  1 <1>   0.1600 
 22 C       -5.2550    -8.6630    -0.0170 C.ar  1 <1>  -0.1500 
 23 C       -3.8920    -8.8560    -0.0790 C.ar  1 <1>  -0.1500 
 24 H       -2.5890     0.7400     2.6220 H     1 <1>   0.1500 
 25 H       -2.5130     3.0440     1.8950 H     1 <1>   0.4000 
 26 H       -3.5260     4.6390     0.0910 H     1 <1>   0.0800 
 27 H       -2.8340     4.2900    -1.4740 H     1 <1>   0.0800 
 28 H       -1.7840     4.5450    -0.1030 H     1 <1>   0.0800 
 29 H       -5.4870    -0.8150     0.0460 H     1 <1>   0.0800 
 30 H       -5.0030    -1.9090    -1.2440 H     1 <1>   0.0800 
 31 H       -3.2050    -4.1880     0.4500 H     1 <1>   0.0800 
 32 H       -3.8990    -3.7290     1.9900 H     1 <1>   0.0800 
 33 H       -7.0260    -2.9530    -0.4220 H     1 <1>   0.0800 
 34 H       -5.8460    -4.7400     1.2420 H     1 <1>   0.0800 
 35 H       -5.9550    -2.2990     2.1000 H     1 <1>   0.4000 
 36 H       -4.6880    -4.4850    -1.5420 H     1 <1>   0.0800 
 37 H       -6.3030    -5.0440    -1.2500 H     1 <1>   0.0800 
 38 H       -6.7660    -7.1800    -0.2240 H     1 <1>   0.1500 
 39 H       -2.0080    -7.9430    -0.4220 H     1 <1>   0.1500 
 40 H       -5.9290    -9.4710     0.2110 H     1 <1>   0.1500 
 41 H       -3.4670    -9.8270     0.1010 H     1 <1>   0.1500 
@<TRIPOS>BOND
  1   1   2  2   
  2   2   3  1   
  3   2   4  1   
  4   3   5  2   
  5   4   6  1   
  6   4   7  2   
  7   5   8  1   
  8   5   9  1   
  9   6  10  2   
 10   6  11  am  
 11   7   8  1   
 12   7  24  1   
 13   8  25  1   
 14   9  26  1   
 15   9  27  1   
 16   9  28  1   
 17  11  12  1   
 18  11  13  1   
 19  12  14  1   
 20  12  29  1   
 21  12  30  1   
 22  13  15  1   
 23  13  31  1   
 24  13  32  1   
 25  14  15  1   
 26  14  16  1   
 27  14  33  1   
 28  15  17  1   
 29  15  34  1   
 30  16  35  1   
 31  17  18  1   
 32  17  36  1   
 33  17  37  1   
 34  18  19  ar  
 35  18  20  ar  
 36  19  21  ar  
 37  20  22  ar  
 38  20  38  1   
 39  21  23  ar  
 40  21  39  1   
 41  22  23  ar  
 42  22  40  1   
 43  23  41  1   
@<TRIPOS>SUBSTRUCTURE
  1 ****  11 GROUP 4 **** **** 0

# MOE 2024.06 (io_trps.svl 2023.06)
