@<TRIPOS>MOLECULE
NONAME
57 60 1 0 0 
SMALL
USER_CHARGES


@<TRIPOS>ATOM
  1 O       -2.1410     0.1770     2.0230 O.2   1 <1>  -0.5700 
  2 C       -3.0500    -0.3300     1.3900 C.2   1 <1>   0.6900 
  3 N       -4.1130     0.4640     0.9680 N.am  1 <1>  -0.4200 
  4 N       -3.0300    -1.6830     1.1000 N.am  1 <1>  -0.4230 
  5 C       -5.1820    -0.0950     0.2960 C.2   1 <1>   0.7150 
  6 C       -4.0910     1.9230     1.2840 C.3   1 <1>   0.0600 
  7 C       -4.0880    -2.2380     0.3920 C.2   1 <1>   0.2900 
  8 C       -1.9100    -2.5730     1.5090 C.3   1 <1>   0.0600 
  9 O       -6.1630     0.5660    -0.0120 O.2   1 <1>  -0.5700 
 10 C       -5.1300    -1.4780    -0.0030 C.2   1 <1>  -0.2370 
 11 N       -4.2280    -3.5170     0.0210 N.2   1 <1>  -0.5650 
 12 N       -5.9690    -2.3170    -0.6630 N.pl3 1 <1>   0.0480 
 13 C       -5.3610    -3.5220    -0.6110 C.2   1 <1>   0.0360 
 14 C       -7.2560    -1.9620    -1.2890 C.3   1 <1>   0.0960 
 15 C       -8.2800    -1.6530    -0.1870 C.3   1 <1>   0.3430 
 16 N       -9.4290    -0.8260    -0.6720 N.4   1 <1>  -0.9590 
 17 C      -10.5370    -0.8720     0.3370 C.3   1 <1>   0.3430 
 18 C       -9.0140     0.5940    -0.9100 C.3   1 <1>   0.3430 
 19 C      -11.7860    -0.1010    -0.1430 C.3   1 <1>   0.0000 
 20 C      -10.1980     1.4040    -1.4420 C.3   1 <1>  -0.1600 
 21 C      -12.8650    -0.1600     0.9510 C.3   1 <1>   0.2000 
 22 C      -11.3990     1.3520    -0.4840 C.3   1 <1>  -0.1600 
 23 C      -12.4630    -0.8240    -1.3190 C.3   1 <1>  -0.1600 
 24 O      -12.2630    -0.1440     2.2100 O.3   1 <1>  -0.5600 
 25 C      -13.6290    -1.4720     0.7270 C.3   1 <1>  -0.1600 
 26 C      -13.2590    -1.9620    -0.6790 C.3   1 <1>  -0.1600 
 27 C      -13.1250     0.1610     3.2640 C.3   1 <1>   0.0400 
 28 H       -4.8030     2.4620     0.6850 H     1 <1>   0.0800 
 29 H       -3.1110     2.3230     1.0880 H     1 <1>   0.0800 
 30 H       -4.3210     2.0670     2.3250 H     1 <1>   0.0800 
 31 H       -2.2840    -3.3430     2.1600 H     1 <1>   0.0800 
 32 H       -1.1430    -2.0210     2.0240 H     1 <1>   0.0800 
 33 H       -1.4820    -3.0330     0.6350 H     1 <1>   0.0800 
 34 H       -5.7850    -4.4060    -1.0580 H     1 <1>   0.1500 
 35 H       -7.0890    -1.1030    -1.9130 H     1 <1>   0.0800 
 36 H       -7.5940    -2.7820    -1.8960 H     1 <1>   0.0800 
 37 H       -7.7880    -1.1210     0.6120 H     1 <1>   0.0800 
 38 H       -8.6470    -2.5850     0.2110 H     1 <1>   0.0800 
 39 H       -9.8070    -1.2040    -1.5490 H     1 <1>   0.4500 
 40 H      -10.8150    -1.8920     0.5420 H     1 <1>   0.0800 
 41 H      -10.1970    -0.4330     1.2610 H     1 <1>   0.0800 
 42 H       -8.6670     1.0300     0.0140 H     1 <1>   0.0800 
 43 H       -8.2030     0.6370    -1.6190 H     1 <1>   0.0800 
 44 H       -9.8890     2.4290    -1.5620 H     1 <1>   0.0800 
 45 H      -10.4790     1.0400    -2.4140 H     1 <1>   0.0800 
 46 H      -13.5310     0.6830     0.8580 H     1 <1>   0.0800 
 47 H      -12.2350     1.8740    -0.9180 H     1 <1>   0.0800 
 48 H      -11.1400     1.8660     0.4270 H     1 <1>   0.0800 
 49 H      -13.1590    -0.1550    -1.8000 H     1 <1>   0.0800 
 50 H      -11.7780    -1.1860    -2.0640 H     1 <1>   0.0800 
 51 H      -13.3600    -2.2130     1.4600 H     1 <1>   0.0800 
 52 H      -14.6870    -1.2860     0.7860 H     1 <1>   0.0800 
 53 H      -12.6480    -2.8460    -0.6030 H     1 <1>   0.0800 
 54 H      -14.1360    -2.2010    -1.2570 H     1 <1>   0.0800 
 55 H      -12.5570     0.1470     4.1780 H     1 <1>   0.0800 
 56 H      -13.9080    -0.5750     3.3170 H     1 <1>   0.0800 
 57 H      -13.5400     1.1430     3.1150 H     1 <1>   0.0800 
@<TRIPOS>BOND
  1   1   2  2   
  2   2   3  am  
  3   2   4  am  
  4   3   5  am  
  5   3   6  1   
  6   4   7  1   
  7   4   8  1   
  8   5   9  2   
  9   5  10  1   
 10   6  28  1   
 11   6  29  1   
 12   6  30  1   
 13   7  10  2   
 14   7  11  1   
 15   8  31  1   
 16   8  32  1   
 17   8  33  1   
 18  10  12  1   
 19  11  13  2   
 20  12  13  1   
 21  12  14  1   
 22  13  34  1   
 23  14  15  1   
 24  14  35  1   
 25  14  36  1   
 26  15  16  1   
 27  15  37  1   
 28  15  38  1   
 29  16  17  1   
 30  16  18  1   
 31  16  39  1   
 32  17  19  1   
 33  17  40  1   
 34  17  41  1   
 35  18  20  1   
 36  18  42  1   
 37  18  43  1   
 38  19  21  1   
 39  19  22  1   
 40  19  23  1   
 41  20  22  1   
 42  20  44  1   
 43  20  45  1   
 44  21  24  1   
 45  21  25  1   
 46  21  46  1   
 47  22  47  1   
 48  22  48  1   
 49  23  26  1   
 50  23  49  1   
 51  23  50  1   
 52  24  27  1   
 53  25  26  1   
 54  25  51  1   
 55  25  52  1   
 56  26  53  1   
 57  26  54  1   
 58  27  55  1   
 59  27  56  1   
 60  27  57  1   
@<TRIPOS>SUBSTRUCTURE
  1 ****  15 GROUP 4 **** **** 0

# MOE 2024.06 (io_trps.svl 2023.06)
