@<TRIPOS>MOLECULE
NONAME
40 42 1 0 0 
SMALL
USER_CHARGES


@<TRIPOS>ATOM
  1 S        0.3120     0.6340     0.4930 S.3   1 <1>  -0.0800 
  2 C        0.9110     1.4110    -0.9410 C.2   1 <1>   0.4620 
  3 C       -0.9360    -0.0760    -0.4850 C.2   1 <1>   0.1980 
  4 N        0.1980     1.1170    -1.9730 N.2   1 <1>  -0.3380 
  5 N        2.0240     2.2250    -0.8800 N.pl3 1 <1>  -0.8220 
  6 N       -0.8450     0.2760    -1.7090 N.2   1 <1>  -0.3380 
  7 C       -1.9400    -0.9930     0.2210 C.3   1 <1>   1.2000 
  8 C        2.5980     2.8510    -2.1140 C.3   1 <1>   0.2090 
  9 C        2.7620     2.6210     0.3620 C.3   1 <1>   0.2090 
 10 F       -2.5910    -0.3690     1.1990 F     1 <1>  -0.3400 
 11 F       -2.8750    -1.4820    -0.5880 F     1 <1>  -0.3400 
 12 F       -1.3550    -2.0460     0.7850 F     1 <1>  -0.3400 
 13 C        2.6780     4.3860    -1.9830 C.3   1 <1>   0.2090 
 14 C        2.8250     4.1550     0.5090 C.3   1 <1>   0.2090 
 15 N        3.3710     4.8220    -0.7200 N.pl3 1 <1>  -0.8380 
 16 C        4.7270     5.1180    -0.7400 C.ar  1 <1>   0.4100 
 17 N        5.4440     4.3210    -1.5330 N.ar  1 <1>  -0.6200 
 18 C        5.2900     6.1520     0.0440 C.ar  1 <1>   0.0860 
 19 C        6.7470     4.5090    -1.5520 C.ar  1 <1>   0.1600 
 20 C        4.5070     7.0510     0.8650 C.2   1 <1>   0.5440 
 21 C        6.6710     6.3050    -0.0010 C.ar  1 <1>  -0.1500 
 22 C        7.4060     5.4710    -0.8110 C.ar  1 <1>  -0.1500 
 23 O        4.9950     7.5680     1.8540 O.2   1 <1>  -0.5700 
 24 N        3.2140     7.3620     0.5510 N.am  1 <1>  -0.7300 
 25 C        2.3190     8.2940     1.2790 C.3   1 <1>   0.0600 
 26 H        2.0050     2.6030    -2.9770 H     1 <1>   0.0800 
 27 H        3.5880     2.4630    -2.2770 H     1 <1>   0.0800 
 28 H        3.7670     2.2390     0.3060 H     1 <1>   0.0800 
 29 H        2.3020     2.2060     1.2390 H     1 <1>   0.0800 
 30 H        1.6790     4.7850    -1.9920 H     1 <1>   0.0800 
 31 H        3.1970     4.7850    -2.8380 H     1 <1>   0.0800 
 32 H        3.4390     4.3980     1.3590 H     1 <1>   0.0800 
 33 H        1.8350     4.5280     0.7020 H     1 <1>   0.0800 
 34 H        7.3260     3.8620    -2.1890 H     1 <1>   0.1500 
 35 H        7.1530     7.0680     0.5870 H     1 <1>   0.1500 
 36 H        8.4760     5.5640    -0.8710 H     1 <1>   0.1500 
 37 H        2.7920     6.7750    -0.1830 H     1 <1>   0.3700 
 38 H        2.8720     8.8370     2.0270 H     1 <1>   0.0800 
 39 H        1.5320     7.7410     1.7600 H     1 <1>   0.0800 
 40 H        1.8890     8.9970     0.5870 H     1 <1>   0.0800 
@<TRIPOS>BOND
  1   1   2  1   
  2   1   3  1   
  3   2   4  2   
  4   2   5  1   
  5   3   6  2   
  6   3   7  1   
  7   4   6  1   
  8   5   8  1   
  9   5   9  1   
 10   7  10  1   
 11   7  11  1   
 12   7  12  1   
 13   8  13  1   
 14   8  26  1   
 15   8  27  1   
 16   9  14  1   
 17   9  28  1   
 18   9  29  1   
 19  13  15  1   
 20  13  30  1   
 21  13  31  1   
 22  14  15  1   
 23  14  32  1   
 24  14  33  1   
 25  15  16  1   
 26  16  17  ar  
 27  16  18  ar  
 28  17  19  ar  
 29  18  20  1   
 30  18  21  ar  
 31  19  22  ar  
 32  19  34  1   
 33  20  23  2   
 34  20  24  am  
 35  21  22  ar  
 36  21  35  1   
 37  22  36  1   
 38  24  25  1   
 39  24  37  1   
 40  25  38  1   
 41  25  39  1   
 42  25  40  1   
@<TRIPOS>SUBSTRUCTURE
  1 ****   9 GROUP 4 **** **** 0

# MOE 2024.06 (io_trps.svl 2023.06)
