@<TRIPOS>MOLECULE
NONAME
46 48 1 0 0 
SMALL
USER_CHARGES


@<TRIPOS>ATOM
  1 O       -2.5110     1.4070    -3.1650 O.2   1 <1>  -0.5700 
  2 C       -1.9380     1.4710    -2.1040 C.2   1 <1>   0.5690 
  3 N       -1.8160     0.3960    -1.2870 N.am  1 <1>  -0.7300 
  4 C       -1.3280     2.8000    -1.6620 C.3   1 <1>   0.1810 
  5 C       -2.3550    -0.9590    -1.5310 C.3   1 <1>   0.2200 
  6 O       -0.7950     2.7130    -0.3620 O.3   1 <1>  -0.5600 
  7 C       -3.3650    -1.2940    -0.4470 C.3   1 <1>  -0.0800 
  8 C       -1.2650    -2.0060    -1.3000 C.3   1 <1>   0.1200 
  9 C       -0.2290     3.8950     0.1080 C.3   1 <1>   0.2640 
 10 C       -2.4550    -1.8150     0.6650 C.3   1 <1>   0.1200 
 11 C       -4.3710    -2.3580    -0.9230 C.3   1 <1>  -0.0160 
 12 O       -1.3730    -2.4270     0.0300 O.3   1 <1>  -0.5600 
 13 C        0.2820     3.6580     1.5200 C.ar  1 <1>  -0.1440 
 14 C       -5.3850    -2.6900     0.1610 C.ar  1 <1>  -0.1440 
 15 C        1.2280     2.6730     1.7640 C.ar  1 <1>  -0.1500 
 16 C       -0.1840     4.4250     2.5780 C.ar  1 <1>  -0.1500 
 17 C       -5.3210    -3.8600     0.8910 C.ar  1 <1>  -0.1500 
 18 C       -6.4230    -1.8350     0.4700 C.ar  1 <1>  -0.1500 
 19 C        1.7040     2.4580     3.0450 C.ar  1 <1>  -0.1500 
 20 C        0.2910     4.2110     3.8610 C.ar  1 <1>  -0.1500 
 21 C       -6.2680    -4.1090     1.8700 C.ar  1 <1>   0.1600 
 22 C       -7.3190    -2.1790     1.4690 C.ar  1 <1>   0.1600 
 23 C        1.2370     3.2290     4.0950 C.ar  1 <1>  -0.1500 
 24 N       -7.2660    -3.2960     2.1780 N.ar  1 <1>  -0.6200 
 25 H       -1.3180     0.5410    -0.4010 H     1 <1>   0.3700 
 26 H       -2.0930     3.5560    -1.6730 H     1 <1>   0.0800 
 27 H       -0.5410     3.0690    -2.3420 H     1 <1>   0.0800 
 28 H       -2.7660    -1.0180    -2.5250 H     1 <1>   0.0800 
 29 H       -3.9050    -0.4190    -0.1290 H     1 <1>   0.0800 
 30 H       -0.2780    -1.6140    -1.4740 H     1 <1>   0.0800 
 31 H       -1.4300    -2.8660    -1.9240 H     1 <1>   0.0800 
 32 H        0.5870     4.1710    -0.5380 H     1 <1>   0.0800 
 33 H       -0.9800     4.6660     0.0990 H     1 <1>   0.0800 
 34 H       -2.9340    -2.5260     1.3150 H     1 <1>   0.0800 
 35 H       -2.0680    -1.0000     1.2520 H     1 <1>   0.0800 
 36 H       -3.8530    -3.2540    -1.2180 H     1 <1>   0.0800 
 37 H       -4.8980    -1.9900    -1.7860 H     1 <1>   0.0800 
 38 H        1.5910     2.0670     0.9520 H     1 <1>   0.1500 
 39 H       -0.9200     5.1910     2.4110 H     1 <1>   0.1500 
 40 H       -4.5420    -4.5780     0.7100 H     1 <1>   0.1500 
 41 H       -6.5440    -0.9060    -0.0550 H     1 <1>   0.1500 
 42 H        2.4370     1.6910     3.2250 H     1 <1>   0.1500 
 43 H       -0.0750     4.8100     4.6770 H     1 <1>   0.1500 
 44 H       -6.2020    -5.0260     2.4300 H     1 <1>   0.1500 
 45 H       -8.1220    -1.5000     1.6970 H     1 <1>   0.1500 
 46 H        1.6070     3.0630     5.0920 H     1 <1>   0.1500 
@<TRIPOS>BOND
  1   1   2  2   
  2   2   3  am  
  3   2   4  1   
  4   3   5  1   
  5   3  25  1   
  6   4   6  1   
  7   4  26  1   
  8   4  27  1   
  9   5   7  1   
 10   5   8  1   
 11   5  28  1   
 12   6   9  1   
 13   7  10  1   
 14   7  11  1   
 15   7  29  1   
 16   8  12  1   
 17   8  30  1   
 18   8  31  1   
 19   9  13  1   
 20   9  32  1   
 21   9  33  1   
 22  10  12  1   
 23  10  34  1   
 24  10  35  1   
 25  11  14  1   
 26  11  36  1   
 27  11  37  1   
 28  13  15  ar  
 29  13  16  ar  
 30  14  17  ar  
 31  14  18  ar  
 32  15  19  ar  
 33  15  38  1   
 34  16  20  ar  
 35  16  39  1   
 36  17  21  ar  
 37  17  40  1   
 38  18  22  ar  
 39  18  41  1   
 40  19  23  ar  
 41  19  42  1   
 42  20  23  ar  
 43  20  43  1   
 44  21  24  ar  
 45  21  44  1   
 46  22  24  ar  
 47  22  45  1   
 48  23  46  1   
@<TRIPOS>SUBSTRUCTURE
  1 ****   3 GROUP 4 **** **** 0

# MOE 2024.06 (io_trps.svl 2023.06)
