@<TRIPOS>MOLECULE
NONAME
57 60 1 0 0 
SMALL
USER_CHARGES


@<TRIPOS>ATOM
  1 O        3.1260     0.4460    -0.1260 O.2   1 <1>  -0.5700 
  2 C        2.7470    -0.6950    -0.2670 C.2   1 <1>   0.5690 
  3 N        1.8290    -1.2640     0.5740 N.am  1 <1>  -0.6600 
  4 C        3.3510    -1.4840    -1.4160 C.3   1 <1>  -0.0990 
  5 C        1.1930    -2.5720     0.3040 C.3   1 <1>   0.1400 
  6 C        1.2620    -0.5210     1.7330 C.3   1 <1>   0.0600 
  7 C        2.8200    -2.9150    -1.6750 C.3   1 <1>  -0.0800 
  8 C        2.1080    -3.5310    -0.4670 C.3   1 <1>  -0.0800 
  9 C        3.9730    -3.9020    -1.9740 C.3   1 <1>  -0.1600 
 10 C        3.2340    -4.1630     0.3490 C.3   1 <1>  -0.1600 
 11 C        4.1260    -4.7860    -0.7220 C.3   1 <1>   0.2200 
 12 N        5.5170    -5.0670    -0.2440 N.am  1 <1>  -0.6600 
 13 C        6.6320    -4.2710    -0.4360 C.2   1 <1>   0.5440 
 14 C        5.7180    -6.4820     0.1760 C.3   1 <1>   0.0600 
 15 O        7.6730    -4.8050    -0.7700 O.2   1 <1>  -0.5700 
 16 C        6.6110    -2.8350    -0.2370 C.ar  1 <1>   0.0860 
 17 C        6.1100    -2.2750     0.9360 C.ar  1 <1>  -0.1500 
 18 C        7.0870    -1.9640    -1.2150 C.ar  1 <1>  -0.1500 
 19 C        5.9980    -0.9060     1.0890 C.ar  1 <1>  -0.1500 
 20 C        6.9850    -0.5920    -1.0650 C.ar  1 <1>  -0.1500 
 21 C        6.4130    -0.0560     0.0770 C.ar  1 <1>  -0.1440 
 22 C        6.2020     1.4440     0.2040 C.3   1 <1>   0.2630 
 23 O        7.4500     2.0990     0.1310 O.3   1 <1>  -0.3630 
 24 C        7.5270     3.4520     0.1780 C.ar  1 <1>   0.0820 
 25 C        6.4190     4.2910     0.2790 C.ar  1 <1>  -0.1500 
 26 C        8.7960     4.0050     0.1210 C.ar  1 <1>  -0.1500 
 27 C        6.5920     5.6640     0.3200 C.ar  1 <1>  -0.1500 
 28 C        8.9670     5.3770     0.1620 C.ar  1 <1>  -0.1500 
 29 C        7.8640     6.2070     0.2610 C.ar  1 <1>  -0.1500 
 30 H        3.2410    -0.9030    -2.3120 H     1 <1>   0.0800 
 31 H        4.3970    -1.5230    -1.2090 H     1 <1>   0.0800 
 32 H        0.9040    -3.0330     1.2330 H     1 <1>   0.0800 
 33 H        0.3000    -2.3970    -0.2720 H     1 <1>   0.0800 
 34 H        1.3730    -1.1050     2.6290 H     1 <1>   0.0800 
 35 H        0.2180    -0.3230     1.5630 H     1 <1>   0.0800 
 36 H        1.7710     0.4180     1.8730 H     1 <1>   0.0800 
 37 H        2.1340    -2.8730    -2.5050 H     1 <1>   0.0800 
 38 H        1.4890    -4.3370    -0.8250 H     1 <1>   0.0800 
 39 H        4.8790    -3.4020    -2.2560 H     1 <1>   0.0800 
 40 H        3.6870    -4.5330    -2.7970 H     1 <1>   0.0800 
 41 H        2.8640    -4.9040     1.0350 H     1 <1>   0.0800 
 42 H        3.7530    -3.3970     0.8890 H     1 <1>   0.0800 
 43 H        3.6780    -5.7310    -0.9810 H     1 <1>   0.0800 
 44 H        4.9550    -6.7710     0.8780 H     1 <1>   0.0800 
 45 H        6.6790    -6.5990     0.6480 H     1 <1>   0.0800 
 46 H        5.6770    -7.1260    -0.6850 H     1 <1>   0.0800 
 47 H        5.7940    -2.9270     1.7300 H     1 <1>   0.1500 
 48 H        7.5290    -2.3760    -2.1050 H     1 <1>   0.1500 
 49 H        5.5750    -0.5040     1.9930 H     1 <1>   0.1500 
 50 H        7.3430     0.0620    -1.8420 H     1 <1>   0.1500 
 51 H        5.7430     1.6890     1.1450 H     1 <1>   0.0800 
 52 H        5.5830     1.7920    -0.6040 H     1 <1>   0.0800 
 53 H        5.4200     3.9000     0.3250 H     1 <1>   0.1500 
 54 H        9.6470     3.3520     0.0440 H     1 <1>   0.1500 
 55 H        5.7350     6.3100     0.3970 H     1 <1>   0.1500 
 56 H        9.9570     5.7970     0.1160 H     1 <1>   0.1500 
 57 H        7.9950     7.2750     0.2930 H     1 <1>   0.1500 
@<TRIPOS>BOND
  1   1   2  2   
  2   2   3  am  
  3   2   4  1   
  4   3   5  1   
  5   3   6  1   
  6   4   7  1   
  7   4  30  1   
  8   4  31  1   
  9   5   8  1   
 10   5  32  1   
 11   5  33  1   
 12   6  34  1   
 13   6  35  1   
 14   6  36  1   
 15   7   8  1   
 16   7   9  1   
 17   7  37  1   
 18   8  10  1   
 19   8  38  1   
 20   9  11  1   
 21   9  39  1   
 22   9  40  1   
 23  10  11  1   
 24  10  41  1   
 25  10  42  1   
 26  11  12  1   
 27  11  43  1   
 28  12  13  am  
 29  12  14  1   
 30  13  15  2   
 31  13  16  1   
 32  14  44  1   
 33  14  45  1   
 34  14  46  1   
 35  16  17  ar  
 36  16  18  ar  
 37  17  19  ar  
 38  17  47  1   
 39  18  20  ar  
 40  18  48  1   
 41  19  21  ar  
 42  19  49  1   
 43  20  21  ar  
 44  20  50  1   
 45  21  22  1   
 46  22  23  1   
 47  22  51  1   
 48  22  52  1   
 49  23  24  1   
 50  24  25  ar  
 51  24  26  ar  
 52  25  27  ar  
 53  25  53  1   
 54  26  28  ar  
 55  26  54  1   
 56  27  29  ar  
 57  27  55  1   
 58  28  29  ar  
 59  28  56  1   
 60  29  57  1   
@<TRIPOS>SUBSTRUCTURE
  1 ****  21 GROUP 4 **** **** 0

# MOE 2024.06 (io_trps.svl 2023.06)
