@<TRIPOS>MOLECULE
NONAME
45 47 1 0 0 
SMALL
USER_CHARGES


@<TRIPOS>ATOM
  1 CL      -1.2170     0.2290     2.0070 Cl    1 <1>  -0.1770 
  2 C       -2.5510    -0.6180     1.2590 C.ar  1 <1>   0.1770 
  3 C       -2.7450    -1.9720     1.4680 C.ar  1 <1>   0.1900 
  4 C       -3.4260     0.0820     0.4480 C.ar  1 <1>  -0.1500 
  5 F       -1.9250    -2.6420     2.2350 F     1 <1>  -0.1900 
  6 C       -3.7990    -2.6420     0.8790 C.ar  1 <1>  -0.1500 
  7 C       -4.5000    -0.5630    -0.1610 C.ar  1 <1>  -0.0090 
  8 C       -4.6690    -1.9290     0.0670 C.ar  1 <1>  -0.1500 
  9 S       -5.6470     0.3660    -1.2200 S.o2  1 <1>   1.4470 
 10 O       -6.7450    -0.4890    -1.6170 O.2   1 <1>  -0.6500 
 11 O       -4.8710     1.0380    -2.2390 O.2   1 <1>  -0.6500 
 12 N       -6.2350     1.5600    -0.1640 N.am  1 <1>  -0.8490 
 13 C       -6.7210     2.7790    -0.8140 C.3   1 <1>   0.1960 
 14 C       -7.1280     1.1140     0.9140 C.3   1 <1>   0.1960 
 15 C       -8.1370     2.5880    -1.3660 C.3   1 <1>  -0.1600 
 16 C       -8.5840     0.9460     0.4560 C.3   1 <1>  -0.1600 
 17 C       -9.1240     2.1960    -0.2530 C.3   1 <1>   0.2800 
 18 O       -9.1460     3.2090     0.7240 O.3   1 <1>  -0.5600 
 19 C      -10.5500     1.9450    -0.8080 C.3   1 <1>  -0.1600 
 20 C       -9.8930     4.3610     0.4500 C.3   1 <1>   0.1200 
 21 C      -11.6500     2.5360     0.0770 C.3   1 <1>   0.2800 
 22 C      -11.3860     4.0290     0.2930 C.3   1 <1>  -0.1600 
 23 O      -11.5740     1.9350     1.3050 O.3   1 <1>  -0.6800 
 24 C      -13.0510     2.2630    -0.4630 C.3   1 <1>  -0.2400 
 25 H       -3.2720     1.1350     0.2870 H     1 <1>   0.1500 
 26 H       -3.9330    -3.6960     1.0520 H     1 <1>   0.1500 
 27 H       -5.4950    -2.4430    -0.3990 H     1 <1>   0.1500 
 28 H       -6.0530     3.0760    -1.6050 H     1 <1>   0.0800 
 29 H       -6.7300     3.5770    -0.0890 H     1 <1>   0.0800 
 30 H       -7.1030     1.8520     1.6990 H     1 <1>   0.0800 
 31 H       -6.7690     0.1890     1.3320 H     1 <1>   0.0800 
 32 H       -8.1200     1.8210    -2.1190 H     1 <1>   0.0800 
 33 H       -8.4550     3.4910    -1.8510 H     1 <1>   0.0800 
 34 H       -9.1950     0.7220     1.3110 H     1 <1>   0.0800 
 35 H       -8.6570     0.0990    -0.1980 H     1 <1>   0.0800 
 36 H      -10.7220     0.8940    -0.9550 H     1 <1>   0.0800 
 37 H      -10.6320     2.3970    -1.7790 H     1 <1>   0.0800 
 38 H       -9.5060     4.8180    -0.4430 H     1 <1>   0.0800 
 39 H       -9.7500     5.0450     1.2690 H     1 <1>   0.0800 
 40 H      -11.7530     4.5800    -0.5540 H     1 <1>   0.0800 
 41 H      -11.9360     4.3780     1.1490 H     1 <1>   0.0800 
 42 H      -10.7040     2.1860     1.6810 H     1 <1>   0.4000 
 43 H      -13.1700     2.7070    -1.4330 H     1 <1>   0.0800 
 44 H      -13.7910     2.6780     0.1980 H     1 <1>   0.0800 
 45 H      -13.2140     1.2030    -0.5500 H     1 <1>   0.0800 
@<TRIPOS>BOND
  1   1   2  1   
  2   2   3  ar  
  3   2   4  ar  
  4   3   5  1   
  5   3   6  ar  
  6   4   7  ar  
  7   4  25  1   
  8   6   8  ar  
  9   6  26  1   
 10   7   8  ar  
 11   7   9  1   
 12   8  27  1   
 13   9  10  2   
 14   9  11  2   
 15   9  12  am  
 16  12  13  1   
 17  12  14  1   
 18  13  15  1   
 19  13  28  1   
 20  13  29  1   
 21  14  16  1   
 22  14  30  1   
 23  14  31  1   
 24  15  17  1   
 25  15  32  1   
 26  15  33  1   
 27  16  17  1   
 28  16  34  1   
 29  16  35  1   
 30  17  18  1   
 31  17  19  1   
 32  18  20  1   
 33  19  21  1   
 34  19  36  1   
 35  19  37  1   
 36  20  22  1   
 37  20  38  1   
 38  20  39  1   
 39  21  22  1   
 40  21  23  1   
 41  21  24  1   
 42  22  40  1   
 43  22  41  1   
 44  23  42  1   
 45  24  43  1   
 46  24  44  1   
 47  24  45  1   
@<TRIPOS>SUBSTRUCTURE
  1 ****  14 GROUP 4 **** **** 0

# MOE 2024.06 (io_trps.svl 2023.06)
