@<TRIPOS>MOLECULE
NONAME
52 55 1 0 0 
SMALL
USER_CHARGES


@<TRIPOS>ATOM
  1 F       -0.5060    -5.7930     1.9490 F     1 <1>  -0.3400 
  2 C       -1.7360    -5.3220     2.0910 C.3   1 <1>   1.2400 
  3 F       -2.0260    -5.3300     3.3840 F     1 <1>  -0.3400 
  4 O       -2.6560    -6.1410     1.3820 O.3   1 <1>  -0.3630 
  5 O       -1.8150    -3.9990     1.5830 O.3   1 <1>  -0.3630 
  6 C       -3.2380    -5.3220     0.4990 C.ar  1 <1>   0.0830 
  7 C       -2.7400    -4.0530     0.6180 C.ar  1 <1>   0.0830 
  8 C       -4.2080    -5.6320    -0.4320 C.ar  1 <1>  -0.1500 
  9 C       -3.1860    -3.0300    -0.1930 C.ar  1 <1>  -0.1500 
 10 C       -4.6820    -4.6140    -1.2540 C.ar  1 <1>  -0.1440 
 11 C       -4.1640    -3.3230    -1.1350 C.ar  1 <1>  -0.1500 
 12 C       -5.7630    -4.9160    -2.2760 C.3   1 <1>   0.4870 
 13 N       -7.0540    -5.1020    -1.5600 N.4   1 <1>  -0.9590 
 14 C       -8.1050    -5.7420    -2.4150 C.3   1 <1>   0.3430 
 15 C       -7.5410    -3.8460    -0.9230 C.3   1 <1>   0.3430 
 16 C       -9.0230    -6.6870    -1.6080 C.3   1 <1>   0.1400 
 17 C       -8.2010    -4.1520     0.4210 C.3   1 <1>  -0.1600 
 18 N       -8.9390    -6.4590    -0.1280 N.am  1 <1>  -0.6600 
 19 C       -9.3860    -5.1190     0.3500 C.3   1 <1>   0.1400 
 20 C       -8.5940    -7.4400     0.7840 C.2   1 <1>   0.5440 
 21 O       -8.2840    -7.0960     1.9040 O.2   1 <1>  -0.5700 
 22 C       -8.5640    -8.8390     0.4220 C.ar  1 <1>   0.0860 
 23 C       -9.7280    -9.5380     0.1180 C.ar  1 <1>   0.1660 
 24 C       -7.3810    -9.5620     0.3170 C.ar  1 <1>   0.1670 
 25 N       -9.7130   -10.7750    -0.3200 N.ar  1 <1>  -0.6200 
 26 C      -11.1140    -8.9290     0.2660 C.3   1 <1>  -0.0970 
 27 N       -7.3520   -10.8010    -0.1170 N.ar  1 <1>  -0.6200 
 28 C       -6.0160    -9.0010     0.6880 C.3   1 <1>  -0.0970 
 29 C       -8.5220   -11.3400    -0.4110 C.ar  1 <1>   0.4700 
 30 H       -4.5640    -6.6440    -0.5000 H     1 <1>   0.1500 
 31 H       -2.7760    -2.0390    -0.0890 H     1 <1>   0.1500 
 32 H       -4.5120    -2.5280    -1.7740 H     1 <1>   0.1500 
 33 H       -5.5000    -5.8170    -2.8070 H     1 <1>   0.0800 
 34 H       -5.8400    -4.1100    -2.9870 H     1 <1>   0.0800 
 35 H       -6.8910    -5.7460    -0.7690 H     1 <1>   0.4500 
 36 H       -7.6450    -6.3160    -3.2030 H     1 <1>   0.0800 
 37 H       -8.7060    -4.9800    -2.8850 H     1 <1>   0.0800 
 38 H       -8.2370    -3.3430    -1.5740 H     1 <1>   0.0800 
 39 H       -6.7130    -3.1790    -0.7430 H     1 <1>   0.0800 
 40 H       -8.7450    -7.7000    -1.8440 H     1 <1>   0.0800 
 41 H      -10.0410    -6.5600    -1.9340 H     1 <1>   0.0800 
 42 H       -8.5540    -3.2250     0.8350 H     1 <1>   0.0800 
 43 H       -7.4680    -4.5350     1.1100 H     1 <1>   0.0800 
 44 H      -10.1540    -4.7320    -0.2980 H     1 <1>   0.0800 
 45 H       -9.8170    -5.2180     1.3340 H     1 <1>   0.0800 
 46 H      -11.1220    -8.1150     0.9670 H     1 <1>   0.0800 
 47 H      -11.7980    -9.6770     0.6270 H     1 <1>   0.0800 
 48 H      -11.4650    -8.5820    -0.6880 H     1 <1>   0.0800 
 49 H       -6.0500    -7.9740     0.9920 H     1 <1>   0.0800 
 50 H       -5.3460    -9.0970    -0.1480 H     1 <1>   0.0800 
 51 H       -5.6150    -9.5750     1.5040 H     1 <1>   0.0800 
 52 H       -8.5030   -12.3590    -0.7630 H     1 <1>   0.1500 
@<TRIPOS>BOND
  1   1   2  1   
  2   2   3  1   
  3   2   4  1   
  4   2   5  1   
  5   4   6  1   
  6   5   7  1   
  7   6   7  ar  
  8   6   8  ar  
  9   7   9  ar  
 10   8  10  ar  
 11   8  30  1   
 12   9  11  ar  
 13   9  31  1   
 14  10  11  ar  
 15  10  12  1   
 16  11  32  1   
 17  12  13  1   
 18  12  33  1   
 19  12  34  1   
 20  13  14  1   
 21  13  15  1   
 22  13  35  1   
 23  14  16  1   
 24  14  36  1   
 25  14  37  1   
 26  15  17  1   
 27  15  38  1   
 28  15  39  1   
 29  16  18  1   
 30  16  40  1   
 31  16  41  1   
 32  17  19  1   
 33  17  42  1   
 34  17  43  1   
 35  18  19  1   
 36  18  20  am  
 37  19  44  1   
 38  19  45  1   
 39  20  21  2   
 40  20  22  1   
 41  22  23  ar  
 42  22  24  ar  
 43  23  25  ar  
 44  23  26  1   
 45  24  27  ar  
 46  24  28  1   
 47  25  29  ar  
 48  26  46  1   
 49  26  47  1   
 50  26  48  1   
 51  27  29  ar  
 52  28  49  1   
 53  28  50  1   
 54  28  51  1   
 55  29  52  1   
@<TRIPOS>SUBSTRUCTURE
  1 ****   8 GROUP 4 **** **** 0

# MOE 2024.06 (io_trps.svl 2023.06)
