@<TRIPOS>MOLECULE
NONAME
51 53 1 0 0 
SMALL
USER_CHARGES


@<TRIPOS>ATOM
  1 CL      -1.3180     0.1610    -1.5190 Cl    1 <1>  -0.1770 
  2 C       -0.9550    -1.5550    -1.5730 C.ar  1 <1>   0.1770 
  3 C       -1.7140    -2.4600    -0.8340 C.ar  1 <1>   0.0830 
  4 C        0.0820    -2.0050    -2.3680 C.ar  1 <1>   0.1770 
  5 O       -2.7350    -2.0150    -0.0680 O.3   1 <1>  -0.3630 
  6 C       -1.4510    -3.8280    -0.9070 C.ar  1 <1>  -0.0090 
  7 CL       1.0560    -0.8880    -3.2950 Cl    1 <1>  -0.1770 
  8 C        0.3650    -3.3550    -2.4470 C.ar  1 <1>  -0.1500 
  9 C       -2.4090    -1.4530     1.1870 C.3   1 <1>   0.0400 
 10 S       -2.4450    -5.0540    -0.0090 S.o2  1 <1>   1.4470 
 11 C       -0.4040    -4.2510    -1.7230 C.ar  1 <1>  -0.1500 
 12 O       -1.6840    -6.2790     0.1090 O.2   1 <1>  -0.6500 
 13 O       -3.0250    -4.5700     1.2240 O.2   1 <1>  -0.6500 
 14 N       -3.7400    -5.4370    -1.0500 N.am  1 <1>  -0.8490 
 15 C       -4.3100    -6.7640    -0.8000 C.3   1 <1>   0.1960 
 16 C       -4.8220    -4.4330    -1.1230 C.3   1 <1>   0.1960 
 17 C       -5.2240    -6.6490     0.4370 C.3   1 <1>   0.4230 
 18 C       -5.9180    -4.5910    -0.0270 C.3   1 <1>  -0.1600 
 19 N       -5.1680    -7.7740     1.4380 N.4   1 <1>  -0.9590 
 20 C       -6.6340    -6.0480    -0.0050 C.3   1 <1>   0.0000 
 21 C       -5.5340    -9.0820     0.8780 C.3   1 <1>   0.3430 
 22 C       -3.8390    -7.8100     2.1310 C.3   1 <1>   0.2630 
 23 C       -7.3440    -7.5000    -0.0620 C.3   1 <1>  -0.1600 
 24 C       -8.0380    -5.3710    -0.3790 C.3   1 <1>   0.1200 
 25 C       -6.5910    -8.8510    -0.1840 C.3   1 <1>  -0.1600 
 26 O       -8.5380    -4.7700     0.7730 O.3   1 <1>  -0.6800 
 27 H        1.1740    -3.6960    -3.0700 H     1 <1>   0.1500 
 28 H       -3.3240    -1.1820     1.6820 H     1 <1>   0.0800 
 29 H       -1.8010    -0.5780     1.0430 H     1 <1>   0.0800 
 30 H       -1.8810    -2.1830     1.7740 H     1 <1>   0.0800 
 31 H       -0.1810    -5.3050    -1.7960 H     1 <1>   0.1500 
 32 H       -4.8880    -7.0560    -1.6600 H     1 <1>   0.0800 
 33 H       -3.5380    -7.4980    -0.6600 H     1 <1>   0.0800 
 34 H       -4.4100    -3.4410    -1.0850 H     1 <1>   0.0800 
 35 H       -5.2970    -4.5290    -2.0860 H     1 <1>   0.0800 
 36 H       -4.7300    -5.9030     1.0210 H     1 <1>   0.0800 
 37 H       -5.5310    -4.3210     0.9430 H     1 <1>   0.0800 
 38 H       -6.5310    -3.7210    -0.1970 H     1 <1>   0.0800 
 39 H       -5.8850    -7.5310     2.1370 H     1 <1>   0.4500 
 40 H       -4.6760    -9.5640     0.4380 H     1 <1>   0.0800 
 41 H       -5.9220    -9.7160     1.6600 H     1 <1>   0.0800 
 42 H       -3.0520    -8.0460     1.4310 H     1 <1>   0.0800 
 43 H       -3.8410    -8.5520     2.9130 H     1 <1>   0.0800 
 44 H       -3.6210    -6.8490     2.5690 H     1 <1>   0.0800 
 45 H       -8.0060    -7.5820     0.7880 H     1 <1>   0.0800 
 46 H       -7.9480    -7.6030    -0.9500 H     1 <1>   0.0800 
 47 H       -8.8610    -5.9750    -0.7210 H     1 <1>   0.0800 
 48 H       -7.9640    -4.6330    -1.1630 H     1 <1>   0.0800 
 49 H       -6.1250    -8.9210    -1.1510 H     1 <1>   0.0800 
 50 H       -7.2980    -9.6620    -0.1370 H     1 <1>   0.0800 
 51 H       -9.3860    -4.3120     0.5970 H     1 <1>   0.4000 
@<TRIPOS>BOND
  1   1   2  1   
  2   2   3  ar  
  3   2   4  ar  
  4   3   5  1   
  5   3   6  ar  
  6   4   7  1   
  7   4   8  ar  
  8   5   9  1   
  9   6  10  1   
 10   6  11  ar  
 11   8  11  ar  
 12   8  27  1   
 13   9  28  1   
 14   9  29  1   
 15   9  30  1   
 16  10  12  2   
 17  10  13  2   
 18  10  14  am  
 19  11  31  1   
 20  14  15  1   
 21  14  16  1   
 22  15  17  1   
 23  15  32  1   
 24  15  33  1   
 25  16  18  1   
 26  16  34  1   
 27  16  35  1   
 28  17  19  1   
 29  17  20  1   
 30  17  36  1   
 31  18  20  1   
 32  18  37  1   
 33  18  38  1   
 34  19  21  1   
 35  19  22  1   
 36  19  39  1   
 37  20  23  1   
 38  20  24  1   
 39  21  25  1   
 40  21  40  1   
 41  21  41  1   
 42  22  42  1   
 43  22  43  1   
 44  22  44  1   
 45  23  25  1   
 46  23  45  1   
 47  23  46  1   
 48  24  26  1   
 49  24  47  1   
 50  24  48  1   
 51  25  49  1   
 52  25  50  1   
 53  26  51  1   
@<TRIPOS>SUBSTRUCTURE
  1 ****  14 GROUP 4 **** **** 0

# MOE 2024.06 (io_trps.svl 2023.06)
