@<TRIPOS>MOLECULE
NONAME
49 51 1 0 0 
SMALL
USER_CHARGES


@<TRIPOS>ATOM
  1 F       -2.8520    -0.2600     1.2090 F     1 <1>  -0.1900 
  2 C       -2.6300     0.4990     0.1680 C.ar  1 <1>   0.1900 
  3 C       -2.5650    -0.1030    -1.0860 C.ar  1 <1>   0.0860 
  4 C       -2.4870     1.8660     0.3720 C.ar  1 <1>  -0.1440 
  5 C       -2.3500     0.7640    -2.1510 C.ar  1 <1>   0.1900 
  6 C       -2.7120    -1.5240    -1.2650 C.2   1 <1>   0.5440 
  7 C       -2.2680     2.6830    -0.7290 C.ar  1 <1>  -0.1500 
  8 C       -2.5650     2.4680     1.7690 C.3   1 <1>  -0.0970 
  9 F       -2.2980     0.2840    -3.3630 F     1 <1>  -0.1900 
 10 C       -2.2000     2.1300    -1.9970 C.ar  1 <1>  -0.1500 
 11 O       -1.7190    -2.2010    -1.4450 O.2   1 <1>  -0.5700 
 12 N       -3.9460    -2.1380    -1.2240 N.am  1 <1>  -0.6600 
 13 C       -5.2330    -1.4410    -0.9220 C.3   1 <1>   0.1400 
 14 C       -4.1010    -3.6250    -1.2690 C.3   1 <1>   0.1400 
 15 C       -5.8900    -2.0550     0.3270 C.3   1 <1>   0.2950 
 16 C       -4.8480    -4.1370    -0.0170 C.3   1 <1>   0.2000 
 17 O       -6.0480    -3.4340     0.1560 O.3   1 <1>  -0.5600 
 18 C       -7.2750    -1.4550     0.5860 C.3   1 <1>  -0.1950 
 19 C       -5.2170    -5.6240    -0.0990 C.3   1 <1>  -0.1600 
 20 C       -7.4300    -0.1820     1.3590 C.3   1 <1>  -0.2000 
 21 C       -7.8900    -1.4850     1.9500 C.3   1 <1>  -0.2000 
 22 C       -3.9880    -6.5480    -0.1380 C.3   1 <1>  -0.1600 
 23 C       -4.4090    -8.0210    -0.1250 C.3   1 <1>  -0.1600 
 24 C       -3.1880    -8.9440    -0.1660 C.3   1 <1>  -0.2400 
 25 H       -2.1490     3.7470    -0.6060 H     1 <1>   0.1500 
 26 H       -2.4100     3.5320     1.7430 H     1 <1>   0.0800 
 27 H       -1.8120     2.0300     2.4000 H     1 <1>   0.0800 
 28 H       -3.5310     2.2740     2.2000 H     1 <1>   0.0800 
 29 H       -2.0320     2.7510    -2.8600 H     1 <1>   0.1500 
 30 H       -5.0810    -0.3910    -0.7590 H     1 <1>   0.0800 
 31 H       -5.8980    -1.5520    -1.7600 H     1 <1>   0.0800 
 32 H       -4.6540    -3.8940    -2.1510 H     1 <1>   0.0800 
 33 H       -3.1380    -4.1000    -1.3290 H     1 <1>   0.0800 
 34 H       -5.2610    -1.8930     1.1860 H     1 <1>   0.0800 
 35 H       -4.2380    -3.9720     0.8560 H     1 <1>   0.0800 
 36 H       -7.9380    -1.6040    -0.2490 H     1 <1>   0.1000 
 37 H       -5.8070    -5.8700     0.7660 H     1 <1>   0.0800 
 38 H       -5.8200    -5.7890    -0.9750 H     1 <1>   0.0800 
 39 H       -6.5630     0.2900     1.7880 H     1 <1>   0.1000 
 40 H       -8.1740     0.5290     1.0450 H     1 <1>   0.1000 
 41 H       -8.9450    -1.6830     2.0280 H     1 <1>   0.1000 
 42 H       -7.3290    -1.9250     2.7570 H     1 <1>   0.1000 
 43 H       -3.4120    -6.3580    -1.0270 H     1 <1>   0.0800 
 44 H       -3.3630    -6.3480     0.7160 H     1 <1>   0.0800 
 45 H       -4.9780    -8.2280     0.7670 H     1 <1>   0.0800 
 46 H       -5.0370    -8.2270    -0.9750 H     1 <1>   0.0800 
 47 H       -2.5560    -8.7700     0.6880 H     1 <1>   0.0800 
 48 H       -2.6160    -8.7710    -1.0610 H     1 <1>   0.0800 
 49 H       -3.5030    -9.9720    -0.1550 H     1 <1>   0.0800 
@<TRIPOS>BOND
  1   1   2  1   
  2   2   3  ar  
  3   2   4  ar  
  4   3   5  ar  
  5   3   6  1   
  6   4   7  ar  
  7   4   8  1   
  8   5   9  1   
  9   5  10  ar  
 10   6  11  2   
 11   6  12  am  
 12   7  10  ar  
 13   7  25  1   
 14   8  26  1   
 15   8  27  1   
 16   8  28  1   
 17  10  29  1   
 18  12  13  1   
 19  12  14  1   
 20  13  15  1   
 21  13  30  1   
 22  13  31  1   
 23  14  16  1   
 24  14  32  1   
 25  14  33  1   
 26  15  17  1   
 27  15  18  1   
 28  15  34  1   
 29  16  17  1   
 30  16  19  1   
 31  16  35  1   
 32  18  20  1   
 33  18  21  1   
 34  18  36  1   
 35  19  22  1   
 36  19  37  1   
 37  19  38  1   
 38  20  21  1   
 39  20  39  1   
 40  20  40  1   
 41  21  41  1   
 42  21  42  1   
 43  22  23  1   
 44  22  43  1   
 45  22  44  1   
 46  23  24  1   
 47  23  45  1   
 48  23  46  1   
 49  24  47  1   
 50  24  48  1   
 51  24  49  1   
@<TRIPOS>SUBSTRUCTURE
  1 ****  12 GROUP 4 **** **** 0

# MOE 2024.06 (io_trps.svl 2023.06)
