@<TRIPOS>MOLECULE
NONAME
52 55 1 0 0 
SMALL
USER_CHARGES


@<TRIPOS>ATOM
  1 F       -1.6510    -0.6320     2.5010 F     1 <1>  -0.1900 
  2 C       -2.0890     0.2270     1.6140 C.ar  1 <1>   0.1900 
  3 C       -2.9730    -0.2200     0.6290 C.ar  1 <1>   0.1000 
  4 C       -1.6560     1.5300     1.6980 C.ar  1 <1>  -0.1500 
  5 N       -3.4080    -1.5420     0.5520 N.pl3 1 <1>  -0.6000 
  6 C       -3.4350     0.7070    -0.3160 C.ar  1 <1>   0.0860 
  7 C       -2.1180     2.4450     0.7600 C.ar  1 <1>  -0.1500 
  8 C       -4.2860    -2.0160    -0.4090 C.2   1 <1>   0.1140 
  9 C       -4.3420     0.2440    -1.3340 C.2   1 <1>   0.4690 
 10 C       -2.9920     2.0340    -0.2270 C.ar  1 <1>  -0.1500 
 11 C       -4.6670    -3.4250    -0.3750 C.2   1 <1>   0.6160 
 12 C       -4.7260    -1.1180    -1.3390 C.2   1 <1>  -0.1360 
 13 O       -4.7880     1.0010    -2.1860 O.2   1 <1>  -0.5700 
 14 O       -3.9770    -4.2300     0.2280 O.2   1 <1>  -0.5700 
 15 N       -5.8150    -3.9050    -0.9680 N.am  1 <1>  -0.6600 
 16 C       -5.9000    -5.3540    -1.2940 C.3   1 <1>   0.1400 
 17 C       -7.1350    -3.2850    -0.6700 C.3   1 <1>   0.1400 
 18 C       -6.4850    -6.1080    -0.0780 C.3   1 <1>   0.4230 
 19 C       -7.7510    -4.0140     0.5320 C.3   1 <1>  -0.1600 
 20 N       -6.4280    -7.6250    -0.2030 N.4   1 <1>  -0.9590 
 21 C       -7.8820    -5.5540     0.3370 C.3   1 <1>   0.0000 
 22 C       -7.3350    -8.3500     0.7450 C.3   1 <1>   0.3430 
 23 C       -6.5940    -8.1710    -1.5890 C.3   1 <1>   0.2630 
 24 C       -8.3050    -6.1950     1.6930 C.3   1 <1>  -0.1600 
 25 C       -8.9330    -5.8720    -0.7650 C.3   1 <1>   0.1200 
 26 C       -7.5880    -7.5230     2.0040 C.3   1 <1>  -0.1600 
 27 O      -10.1360    -5.2270    -0.5270 O.3   1 <1>  -0.6800 
 28 H       -0.9750     1.8300     2.4740 H     1 <1>   0.1500 
 29 H       -3.0100    -2.2250     1.2160 H     1 <1>   0.4000 
 30 H       -1.7920     3.4710     0.8070 H     1 <1>   0.1500 
 31 H       -3.3480     2.7450    -0.9550 H     1 <1>   0.1500 
 32 H       -5.3880    -1.4110    -2.1300 H     1 <1>   0.1500 
 33 H       -6.5090    -5.4760    -2.1710 H     1 <1>   0.0800 
 34 H       -4.9130    -5.7240    -1.5110 H     1 <1>   0.0800 
 35 H       -7.0190    -2.2410    -0.4310 H     1 <1>   0.0800 
 36 H       -7.7770    -3.3570    -1.5320 H     1 <1>   0.0800 
 37 H       -5.8300    -5.8540     0.7400 H     1 <1>   0.0800 
 38 H       -7.1260    -3.8070     1.3840 H     1 <1>   0.0800 
 39 H       -8.7110    -3.5750     0.7470 H     1 <1>   0.0800 
 40 H       -5.4680    -7.8620     0.0950 H     1 <1>   0.4500 
 41 H       -8.2830    -8.5420     0.2690 H     1 <1>   0.0800 
 42 H       -6.9010    -9.3000     1.0140 H     1 <1>   0.0800 
 43 H       -7.5680    -7.9250    -1.9790 H     1 <1>   0.0800 
 44 H       -6.4910    -9.2450    -1.5820 H     1 <1>   0.0800 
 45 H       -5.8440    -7.7670    -2.2490 H     1 <1>   0.0800 
 46 H       -8.1010    -5.5230     2.5100 H     1 <1>   0.0800 
 47 H       -9.3680    -6.3620     1.7070 H     1 <1>   0.0800 
 48 H       -9.1400    -6.9250    -0.8230 H     1 <1>   0.0800 
 49 H       -8.6020    -5.5380    -1.7310 H     1 <1>   0.0800 
 50 H       -8.1890    -8.0950     2.6900 H     1 <1>   0.0800 
 51 H       -6.6480    -7.3320     2.4950 H     1 <1>   0.0800 
 52 H      -10.5670    -5.5360     0.2950 H     1 <1>   0.4000 
@<TRIPOS>BOND
  1   1   2  1   
  2   2   3  ar  
  3   2   4  ar  
  4   3   5  1   
  5   3   6  ar  
  6   4   7  ar  
  7   4  28  1   
  8   5   8  1   
  9   5  29  1   
 10   6   9  1   
 11   6  10  ar  
 12   7  10  ar  
 13   7  30  1   
 14   8  11  1   
 15   8  12  2   
 16   9  12  1   
 17   9  13  2   
 18  10  31  1   
 19  11  14  2   
 20  11  15  am  
 21  12  32  1   
 22  15  16  1   
 23  15  17  1   
 24  16  18  1   
 25  16  33  1   
 26  16  34  1   
 27  17  19  1   
 28  17  35  1   
 29  17  36  1   
 30  18  20  1   
 31  18  21  1   
 32  18  37  1   
 33  19  21  1   
 34  19  38  1   
 35  19  39  1   
 36  20  22  1   
 37  20  23  1   
 38  20  40  1   
 39  21  24  1   
 40  21  25  1   
 41  22  26  1   
 42  22  41  1   
 43  22  42  1   
 44  23  43  1   
 45  23  44  1   
 46  23  45  1   
 47  24  26  1   
 48  24  46  1   
 49  24  47  1   
 50  25  27  1   
 51  25  48  1   
 52  25  49  1   
 53  26  50  1   
 54  26  51  1   
 55  27  52  1   
@<TRIPOS>SUBSTRUCTURE
  1 ****  11 GROUP 4 **** **** 0

# MOE 2024.06 (io_trps.svl 2023.06)
