@<TRIPOS>MOLECULE
NONAME
54 56 1 0 0 
SMALL
USER_CHARGES


@<TRIPOS>ATOM
  1 O       -0.7960     1.4940     1.2540 O.2   1 <1>  -0.5700 
  2 C       -0.3710     2.4860     0.7140 C.2   1 <1>   0.5690 
  3 N       -1.1480     3.1850    -0.1480 N.am  1 <1>  -0.7300 
  4 C        1.0700     2.9500     0.9850 C.3   1 <1>   0.1710 
  5 C       -0.7340     4.4730    -0.7590 C.3   1 <1>   0.1400 
  6 N        1.3660     4.3640     0.5910 N.3   1 <1>  -0.8100 
  7 C        0.7990     4.6410    -0.7480 C.3   1 <1>   0.1100 
  8 C        2.8010     4.6440     0.6840 C.3   1 <1>   0.1100 
  9 C        3.0360     6.1520     0.7930 C.3   1 <1>  -0.1600 
 10 C        4.5010     6.4580     1.0900 C.3   1 <1>   0.2090 
 11 N        4.6630     7.9250     1.1640 N.pl3 1 <1>  -0.8690 
 12 C        5.6300     8.7270     0.6940 C.ar  1 <1>   0.4100 
 13 N        5.3910    10.0100     0.8330 N.ar  1 <1>  -0.6200 
 14 C        6.8110     8.2440     0.1050 C.ar  1 <1>  -0.1500 
 15 C        6.2960    10.8690     0.3860 C.ar  1 <1>   0.7710 
 16 C        7.7300     9.1340    -0.3400 C.ar  1 <1>   0.2180 
 17 N        7.4410    10.4480    -0.1850 N.ar  1 <1>  -0.1790 
 18 N        6.0690    12.2050     0.5110 N.pl3 1 <1>  -0.8380 
 19 C        9.0490     8.7350    -0.9900 C.3   1 <1>  -0.0170 
 20 C        6.8780    13.3350    -0.0710 C.3   1 <1>   0.2090 
 21 C        4.8840    12.7410     1.2810 C.3   1 <1>   0.2090 
 22 C       10.2610     9.1790    -0.1590 C.3   1 <1>  -0.2400 
 23 C        5.9790    14.3290    -0.8310 C.3   1 <1>   0.1200 
 24 C        4.0990    13.7740     0.4530 C.3   1 <1>   0.1200 
 25 O        4.9500    14.7840    -0.0070 O.3   1 <1>  -0.5600 
 26 H       -2.1170     2.8820    -0.2530 H     1 <1>   0.3700 
 27 H        1.7240     2.2850     0.4510 H     1 <1>   0.0800 
 28 H        1.2620     2.8330     2.0360 H     1 <1>   0.0800 
 29 H       -1.1800     5.2820    -0.2060 H     1 <1>   0.0800 
 30 H       -1.0910     4.5200    -1.7730 H     1 <1>   0.0800 
 31 H        1.0260     5.6490    -1.0450 H     1 <1>   0.0800 
 32 H        1.2340     3.9750    -1.4740 H     1 <1>   0.0800 
 33 H        3.3180     4.2340    -0.1690 H     1 <1>   0.0800 
 34 H        3.1900     4.1750     1.5730 H     1 <1>   0.0800 
 35 H        2.4260     6.5380     1.5910 H     1 <1>   0.0800 
 36 H        2.7640     6.6330    -0.1280 H     1 <1>   0.0800 
 37 H        5.1200     6.0470     0.3120 H     1 <1>   0.0800 
 38 H        4.7850     6.0200     2.0330 H     1 <1>   0.0800 
 39 H        3.8800     8.4020     1.6240 H     1 <1>   0.4000 
 40 H        6.9640     7.1860     0.0280 H     1 <1>   0.1500 
 41 H        8.0920    11.1710    -0.4590 H     1 <1>   0.4570 
 42 H        9.1110     9.1580    -1.9780 H     1 <1>   0.0800 
 43 H        9.0820     7.6630    -1.1000 H     1 <1>   0.0800 
 44 H        7.6300    12.9780    -0.7490 H     1 <1>   0.0800 
 45 H        7.3720    13.8650     0.7270 H     1 <1>   0.0800 
 46 H        5.2330    13.2180     2.1810 H     1 <1>   0.0800 
 47 H        4.2050    11.9610     1.5770 H     1 <1>   0.0800 
 48 H       10.3190    10.2490    -0.0820 H     1 <1>   0.0800 
 49 H       11.1670     8.8280    -0.6230 H     1 <1>   0.0800 
 50 H       10.2120     8.7610     0.8320 H     1 <1>   0.0800 
 51 H        5.5460    13.8700    -1.7020 H     1 <1>   0.0800 
 52 H        6.5500    15.1880    -1.1400 H     1 <1>   0.0800 
 53 H        3.3400    14.2360     1.0600 H     1 <1>   0.0800 
 54 H        3.6260    13.3050    -0.3920 H     1 <1>   0.0800 
@<TRIPOS>BOND
  1   1   2  2   
  2   2   3  am  
  3   2   4  1   
  4   3   5  1   
  5   3  26  1   
  6   4   6  1   
  7   4  27  1   
  8   4  28  1   
  9   5   7  1   
 10   5  29  1   
 11   5  30  1   
 12   6   7  1   
 13   6   8  1   
 14   7  31  1   
 15   7  32  1   
 16   8   9  1   
 17   8  33  1   
 18   8  34  1   
 19   9  10  1   
 20   9  35  1   
 21   9  36  1   
 22  10  11  1   
 23  10  37  1   
 24  10  38  1   
 25  11  12  1   
 26  11  39  1   
 27  12  13  ar  
 28  12  14  ar  
 29  13  15  ar  
 30  14  16  ar  
 31  14  40  1   
 32  15  17  ar  
 33  15  18  1   
 34  16  17  ar  
 35  16  19  1   
 36  17  41  1   
 37  18  20  1   
 38  18  21  1   
 39  19  22  1   
 40  19  42  1   
 41  19  43  1   
 42  20  23  1   
 43  20  44  1   
 44  20  45  1   
 45  21  24  1   
 46  21  46  1   
 47  21  47  1   
 48  22  48  1   
 49  22  49  1   
 50  22  50  1   
 51  23  25  1   
 52  23  51  1   
 53  23  52  1   
 54  24  25  1   
 55  24  53  1   
 56  24  54  1   
@<TRIPOS>SUBSTRUCTURE
  1 ****  11 GROUP 4 **** **** 0

# MOE 2024.06 (io_trps.svl 2023.06)
