@<TRIPOS>MOLECULE
NONAME
46 48 1 0 0 
SMALL
USER_CHARGES


@<TRIPOS>ATOM
  1 CL      -2.5480    -0.1950    -2.2480 Cl    1 <1>  -0.1770 
  2 C       -2.5790     0.6270    -0.7060 C.ar  1 <1>   0.1770 
  3 C       -2.8750    -0.0730     0.4690 C.ar  1 <1>   0.0860 
  4 C       -2.2920     1.9780    -0.7070 C.ar  1 <1>  -0.1500 
  5 C       -3.1980    -1.4830     0.4740 C.2   1 <1>   0.5440 
  6 C       -2.8460     0.6440     1.6700 C.ar  1 <1>  -0.1500 
  7 C       -2.2910     2.6430     0.5020 C.ar  1 <1>   0.1900 
  8 O       -2.6200    -2.2340     1.2380 O.2   1 <1>  -0.5700 
  9 N       -4.1960    -2.0210    -0.3080 N.am  1 <1>  -0.6600 
 10 C       -2.5600     1.9980     1.6950 C.ar  1 <1>  -0.1500 
 11 F       -2.0270     3.9180     0.5200 F     1 <1>  -0.1900 
 12 C       -4.2890    -3.4900    -0.5010 C.3   1 <1>   0.1400 
 13 C       -5.4480    -1.2840    -0.6250 C.3   1 <1>   0.1400 
 14 C       -5.3780    -4.0440     0.4420 C.3   1 <1>   0.4230 
 15 C       -6.5520    -1.8120     0.3010 C.3   1 <1>  -0.1600 
 16 N       -5.4410    -5.5650     0.4850 N.4   1 <1>  -0.9590 
 17 C       -6.7580    -3.3550     0.2110 C.3   1 <1>   0.0000 
 18 C       -6.7200    -6.1080     1.0460 C.3   1 <1>   0.3430 
 19 C       -5.1050    -6.2620    -0.8000 C.3   1 <1>   0.2630 
 20 C       -7.7430    -3.7930     1.3360 C.3   1 <1>  -0.1600 
 21 C       -7.3230    -3.7400    -1.1860 C.3   1 <1>   0.1200 
 22 C       -7.3560    -5.1190     2.0210 C.3   1 <1>  -0.1600 
 23 O       -8.4420    -2.9920    -1.5110 O.3   1 <1>  -0.6800 
 24 H       -2.0720     2.4990    -1.6200 H     1 <1>   0.1500 
 25 H       -3.0490     0.1250     2.5920 H     1 <1>   0.1500 
 26 H       -2.5410     2.5490     2.6190 H     1 <1>   0.1500 
 27 H       -4.5170    -3.6850    -1.5330 H     1 <1>   0.0800 
 28 H       -3.3410    -3.9450    -0.2740 H     1 <1>   0.0800 
 29 H       -5.3200    -0.2270    -0.4680 H     1 <1>   0.0800 
 30 H       -5.7090    -1.4350    -1.6600 H     1 <1>   0.0800 
 31 H       -5.0690    -3.7300     1.4260 H     1 <1>   0.0800 
 32 H       -6.2820    -1.5380     1.3060 H     1 <1>   0.0800 
 33 H       -7.4680    -1.2920     0.0790 H     1 <1>   0.0800 
 34 H       -4.7040    -5.8230     1.1600 H     1 <1>   0.4500 
 35 H       -7.4180    -6.2960     0.2470 H     1 <1>   0.0800 
 36 H       -6.5320    -7.0450     1.5470 H     1 <1>   0.0800 
 37 H       -5.8100    -5.9960    -1.5700 H     1 <1>   0.0800 
 38 H       -5.1350    -7.3310    -0.6630 H     1 <1>   0.0800 
 39 H       -4.1150    -5.9930    -1.1290 H     1 <1>   0.0800 
 40 H       -7.7980    -3.0410     2.1060 H     1 <1>   0.0800 
 41 H       -8.7390    -3.8830     0.9400 H     1 <1>   0.0800 
 42 H       -7.6090    -4.7760    -1.2250 H     1 <1>   0.0800 
 43 H       -6.6050    -3.5570    -1.9650 H     1 <1>   0.0800 
 44 H       -8.2380    -5.5620     2.4520 H     1 <1>   0.0800 
 45 H       -6.6710    -4.9330     2.8310 H     1 <1>   0.0800 
 46 H       -9.1840    -3.1450    -0.8930 H     1 <1>   0.4000 
@<TRIPOS>BOND
  1   1   2  1   
  2   2   3  ar  
  3   2   4  ar  
  4   3   5  1   
  5   3   6  ar  
  6   4   7  ar  
  7   4  24  1   
  8   5   8  2   
  9   5   9  am  
 10   6  10  ar  
 11   6  25  1   
 12   7  10  ar  
 13   7  11  1   
 14   9  12  1   
 15   9  13  1   
 16  10  26  1   
 17  12  14  1   
 18  12  27  1   
 19  12  28  1   
 20  13  15  1   
 21  13  29  1   
 22  13  30  1   
 23  14  16  1   
 24  14  17  1   
 25  14  31  1   
 26  15  17  1   
 27  15  32  1   
 28  15  33  1   
 29  16  18  1   
 30  16  19  1   
 31  16  34  1   
 32  17  20  1   
 33  17  21  1   
 34  18  22  1   
 35  18  35  1   
 36  18  36  1   
 37  19  37  1   
 38  19  38  1   
 39  19  39  1   
 40  20  22  1   
 41  20  40  1   
 42  20  41  1   
 43  21  23  1   
 44  21  42  1   
 45  21  43  1   
 46  22  44  1   
 47  22  45  1   
 48  23  46  1   
@<TRIPOS>SUBSTRUCTURE
  1 ****   9 GROUP 4 **** **** 0

# MOE 2024.06 (io_trps.svl 2023.06)
