@<TRIPOS>MOLECULE
NONAME
50 52 1 0 0 
SMALL
USER_CHARGES


@<TRIPOS>ATOM
  1 S        0.5920    -1.3530     0.2710 S.o2  1 <1>   1.4470 
  2 O        1.1860    -2.4480    -0.4600 O.2   1 <1>  -0.6500 
  3 O        0.2280    -1.5840     1.6550 O.2   1 <1>  -0.6500 
  4 N       -0.8920    -1.0360    -0.4920 N.am  1 <1>  -0.8490 
  5 C        1.5310     0.1810     0.0570 C.ar  1 <1>  -0.0090 
  6 C       -1.7260    -2.2370    -0.5550 C.3   1 <1>   0.1960 
  7 C       -1.6090     0.0900     0.1220 C.3   1 <1>   0.1960 
  8 C        1.8480     0.6500    -1.2120 C.ar  1 <1>  -0.1500 
  9 C        1.9400     0.9360     1.1500 C.ar  1 <1>  -0.1500 
 10 C       -2.7600    -2.2110     0.6010 C.3   1 <1>   0.4230 
 11 C       -3.1570    -0.0430     0.0150 C.3   1 <1>  -0.1600 
 12 C        2.5420     1.8350    -1.3870 C.ar  1 <1>  -0.1500 
 13 C        2.6340     2.1220     0.9820 C.ar  1 <1>  -0.1500 
 14 N       -2.8570    -3.5510     1.3100 N.4   1 <1>  -0.9590 
 15 C       -4.0490    -1.4020     0.0910 C.3   1 <1>   0.0000 
 16 C        2.9360     2.5790    -0.2890 C.ar  1 <1>  -0.1430 
 17 C       -3.2970    -4.6200     0.3910 C.3   1 <1>   0.3430 
 18 C       -1.5910    -3.9180     2.0270 C.3   1 <1>   0.2630 
 19 C       -4.9880    -2.7240     0.0870 C.3   1 <1>  -0.1600 
 20 C       -5.3160    -0.5280    -0.3600 C.3   1 <1>   0.1200 
 21 C        3.6990     3.8780    -0.4760 C.3   1 <1>  -0.0970 
 22 C       -4.4080    -4.0450    -0.4720 C.3   1 <1>  -0.1600 
 23 O       -5.5010    -0.6320    -1.7390 O.3   1 <1>  -0.6800 
 24 H       -2.2480    -2.2330    -1.4970 H     1 <1>   0.0800 
 25 H       -1.1230    -3.1260    -0.5330 H     1 <1>   0.0800 
 26 H       -1.3560     0.1710     1.1680 H     1 <1>   0.0800 
 27 H       -1.2840     1.0090    -0.3420 H     1 <1>   0.0800 
 28 H        1.5490     0.0810    -2.0760 H     1 <1>   0.1500 
 29 H        1.7180     0.5970     2.1480 H     1 <1>   0.1500 
 30 H       -2.3310    -1.6000     1.3760 H     1 <1>   0.0800 
 31 H       -3.5050     0.6360     0.7790 H     1 <1>   0.0800 
 32 H       -3.3220     0.4430    -0.9360 H     1 <1>   0.0800 
 33 H        2.7760     2.1730    -2.3820 H     1 <1>   0.1500 
 34 H        2.9410     2.6870     1.8450 H     1 <1>   0.1500 
 35 H       -3.5960    -3.4410     2.0160 H     1 <1>   0.4500 
 36 H       -2.4810    -4.9510    -0.2320 H     1 <1>   0.0800 
 37 H       -3.6630    -5.4620     0.9570 H     1 <1>   0.0800 
 38 H       -0.7800    -4.0500     1.3280 H     1 <1>   0.0800 
 39 H       -1.7220    -4.8340     2.5790 H     1 <1>   0.0800 
 40 H       -1.3120    -3.1370     2.7180 H     1 <1>   0.0800 
 41 H       -5.3490    -2.8890     1.0900 H     1 <1>   0.0800 
 42 H       -5.8940    -2.6760    -0.5010 H     1 <1>   0.0800 
 43 H       -5.3030     0.5280    -0.1400 H     1 <1>   0.0800 
 44 H       -6.2380    -0.8250     0.1190 H     1 <1>   0.0800 
 45 H        3.4250     4.3460    -1.4050 H     1 <1>   0.0800 
 46 H        4.7560     3.6800    -0.4860 H     1 <1>   0.0800 
 47 H        3.4820     4.5620     0.3240 H     1 <1>   0.0800 
 48 H       -4.0440    -3.8850    -1.4730 H     1 <1>   0.0800 
 49 H       -5.1890    -4.7830    -0.5470 H     1 <1>   0.0800 
 50 H       -4.8830    -0.0590    -2.2350 H     1 <1>   0.4000 
@<TRIPOS>BOND
  1   1   2  2   
  2   1   3  2   
  3   1   4  am  
  4   1   5  1   
  5   4   6  1   
  6   4   7  1   
  7   5   8  ar  
  8   5   9  ar  
  9   6  10  1   
 10   6  24  1   
 11   6  25  1   
 12   7  11  1   
 13   7  26  1   
 14   7  27  1   
 15   8  12  ar  
 16   8  28  1   
 17   9  13  ar  
 18   9  29  1   
 19  10  14  1   
 20  10  15  1   
 21  10  30  1   
 22  11  15  1   
 23  11  31  1   
 24  11  32  1   
 25  12  16  ar  
 26  12  33  1   
 27  13  16  ar  
 28  13  34  1   
 29  14  17  1   
 30  14  18  1   
 31  14  35  1   
 32  15  19  1   
 33  15  20  1   
 34  16  21  1   
 35  17  22  1   
 36  17  36  1   
 37  17  37  1   
 38  18  38  1   
 39  18  39  1   
 40  18  40  1   
 41  19  22  1   
 42  19  41  1   
 43  19  42  1   
 44  20  23  1   
 45  20  43  1   
 46  20  44  1   
 47  21  45  1   
 48  21  46  1   
 49  21  47  1   
 50  22  48  1   
 51  22  49  1   
 52  23  50  1   
@<TRIPOS>SUBSTRUCTURE
  1 ****   4 GROUP 4 **** **** 0

# MOE 2024.06 (io_trps.svl 2023.06)
