@<TRIPOS>MOLECULE
NONAME
55 59 1 0 0 
SMALL
USER_CHARGES


@<TRIPOS>ATOM
  1 O       -3.6150    -2.1620     2.5220 O.2   1 <1>  -0.5700 
  2 C       -3.3040    -1.1220     1.9930 C.2   1 <1>   0.5690 
  3 N       -3.1630    -0.9190     0.6650 N.am  1 <1>  -0.6600 
  4 C       -3.0240     0.1420     2.7570 C.3   1 <1>  -0.0990 
  5 C       -2.7660     0.4570     0.3310 C.3   1 <1>   0.1400 
  6 C       -3.2510    -1.9690    -0.3760 C.3   1 <1>   0.1400 
  7 C       -2.9090     1.2140     1.6590 C.3   1 <1>  -0.1600 
  8 C       -4.7200    -2.2770    -0.6690 C.3   1 <1>  -0.0990 
  9 C       -4.8830    -3.3770    -1.7040 C.2   1 <1>   0.5690 
 10 O       -3.9470    -3.6150    -2.4330 O.2   1 <1>  -0.5700 
 11 N       -6.0610    -4.0760    -1.7970 N.am  1 <1>  -0.6600 
 12 C       -7.2930    -3.8200    -1.0020 C.3   1 <1>   0.1400 
 13 C       -6.1840    -5.2730    -2.6740 C.3   1 <1>   0.1400 
 14 C       -7.5280    -5.0150    -0.0770 C.3   1 <1>  -0.1600 
 15 C       -6.4130    -6.5020    -1.7910 C.3   1 <1>  -0.1600 
 16 C       -7.6290    -6.3240    -0.8750 C.3   1 <1>   0.4600 
 17 O       -8.7540    -6.2570    -1.7260 O.3   1 <1>  -0.5600 
 18 C       -7.7680    -7.5240     0.0540 C.2   1 <1>  -0.3320 
 19 C      -10.0180    -6.5630    -1.1850 C.3   1 <1>   0.1200 
 20 N       -6.8250    -7.9860     0.9300 N.pl3 1 <1>   0.0330 
 21 C       -8.8660    -8.3020     0.1320 C.2   1 <1>  -0.1810 
 22 C      -10.0830    -8.0260    -0.7140 C.3   1 <1>   0.0210 
 23 C       -7.3420    -9.0870     1.5690 C.ar  1 <1>  -0.1520 
 24 C       -8.6280    -9.3150     1.0850 C.ar  1 <1>   0.0000 
 25 C       -6.7870    -9.9190     2.5440 C.ar  1 <1>  -0.1500 
 26 C       -9.3730   -10.3900     1.5780 C.ar  1 <1>  -0.1500 
 27 C       -7.5310   -10.9730     3.0220 C.ar  1 <1>  -0.1500 
 28 C       -8.8250   -11.2090     2.5380 C.ar  1 <1>  -0.1500 
 29 H       -2.0980     0.0280     3.2900 H     1 <1>   0.0800 
 30 H       -3.8220     0.3530     3.4450 H     1 <1>   0.0800 
 31 H       -3.4090     0.8670    -0.4290 H     1 <1>   0.0800 
 32 H       -1.7430     0.4620    -0.0080 H     1 <1>   0.0800 
 33 H       -2.7620    -2.8600    -0.0200 H     1 <1>   0.0800 
 34 H       -2.7500    -1.6420    -1.2710 H     1 <1>   0.0800 
 35 H       -2.0760     1.8740     1.8260 H     1 <1>   0.0800 
 36 H       -3.8120     1.8000     1.6290 H     1 <1>   0.0800 
 37 H       -5.2110    -1.3930    -1.0290 H     1 <1>   0.0800 
 38 H       -5.1750    -2.5930     0.2500 H     1 <1>   0.0800 
 39 H       -8.1270    -3.7100    -1.6740 H     1 <1>   0.0800 
 40 H       -7.2150    -2.9150    -0.4280 H     1 <1>   0.0800 
 41 H       -5.2950    -5.4120    -3.2660 H     1 <1>   0.0800 
 42 H       -7.0150    -5.1400    -3.3460 H     1 <1>   0.0800 
 43 H       -8.4180    -4.8670     0.5030 H     1 <1>   0.0800 
 44 H       -6.7070    -5.0800     0.6120 H     1 <1>   0.0800 
 45 H       -5.5310    -6.6610    -1.2000 H     1 <1>   0.0800 
 46 H       -6.5580    -7.3730    -2.4030 H     1 <1>   0.0800 
 47 H      -10.7530    -6.3870    -1.9490 H     1 <1>   0.0800 
 48 H      -10.2080    -5.8980    -0.3620 H     1 <1>   0.0800 
 49 H       -5.8910    -7.5950     1.0900 H     1 <1>   0.2700 
 50 H      -10.0940    -8.6860    -1.5620 H     1 <1>   0.0800 
 51 H      -10.9770    -8.1830    -0.1400 H     1 <1>   0.0800 
 52 H       -5.7930    -9.7310     2.9090 H     1 <1>   0.1500 
 53 H      -10.3630   -10.5590     1.1970 H     1 <1>   0.1500 
 54 H       -7.1270   -11.6280     3.7730 H     1 <1>   0.1500 
 55 H       -9.3860   -12.0400     2.9280 H     1 <1>   0.1500 
@<TRIPOS>BOND
  1   1   2  2   
  2   2   3  am  
  3   2   4  1   
  4   3   5  1   
  5   3   6  1   
  6   4   7  1   
  7   4  29  1   
  8   4  30  1   
  9   5   7  1   
 10   5  31  1   
 11   5  32  1   
 12   6   8  1   
 13   6  33  1   
 14   6  34  1   
 15   7  35  1   
 16   7  36  1   
 17   8   9  1   
 18   8  37  1   
 19   8  38  1   
 20   9  10  2   
 21   9  11  am  
 22  11  12  1   
 23  11  13  1   
 24  12  14  1   
 25  12  39  1   
 26  12  40  1   
 27  13  15  1   
 28  13  41  1   
 29  13  42  1   
 30  14  16  1   
 31  14  43  1   
 32  14  44  1   
 33  15  16  1   
 34  15  45  1   
 35  15  46  1   
 36  16  17  1   
 37  16  18  1   
 38  17  19  1   
 39  18  20  1   
 40  18  21  2   
 41  19  22  1   
 42  19  47  1   
 43  19  48  1   
 44  20  23  1   
 45  20  49  1   
 46  21  22  1   
 47  21  24  1   
 48  22  50  1   
 49  22  51  1   
 50  23  24  ar  
 51  23  25  ar  
 52  24  26  ar  
 53  25  27  ar  
 54  25  52  1   
 55  26  28  ar  
 56  26  53  1   
 57  27  28  ar  
 58  27  54  1   
 59  28  55  1   
@<TRIPOS>SUBSTRUCTURE
  1 ****  14 GROUP 4 **** **** 0

# MOE 2024.06 (io_trps.svl 2023.06)
