@<TRIPOS>MOLECULE
NONAME
59 62 1 0 0 
SMALL
USER_CHARGES


@<TRIPOS>ATOM
  1 S        4.4230    -0.5900    -0.0410 S.3   1 <1>  -0.0800 
  2 C        3.0580    -0.9690     0.9740 C.2   1 <1>  -0.1400 
  3 C        5.4850    -0.9580     1.2960 C.2   1 <1>   0.2280 
  4 C        3.5110    -1.3120     2.1930 C.2   1 <1>   0.0460 
  5 C        1.6810    -0.8510     0.3460 C.3   1 <1>   0.3200 
  6 N        4.8860    -1.3450     2.3520 N.2   1 <1>  -0.5650 
  7 C        2.6900    -1.6630     3.4170 C.3   1 <1>  -0.0590 
  8 N        1.4430    -2.0300    -0.5450 N.am  1 <1>  -0.6600 
  9 C        1.2830    -1.8340    -1.8960 C.2   1 <1>   0.5690 
 10 C        1.3310    -3.3440     0.1650 C.3   1 <1>   0.1400 
 11 O        1.3630    -0.7300    -2.3740 O.2   1 <1>  -0.5700 
 12 C        1.0160    -2.9540    -2.8840 C.3   1 <1>  -0.0990 
 13 C        2.0460    -4.5470    -0.5220 C.3   1 <1>   0.2800 
 14 C        0.4110    -4.2340    -2.3130 C.3   1 <1>   0.1200 
 15 O        1.3720    -5.0100    -1.6540 O.3   1 <1>  -0.5600 
 16 C        3.4900    -4.2510    -0.9640 C.3   1 <1>  -0.1600 
 17 C        2.0720    -5.7560     0.4250 C.3   1 <1>  -0.1600 
 18 C        4.4180    -4.0440     0.2250 C.3   1 <1>   0.3430 
 19 C        3.0260    -5.5640     1.6040 C.3   1 <1>   0.3430 
 20 N        4.3910    -5.2410     1.1130 N.4   1 <1>  -0.9590 
 21 C        5.3480    -5.0680     2.2430 C.3   1 <1>   0.4860 
 22 C        6.7570    -4.9520     1.6900 C.ar  1 <1>  -0.1430 
 23 C        7.4890    -3.7980     1.9280 C.ar  1 <1>  -0.1500 
 24 C        7.3250    -5.9780     0.9450 C.ar  1 <1>  -0.1500 
 25 C        8.7620    -3.6610     1.4070 C.ar  1 <1>  -0.1500 
 26 C        8.6000    -5.8400     0.4230 C.ar  1 <1>  -0.1500 
 27 C        9.3240    -4.6740     0.6480 C.ar  1 <1>   0.0830 
 28 O       10.5720    -4.4540     0.1700 O.3   1 <1>  -0.3620 
 29 C       11.2740    -5.4450    -0.5470 C.3   1 <1>   0.0400 
 30 H        6.5430    -0.8440     1.1240 H     1 <1>   0.1500 
 31 H        1.6170     0.0780    -0.1950 H     1 <1>   0.0800 
 32 H        0.9240    -0.8290     1.1090 H     1 <1>   0.0800 
 33 H        1.6380    -1.6140     3.2080 H     1 <1>   0.0800 
 34 H        2.9130    -0.9650     4.2050 H     1 <1>   0.0800 
 35 H        2.9380    -2.6500     3.7580 H     1 <1>   0.0800 
 36 H        0.2920    -3.5760     0.3180 H     1 <1>   0.0800 
 37 H        1.7530    -3.2270     1.1430 H     1 <1>   0.0800 
 38 H        1.9190    -3.1850    -3.4170 H     1 <1>   0.0800 
 39 H        0.3210    -2.5670    -3.6070 H     1 <1>   0.0800 
 40 H        0.0420    -4.8360    -3.1260 H     1 <1>   0.0800 
 41 H       -0.4180    -4.0330    -1.6570 H     1 <1>   0.0800 
 42 H        3.5280    -3.3680    -1.5730 H     1 <1>   0.0800 
 43 H        3.8630    -5.0660    -1.5580 H     1 <1>   0.0800 
 44 H        2.3740    -6.6330    -0.1210 H     1 <1>   0.0800 
 45 H        1.0810    -5.9380     0.8010 H     1 <1>   0.0800 
 46 H        4.1030    -3.1790     0.7780 H     1 <1>   0.0800 
 47 H        5.4210    -3.8660    -0.1320 H     1 <1>   0.0800 
 48 H        3.0510    -6.4690     2.1920 H     1 <1>   0.0800 
 49 H        2.6690    -4.7650     2.2330 H     1 <1>   0.0800 
 50 H        4.7370    -6.0280     0.5510 H     1 <1>   0.4500 
 51 H        5.3000    -5.9160     2.9080 H     1 <1>   0.0800 
 52 H        5.1050    -4.1780     2.8020 H     1 <1>   0.0800 
 53 H        7.0820    -2.9980     2.5240 H     1 <1>   0.1500 
 54 H        6.7930    -6.8950     0.7630 H     1 <1>   0.1500 
 55 H        9.3350    -2.7690     1.5870 H     1 <1>   0.1500 
 56 H        9.0160    -6.6450    -0.1530 H     1 <1>   0.1500 
 57 H       12.2450    -5.0530    -0.7940 H     1 <1>   0.0800 
 58 H       10.7340    -5.6750    -1.4480 H     1 <1>   0.0800 
 59 H       11.3810    -6.3170     0.0740 H     1 <1>   0.0800 
@<TRIPOS>BOND
  1   1   2  1   
  2   1   3  1   
  3   2   4  2   
  4   2   5  1   
  5   3   6  2   
  6   3  30  1   
  7   4   6  1   
  8   4   7  1   
  9   5   8  1   
 10   5  31  1   
 11   5  32  1   
 12   7  33  1   
 13   7  34  1   
 14   7  35  1   
 15   8   9  am  
 16   8  10  1   
 17   9  11  2   
 18   9  12  1   
 19  10  13  1   
 20  10  36  1   
 21  10  37  1   
 22  12  14  1   
 23  12  38  1   
 24  12  39  1   
 25  13  15  1   
 26  13  16  1   
 27  13  17  1   
 28  14  15  1   
 29  14  40  1   
 30  14  41  1   
 31  16  18  1   
 32  16  42  1   
 33  16  43  1   
 34  17  19  1   
 35  17  44  1   
 36  17  45  1   
 37  18  20  1   
 38  18  46  1   
 39  18  47  1   
 40  19  20  1   
 41  19  48  1   
 42  19  49  1   
 43  20  21  1   
 44  20  50  1   
 45  21  22  1   
 46  21  51  1   
 47  21  52  1   
 48  22  23  ar  
 49  22  24  ar  
 50  23  25  ar  
 51  23  53  1   
 52  24  26  ar  
 53  24  54  1   
 54  25  27  ar  
 55  25  55  1   
 56  26  27  ar  
 57  26  56  1   
 58  27  28  1   
 59  28  29  1   
 60  29  57  1   
 61  29  58  1   
 62  29  59  1   
@<TRIPOS>SUBSTRUCTURE
  1 ****  18 GROUP 4 **** **** 0

# MOE 2024.06 (io_trps.svl 2023.06)
