@<TRIPOS>MOLECULE
NONAME
49 52 1 0 0 
SMALL
USER_CHARGES


@<TRIPOS>ATOM
  1 CL       1.6660     0.5970     3.0520 Cl    1 <1>  -0.1770 
  2 C        2.3130     1.1100     1.5040 C.ar  1 <1>   0.1770 
  3 C        2.6800     0.1580     0.5460 C.ar  1 <1>   0.1000 
  4 C        2.4410     2.4630     1.2800 C.ar  1 <1>  -0.1500 
  5 N        2.5500    -1.2120     0.7730 N.pl3 1 <1>  -0.8380 
  6 C        3.1670     0.6430    -0.6660 C.ar  1 <1>  -0.1500 
  7 C        2.9520     2.9460     0.0760 C.ar  1 <1>   0.0860 
  8 C        1.1990    -1.8080     0.6340 C.3   1 <1>   0.2090 
  9 C        3.5840    -2.1840     0.3440 C.3   1 <1>   0.2090 
 10 C        3.2990     2.0000    -0.8930 C.ar  1 <1>  -0.1500 
 11 C        3.0990     4.3690    -0.1560 C.2   1 <1>   0.5440 
 12 C        1.4340    -3.2460     0.1810 C.3   1 <1>  -0.1600 
 13 C        2.8220    -3.2340    -0.4520 C.3   1 <1>  -0.1600 
 14 O        2.2070     5.1260     0.1820 O.2   1 <1>  -0.5700 
 15 N        4.2290     4.9020    -0.7380 N.am  1 <1>  -0.6600 
 16 C        4.2620     6.3140    -1.2380 C.3   1 <1>   0.1400 
 17 C        5.5940     4.3030    -0.5890 C.3   1 <1>   0.1400 
 18 C        5.1620     7.1920    -0.3550 C.3   1 <1>   0.2090 
 19 C        6.5080     5.1980     0.2700 C.3   1 <1>   0.2090 
 20 N        6.5330     6.6020    -0.2380 N.pl3 1 <1>  -0.8380 
 21 C        7.5380     7.4210     0.2790 C.ar  1 <1>   0.1000 
 22 C        7.4420     8.0680     1.5150 C.ar  1 <1>   0.1600 
 23 C        8.6970     7.6080    -0.4510 C.ar  1 <1>  -0.1500 
 24 N        8.3660     8.8490     2.0540 N.ar  1 <1>  -0.6200 
 25 C        9.6730     8.4160     0.0890 C.ar  1 <1>  -0.1500 
 26 C        9.4610     9.0050     1.3250 C.ar  1 <1>   0.1600 
 27 H        2.1420     3.1590     2.0430 H     1 <1>   0.1500 
 28 H        3.4310    -0.0530    -1.4390 H     1 <1>   0.1500 
 29 H        0.6410    -1.2650    -0.1100 H     1 <1>   0.0800 
 30 H        0.6740    -1.7750     1.5730 H     1 <1>   0.0800 
 31 H        4.0180    -2.6300     1.2230 H     1 <1>   0.0800 
 32 H        4.3630    -1.7230    -0.2370 H     1 <1>   0.0800 
 33 H        3.6710     2.3450    -1.8420 H     1 <1>   0.1500 
 34 H        0.6730    -3.5780    -0.5010 H     1 <1>   0.0800 
 35 H        1.4340    -3.8840     1.0470 H     1 <1>   0.0800 
 36 H        3.3020    -4.1950    -0.4100 H     1 <1>   0.0800 
 37 H        2.7550    -2.9140    -1.4770 H     1 <1>   0.0800 
 38 H        3.2700     6.7300    -1.2620 H     1 <1>   0.0800 
 39 H        4.6440     6.3220    -2.2440 H     1 <1>   0.0800 
 40 H        6.0350     4.1880    -1.5640 H     1 <1>   0.0800 
 41 H        5.5360     3.3320    -0.1320 H     1 <1>   0.0800 
 42 H        4.7160     7.2780     0.6210 H     1 <1>   0.0800 
 43 H        5.2320     8.1770    -0.7830 H     1 <1>   0.0800 
 44 H        7.5070     4.7990     0.2630 H     1 <1>   0.0800 
 45 H        6.1540     5.1930     1.2870 H     1 <1>   0.0800 
 46 H        6.5440     7.9190     2.0850 H     1 <1>   0.1500 
 47 H        8.8130     7.1310    -1.4070 H     1 <1>   0.1500 
 48 H       10.5900     8.5930    -0.4420 H     1 <1>   0.1500 
 49 H       10.2310     9.6360     1.7350 H     1 <1>   0.1500 
@<TRIPOS>BOND
  1   1   2  1   
  2   2   3  ar  
  3   2   4  ar  
  4   3   5  1   
  5   3   6  ar  
  6   4   7  ar  
  7   4  27  1   
  8   5   8  1   
  9   5   9  1   
 10   6  10  ar  
 11   6  28  1   
 12   7  10  ar  
 13   7  11  1   
 14   8  12  1   
 15   8  29  1   
 16   8  30  1   
 17   9  13  1   
 18   9  31  1   
 19   9  32  1   
 20  10  33  1   
 21  11  14  2   
 22  11  15  am  
 23  12  13  1   
 24  12  34  1   
 25  12  35  1   
 26  13  36  1   
 27  13  37  1   
 28  15  16  1   
 29  15  17  1   
 30  16  18  1   
 31  16  38  1   
 32  16  39  1   
 33  17  19  1   
 34  17  40  1   
 35  17  41  1   
 36  18  20  1   
 37  18  42  1   
 38  18  43  1   
 39  19  20  1   
 40  19  44  1   
 41  19  45  1   
 42  20  21  1   
 43  21  22  ar  
 44  21  23  ar  
 45  22  24  ar  
 46  22  46  1   
 47  23  25  ar  
 48  23  47  1   
 49  24  26  ar  
 50  25  26  ar  
 51  25  48  1   
 52  26  49  1   
@<TRIPOS>SUBSTRUCTURE
  1 ****  17 GROUP 4 **** **** 0

# MOE 2024.06 (io_trps.svl 2023.06)
