@<TRIPOS>MOLECULE
NONAME
39 40 1 0 0 
SMALL
USER_CHARGES


@<TRIPOS>ATOM
  1 O        1.4420     0.4190    -0.4650 O.2   1 <1>  -0.5700 
  2 C        2.0700    -0.6220    -0.5610 C.2   1 <1>   0.7150 
  3 N        3.4070    -0.5490    -0.9270 N.am  1 <1>  -0.6600 
  4 C        1.3860    -1.8700    -0.2750 C.2   1 <1>   0.0550 
  5 C        3.9360     0.6600    -1.6540 C.3   1 <1>   0.1400 
  6 C        4.3220    -1.7280    -0.8970 C.3   1 <1>   0.1400 
  7 O        1.5260    -2.9320    -1.0690 O.3   1 <1>  -0.2800 
  8 C        0.5160    -2.2010     0.7260 C.2   1 <1>  -0.1810 
  9 C        3.9500     1.9620    -0.8290 C.3   1 <1>   0.2000 
 10 C        5.5320    -1.4590    -0.0060 C.3   1 <1>  -0.2400 
 11 C        0.7870    -3.9130    -0.6060 C.2   1 <1>  -0.0100 
 12 C        0.1350    -3.5250     0.5090 C.2   1 <1>  -0.1500 
 13 C        0.0130    -1.3480     1.8760 C.3   1 <1>  -0.0590 
 14 O        4.6580     2.9170    -1.5700 O.3   1 <1>  -0.5600 
 15 C        4.6110     1.8340     0.5550 C.3   1 <1>  -0.1600 
 16 C        4.6110     4.2100    -1.0480 C.3   1 <1>   0.1200 
 17 C        4.6680     3.1930     1.2610 C.3   1 <1>  -0.1600 
 18 C        5.2930     4.2330     0.3250 C.3   1 <1>  -0.1600 
 19 H        3.3230     0.8240    -2.5240 H     1 <1>   0.0800 
 20 H        4.9370     0.4640    -1.9930 H     1 <1>   0.0800 
 21 H        4.6420    -1.9570    -1.8990 H     1 <1>   0.0800 
 22 H        3.8190    -2.5930    -0.5070 H     1 <1>   0.0800 
 23 H        2.9410     2.3210    -0.7230 H     1 <1>   0.0800 
 24 H        6.1530    -0.6870    -0.4200 H     1 <1>   0.0800 
 25 H        6.1240    -2.3530     0.0710 H     1 <1>   0.0800 
 26 H        5.2120    -1.1790     0.9820 H     1 <1>   0.0800 
 27 H        0.7790    -4.8540    -1.1280 H     1 <1>   0.1500 
 28 H       -0.5450    -4.0940     1.1180 H     1 <1>   0.1500 
 29 H        0.4910    -0.3850     1.8750 H     1 <1>   0.0800 
 30 H        0.2210    -1.8340     2.8120 H     1 <1>   0.0800 
 31 H       -1.0480    -1.2030     1.7850 H     1 <1>   0.0800 
 32 H        5.6070     1.4490     0.4350 H     1 <1>   0.0800 
 33 H        4.0520     1.1410     1.1580 H     1 <1>   0.0800 
 34 H        3.5810     4.5160    -0.9780 H     1 <1>   0.0800 
 35 H        5.1240     4.8600    -1.7360 H     1 <1>   0.0800 
 36 H        5.2400     3.1170     2.1690 H     1 <1>   0.0800 
 37 H        3.6680     3.5000     1.5170 H     1 <1>   0.0800 
 38 H        5.2050     5.2140     0.7550 H     1 <1>   0.0800 
 39 H        6.3400     4.0230     0.1920 H     1 <1>   0.0800 
@<TRIPOS>BOND
  1   1   2  2   
  2   2   3  am  
  3   2   4  1   
  4   3   5  1   
  5   3   6  1   
  6   4   7  1   
  7   4   8  2   
  8   5   9  1   
  9   5  19  1   
 10   5  20  1   
 11   6  10  1   
 12   6  21  1   
 13   6  22  1   
 14   7  11  1   
 15   8  12  1   
 16   8  13  1   
 17   9  14  1   
 18   9  15  1   
 19   9  23  1   
 20  10  24  1   
 21  10  25  1   
 22  10  26  1   
 23  11  12  2   
 24  11  27  1   
 25  12  28  1   
 26  13  29  1   
 27  13  30  1   
 28  13  31  1   
 29  14  16  1   
 30  15  17  1   
 31  15  32  1   
 32  15  33  1   
 33  16  18  1   
 34  16  34  1   
 35  16  35  1   
 36  17  18  1   
 37  17  36  1   
 38  17  37  1   
 39  18  38  1   
 40  18  39  1   
@<TRIPOS>SUBSTRUCTURE
  1 ****   3 GROUP 4 **** **** 0

# MOE 2024.06 (io_trps.svl 2023.06)
