@<TRIPOS>MOLECULE
NONAME
51 52 1 0 0 
SMALL
USER_CHARGES


@<TRIPOS>ATOM
  1 S        0.3810     0.1250     0.3010 S.o2  1 <1>   1.3330 
  2 O       -0.2170    -0.0410     1.6060 O.2   1 <1>  -0.6500 
  3 O        1.8160     0.2620     0.1820 O.2   1 <1>  -0.6500 
  4 N       -0.0950    -1.1810    -0.6740 N.am  1 <1>  -0.8490 
  5 C       -0.4080     1.5220    -0.4940 C.3   1 <1>  -0.0550 
  6 C       -0.1790    -2.4360     0.0800 C.3   1 <1>   0.1160 
  7 C        0.7510    -1.3660    -1.8570 C.3   1 <1>   0.1160 
  8 C       -0.2080     2.8470     0.2600 C.3   1 <1>  -0.0800 
  9 C       -0.9460     4.0050    -0.4040 C.3   1 <1>   0.2000 
 10 C        1.2440     3.3260     0.3290 C.3   1 <1>   0.1400 
 11 O       -2.2800     3.9910    -0.0310 O.3   1 <1>  -0.6800 
 12 C       -0.2230     5.2630     0.0720 C.3   1 <1>   0.1400 
 13 N        1.1540     4.8020     0.3920 N.am  1 <1>  -0.6600 
 14 C        2.2190     5.6170     0.7500 C.2   1 <1>   0.5440 
 15 O        3.3020     5.0620     0.8720 O.2   1 <1>  -0.5700 
 16 C        2.1210     7.0710     0.9580 C.ar  1 <1>   0.3960 
 17 N        0.9580     7.6590     1.1670 N.ar  1 <1>  -0.6200 
 18 C        3.2760     7.8390     0.9350 C.ar  1 <1>  -0.1500 
 19 C        0.9570     8.9890     1.3250 C.ar  1 <1>   0.4490 
 20 C        3.1840     9.1980     1.1130 C.ar  1 <1>   0.1670 
 21 O       -0.1460     9.5240     1.4940 O.3   1 <1>  -0.8290 
 22 N        2.0410     9.7860     1.3090 N.ar  1 <1>  -0.6200 
 23 C        4.4330    10.0650     1.0890 C.3   1 <1>  -0.0170 
 24 C        5.0400    10.2040    -0.3220 C.3   1 <1>  -0.0800 
 25 C        6.3510    10.9980    -0.2630 C.3   1 <1>  -0.2400 
 26 C        4.0640    10.8860    -1.2910 C.3   1 <1>  -0.2400 
 27 H       -0.0330     1.6230    -1.4940 H     1 <1>   0.0800 
 28 H       -1.4610     1.3270    -0.5580 H     1 <1>   0.0800 
 29 H       -0.4980    -3.2380    -0.5630 H     1 <1>   0.0800 
 30 H       -0.8980    -2.3400     0.8770 H     1 <1>   0.0800 
 31 H        0.7790    -2.6810     0.5070 H     1 <1>   0.0800 
 32 H        0.3490    -2.1450    -2.4820 H     1 <1>   0.0800 
 33 H        1.7540    -1.6340    -1.5650 H     1 <1>   0.0800 
 34 H        0.7910    -0.4570    -2.4320 H     1 <1>   0.0800 
 35 H       -0.5580     2.7400     1.2740 H     1 <1>   0.0800 
 36 H       -0.8910     3.9400    -1.4780 H     1 <1>   0.0800 
 37 H        1.7920     3.0490    -0.5560 H     1 <1>   0.0800 
 38 H        1.7520     2.9370     1.1970 H     1 <1>   0.0800 
 39 H       -2.3690     4.3040     0.8920 H     1 <1>   0.4000 
 40 H       -0.6790     5.6560     0.9640 H     1 <1>   0.0800 
 41 H       -0.2020     6.0200    -0.6930 H     1 <1>   0.0800 
 42 H        4.2280     7.3730     0.7770 H     1 <1>   0.1500 
 43 H        4.1860    11.0390     1.4740 H     1 <1>   0.0800 
 44 H        5.1560     9.6300     1.7530 H     1 <1>   0.0800 
 45 H        5.2590     9.2190    -0.7000 H     1 <1>   0.0800 
 46 H        6.1720    11.9930     0.1060 H     1 <1>   0.0800 
 47 H        6.7870    11.0690    -1.2440 H     1 <1>   0.0800 
 48 H        7.0560    10.5110     0.3860 H     1 <1>   0.0800 
 49 H        3.7970    11.8640    -0.9300 H     1 <1>   0.0800 
 50 H        3.1600    10.3080    -1.3830 H     1 <1>   0.0800 
 51 H        4.5030    10.9830    -2.2670 H     1 <1>   0.0800 
@<TRIPOS>BOND
  1   1   2  2   
  2   1   3  2   
  3   1   4  am  
  4   1   5  1   
  5   4   6  1   
  6   4   7  1   
  7   5   8  1   
  8   5  27  1   
  9   5  28  1   
 10   6  29  1   
 11   6  30  1   
 12   6  31  1   
 13   7  32  1   
 14   7  33  1   
 15   7  34  1   
 16   8   9  1   
 17   8  10  1   
 18   8  35  1   
 19   9  11  1   
 20   9  12  1   
 21   9  36  1   
 22  10  13  1   
 23  10  37  1   
 24  10  38  1   
 25  11  39  1   
 26  12  13  1   
 27  12  40  1   
 28  12  41  1   
 29  13  14  am  
 30  14  15  2   
 31  14  16  1   
 32  16  17  ar  
 33  16  18  ar  
 34  17  19  ar  
 35  18  20  ar  
 36  18  42  1   
 37  19  21  1   
 38  19  22  ar  
 39  20  22  ar  
 40  20  23  1   
 41  23  24  1   
 42  23  43  1   
 43  23  44  1   
 44  24  25  1   
 45  24  26  1   
 46  24  45  1   
 47  25  46  1   
 48  25  47  1   
 49  25  48  1   
 50  26  49  1   
 51  26  50  1   
 52  26  51  1   
@<TRIPOS>SUBSTRUCTURE
  1 ****  13 GROUP 4 **** **** 0

# MOE 2024.06 (io_trps.svl 2023.06)
