@<TRIPOS>MOLECULE
NONAME
58 62 1 0 0 
SMALL
USER_CHARGES


@<TRIPOS>ATOM
  1 F       -1.6810     0.0520     0.3590 F     1 <1>  -0.1900 
  2 C       -2.8580     0.1440    -0.2060 C.ar  1 <1>   0.1900 
  3 C       -3.7310    -0.9500    -0.2620 C.ar  1 <1>   0.0820 
  4 C       -3.1950     1.3800    -0.7210 C.ar  1 <1>  -0.1500 
  5 O       -3.4700    -2.2050     0.2150 O.3   1 <1>  -0.3630 
  6 C       -4.9810    -0.7530    -0.8470 C.ar  1 <1>  -0.1440 
  7 C       -4.4350     1.5500    -1.3090 C.ar  1 <1>  -0.1500 
  8 C       -2.1490    -2.6760     0.4070 C.3   1 <1>   0.0400 
  9 C       -5.3210     0.4880    -1.3710 C.ar  1 <1>  -0.1500 
 10 C       -5.9810    -1.8930    -0.9200 C.3   1 <1>   0.4870 
 11 N       -6.2910    -2.3500     0.4610 N.4   1 <1>  -0.9590 
 12 C       -7.1990    -3.5350     0.4300 C.3   1 <1>   0.3430 
 13 C       -6.9870    -1.2860     1.2570 C.3   1 <1>   0.3430 
 14 C       -8.5990    -2.9350     0.5230 C.3   1 <1>   0.2800 
 15 C       -8.4640    -1.6990     1.4020 C.3   1 <1>  -0.0800 
 16 O       -8.9970    -2.3600    -0.6720 O.3   1 <1>  -0.5600 
 17 C       -9.8220    -3.7770     0.8850 C.3   1 <1>  -0.1600 
 18 C       -9.5730    -0.7940     0.8190 C.3   1 <1>  -0.0800 
 19 C      -10.1470    -1.7160    -0.2670 C.3   1 <1>   0.2000 
 20 C      -10.9410    -2.8790     0.3450 C.3   1 <1>  -0.1600 
 21 C       -9.0930     0.5410     0.2270 C.3   1 <1>   0.1400 
 22 N      -10.2590     1.3590    -0.1730 N.am  1 <1>  -0.7300 
 23 C      -10.9770     2.1400     0.6940 C.2   1 <1>   0.6160 
 24 O      -10.6410     2.1380     1.8630 O.2   1 <1>  -0.5700 
 25 C      -12.0930     2.9370     0.2350 C.2   1 <1>   0.0140 
 26 C      -12.7510     2.7030    -0.9510 C.2   1 <1>  -0.0410 
 27 C      -12.5680     4.0270     1.0340 C.2   1 <1>  -0.1500 
 28 N      -13.8020     3.4830    -1.3590 N.am  1 <1>  -0.5390 
 29 C      -13.6140     4.7920     0.6200 C.2   1 <1>  -0.1360 
 30 C      -14.2660     4.5300    -0.6140 C.2   1 <1>   0.6160 
 31 O      -15.2050     5.1800    -1.0390 O.2   1 <1>  -0.5700 
 32 H       -2.4950     2.1960    -0.6610 H     1 <1>   0.1500 
 33 H       -4.7060     2.5100    -1.7190 H     1 <1>   0.1500 
 34 H       -2.1840    -3.7420     0.5390 H     1 <1>   0.0800 
 35 H       -1.7350    -2.2170     1.2880 H     1 <1>   0.0800 
 36 H       -1.5580    -2.4370    -0.4610 H     1 <1>   0.0800 
 37 H       -6.2790     0.6440    -1.8390 H     1 <1>   0.1500 
 38 H       -5.5490    -2.7020    -1.4860 H     1 <1>   0.0800 
 39 H       -6.8820    -1.5710    -1.4170 H     1 <1>   0.0800 
 40 H       -5.3680    -2.5710     0.8740 H     1 <1>   0.4500 
 41 H       -7.0830    -4.1250    -0.4640 H     1 <1>   0.0800 
 42 H       -7.0230    -4.1510     1.2950 H     1 <1>   0.0800 
 43 H       -6.5410    -1.2150     2.2370 H     1 <1>   0.0800 
 44 H       -6.8860    -0.3280     0.7760 H     1 <1>   0.0800 
 45 H       -8.6630    -1.9330     2.4340 H     1 <1>   0.0800 
 46 H       -9.8020    -4.7190     0.3650 H     1 <1>   0.0800 
 47 H       -9.9040    -3.9490     1.9440 H     1 <1>   0.0800 
 48 H      -10.3150    -0.5890     1.5720 H     1 <1>   0.0800 
 49 H      -10.6380    -1.2210    -1.0880 H     1 <1>   0.0800 
 50 H      -11.6150    -2.5430     1.1140 H     1 <1>   0.0800 
 51 H      -11.5040    -3.3840    -0.4210 H     1 <1>   0.0800 
 52 H       -8.4650     0.3740    -0.6300 H     1 <1>   0.0800 
 53 H       -8.5300     1.0860     0.9670 H     1 <1>   0.0800 
 54 H      -10.4280     1.4550    -1.1760 H     1 <1>   0.3700 
 55 H      -12.4710     1.8910    -1.6000 H     1 <1>   0.1500 
 56 H      -12.0720     4.2210     1.9710 H     1 <1>   0.1500 
 57 H      -14.3150     3.3330    -2.2300 H     1 <1>   0.3700 
 58 H      -13.9930     5.6150     1.1950 H     1 <1>   0.1500 
@<TRIPOS>BOND
  1   1   2  1   
  2   2   3  ar  
  3   2   4  ar  
  4   3   5  1   
  5   3   6  ar  
  6   4   7  ar  
  7   4  32  1   
  8   5   8  1   
  9   6   9  ar  
 10   6  10  1   
 11   7   9  ar  
 12   7  33  1   
 13   8  34  1   
 14   8  35  1   
 15   8  36  1   
 16   9  37  1   
 17  10  11  1   
 18  10  38  1   
 19  10  39  1   
 20  11  12  1   
 21  11  13  1   
 22  11  40  1   
 23  12  14  1   
 24  12  41  1   
 25  12  42  1   
 26  13  15  1   
 27  13  43  1   
 28  13  44  1   
 29  14  15  1   
 30  14  16  1   
 31  14  17  1   
 32  15  18  1   
 33  15  45  1   
 34  16  19  1   
 35  17  20  1   
 36  17  46  1   
 37  17  47  1   
 38  18  19  1   
 39  18  21  1   
 40  18  48  1   
 41  19  20  1   
 42  19  49  1   
 43  20  50  1   
 44  20  51  1   
 45  21  22  1   
 46  21  52  1   
 47  21  53  1   
 48  22  23  am  
 49  22  54  1   
 50  23  24  2   
 51  23  25  1   
 52  25  26  2   
 53  25  27  1   
 54  26  28  1   
 55  26  55  1   
 56  27  29  2   
 57  27  56  1   
 58  28  30  am  
 59  28  57  1   
 60  29  30  1   
 61  29  58  1   
 62  30  31  2   
@<TRIPOS>SUBSTRUCTURE
  1 ****  21 GROUP 4 **** **** 0

# MOE 2024.06 (io_trps.svl 2023.06)
