@<TRIPOS>MOLECULE
NONAME
31 31 1 0 0 
SMALL
USER_CHARGES


@<TRIPOS>ATOM
  1 CL       0.4190     0.0360    -1.6070 Cl    1 <1>  -0.1770 
  2 C        1.4580    -1.0850    -0.7420 C.ar  1 <1>   0.1770 
  3 C        1.0980    -2.4170    -0.5780 C.ar  1 <1>   0.4100 
  4 C        2.6460    -0.6620    -0.2130 C.ar  1 <1>   0.1600 
  5 N        1.8920    -3.2460     0.0770 N.ar  1 <1>  -0.6200 
  6 N       -0.0840    -2.9210    -1.0740 N.pl3 1 <1>  -0.8690 
  7 N        3.4470    -1.4860     0.4430 N.ar  1 <1>  -0.6200 
  8 C        3.0160    -2.7330     0.5450 C.ar  1 <1>   0.4770 
  9 C       -0.4230    -4.3670    -1.1500 C.3   1 <1>   0.2090 
 10 C        3.9150    -3.6900     1.2910 C.3   1 <1>  -0.0970 
 11 C       -1.0750    -4.8270     0.1570 C.3   1 <1>   0.1400 
 12 N       -1.3390    -6.2890     0.1350 N.am  1 <1>  -0.7300 
 13 C       -2.3590    -6.8740    -0.5400 C.2   1 <1>   0.5690 
 14 O       -3.1150    -6.2380    -1.2320 O.2   1 <1>  -0.5700 
 15 C       -2.5370    -8.3770    -0.4270 C.3   1 <1>  -0.0990 
 16 C       -3.0200    -8.8150     0.9640 C.3   1 <1>  -0.2400 
 17 H        2.9490     0.3630    -0.3240 H     1 <1>   0.1500 
 18 H       -0.6830    -2.2940    -1.6210 H     1 <1>   0.4000 
 19 H        0.4730    -4.9370    -1.3260 H     1 <1>   0.0800 
 20 H       -1.1030    -4.5310    -1.9690 H     1 <1>   0.0800 
 21 H        3.9930    -4.6120     0.7460 H     1 <1>   0.0800 
 22 H        3.4970    -3.8860     2.2600 H     1 <1>   0.0800 
 23 H        4.8970    -3.2700     1.4090 H     1 <1>   0.0800 
 24 H       -2.0050    -4.3020     0.2910 H     1 <1>   0.0800 
 25 H       -0.4240    -4.5970     0.9830 H     1 <1>   0.0800 
 26 H       -0.7150    -6.8640     0.7040 H     1 <1>   0.3700 
 27 H       -1.6020    -8.8540    -0.6570 H     1 <1>   0.0800 
 28 H       -3.2540    -8.6900    -1.1650 H     1 <1>   0.0800 
 29 H       -2.3060    -8.5400     1.7200 H     1 <1>   0.0800 
 30 H       -3.1550    -9.8820     0.9900 H     1 <1>   0.0800 
 31 H       -3.9610    -8.3440     1.1920 H     1 <1>   0.0800 
@<TRIPOS>BOND
  1   1   2  1   
  2   2   3  ar  
  3   2   4  ar  
  4   3   5  ar  
  5   3   6  1   
  6   4   7  ar  
  7   4  17  1   
  8   5   8  ar  
  9   6   9  1   
 10   6  18  1   
 11   7   8  ar  
 12   8  10  1   
 13   9  11  1   
 14   9  19  1   
 15   9  20  1   
 16  10  21  1   
 17  10  22  1   
 18  10  23  1   
 19  11  12  1   
 20  11  24  1   
 21  11  25  1   
 22  12  13  am  
 23  12  26  1   
 24  13  14  2   
 25  13  15  1   
 26  15  16  1   
 27  15  27  1   
 28  15  28  1   
 29  16  29  1   
 30  16  30  1   
 31  16  31  1   
@<TRIPOS>SUBSTRUCTURE
  1 ****   9 GROUP 4 **** **** 0

# MOE 2024.06 (io_trps.svl 2023.06)
