@<TRIPOS>MOLECULE
NONAME
48 49 1 0 0 
SMALL
USER_CHARGES


@<TRIPOS>ATOM
  1 CL       1.8190    -0.1400    -4.5280 Cl    1 <1>  -0.1770 
  2 C        2.2730    -0.8620    -3.0060 C.ar  1 <1>   0.1770 
  3 C        2.9260    -0.0920    -2.0630 C.ar  1 <1>  -0.1500 
  4 C        1.9660    -2.1900    -2.7770 C.ar  1 <1>  -0.1500 
  5 C        3.2870    -0.6650    -0.8470 C.ar  1 <1>   0.0830 
  6 C        2.3190    -2.7720    -1.5690 C.ar  1 <1>  -0.1440 
  7 O        3.9180     0.0390     0.1340 O.3   1 <1>  -0.3620 
  8 C        2.9810    -2.0110    -0.6130 C.ar  1 <1>   0.0830 
  9 C        2.0010    -4.2320    -1.3000 C.3   1 <1>   0.4870 
 10 C        4.2330     1.4060    -0.0170 C.3   1 <1>   0.0400 
 11 O        3.2950    -2.6120     0.5600 O.3   1 <1>  -0.3630 
 12 N        0.6530    -4.3180    -0.6560 N.4   1 <1>  -0.9590 
 13 C        4.6600    -2.8510     0.8180 C.3   1 <1>   0.1200 
 14 C       -0.0350    -5.5870    -1.0890 C.3   1 <1>   0.3430 
 15 C        0.8490    -4.2010     0.8300 C.3   1 <1>   0.3430 
 16 C        4.7580    -3.9900     1.8340 C.3   1 <1>  -0.1600 
 17 C        0.2750    -6.7540    -0.1600 C.3   1 <1>  -0.1860 
 18 C       -0.2620    -4.9280     1.5780 C.3   1 <1>  -0.1600 
 19 C        6.2170    -4.2980     2.1860 C.3   1 <1>  -0.2400 
 20 C        1.7460    -7.0080    -0.3640 C.2   1 <1>   0.9060 
 21 C       -0.2240    -6.4310     1.2660 C.3   1 <1>   0.2000 
 22 O        2.1200    -7.1910    -1.5230 O.co2 1 <1>  -0.9000 
 23 O        2.5450    -6.7950     0.5540 O.co2 1 <1>  -0.9000 
 24 O        0.5870    -7.0360     2.1940 O.3   1 <1>  -0.6800 
 25 H        3.1360     0.9330    -2.3000 H     1 <1>   0.1500 
 26 H        1.4630    -2.7510    -3.5460 H     1 <1>   0.1500 
 27 H        2.7520    -4.6730    -0.6620 H     1 <1>   0.0800 
 28 H        2.0060    -4.7800    -2.2280 H     1 <1>   0.0800 
 29 H        4.7150     1.7390     0.8850 H     1 <1>   0.0800 
 30 H        3.3240     1.9610    -0.1690 H     1 <1>   0.0800 
 31 H        4.9030     1.5220    -0.8500 H     1 <1>   0.0800 
 32 H        0.1260    -3.5070    -0.9890 H     1 <1>   0.4500 
 33 H        5.1460    -3.1240    -0.1030 H     1 <1>   0.0800 
 34 H        5.0960    -1.9470     1.2070 H     1 <1>   0.0800 
 35 H       -1.1010    -5.4300    -1.0910 H     1 <1>   0.0800 
 36 H        0.2640    -5.8450    -2.0940 H     1 <1>   0.0800 
 37 H        1.7900    -4.6520     1.1080 H     1 <1>   0.0800 
 38 H        0.8850    -3.1630     1.1170 H     1 <1>   0.0800 
 39 H        4.2290    -3.7160     2.7300 H     1 <1>   0.0800 
 40 H        4.3030    -4.8760     1.4230 H     1 <1>   0.0800 
 41 H       -0.2420    -7.6240    -0.5140 H     1 <1>   0.0800 
 42 H       -1.2090    -4.5150     1.2840 H     1 <1>   0.0800 
 43 H       -0.1560    -4.7710     2.6370 H     1 <1>   0.0800 
 44 H        6.6940    -3.4350     2.6160 H     1 <1>   0.0800 
 45 H        6.7600    -4.5970     1.3060 H     1 <1>   0.0800 
 46 H        6.2570    -5.1030     2.8980 H     1 <1>   0.0800 
 47 H       -1.2110    -6.8380     1.4130 H     1 <1>   0.0800 
 48 H        1.5230    -7.0290     1.8230 H     1 <1>   0.4000 
@<TRIPOS>BOND
  1   1   2  1   
  2   2   3  ar  
  3   2   4  ar  
  4   3   5  ar  
  5   3  25  1   
  6   4   6  ar  
  7   4  26  1   
  8   5   7  1   
  9   5   8  ar  
 10   6   8  ar  
 11   6   9  1   
 12   7  10  1   
 13   8  11  1   
 14   9  12  1   
 15   9  27  1   
 16   9  28  1   
 17  10  29  1   
 18  10  30  1   
 19  10  31  1   
 20  11  13  1   
 21  12  14  1   
 22  12  15  1   
 23  12  32  1   
 24  13  16  1   
 25  13  33  1   
 26  13  34  1   
 27  14  17  1   
 28  14  35  1   
 29  14  36  1   
 30  15  18  1   
 31  15  37  1   
 32  15  38  1   
 33  16  19  1   
 34  16  39  1   
 35  16  40  1   
 36  17  20  1   
 37  17  21  1   
 38  17  41  1   
 39  18  21  1   
 40  18  42  1   
 41  18  43  1   
 42  19  44  1   
 43  19  45  1   
 44  19  46  1   
 45  20  22  ar  
 46  20  23  ar  
 47  21  24  1   
 48  21  47  1   
 49  24  48  1   
@<TRIPOS>SUBSTRUCTURE
  1 ****   9 GROUP 4 **** **** 0

# MOE 2024.06 (io_trps.svl 2023.06)
