@<TRIPOS>MOLECULE
NONAME
51 53 1 0 0 
SMALL
USER_CHARGES


@<TRIPOS>ATOM
  1 S        1.5680     0.2430     0.8140 S.3   1 <1>  -0.0800 
  2 C        1.1480    -1.0180    -0.3240 C.2   1 <1>   0.4340 
  3 C        2.0170     1.2400    -0.5430 C.2   1 <1>  -0.1100 
  4 S        0.5290    -2.5640     0.3260 S.3   1 <1>  -0.2860 
  5 N        1.3170    -0.7340    -1.5520 N.2   1 <1>  -0.5650 
  6 C        1.8140     0.5520    -1.6790 C.2   1 <1>   0.0460 
  7 C        0.1750    -2.2470     2.1220 C.3   1 <1>   0.1310 
  8 C        2.0760     1.0430    -3.0860 C.3   1 <1>  -0.0590 
  9 C       -0.7220    -3.3350     2.6990 C.2   1 <1>   0.5690 
 10 O       -0.2270    -4.0360     3.5520 O.2   1 <1>  -0.5700 
 11 N       -2.0380    -3.4970     2.3080 N.am  1 <1>  -0.6600 
 12 C       -2.7080    -2.6190     1.2980 C.3   1 <1>   0.2200 
 13 C       -2.8420    -4.5970     2.9280 C.3   1 <1>   0.0600 
 14 C       -4.0730    -2.0880     1.7260 C.3   1 <1>  -0.1600 
 15 C       -2.9950    -3.3290    -0.0200 C.3   1 <1>  -0.1600 
 16 C       -4.7330    -1.6430     0.4110 C.3   1 <1>  -0.0800 
 17 C       -4.0380    -2.4370    -0.7090 C.3   1 <1>  -0.0800 
 18 C       -6.2280    -1.9760     0.3190 C.3   1 <1>  -0.1600 
 19 C       -5.1340    -3.2190    -1.4430 C.3   1 <1>  -0.1600 
 20 C       -6.2810    -3.3020    -0.4410 C.3   1 <1>   0.4230 
 21 N       -7.5980    -3.6030    -1.0850 N.4   1 <1>  -0.9590 
 22 C       -8.1000    -2.5610    -2.0420 C.3   1 <1>   0.2630 
 23 C       -8.6390    -3.8900    -0.0500 C.3   1 <1>   0.2630 
 24 H        2.3850     2.2300    -0.3440 H     1 <1>   0.1500 
 25 H        1.1220    -2.2360     2.6300 H     1 <1>   0.0800 
 26 H       -0.2980    -1.2890     2.2110 H     1 <1>   0.0800 
 27 H        2.4590     2.0470    -3.0710 H     1 <1>   0.0800 
 28 H        1.1620     1.0250    -3.6510 H     1 <1>   0.0800 
 29 H        2.7920     0.4000    -3.5650 H     1 <1>   0.0800 
 30 H       -2.0940    -1.7640     1.0780 H     1 <1>   0.0800 
 31 H       -3.5380    -5.0110     2.2240 H     1 <1>   0.0800 
 32 H       -3.3790    -4.2140     3.7780 H     1 <1>   0.0800 
 33 H       -2.1980    -5.3920     3.2630 H     1 <1>   0.0800 
 34 H       -4.6560    -2.8650     2.1840 H     1 <1>   0.0800 
 35 H       -3.9710    -1.2660     2.4130 H     1 <1>   0.0800 
 36 H       -2.1060    -3.4210    -0.6180 H     1 <1>   0.0800 
 37 H       -3.3960    -4.3080     0.1650 H     1 <1>   0.0800 
 38 H       -4.5690    -0.5870     0.2690 H     1 <1>   0.0800 
 39 H       -3.5350    -1.7620    -1.3840 H     1 <1>   0.0800 
 40 H       -6.7040    -1.1910    -0.2380 H     1 <1>   0.0800 
 41 H       -6.6830    -2.0470     1.2910 H     1 <1>   0.0800 
 42 H       -4.7950    -4.1930    -1.7500 H     1 <1>   0.0800 
 43 H       -5.4150    -2.6520    -2.3110 H     1 <1>   0.0800 
 44 H       -6.0390    -4.0880     0.2570 H     1 <1>   0.0800 
 45 H       -7.4540    -4.4680    -1.6270 H     1 <1>   0.4500 
 46 H       -8.2930    -1.6350    -1.5260 H     1 <1>   0.0800 
 47 H       -9.0180    -2.8900    -2.5010 H     1 <1>   0.0800 
 48 H       -7.3790    -2.3790    -2.8210 H     1 <1>   0.0800 
 49 H       -8.8320    -3.0100     0.5420 H     1 <1>   0.0800 
 50 H       -8.3100    -4.6810     0.6050 H     1 <1>   0.0800 
 51 H       -9.5600    -4.1970    -0.5200 H     1 <1>   0.0800 
@<TRIPOS>BOND
  1   1   2  1   
  2   1   3  1   
  3   2   4  1   
  4   2   5  2   
  5   3   6  2   
  6   3  24  1   
  7   4   7  1   
  8   5   6  1   
  9   6   8  1   
 10   7   9  1   
 11   7  25  1   
 12   7  26  1   
 13   8  27  1   
 14   8  28  1   
 15   8  29  1   
 16   9  10  2   
 17   9  11  am  
 18  11  12  1   
 19  11  13  1   
 20  12  14  1   
 21  12  15  1   
 22  12  30  1   
 23  13  31  1   
 24  13  32  1   
 25  13  33  1   
 26  14  16  1   
 27  14  34  1   
 28  14  35  1   
 29  15  17  1   
 30  15  36  1   
 31  15  37  1   
 32  16  17  1   
 33  16  18  1   
 34  16  38  1   
 35  17  19  1   
 36  17  39  1   
 37  18  20  1   
 38  18  40  1   
 39  18  41  1   
 40  19  20  1   
 41  19  42  1   
 42  19  43  1   
 43  20  21  1   
 44  20  44  1   
 45  21  22  1   
 46  21  23  1   
 47  21  45  1   
 48  22  46  1   
 49  22  47  1   
 50  22  48  1   
 51  23  49  1   
 52  23  50  1   
 53  23  51  1   
@<TRIPOS>SUBSTRUCTURE
  1 ****  12 GROUP 4 **** **** 0

# MOE 2024.06 (io_trps.svl 2023.06)
