@<TRIPOS>MOLECULE
NONAME
52 54 1 0 0 
SMALL
USER_CHARGES


@<TRIPOS>ATOM
  1 O       -0.2880     1.1060    -0.9860 O.2   1 <1>  -0.5700 
  2 C       -0.4080     2.3070    -0.9110 C.2   1 <1>   0.5690 
  3 N       -1.2280     2.9320    -0.0100 N.am  1 <1>  -0.5090 
  4 C        0.3750     3.1670    -1.8970 C.3   1 <1>   0.1810 
  5 C       -1.5110     4.3990    -0.1080 C.3   1 <1>   0.3640 
  6 C       -2.0120     2.2010     1.0130 C.3   1 <1>   0.0490 
  7 O        0.6280     4.4490    -1.3800 O.3   1 <1>  -0.5600 
  8 C       -2.9570     4.6130    -0.5680 C.ar  1 <1>  -0.1440 
  9 C       -0.5420     5.1830    -1.0390 C.3   1 <1>   0.2610 
 10 C       -1.7950     2.5430     2.4550 C.3   1 <1>  -0.2000 
 11 C       -1.3260     1.2280     1.9190 C.3   1 <1>  -0.2000 
 12 C       -3.7360     5.5820     0.0490 C.ar  1 <1>  -0.1500 
 13 C       -3.5130     3.8640    -1.5990 C.ar  1 <1>  -0.1500 
 14 C       -0.1520     6.5140    -0.3830 C.2   1 <1>   0.5690 
 15 C       -5.0420     5.8040    -0.3520 C.ar  1 <1>  -0.1500 
 16 C       -4.8180     4.0830    -2.0010 C.ar  1 <1>  -0.1500 
 17 O       -1.0150     7.2240     0.0750 O.2   1 <1>  -0.5700 
 18 N        1.1640     6.8540    -0.3230 N.am  1 <1>  -0.7300 
 19 C       -5.5920     5.0520    -1.3840 C.ar  1 <1>   0.0820 
 20 C        1.7830     8.0930     0.1880 C.3   1 <1>   0.3000 
 21 O       -6.8600     5.2040    -1.8400 O.3   1 <1>  -0.3620 
 22 C        1.3800     8.3600     1.6620 C.3   1 <1>   0.1200 
 23 C        1.3580     9.2560    -0.7110 C.3   1 <1>  -0.2400 
 24 C        3.2980     7.8980     0.0710 C.3   1 <1>  -0.2400 
 25 C       -7.7210     6.1780    -1.2950 C.3   1 <1>   0.0400 
 26 O        1.6230     7.2470     2.4620 O.3   1 <1>  -0.6800 
 27 H       -0.1720     3.2640    -2.8180 H     1 <1>   0.0800 
 28 H        1.3230     2.7020    -2.0990 H     1 <1>   0.0800 
 29 H       -1.4140     4.8050     0.8840 H     1 <1>   0.0800 
 30 H       -3.0110     1.9690     0.6820 H     1 <1>   0.1000 
 31 H       -1.0480     5.4150    -1.9590 H     1 <1>   0.0800 
 32 H       -1.0470     3.2640     2.7310 H     1 <1>   0.1000 
 33 H       -2.6410     2.5450     3.1190 H     1 <1>   0.1000 
 34 H       -1.8540     0.3360     2.2040 H     1 <1>   0.1000 
 35 H       -0.2720     1.0580     1.7830 H     1 <1>   0.1000 
 36 H       -3.3290     6.1800     0.8470 H     1 <1>   0.1500 
 37 H       -2.9410     3.1000    -2.0960 H     1 <1>   0.1500 
 38 H       -5.6110     6.5640     0.1490 H     1 <1>   0.1500 
 39 H       -5.2490     3.5020    -2.7970 H     1 <1>   0.1500 
 40 H        1.8240     6.1850    -0.7320 H     1 <1>   0.3700 
 41 H        0.3320     8.5970     1.7280 H     1 <1>   0.0800 
 42 H        1.9400     9.1860     2.0630 H     1 <1>   0.0800 
 43 H        1.8510    10.1610    -0.4040 H     1 <1>   0.0800 
 44 H        0.2970     9.4170    -0.6440 H     1 <1>   0.0800 
 45 H        1.6180     9.0570    -1.7350 H     1 <1>   0.0800 
 46 H        3.8090     8.7750     0.4260 H     1 <1>   0.0800 
 47 H        3.5840     7.7310    -0.9510 H     1 <1>   0.0800 
 48 H        3.6200     7.0640     0.6700 H     1 <1>   0.0800 
 49 H       -8.6610     6.1210    -1.8130 H     1 <1>   0.0800 
 50 H       -7.2830     7.1500    -1.4370 H     1 <1>   0.0800 
 51 H       -7.8670     5.9700    -0.2500 H     1 <1>   0.0800 
 52 H        1.2230     6.4670     2.0310 H     1 <1>   0.4000 
@<TRIPOS>BOND
  1   1   2  2   
  2   2   3  am  
  3   2   4  1   
  4   3   5  1   
  5   3   6  1   
  6   4   7  1   
  7   4  27  1   
  8   4  28  1   
  9   5   8  1   
 10   5   9  1   
 11   5  29  1   
 12   6  10  1   
 13   6  11  1   
 14   6  30  1   
 15   7   9  1   
 16   8  12  ar  
 17   8  13  ar  
 18   9  14  1   
 19   9  31  1   
 20  10  11  1   
 21  10  32  1   
 22  10  33  1   
 23  11  34  1   
 24  11  35  1   
 25  12  15  ar  
 26  12  36  1   
 27  13  16  ar  
 28  13  37  1   
 29  14  17  2   
 30  14  18  am  
 31  15  19  ar  
 32  15  38  1   
 33  16  19  ar  
 34  16  39  1   
 35  18  20  1   
 36  18  40  1   
 37  19  21  1   
 38  20  22  1   
 39  20  23  1   
 40  20  24  1   
 41  21  25  1   
 42  22  26  1   
 43  22  41  1   
 44  22  42  1   
 45  23  43  1   
 46  23  44  1   
 47  23  45  1   
 48  24  46  1   
 49  24  47  1   
 50  24  48  1   
 51  25  49  1   
 52  25  50  1   
 53  25  51  1   
 54  26  52  1   
@<TRIPOS>SUBSTRUCTURE
  1 ****   5 GROUP 4 **** **** 0

# MOE 2024.06 (io_trps.svl 2023.06)
