@<TRIPOS>MOLECULE
NONAME
44 46 1 0 0 
SMALL
USER_CHARGES


@<TRIPOS>ATOM
  1 S        0.3320     0.3110    -1.2700 S.3   1 <1>  -0.0800 
  2 C        1.2470    -0.6660    -0.1520 C.2   1 <1>  -0.1400 
  3 C        0.6830     1.7150    -0.2890 C.2   1 <1>   0.1980 
  4 C        1.7220     0.1280     0.8210 C.2   1 <1>   0.0460 
  5 C        1.3690    -2.1430    -0.4400 C.3   1 <1>   0.5230 
  6 N        1.3920     1.4660     0.7360 N.2   1 <1>  -0.5650 
  7 C        0.1270     3.0450    -0.7400 C.3   1 <1>  -0.0600 
  8 C        2.5810    -0.2630     2.0060 C.3   1 <1>  -0.0590 
  9 N        0.2230    -2.8620     0.1710 N.4   1 <1>  -0.9590 
 10 C       -1.1260    -2.4930    -0.3360 C.3   1 <1>   0.3430 
 11 C        0.3070    -4.3480     0.0810 C.3   1 <1>   0.3430 
 12 C       -2.0150    -3.6370     0.1480 C.3   1 <1>   0.2000 
 13 C       -1.1290    -4.8620    -0.0970 C.3   1 <1>  -0.0800 
 14 O       -2.2130    -3.4670     1.5150 O.3   1 <1>  -0.6800 
 15 C       -1.4240    -6.1030     0.7670 C.3   1 <1>   0.0210 
 16 C       -0.5550    -7.2790     0.3580 C.2   1 <1>   0.1080 
 17 N        0.7380    -7.2090     0.2530 N.2   1 <1>  -0.7070 
 18 C       -1.0380    -8.5470     0.0570 C.2   1 <1>  -0.1500 
 19 N        1.1170    -8.4530    -0.1110 N.pl3 1 <1>   0.3000 
 20 C        0.0560    -9.2760    -0.2410 C.2   1 <1>  -0.3320 
 21 C        0.1560   -10.7370    -0.6420 C.3   1 <1>  -0.0600 
 22 H        2.2890    -2.5080    -0.0140 H     1 <1>   0.0800 
 23 H        1.3980    -2.3080    -1.5050 H     1 <1>   0.0800 
 24 H        0.4230     3.8140    -0.0490 H     1 <1>   0.0800 
 25 H       -0.9450     3.0020    -0.7750 H     1 <1>   0.0800 
 26 H        0.5070     3.2890    -1.7140 H     1 <1>   0.0800 
 27 H        2.7950    -1.3150     2.0070 H     1 <1>   0.0800 
 28 H        2.0720    -0.0090     2.9190 H     1 <1>   0.0800 
 29 H        3.5080     0.2810     1.9710 H     1 <1>   0.0800 
 30 H        0.1880    -2.6270     1.1740 H     1 <1>   0.4500 
 31 H       -1.4590    -1.5440     0.0530 H     1 <1>   0.0800 
 32 H       -1.1220    -2.4630    -1.4130 H     1 <1>   0.0800 
 33 H        0.9080    -4.6620    -0.7570 H     1 <1>   0.0800 
 34 H        0.7390    -4.7540     0.9830 H     1 <1>   0.0800 
 35 H       -2.9690    -3.6710    -0.3520 H     1 <1>   0.0800 
 36 H       -1.2350    -5.1500    -1.1290 H     1 <1>   0.0800 
 37 H       -2.9470    -4.0280     1.8440 H     1 <1>   0.4000 
 38 H       -2.4570    -6.3810     0.6630 H     1 <1>   0.0800 
 39 H       -1.2360    -5.8960     1.8060 H     1 <1>   0.0800 
 40 H       -2.0670    -8.8600     0.0690 H     1 <1>   0.1500 
 41 H        2.1000    -8.7160    -0.2590 H     1 <1>   0.2700 
 42 H       -0.8230   -11.1800    -0.6740 H     1 <1>   0.0800 
 43 H        0.7530   -11.2790     0.0700 H     1 <1>   0.0800 
 44 H        0.6040   -10.8280    -1.6160 H     1 <1>   0.0800 
@<TRIPOS>BOND
  1   1   2  1   
  2   1   3  1   
  3   2   4  2   
  4   2   5  1   
  5   3   6  2   
  6   3   7  1   
  7   4   6  1   
  8   4   8  1   
  9   5   9  1   
 10   5  22  1   
 11   5  23  1   
 12   7  24  1   
 13   7  25  1   
 14   7  26  1   
 15   8  27  1   
 16   8  28  1   
 17   8  29  1   
 18   9  10  1   
 19   9  11  1   
 20   9  30  1   
 21  10  12  1   
 22  10  31  1   
 23  10  32  1   
 24  11  13  1   
 25  11  33  1   
 26  11  34  1   
 27  12  13  1   
 28  12  14  1   
 29  12  35  1   
 30  13  15  1   
 31  13  36  1   
 32  14  37  1   
 33  15  16  1   
 34  15  38  1   
 35  15  39  1   
 36  16  17  2   
 37  16  18  1   
 38  17  19  1   
 39  18  20  2   
 40  18  40  1   
 41  19  20  1   
 42  19  41  1   
 43  20  21  1   
 44  21  42  1   
 45  21  43  1   
 46  21  44  1   
@<TRIPOS>SUBSTRUCTURE
  1 ****   9 GROUP 4 **** **** 0

# MOE 2024.06 (io_trps.svl 2023.06)
