@<TRIPOS>MOLECULE
NONAME
37 38 1 0 0 
SMALL
USER_CHARGES


@<TRIPOS>ATOM
  1 O       -0.3270    -0.1460     0.1780 O.2   1 <1>  -0.5700 
  2 C       -0.8920    -1.1940    -0.0700 C.2   1 <1>   0.7800 
  3 O       -0.2410    -2.3580     0.0050 O.3   1 <1>  -0.4300 
  4 N       -2.2140    -1.2380    -0.4270 N.am  1 <1>  -0.6600 
  5 C        1.1090    -2.5670     0.3560 C.3   1 <1>   0.2800 
  6 C       -2.9560    -2.5110    -0.6950 C.3   1 <1>   0.1400 
  7 C       -3.0520    -0.0110    -0.5040 C.3   1 <1>   0.1400 
  8 C        1.3620    -2.0980     1.7940 C.3   1 <1>  -0.2400 
  9 C        1.3100    -4.0810     0.2770 C.3   1 <1>  -0.2400 
 10 C        2.0340    -1.8810    -0.6560 C.3   1 <1>  -0.2400 
 11 C       -4.1540    -2.6460     0.2580 C.3   1 <1>   0.2950 
 12 C       -4.2280    -0.1180     0.4760 C.3   1 <1>  -0.0650 
 13 O       -4.8840    -3.7640    -0.1030 O.3   1 <1>  -0.6800 
 14 C       -5.0600    -1.3900     0.2270 C.3   1 <1>  -0.1900 
 15 C       -6.4630    -1.4290     0.7490 C.3   1 <1>  -0.2000 
 16 C       -6.2080    -1.2850    -0.7310 C.3   1 <1>  -0.2000 
 17 H       -3.3150    -2.4910    -1.7090 H     1 <1>   0.0800 
 18 H       -2.3150    -3.3650    -0.5750 H     1 <1>   0.0800 
 19 H       -2.4680     0.8640    -0.2720 H     1 <1>   0.0800 
 20 H       -3.4260     0.0940    -1.5080 H     1 <1>   0.0800 
 21 H        2.3500    -2.3860     2.1050 H     1 <1>   0.0800 
 22 H        0.6500    -2.5450     2.4640 H     1 <1>   0.0800 
 23 H        1.2980    -1.0290     1.8710 H     1 <1>   0.0800 
 24 H        2.3220    -4.3380     0.5310 H     1 <1>   0.0800 
 25 H        1.1110    -4.4310    -0.7200 H     1 <1>   0.0800 
 26 H        0.6500    -4.5810     0.9630 H     1 <1>   0.0800 
 27 H        3.0540    -2.1590    -0.4670 H     1 <1>   0.0800 
 28 H        1.9690    -0.8110    -0.5780 H     1 <1>   0.0800 
 29 H        1.7780    -2.1780    -1.6570 H     1 <1>   0.0800 
 30 H       -3.7910    -2.8080     1.2590 H     1 <1>   0.0800 
 31 H       -3.8400    -0.1310     1.4800 H     1 <1>   0.0800 
 32 H       -4.8440     0.7580     0.3800 H     1 <1>   0.0800 
 33 H       -5.7890    -3.6580     0.2450 H     1 <1>   0.4000 
 34 H       -6.8840    -2.3510     1.1110 H     1 <1>   0.1000 
 35 H       -6.8440    -0.5770     1.2870 H     1 <1>   0.1000 
 36 H       -6.4210    -0.3370    -1.1960 H     1 <1>   0.1000 
 37 H       -6.4370    -2.1110    -1.3830 H     1 <1>   0.1000 
@<TRIPOS>BOND
  1   1   2  2   
  2   2   3  1   
  3   2   4  am  
  4   3   5  1   
  5   4   6  1   
  6   4   7  1   
  7   5   8  1   
  8   5   9  1   
  9   5  10  1   
 10   6  11  1   
 11   6  17  1   
 12   6  18  1   
 13   7  12  1   
 14   7  19  1   
 15   7  20  1   
 16   8  21  1   
 17   8  22  1   
 18   8  23  1   
 19   9  24  1   
 20   9  25  1   
 21   9  26  1   
 22  10  27  1   
 23  10  28  1   
 24  10  29  1   
 25  11  13  1   
 26  11  14  1   
 27  11  30  1   
 28  12  14  1   
 29  12  31  1   
 30  12  32  1   
 31  13  33  1   
 32  14  15  1   
 33  14  16  1   
 34  15  16  1   
 35  15  34  1   
 36  15  35  1   
 37  16  36  1   
 38  16  37  1   
@<TRIPOS>SUBSTRUCTURE
  1 ****   4 GROUP 4 **** **** 0

# MOE 2024.06 (io_trps.svl 2023.06)
