@<TRIPOS>MOLECULE
NONAME
38 40 1 0 0 
SMALL
USER_CHARGES


@<TRIPOS>ATOM
  1 O       -0.8580     0.5110     1.6250 O.2   1 <1>  -0.5700 
  2 C       -1.6700     1.0560     0.8930 C.2   1 <1>   0.6300 
  3 N       -2.6840     0.2690     0.3770 N.am  1 <1>  -0.6600 
  4 C       -1.5680     2.4710     0.6060 C.2   1 <1>   0.4500 
  5 C       -3.7990     0.7310    -0.4890 C.3   1 <1>   0.1400 
  6 C       -2.7760    -1.1920     0.6130 C.3   1 <1>   0.1400 
  7 N       -2.4880     3.3320     1.0000 N.2   1 <1>  -0.6210 
  8 C       -0.4060     2.8690    -0.1560 C.2   1 <1>   0.6300 
  9 C       -4.8060    -0.4180    -0.4500 C.3   1 <1>   0.2000 
 10 C       -3.9310    -1.6650    -0.2780 C.3   1 <1>  -0.0800 
 11 C       -2.2660     4.6460     0.7070 C.2   1 <1>   0.0210 
 12 O        0.4140     2.1100    -0.6550 O.2   1 <1>  -0.5700 
 13 N       -0.2280     4.2030    -0.3990 N.am  1 <1>  -0.5390 
 14 O       -5.6060    -0.2530     0.6710 O.3   1 <1>  -0.6800 
 15 C       -4.6660    -2.9060     0.2640 C.3   1 <1>   0.0200 
 16 C       -1.1730     5.0970     0.0330 C.2   1 <1>  -0.0410 
 17 C       -3.7960    -4.1520     0.2850 C.2   1 <1>  -0.0400 
 18 O       -4.2620    -5.2320     0.8520 O.3   1 <1>  -0.0190 
 19 C       -2.5670    -4.4350    -0.1790 C.2   1 <1>  -0.1500 
 20 N       -3.4140    -6.2180     0.7980 N.2   1 <1>  -0.4100 
 21 C       -2.3820    -5.7660     0.1820 C.2   1 <1>   0.1080 
 22 C       -1.1400    -6.5790    -0.1050 C.3   1 <1>  -0.0590 
 23 H       -4.2360     1.6510    -0.1370 H     1 <1>   0.0800 
 24 H       -3.4330     0.8640    -1.4920 H     1 <1>   0.0800 
 25 H       -1.8470    -1.6750     0.3590 H     1 <1>   0.0800 
 26 H       -2.9910    -1.3660     1.6540 H     1 <1>   0.0800 
 27 H       -5.4410    -0.4560    -1.3190 H     1 <1>   0.0800 
 28 H       -3.5220    -1.9070    -1.2430 H     1 <1>   0.0800 
 29 H       -3.0210     5.3360     1.0510 H     1 <1>   0.1500 
 30 H        0.6130     4.4590    -0.9220 H     1 <1>   0.3700 
 31 H       -5.0390    -0.0210     1.4360 H     1 <1>   0.4000 
 32 H       -5.5290    -3.1050    -0.3460 H     1 <1>   0.0800 
 33 H       -5.0130    -2.7190     1.2660 H     1 <1>   0.0800 
 34 H       -1.0190     6.1430    -0.1790 H     1 <1>   0.1500 
 35 H       -1.8600    -3.8220    -0.7060 H     1 <1>   0.1500 
 36 H       -0.9080    -6.5350    -1.1530 H     1 <1>   0.0800 
 37 H       -1.3000    -7.6050     0.1740 H     1 <1>   0.0800 
 38 H       -0.3120    -6.1900     0.4590 H     1 <1>   0.0800 
@<TRIPOS>BOND
  1   1   2  2   
  2   2   3  am  
  3   2   4  1   
  4   3   5  1   
  5   3   6  1   
  6   4   7  2   
  7   4   8  1   
  8   5   9  1   
  9   5  23  1   
 10   5  24  1   
 11   6  10  1   
 12   6  25  1   
 13   6  26  1   
 14   7  11  1   
 15   8  12  2   
 16   8  13  am  
 17   9  10  1   
 18   9  14  1   
 19   9  27  1   
 20  10  15  1   
 21  10  28  1   
 22  11  16  2   
 23  11  29  1   
 24  13  16  1   
 25  13  30  1   
 26  14  31  1   
 27  15  17  1   
 28  15  32  1   
 29  15  33  1   
 30  16  34  1   
 31  17  18  1   
 32  17  19  2   
 33  18  20  1   
 34  19  21  1   
 35  19  35  1   
 36  20  21  2   
 37  21  22  1   
 38  22  36  1   
 39  22  37  1   
 40  22  38  1   
@<TRIPOS>SUBSTRUCTURE
  1 ****   6 GROUP 4 **** **** 0

# MOE 2024.06 (io_trps.svl 2023.06)
