@<TRIPOS>MOLECULE
NONAME
44 47 1 0 0 
SMALL
USER_CHARGES


@<TRIPOS>ATOM
  1 O       -0.9370    -0.0800    -0.6940 O.3   1 <1>  -0.2800 
  2 C       -1.1070     1.2080    -0.5230 C.2   1 <1>   0.4250 
  3 C       -2.1450    -0.4330    -1.0250 C.2   1 <1>   0.2980 
  4 N       -2.3140     1.5990    -0.7520 N.2   1 <1>  -0.3380 
  5 C        0.0080     2.0330    -0.1180 C.ar  1 <1>   0.0530 
  6 N       -2.9890     0.5220    -1.0780 N.2   1 <1>  -0.3380 
  7 C       -2.4420    -1.9010    -1.3160 C.3   1 <1>   0.2900 
  8 C        1.2570     1.4790     0.1720 C.ar  1 <1>   0.1600 
  9 C       -0.1070     3.4130     0.0030 C.ar  1 <1>  -0.1500 
 10 N       -2.1350    -2.7850    -0.1670 N.3   1 <1>  -0.8100 
 11 N        2.3360     2.1480     0.5470 N.ar  1 <1>  -0.6200 
 12 C        1.0040     4.1280     0.3930 C.ar  1 <1>  -0.1500 
 13 C       -1.9750    -4.2140    -0.5270 C.3   1 <1>   0.3330 
 14 C       -3.0640    -2.5520     0.9570 C.3   1 <1>   0.0300 
 15 C        2.1870     3.4580     0.6500 C.ar  1 <1>   0.1600 
 16 C       -3.3140    -4.9790    -0.5560 C.ar  1 <1>  -0.1430 
 17 C       -0.9080    -4.8080     0.4180 C.3   1 <1>  -0.1600 
 18 C       -3.6010    -5.9790     0.3700 C.ar  1 <1>  -0.1430 
 19 C       -4.2560    -4.6910    -1.5360 C.ar  1 <1>  -0.1500 
 20 C       -1.1690    -6.2630     0.8210 C.3   1 <1>  -0.1600 
 21 C       -4.8250    -6.6300     0.3370 C.ar  1 <1>  -0.1500 
 22 C       -2.5740    -6.3910     1.4100 C.3   1 <1>  -0.0170 
 23 C       -5.4740    -5.3460    -1.5710 C.ar  1 <1>  -0.1500 
 24 C       -5.7620    -6.3140    -0.6280 C.ar  1 <1>  -0.1500 
 25 H       -1.8470    -2.1910    -2.1630 H     1 <1>   0.0800 
 26 H       -3.4800    -1.9920    -1.5790 H     1 <1>   0.0800 
 27 H        1.3700     0.4120     0.0890 H     1 <1>   0.1500 
 28 H       -1.0400     3.9090    -0.2030 H     1 <1>   0.1500 
 29 H        0.9570     5.1970     0.4990 H     1 <1>   0.1500 
 30 H       -1.5630    -4.2790    -1.5200 H     1 <1>   0.0800 
 31 H       -2.9890    -1.5340     1.2960 H     1 <1>   0.0800 
 32 H       -2.8250    -3.2000     1.7820 H     1 <1>   0.0800 
 33 H       -4.0810    -2.7430     0.6560 H     1 <1>   0.0800 
 34 H        3.0500     4.0250     0.9540 H     1 <1>   0.1500 
 35 H       -0.8520    -4.2250     1.3200 H     1 <1>   0.0800 
 36 H        0.0520    -4.7390    -0.0610 H     1 <1>   0.0800 
 37 H       -4.0500    -3.9560    -2.2890 H     1 <1>   0.1500 
 38 H       -0.4390    -6.5780     1.5450 H     1 <1>   0.0800 
 39 H       -1.0850    -6.9010    -0.0430 H     1 <1>   0.0800 
 40 H       -5.0510    -7.3940     1.0600 H     1 <1>   0.1500 
 41 H       -2.7400    -7.4110     1.7090 H     1 <1>   0.0800 
 42 H       -2.6720    -5.7640     2.2790 H     1 <1>   0.0800 
 43 H       -6.1950    -5.1050    -2.3320 H     1 <1>   0.1500 
 44 H       -6.7100    -6.8230    -0.6480 H     1 <1>   0.1500 
@<TRIPOS>BOND
  1   1   2  1   
  2   1   3  1   
  3   2   4  2   
  4   2   5  1   
  5   3   6  2   
  6   3   7  1   
  7   4   6  1   
  8   5   8  ar  
  9   5   9  ar  
 10   7  10  1   
 11   7  25  1   
 12   7  26  1   
 13   8  11  ar  
 14   8  27  1   
 15   9  12  ar  
 16   9  28  1   
 17  10  13  1   
 18  10  14  1   
 19  11  15  ar  
 20  12  15  ar  
 21  12  29  1   
 22  13  16  1   
 23  13  17  1   
 24  13  30  1   
 25  14  31  1   
 26  14  32  1   
 27  14  33  1   
 28  15  34  1   
 29  16  18  ar  
 30  16  19  ar  
 31  17  20  1   
 32  17  35  1   
 33  17  36  1   
 34  18  21  ar  
 35  18  22  1   
 36  19  23  ar  
 37  19  37  1   
 38  20  22  1   
 39  20  38  1   
 40  20  39  1   
 41  21  24  ar  
 42  21  40  1   
 43  22  41  1   
 44  22  42  1   
 45  23  24  ar  
 46  23  43  1   
 47  24  44  1   
@<TRIPOS>SUBSTRUCTURE
  1 ****  10 GROUP 4 **** **** 0

# MOE 2024.06 (io_trps.svl 2023.06)
