@<TRIPOS>MOLECULE
NONAME
59 63 1 0 0 
SMALL
USER_CHARGES


@<TRIPOS>ATOM
  1 O        2.2780    -5.4830    -0.5670 O.2   1 <1>  -0.5700 
  2 C        1.4640    -4.6660    -0.1770 C.2   1 <1>   0.5440 
  3 N        1.3280    -4.4650     1.1810 N.am  1 <1>  -0.6600 
  4 C        0.6560    -3.9470    -1.1490 C.ar  1 <1>   0.3960 
  5 C        0.5420    -3.3670     1.7900 C.3   1 <1>   0.1400 
  6 C        2.2080    -5.1080     2.1830 C.3   1 <1>   0.1400 
  7 N       -0.6810    -4.0800    -1.1260 N.ar  1 <1>  -0.6200 
  8 C        1.3020    -3.1460    -2.0900 C.ar  1 <1>   0.1600 
  9 C        0.8680    -3.4190     3.2790 C.3   1 <1>  -0.1600 
 10 C        2.2050    -4.1500     3.3680 C.3   1 <1>  -0.1600 
 11 C       -1.3000    -3.3730    -2.0530 C.ar  1 <1>   0.4100 
 12 N        0.6950    -2.4200    -3.0190 N.ar  1 <1>  -0.6200 
 13 N       -2.6780    -3.5370    -2.0840 N.pl3 1 <1>  -0.8380 
 14 C       -0.6140    -2.5540    -2.9650 C.ar  1 <1>   0.1600 
 15 C       -3.4760    -3.6600    -0.8130 C.3   1 <1>   0.2090 
 16 C       -3.3490    -3.9870    -3.3290 C.3   1 <1>   0.2090 
 17 C       -3.4700    -5.0850    -0.2080 C.3   1 <1>   0.3430 
 18 C       -3.1540    -5.4950    -3.5140 C.3   1 <1>  -0.1600 
 19 N       -2.8530    -6.1070    -1.1280 N.4   1 <1>  -0.9590 
 20 C       -3.6660    -6.3460    -2.3500 C.3   1 <1>   0.3430 
 21 C       -2.4190    -7.3850    -0.4600 C.3   1 <1>   0.4230 
 22 C       -3.5880    -8.0490     0.3030 C.3   1 <1>  -0.0170 
 23 C       -1.3450    -7.1210     0.6140 C.3   1 <1>  -0.0170 
 24 C       -3.4050    -7.5500     1.7160 C.ar  1 <1>  -0.1430 
 25 C       -2.1430    -7.0370     1.8910 C.ar  1 <1>  -0.1430 
 26 C       -4.3140    -7.5580     2.7580 C.ar  1 <1>  -0.1500 
 27 C       -1.7480    -6.5210     3.1090 C.ar  1 <1>  -0.1500 
 28 C       -3.9290    -7.0370     3.9830 C.ar  1 <1>  -0.1500 
 29 C       -2.6520    -6.5220     4.1590 C.ar  1 <1>  -0.1500 
 30 H       -0.5120    -3.5060     1.6170 H     1 <1>   0.0800 
 31 H        0.8590    -2.4260     1.3720 H     1 <1>   0.0800 
 32 H        3.2030    -5.2540     1.7960 H     1 <1>   0.0800 
 33 H        1.7870    -6.0590     2.4620 H     1 <1>   0.0800 
 34 H        2.3790    -3.1070    -2.0640 H     1 <1>   0.1500 
 35 H        0.1060    -3.9820     3.7890 H     1 <1>   0.0800 
 36 H        0.9140    -2.4340     3.7100 H     1 <1>   0.0800 
 37 H        3.0130    -3.4490     3.2490 H     1 <1>   0.0800 
 38 H        2.3290    -4.6690     4.3020 H     1 <1>   0.0800 
 39 H       -1.1970    -1.9940    -3.6730 H     1 <1>   0.1500 
 40 H       -4.4920    -3.3580    -0.9980 H     1 <1>   0.0800 
 41 H       -3.0780    -2.9780    -0.0810 H     1 <1>   0.0800 
 42 H       -2.9340    -3.4670    -4.1770 H     1 <1>   0.0800 
 43 H       -4.3980    -3.7470    -3.2840 H     1 <1>   0.0800 
 44 H       -4.4710    -5.3750     0.0630 H     1 <1>   0.0800 
 45 H       -2.8970    -5.0390     0.7020 H     1 <1>   0.0800 
 46 H       -2.1160    -5.7080    -3.6950 H     1 <1>   0.0800 
 47 H       -3.6900    -5.7860    -4.3990 H     1 <1>   0.0800 
 48 H       -1.9990    -5.6000    -1.4430 H     1 <1>   0.4500 
 49 H       -3.5930    -7.3840    -2.6320 H     1 <1>   0.0800 
 50 H       -4.7030    -6.1260    -2.1560 H     1 <1>   0.0800 
 51 H       -2.0260    -8.0580    -1.2050 H     1 <1>   0.0800 
 52 H       -3.4620    -9.1170     0.3010 H     1 <1>   0.0800 
 53 H       -4.5540    -7.8030    -0.0970 H     1 <1>   0.0800 
 54 H       -0.7760    -6.2320     0.4320 H     1 <1>   0.0800 
 55 H       -0.6760    -7.9610     0.6790 H     1 <1>   0.0800 
 56 H       -5.3020    -7.9640     2.6280 H     1 <1>   0.1500 
 57 H       -0.7540    -6.1300     3.2420 H     1 <1>   0.1500 
 58 H       -4.6230    -7.0380     4.8070 H     1 <1>   0.1500 
 59 H       -2.3630    -6.1270     5.1180 H     1 <1>   0.1500 
@<TRIPOS>BOND
  1   1   2  2   
  2   2   3  am  
  3   2   4  1   
  4   3   5  1   
  5   3   6  1   
  6   4   7  ar  
  7   4   8  ar  
  8   5   9  1   
  9   5  30  1   
 10   5  31  1   
 11   6  10  1   
 12   6  32  1   
 13   6  33  1   
 14   7  11  ar  
 15   8  12  ar  
 16   8  34  1   
 17   9  10  1   
 18   9  35  1   
 19   9  36  1   
 20  10  37  1   
 21  10  38  1   
 22  11  13  1   
 23  11  14  ar  
 24  12  14  ar  
 25  13  15  1   
 26  13  16  1   
 27  14  39  1   
 28  15  17  1   
 29  15  40  1   
 30  15  41  1   
 31  16  18  1   
 32  16  42  1   
 33  16  43  1   
 34  17  19  1   
 35  17  44  1   
 36  17  45  1   
 37  18  20  1   
 38  18  46  1   
 39  18  47  1   
 40  19  20  1   
 41  19  21  1   
 42  19  48  1   
 43  20  49  1   
 44  20  50  1   
 45  21  22  1   
 46  21  23  1   
 47  21  51  1   
 48  22  24  1   
 49  22  52  1   
 50  22  53  1   
 51  23  25  1   
 52  23  54  1   
 53  23  55  1   
 54  24  25  ar  
 55  24  26  ar  
 56  25  27  ar  
 57  26  28  ar  
 58  26  56  1   
 59  27  29  ar  
 60  27  57  1   
 61  28  29  ar  
 62  28  58  1   
 63  29  59  1   
@<TRIPOS>SUBSTRUCTURE
  1 ****   7 GROUP 4 **** **** 0

# MOE 2024.06 (io_trps.svl 2023.06)
