@<TRIPOS>MOLECULE
NONAME
54 58 1 0 0 
SMALL
USER_CHARGES


@<TRIPOS>ATOM
  1 O        0.9180    -0.6350     1.3590 O.3   1 <1>  -0.5600 
  2 C        1.8300    -0.9980     0.3450 C.3   1 <1>   0.4600 
  3 C       -0.4560    -0.8300     1.1210 C.3   1 <1>   0.1200 
  4 C        1.3740    -2.3000    -0.3030 C.2   1 <1>  -0.3320 
  5 C        3.1820    -1.1900     1.0340 C.3   1 <1>  -0.1600 
  6 C        1.9100     0.1380    -0.6810 C.3   1 <1>  -0.1600 
  7 C       -0.7840    -2.3210     0.9420 C.3   1 <1>   0.0210 
  8 N        2.0640    -3.0390    -1.2240 N.pl3 1 <1>   0.0330 
  9 C        0.2000    -2.9070    -0.0380 C.2   1 <1>  -0.1810 
 10 C        3.6870     0.1210     1.6340 C.3   1 <1>   0.2090 
 11 C        2.4330     1.4210    -0.0380 C.3   1 <1>   0.2090 
 12 C        1.3060    -4.1390    -1.5410 C.ar  1 <1>  -0.1520 
 13 C        0.1240    -4.0870    -0.8070 C.ar  1 <1>   0.0000 
 14 N        3.7850     1.1550     0.5470 N.pl3 1 <1>  -0.8380 
 15 C        1.5560    -5.1950    -2.4210 C.ar  1 <1>  -0.1500 
 16 C       -0.8260    -5.1030    -0.9500 C.ar  1 <1>  -0.1500 
 17 C        4.9490     1.7640     0.2030 C.ar  1 <1>   0.4100 
 18 C        0.6130    -6.1890    -2.5530 C.ar  1 <1>  -0.1500 
 19 C       -0.5780    -6.1430    -1.8170 C.ar  1 <1>  -0.1500 
 20 N        6.0640     1.3620     0.8320 N.ar  1 <1>  -0.6200 
 21 C        5.0410     2.7800    -0.7630 C.ar  1 <1>  -0.1500 
 22 C        7.1950     1.9270     0.5460 C.ar  1 <1>   0.5280 
 23 C        6.2450     3.3530    -1.0440 C.ar  1 <1>   0.2180 
 24 N        7.3220     2.9070    -0.3680 N.ar  1 <1>  -0.1790 
 25 C        8.4360     1.4600     1.2790 C.3   1 <1>  -0.0970 
 26 C        6.4180     4.4630    -2.0750 C.3   1 <1>  -0.0170 
 27 C        6.8710     5.7810    -1.4340 C.3   1 <1>  -0.2400 
 28 H       -0.7330    -0.2800     0.2400 H     1 <1>   0.0800 
 29 H       -0.9950    -0.4310     1.9620 H     1 <1>   0.0800 
 30 H        3.9090    -1.5460     0.3300 H     1 <1>   0.0800 
 31 H        3.0790    -1.9310     1.8060 H     1 <1>   0.0800 
 32 H        0.9450     0.3070    -1.1170 H     1 <1>   0.0800 
 33 H        2.5750    -0.1450    -1.4760 H     1 <1>   0.0800 
 34 H       -1.7870    -2.4310     0.5720 H     1 <1>   0.0800 
 35 H       -0.7050    -2.8310     1.8850 H     1 <1>   0.0800 
 36 H        2.9910    -2.8340    -1.6080 H     1 <1>   0.2700 
 37 H        4.6310    -0.0550     2.1170 H     1 <1>   0.0800 
 38 H        3.0000     0.4650     2.3890 H     1 <1>   0.0800 
 39 H        1.7640     1.7330     0.7470 H     1 <1>   0.0800 
 40 H        2.4500     2.2000    -0.7730 H     1 <1>   0.0800 
 41 H        2.4730    -5.2230    -2.9810 H     1 <1>   0.1500 
 42 H       -1.7330    -5.0550    -0.3780 H     1 <1>   0.1500 
 43 H        0.7810    -7.0130    -3.2230 H     1 <1>   0.1500 
 44 H       -1.2990    -6.9320    -1.9380 H     1 <1>   0.1500 
 45 H        4.1650     3.1120    -1.2780 H     1 <1>   0.1500 
 46 H        8.2410     3.3130    -0.5400 H     1 <1>   0.4570 
 47 H        8.1800     0.6780     1.9740 H     1 <1>   0.0800 
 48 H        8.8710     2.2710     1.8340 H     1 <1>   0.0800 
 49 H        9.1570     1.0680     0.5850 H     1 <1>   0.0800 
 50 H        5.4810     4.6310    -2.5800 H     1 <1>   0.0800 
 51 H        7.1300     4.1580    -2.8230 H     1 <1>   0.0800 
 52 H        6.1650     6.0980    -0.6850 H     1 <1>   0.0800 
 53 H        6.9260     6.5500    -2.1860 H     1 <1>   0.0800 
 54 H        7.8420     5.6890    -0.9810 H     1 <1>   0.0800 
@<TRIPOS>BOND
  1   1   2  1   
  2   1   3  1   
  3   2   4  1   
  4   2   5  1   
  5   2   6  1   
  6   3   7  1   
  7   3  28  1   
  8   3  29  1   
  9   4   8  1   
 10   4   9  2   
 11   5  10  1   
 12   5  30  1   
 13   5  31  1   
 14   6  11  1   
 15   6  32  1   
 16   6  33  1   
 17   7   9  1   
 18   7  34  1   
 19   7  35  1   
 20   8  12  1   
 21   8  36  1   
 22   9  13  1   
 23  10  14  1   
 24  10  37  1   
 25  10  38  1   
 26  11  14  1   
 27  11  39  1   
 28  11  40  1   
 29  12  13  ar  
 30  12  15  ar  
 31  13  16  ar  
 32  14  17  1   
 33  15  18  ar  
 34  15  41  1   
 35  16  19  ar  
 36  16  42  1   
 37  17  20  ar  
 38  17  21  ar  
 39  18  19  ar  
 40  18  43  1   
 41  19  44  1   
 42  20  22  ar  
 43  21  23  ar  
 44  21  45  1   
 45  22  24  ar  
 46  22  25  1   
 47  23  24  ar  
 48  23  26  1   
 49  24  46  1   
 50  25  47  1   
 51  25  48  1   
 52  25  49  1   
 53  26  27  1   
 54  26  50  1   
 55  26  51  1   
 56  27  52  1   
 57  27  53  1   
 58  27  54  1   
@<TRIPOS>SUBSTRUCTURE
  1 ****   6 GROUP 4 **** **** 0

# MOE 2024.06 (io_trps.svl 2023.06)
