@<TRIPOS>MOLECULE
NONAME
40 41 1 0 0 
SMALL
USER_CHARGES


@<TRIPOS>ATOM
  1 S       -0.2650     0.0710     0.2710 S.o2  1 <1>   1.3330 
  2 O       -0.1270    -0.6700     1.5050 O.2   1 <1>  -0.6500 
  3 O       -0.9430     1.3470     0.2800 O.2   1 <1>  -0.6500 
  4 N       -1.0520    -0.9370    -0.8460 N.am  1 <1>  -0.8490 
  5 C        1.3420     0.3090    -0.4890 C.3   1 <1>  -0.0550 
  6 C       -2.5050    -0.7430    -0.8420 C.3   1 <1>   0.1160 
  7 C       -0.7380    -2.3590    -0.6670 C.3   1 <1>   0.1160 
  8 C        2.2580     1.2780     0.2850 C.3   1 <1>  -0.0800 
  9 C        3.5020     1.6090    -0.5210 C.3   1 <1>   0.2200 
 10 C        2.8670     0.6230     1.5260 C.3   1 <1>   0.1200 
 11 N        4.0560     2.8990    -0.0540 N.am  1 <1>  -0.7300 
 12 C        4.4470     0.4690    -0.1490 C.3   1 <1>   0.1200 
 13 O        4.0310    -0.0150     1.0960 O.3   1 <1>  -0.5600 
 14 C        4.1960     4.0410    -0.8000 C.2   1 <1>   0.5440 
 15 O        3.8260     3.9910    -1.9580 O.2   1 <1>  -0.5700 
 16 C        4.7890     5.2380    -0.1990 C.ar  1 <1>   0.3960 
 17 N        5.4230     5.0930     0.9920 N.ar  1 <1>  -0.6200 
 18 C        4.7150     6.5050    -0.8080 C.ar  1 <1>   0.1900 
 19 C        5.9670     6.1770     1.5280 C.ar  1 <1>   0.1600 
 20 F        4.0870     6.6770    -1.9390 F     1 <1>  -0.1900 
 21 C        5.2800     7.6330    -0.2550 C.ar  1 <1>  -0.1500 
 22 C        5.9170     7.4320     0.9440 C.ar  1 <1>   0.1900 
 23 F        6.4820     8.4430     1.5420 F     1 <1>  -0.1900 
 24 H        1.8310    -0.6390    -0.5970 H     1 <1>   0.0800 
 25 H        1.1810     0.7070    -1.4720 H     1 <1>   0.0800 
 26 H       -2.9700    -1.3860    -1.5700 H     1 <1>   0.0800 
 27 H       -2.7420     0.2770    -1.0960 H     1 <1>   0.0800 
 28 H       -2.9090    -0.9590     0.1340 H     1 <1>   0.0800 
 29 H       -1.1870    -2.9390    -1.4560 H     1 <1>   0.0800 
 30 H       -1.1110    -2.7110     0.2820 H     1 <1>   0.0800 
 31 H        0.3270    -2.5130    -0.6970 H     1 <1>   0.0800 
 32 H        1.7040     2.1670     0.5340 H     1 <1>   0.0800 
 33 H        3.3190     1.6430    -1.5830 H     1 <1>   0.0800 
 34 H        2.2260    -0.0990     2.0000 H     1 <1>   0.0800 
 35 H        3.1530     1.3700     2.2470 H     1 <1>   0.0800 
 36 H        4.4480     2.9040     0.8940 H     1 <1>   0.3700 
 37 H        5.4730     0.7890    -0.0860 H     1 <1>   0.0800 
 38 H        4.3620    -0.3400    -0.8530 H     1 <1>   0.0800 
 39 H        6.4770     6.0720     2.4710 H     1 <1>   0.1500 
 40 H        5.2240     8.5980    -0.7250 H     1 <1>   0.1500 
@<TRIPOS>BOND
  1   1   2  2   
  2   1   3  2   
  3   1   4  am  
  4   1   5  1   
  5   4   6  1   
  6   4   7  1   
  7   5   8  1   
  8   5  24  1   
  9   5  25  1   
 10   6  26  1   
 11   6  27  1   
 12   6  28  1   
 13   7  29  1   
 14   7  30  1   
 15   7  31  1   
 16   8   9  1   
 17   8  10  1   
 18   8  32  1   
 19   9  11  1   
 20   9  12  1   
 21   9  33  1   
 22  10  13  1   
 23  10  34  1   
 24  10  35  1   
 25  11  14  am  
 26  11  36  1   
 27  12  13  1   
 28  12  37  1   
 29  12  38  1   
 30  14  15  2   
 31  14  16  1   
 32  16  17  ar  
 33  16  18  ar  
 34  17  19  ar  
 35  18  20  1   
 36  18  21  ar  
 37  19  22  ar  
 38  19  39  1   
 39  21  22  ar  
 40  21  40  1   
 41  22  23  1   
@<TRIPOS>SUBSTRUCTURE
  1 ****  11 GROUP 4 **** **** 0

# MOE 2024.06 (io_trps.svl 2023.06)
