@<TRIPOS>MOLECULE
NONAME
43 46 1 0 0 
SMALL
USER_CHARGES


@<TRIPOS>ATOM
  1 S       -1.5650     1.6320     0.9650 S.3   1 <1>  -0.0800 
  2 C       -0.4630     2.8930     0.4570 C.2   1 <1>  -0.1400 
  3 C       -0.2250     0.6880     1.5960 C.2   1 <1>  -0.1100 
  4 C        0.8100     2.5900     0.7400 C.2   1 <1>  -0.1810 
  5 C       -0.9390     4.1560    -0.2070 C.3   1 <1>   0.0200 
  6 C        0.9480     1.3240     1.4040 C.2   1 <1>  -0.1500 
  7 C        1.9410     3.5440     0.3650 C.3   1 <1>   0.4610 
  8 C        0.1960     5.1840    -0.0800 C.3   1 <1>   0.1200 
  9 O        1.4450     4.6170    -0.4250 O.3   1 <1>  -0.5600 
 10 C        2.6330     4.1320     1.6000 C.3   1 <1>  -0.1600 
 11 C        2.9890     2.8380    -0.5090 C.3   1 <1>  -0.1600 
 12 C        3.7510     5.1190     1.2400 C.3   1 <1>   0.3430 
 13 C        4.3040     3.6130    -0.6500 C.3   1 <1>   0.3430 
 14 N        4.1110     5.0200    -0.2120 N.4   1 <1>  -0.9590 
 15 C        5.2000     5.9440    -0.6330 C.3   1 <1>   0.4860 
 16 C        4.7860     7.3620    -0.3150 C.ar  1 <1>  -0.1440 
 17 C        5.3960     8.0820     0.6890 C.ar  1 <1>   0.1600 
 18 C        3.7680     7.9890    -1.0000 C.ar  1 <1>   0.1600 
 19 N        5.0150     9.2920     1.0070 N.ar  1 <1>  -0.6200 
 20 N        3.3690     9.1980    -0.7000 N.ar  1 <1>  -0.6200 
 21 C        4.0120     9.7790     0.2980 C.ar  1 <1>   0.7200 
 22 N        3.6090    11.0070     0.6190 N.pl3 1 <1>  -0.9000 
 23 H       -0.4630    -0.2570     2.0510 H     1 <1>   0.1500 
 24 H       -1.8230     4.5270     0.2800 H     1 <1>   0.0800 
 25 H       -1.1660     3.9680    -1.2410 H     1 <1>   0.0800 
 26 H        1.9050     0.9400     1.7100 H     1 <1>   0.1500 
 27 H        0.2530     5.5500     0.9300 H     1 <1>   0.0800 
 28 H        0.0140     6.0170    -0.7380 H     1 <1>   0.0800 
 29 H        3.0570     3.3280     2.1740 H     1 <1>   0.0800 
 30 H        1.9130     4.6100     2.2390 H     1 <1>   0.0800 
 31 H        2.5630     2.6530    -1.4800 H     1 <1>   0.0800 
 32 H        3.2220     1.8760    -0.0920 H     1 <1>   0.0800 
 33 H        4.6140     4.9260     1.8560 H     1 <1>   0.0800 
 34 H        3.4070     6.1200     1.4510 H     1 <1>   0.0800 
 35 H        4.6250     3.5800    -1.6790 H     1 <1>   0.0800 
 36 H        5.0650     3.1480    -0.0430 H     1 <1>   0.0800 
 37 H        3.2380     5.3140    -0.6930 H     1 <1>   0.4500 
 38 H        5.3730     5.8520    -1.6940 H     1 <1>   0.0800 
 39 H        6.1140     5.7010    -0.1160 H     1 <1>   0.0800 
 40 H        6.2130     7.6620     1.2540 H     1 <1>   0.1500 
 41 H        3.2590     7.4940    -1.8110 H     1 <1>   0.1500 
 42 H        3.0720    11.5000    -0.0900 H     1 <1>   0.4000 
 43 H        4.2660    11.5640     1.1600 H     1 <1>   0.4000 
@<TRIPOS>BOND
  1   1   2  1   
  2   1   3  1   
  3   2   4  2   
  4   2   5  1   
  5   3   6  2   
  6   3  23  1   
  7   4   6  1   
  8   4   7  1   
  9   5   8  1   
 10   5  24  1   
 11   5  25  1   
 12   6  26  1   
 13   7   9  1   
 14   7  10  1   
 15   7  11  1   
 16   8   9  1   
 17   8  27  1   
 18   8  28  1   
 19  10  12  1   
 20  10  29  1   
 21  10  30  1   
 22  11  13  1   
 23  11  31  1   
 24  11  32  1   
 25  12  14  1   
 26  12  33  1   
 27  12  34  1   
 28  13  14  1   
 29  13  35  1   
 30  13  36  1   
 31  14  15  1   
 32  14  37  1   
 33  15  16  1   
 34  15  38  1   
 35  15  39  1   
 36  16  17  ar  
 37  16  18  ar  
 38  17  19  ar  
 39  17  40  1   
 40  18  20  ar  
 41  18  41  1   
 42  19  21  ar  
 43  20  21  ar  
 44  21  22  1   
 45  22  42  1   
 46  22  43  1   
@<TRIPOS>SUBSTRUCTURE
  1 ****   9 GROUP 4 **** **** 0

# MOE 2024.06 (io_trps.svl 2023.06)
