@<TRIPOS>MOLECULE
NONAME
37 38 1 0 0 
SMALL
USER_CHARGES


@<TRIPOS>ATOM
  1 S       -0.2080    -0.4270    -0.2070 S.o2  1 <1>   1.3330 
  2 O       -0.8280    -1.7140     0.0210 O.2   1 <1>  -0.6500 
  3 O        0.0140     0.0310    -1.5610 O.2   1 <1>  -0.6500 
  4 N       -1.0700     0.7620     0.6480 N.am  1 <1>  -0.8490 
  5 C        1.3750    -0.4790     0.6510 C.3   1 <1>  -0.0550 
  6 C       -2.4050     0.3870     1.1550 C.3   1 <1>   0.1960 
  7 C       -1.0180     2.1220     0.1050 C.3   1 <1>   0.1960 
  8 C        2.1980     0.8240     0.6360 C.3   1 <1>  -0.2400 
  9 C       -3.5570     0.5690     0.1280 C.3   1 <1>   0.0000 
 10 C       -2.0870     2.3540    -0.9680 C.3   1 <1>  -0.1600 
 11 C       -4.9400     0.3590     0.7790 C.3   1 <1>   0.2000 
 12 C       -3.4910     2.0010    -0.4590 C.3   1 <1>  -0.1600 
 13 C       -3.5680    -0.4860    -0.9980 C.3   1 <1>  -0.1600 
 14 O       -4.9160    -0.7460     1.6120 O.3   1 <1>  -0.6800 
 15 C       -5.8880     0.0330    -0.3750 C.3   1 <1>  -0.1600 
 16 C       -5.0240    -0.6070    -1.4700 C.3   1 <1>  -0.1600 
 17 H        1.2010    -0.7600     1.6720 H     1 <1>   0.0800 
 18 H        1.9690    -1.2540     0.2060 H     1 <1>   0.0800 
 19 H       -2.3850    -0.6250     1.5220 H     1 <1>   0.0800 
 20 H       -2.6200     1.0130     2.0040 H     1 <1>   0.0800 
 21 H       -1.1800     2.8170     0.9120 H     1 <1>   0.0800 
 22 H       -0.0440     2.3220    -0.3070 H     1 <1>   0.0800 
 23 H        1.6810     1.5980     1.1740 H     1 <1>   0.0800 
 24 H        2.3600     1.1480    -0.3780 H     1 <1>   0.0800 
 25 H        3.1520     0.6610     1.1040 H     1 <1>   0.0800 
 26 H       -2.0660     3.3880    -1.2610 H     1 <1>   0.0800 
 27 H       -1.8500     1.7770    -1.8430 H     1 <1>   0.0800 
 28 H       -5.2680     1.2050     1.3600 H     1 <1>   0.0800 
 29 H       -4.1960     2.1190    -1.2630 H     1 <1>   0.0800 
 30 H       -3.7550     2.7060     0.3100 H     1 <1>   0.0800 
 31 H       -2.9040    -0.2460    -1.8100 H     1 <1>   0.0800 
 32 H       -3.2690    -1.4390    -0.5990 H     1 <1>   0.0800 
 33 H       -4.6950    -1.5350     1.0800 H     1 <1>   0.4000 
 34 H       -6.7000    -0.6030    -0.0650 H     1 <1>   0.0800 
 35 H       -6.3040     0.9500    -0.7510 H     1 <1>   0.0800 
 36 H       -5.2850    -1.6410    -1.6160 H     1 <1>   0.0800 
 37 H       -5.1600    -0.0810    -2.3990 H     1 <1>   0.0800 
@<TRIPOS>BOND
  1   1   2  2   
  2   1   3  2   
  3   1   4  am  
  4   1   5  1   
  5   4   6  1   
  6   4   7  1   
  7   5   8  1   
  8   5  17  1   
  9   5  18  1   
 10   6   9  1   
 11   6  19  1   
 12   6  20  1   
 13   7  10  1   
 14   7  21  1   
 15   7  22  1   
 16   8  23  1   
 17   8  24  1   
 18   8  25  1   
 19   9  11  1   
 20   9  12  1   
 21   9  13  1   
 22  10  12  1   
 23  10  26  1   
 24  10  27  1   
 25  11  14  1   
 26  11  15  1   
 27  11  28  1   
 28  12  29  1   
 29  12  30  1   
 30  13  16  1   
 31  13  31  1   
 32  13  32  1   
 33  14  33  1   
 34  15  16  1   
 35  15  34  1   
 36  15  35  1   
 37  16  36  1   
 38  16  37  1   
@<TRIPOS>SUBSTRUCTURE
  1 ****   6 GROUP 4 **** **** 0

# MOE 2024.06 (io_trps.svl 2023.06)
