@<TRIPOS>MOLECULE
NONAME
50 53 1 0 0 
SMALL
USER_CHARGES


@<TRIPOS>ATOM
  1 F       -1.6550     2.3260     1.4290 F     1 <1>  -0.1900 
  2 C       -1.3570     3.1690     0.4780 C.ar  1 <1>   0.1900 
  3 C       -0.3790     4.1140     0.7090 C.ar  1 <1>  -0.1500 
  4 C       -2.0350     3.0790    -0.7220 C.ar  1 <1>  -0.1500 
  5 C       -0.0410     5.0270    -0.2920 C.ar  1 <1>   0.0530 
  6 C       -1.7120     3.9770    -1.7240 C.ar  1 <1>  -0.1500 
  7 C        0.9830     6.0280    -0.0720 C.2   1 <1>   0.4250 
  8 C       -0.7310     4.9320    -1.5070 C.ar  1 <1>  -0.1500 
  9 O        1.3120     6.8550    -1.0380 O.3   1 <1>  -0.2800 
 10 N        1.6510     6.2250     1.0130 N.2   1 <1>  -0.3380 
 11 C        2.2290     7.5630    -0.4440 C.2   1 <1>   0.2980 
 12 N        2.4610     7.2240     0.7650 N.2   1 <1>  -0.3380 
 13 C        2.8960     8.6840    -1.2540 C.3   1 <1>   0.2900 
 14 N        3.7570     9.6460    -0.4970 N.3   1 <1>  -0.8100 
 15 C        2.9470    10.4040     0.5040 C.3   1 <1>   0.1100 
 16 C        4.9250     8.9710     0.1130 C.3   1 <1>   0.1100 
 17 C        3.7390    11.5420     1.1760 C.3   1 <1>   0.3430 
 18 C        6.1800     9.8480    -0.0080 C.3   1 <1>  -0.1600 
 19 N        4.8830    11.9010     0.2890 N.4   1 <1>  -0.9590 
 20 C        6.1190    11.2030     0.7030 C.3   1 <1>   0.3430 
 21 C        5.0290    13.3520     0.0070 C.3   1 <1>   0.4860 
 22 C        3.7190    13.8810    -0.5420 C.ar  1 <1>  -0.1430 
 23 C        3.2240    13.4070    -1.7490 C.ar  1 <1>   0.1600 
 24 C        2.9890    14.8270     0.1520 C.ar  1 <1>  -0.1500 
 25 N        2.0770    13.7720    -2.2880 N.ar  1 <1>  -0.6200 
 26 C        1.7950    15.2300    -0.4090 C.ar  1 <1>  -0.1500 
 27 C        1.3890    14.6780    -1.6120 C.ar  1 <1>   0.1600 
 28 H        0.1160     4.1370     1.6630 H     1 <1>   0.1500 
 29 H       -2.7910     2.3270    -0.8620 H     1 <1>   0.1500 
 30 H       -2.2230     3.9310    -2.6700 H     1 <1>   0.1500 
 31 H       -0.4990     5.6190    -2.3020 H     1 <1>   0.1500 
 32 H        2.1170     9.2400    -1.7470 H     1 <1>   0.0800 
 33 H        3.4870     8.2260    -2.0280 H     1 <1>   0.0800 
 34 H        2.5610     9.7500     1.2670 H     1 <1>   0.0800 
 35 H        2.1010    10.8450     0.0030 H     1 <1>   0.0800 
 36 H        5.1210     8.0430    -0.4020 H     1 <1>   0.0800 
 37 H        4.7270     8.7250     1.1450 H     1 <1>   0.0800 
 38 H        4.0980    11.2130     2.1370 H     1 <1>   0.0800 
 39 H        3.0830    12.3820     1.3330 H     1 <1>   0.0800 
 40 H        6.3950    10.0030    -1.0510 H     1 <1>   0.0800 
 41 H        7.0110     9.3000     0.3970 H     1 <1>   0.0800 
 42 H        4.6080    11.4100    -0.5840 H     1 <1>   0.4500 
 43 H        6.9860    11.7820     0.4300 H     1 <1>   0.0800 
 44 H        6.1270    11.0630     1.7720 H     1 <1>   0.0800 
 45 H        5.8110    13.5110    -0.7180 H     1 <1>   0.0800 
 46 H        5.2870    13.8800     0.9100 H     1 <1>   0.0800 
 47 H        3.7920    12.6810    -2.3060 H     1 <1>   0.1500 
 48 H        3.3190    15.2450     1.0890 H     1 <1>   0.1500 
 49 H        1.1790    15.9660     0.0760 H     1 <1>   0.1500 
 50 H        0.4540    15.0000    -2.0410 H     1 <1>   0.1500 
@<TRIPOS>BOND
  1   1   2  1   
  2   2   3  ar  
  3   2   4  ar  
  4   3   5  ar  
  5   3  28  1   
  6   4   6  ar  
  7   4  29  1   
  8   5   7  1   
  9   5   8  ar  
 10   6   8  ar  
 11   6  30  1   
 12   7   9  1   
 13   7  10  2   
 14   8  31  1   
 15   9  11  1   
 16  10  12  1   
 17  11  12  2   
 18  11  13  1   
 19  13  14  1   
 20  13  32  1   
 21  13  33  1   
 22  14  15  1   
 23  14  16  1   
 24  15  17  1   
 25  15  34  1   
 26  15  35  1   
 27  16  18  1   
 28  16  36  1   
 29  16  37  1   
 30  17  19  1   
 31  17  38  1   
 32  17  39  1   
 33  18  20  1   
 34  18  40  1   
 35  18  41  1   
 36  19  20  1   
 37  19  21  1   
 38  19  42  1   
 39  20  43  1   
 40  20  44  1   
 41  21  22  1   
 42  21  45  1   
 43  21  46  1   
 44  22  23  ar  
 45  22  24  ar  
 46  23  25  ar  
 47  23  47  1   
 48  24  26  ar  
 49  24  48  1   
 50  25  27  ar  
 51  26  27  ar  
 52  26  49  1   
 53  27  50  1   
@<TRIPOS>SUBSTRUCTURE
  1 ****  13 GROUP 4 **** **** 0

# MOE 2024.06 (io_trps.svl 2023.06)
