@<TRIPOS>MOLECULE
NONAME
52 54 1 0 0 
SMALL
USER_CHARGES


@<TRIPOS>ATOM
  1 CL       0.1190     0.2480     0.8130 Cl    1 <1>  -0.1770 
  2 C        0.3940     1.8570     0.2050 C.ar  1 <1>   0.1770 
  3 C       -0.4100     2.8910     0.6380 C.ar  1 <1>  -0.1500 
  4 C        1.4140     2.0720    -0.7020 C.ar  1 <1>  -0.1500 
  5 C       -0.1910     4.1800     0.1570 C.ar  1 <1>   0.0830 
  6 C        1.6290     3.3520    -1.1780 C.ar  1 <1>  -0.1500 
  7 O       -0.9540     5.2290     0.5480 O.3   1 <1>  -0.3630 
  8 C        0.8440     4.4280    -0.7590 C.ar  1 <1>   0.0860 
  9 C       -2.1150     5.0770     1.3350 C.3   1 <1>   0.0400 
 10 C        1.1130     5.7470    -1.2910 C.2   1 <1>   0.5440 
 11 O        0.9660     5.9350    -2.4860 O.2   1 <1>  -0.5700 
 12 N        1.5980     6.7800    -0.5140 N.am  1 <1>  -0.6600 
 13 C        1.9700     6.6510     0.9310 C.3   1 <1>   0.1400 
 14 C        1.7950     8.1440    -1.0740 C.3   1 <1>   0.1400 
 15 C        3.4910     6.5980     1.1400 C.3   1 <1>   0.1400 
 16 C        3.1750     8.2870    -1.7300 C.3   1 <1>  -0.1600 
 17 N        4.1900     7.7570     0.5010 N.am  1 <1>  -0.6600 
 18 C        4.3350     7.6230    -0.9770 C.3   1 <1>   0.1400 
 19 C        4.5740     8.8460     1.2460 C.2   1 <1>   0.5690 
 20 O        4.3350     8.8990     2.4310 O.2   1 <1>  -0.5700 
 21 C        5.2710    10.0500     0.6340 C.3   1 <1>   0.0440 
 22 C        6.6720     9.7600     0.1090 C.ar  1 <1>   0.1670 
 23 N        6.8340    10.0210    -1.1830 N.ar  1 <1>  -0.6200 
 24 C        7.6900     9.2800     0.9360 C.ar  1 <1>  -0.1440 
 25 C        8.0340     9.7850    -1.6820 C.ar  1 <1>   0.1600 
 26 C        8.9330     9.0360     0.3870 C.ar  1 <1>  -0.1500 
 27 C        7.5030     9.0100     2.4250 C.3   1 <1>  -0.0970 
 28 C        9.1020     9.2970    -0.9540 C.ar  1 <1>  -0.1500 
 29 H       -1.1880     2.6680     1.3410 H     1 <1>   0.1500 
 30 H        2.0220     1.2480    -1.0280 H     1 <1>   0.1500 
 31 H        2.4130     3.5340    -1.8930 H     1 <1>   0.1500 
 32 H       -2.5710     6.0450     1.4470 H     1 <1>   0.0800 
 33 H       -1.8380     4.6910     2.3000 H     1 <1>   0.0800 
 34 H       -2.7940     4.4110     0.8320 H     1 <1>   0.0800 
 35 H        1.5370     5.7650     1.3560 H     1 <1>   0.0800 
 36 H        1.5710     7.4880     1.4770 H     1 <1>   0.0800 
 37 H        1.6980     8.8690    -0.2850 H     1 <1>   0.0800 
 38 H        1.0270     8.3510    -1.8010 H     1 <1>   0.0800 
 39 H        3.8740     5.6790     0.7330 H     1 <1>   0.0800 
 40 H        3.6950     6.5840     2.1960 H     1 <1>   0.0800 
 41 H        3.3870     9.3320    -1.8600 H     1 <1>   0.0800 
 42 H        3.1280     7.8600    -2.7160 H     1 <1>   0.0800 
 43 H        5.2710     8.0320    -1.3080 H     1 <1>   0.0800 
 44 H        4.3500     6.5770    -1.2310 H     1 <1>   0.0800 
 45 H        5.3410    10.8260     1.3730 H     1 <1>   0.0800 
 46 H        4.6530    10.4320    -0.1560 H     1 <1>   0.0800 
 47 H        8.1760     9.9920    -2.7290 H     1 <1>   0.1500 
 48 H        9.7490     8.6580     0.9790 H     1 <1>   0.1500 
 49 H        6.9460     9.8020     2.8910 H     1 <1>   0.0800 
 50 H        8.4520     8.9400     2.9240 H     1 <1>   0.0800 
 51 H        6.9770     8.0820     2.5680 H     1 <1>   0.0800 
 52 H       10.0490     9.1270    -1.4300 H     1 <1>   0.1500 
@<TRIPOS>BOND
  1   1   2  1   
  2   2   3  ar  
  3   2   4  ar  
  4   3   5  ar  
  5   3  29  1   
  6   4   6  ar  
  7   4  30  1   
  8   5   7  1   
  9   5   8  ar  
 10   6   8  ar  
 11   6  31  1   
 12   7   9  1   
 13   8  10  1   
 14   9  32  1   
 15   9  33  1   
 16   9  34  1   
 17  10  11  2   
 18  10  12  am  
 19  12  13  1   
 20  12  14  1   
 21  13  15  1   
 22  13  35  1   
 23  13  36  1   
 24  14  16  1   
 25  14  37  1   
 26  14  38  1   
 27  15  17  1   
 28  15  39  1   
 29  15  40  1   
 30  16  18  1   
 31  16  41  1   
 32  16  42  1   
 33  17  18  1   
 34  17  19  am  
 35  18  43  1   
 36  18  44  1   
 37  19  20  2   
 38  19  21  1   
 39  21  22  1   
 40  21  45  1   
 41  21  46  1   
 42  22  23  ar  
 43  22  24  ar  
 44  23  25  ar  
 45  24  26  ar  
 46  24  27  1   
 47  25  28  ar  
 48  25  47  1   
 49  26  28  ar  
 50  26  48  1   
 51  27  49  1   
 52  27  50  1   
 53  27  51  1   
 54  28  52  1   
@<TRIPOS>SUBSTRUCTURE
  1 ****  15 GROUP 4 **** **** 0

# MOE 2024.06 (io_trps.svl 2023.06)
