@<TRIPOS>MOLECULE
NONAME
51 53 1 0 0 
SMALL
USER_CHARGES


@<TRIPOS>ATOM
  1 O       -1.7130     0.7820    -3.2080 O.2   1 <1>  -0.5700 
  2 C       -2.1830     1.2460    -2.1860 C.2   1 <1>   0.5440 
  3 N       -3.1160     0.5210    -1.4810 N.am  1 <1>  -0.6600 
  4 C       -1.7540     2.5540    -1.7300 C.ar  1 <1>   0.0860 
  5 C       -3.1230    -0.9760    -1.4950 C.3   1 <1>   0.1400 
  6 C       -4.2530     1.1560    -0.7470 C.3   1 <1>   0.1400 
  7 C       -1.3810     2.7620    -0.4030 C.ar  1 <1>  -0.1500 
  8 C       -1.6930     3.6430    -2.5960 C.ar  1 <1>  -0.1500 
  9 C       -3.0730    -1.5810    -0.0650 C.3   1 <1>  -0.1060 
 10 C       -4.6940     0.3160     0.4590 C.3   1 <1>  -0.1600 
 11 C       -0.9830     4.0040     0.0640 C.ar  1 <1>  -0.1440 
 12 C       -1.2960     4.8900    -2.1480 C.ar  1 <1>  -0.1500 
 13 C       -4.0120    -2.7980    -0.1080 C.2   1 <1>   0.9060 
 14 C       -3.5210    -0.5120     0.9750 C.3   1 <1>   0.2000 
 15 C       -1.6540    -2.1150     0.2780 C.3   1 <1>  -0.0650 
 16 C       -0.9450     5.0700    -0.8220 C.ar  1 <1>  -0.1500 
 17 C       -0.5850     4.2030     1.5250 C.3   1 <1>   0.0640 
 18 O       -4.8870    -2.9590     0.7580 O.co2 1 <1>  -0.9000 
 19 O       -3.8730    -3.6200    -1.0210 O.co2 1 <1>  -0.9000 
 20 O       -3.8820    -1.0880     2.1740 O.3   1 <1>  -0.6800 
 21 C       -0.5200    -1.0750     0.3560 C.3   1 <1>  -0.1950 
 22 C        0.6650     3.3830     1.8610 C.3   1 <1>  -0.2400 
 23 C       -1.7410     3.8390     2.4630 C.3   1 <1>  -0.2400 
 24 C        0.2490    -0.6390    -0.8510 C.3   1 <1>  -0.2000 
 25 C        0.8960    -1.5240     0.1740 C.3   1 <1>  -0.2000 
 26 H       -4.0290    -1.2850    -1.9890 H     1 <1>   0.0800 
 27 H       -2.3090    -1.3560    -2.0860 H     1 <1>   0.0800 
 28 H       -3.9640     2.1330    -0.4040 H     1 <1>   0.0800 
 29 H       -5.0830     1.2750    -1.4220 H     1 <1>   0.0800 
 30 H       -1.4070     1.9200     0.2640 H     1 <1>   0.1500 
 31 H       -1.9600     3.4970    -3.6280 H     1 <1>   0.1500 
 32 H       -5.4960    -0.3380     0.1650 H     1 <1>   0.0800 
 33 H       -5.0570     0.9690     1.2320 H     1 <1>   0.0800 
 34 H       -1.2580     5.7200    -2.8320 H     1 <1>   0.1500 
 35 H       -2.7190     0.1660     1.1930 H     1 <1>   0.0800 
 36 H       -1.7080    -2.6180     1.2290 H     1 <1>   0.0800 
 37 H       -1.3890    -2.8640    -0.4490 H     1 <1>   0.0800 
 38 H       -0.6380     6.0460    -0.4860 H     1 <1>   0.1500 
 39 H       -0.3490     5.2430     1.6810 H     1 <1>   0.0800 
 40 H       -4.4210    -1.8990     1.9150 H     1 <1>   0.4000 
 41 H       -0.6650    -0.3630     1.1470 H     1 <1>   0.1000 
 42 H        0.4710     2.3300     1.7600 H     1 <1>   0.0800 
 43 H        0.9800     3.5800     2.8700 H     1 <1>   0.0800 
 44 H        1.4660     3.6490     1.1940 H     1 <1>   0.0800 
 45 H       -1.9790     2.7930     2.3950 H     1 <1>   0.0800 
 46 H       -2.6160     4.4070     2.2030 H     1 <1>   0.0800 
 47 H       -1.4780     4.0640     3.4810 H     1 <1>   0.0800 
 48 H       -0.0060    -1.0560    -1.8100 H     1 <1>   0.1000 
 49 H        0.5500     0.3920    -0.9230 H     1 <1>   0.1000 
 50 H        1.6550    -1.1070     0.8120 H     1 <1>   0.1000 
 51 H        1.0910    -2.5500    -0.0870 H     1 <1>   0.1000 
@<TRIPOS>BOND
  1   1   2  2   
  2   2   3  am  
  3   2   4  1   
  4   3   5  1   
  5   3   6  1   
  6   4   7  ar  
  7   4   8  ar  
  8   5   9  1   
  9   5  26  1   
 10   5  27  1   
 11   6  10  1   
 12   6  28  1   
 13   6  29  1   
 14   7  11  ar  
 15   7  30  1   
 16   8  12  ar  
 17   8  31  1   
 18   9  13  1   
 19   9  14  1   
 20   9  15  1   
 21  10  14  1   
 22  10  32  1   
 23  10  33  1   
 24  11  16  ar  
 25  11  17  1   
 26  12  16  ar  
 27  12  34  1   
 28  13  18  ar  
 29  13  19  ar  
 30  14  20  1   
 31  14  35  1   
 32  15  21  1   
 33  15  36  1   
 34  15  37  1   
 35  16  38  1   
 36  17  22  1   
 37  17  23  1   
 38  17  39  1   
 39  20  40  1   
 40  21  24  1   
 41  21  25  1   
 42  21  41  1   
 43  22  42  1   
 44  22  43  1   
 45  22  44  1   
 46  23  45  1   
 47  23  46  1   
 48  23  47  1   
 49  24  25  1   
 50  24  48  1   
 51  24  49  1   
 52  25  50  1   
 53  25  51  1   
@<TRIPOS>SUBSTRUCTURE
  1 ****   3 GROUP 4 **** **** 0

# MOE 2024.06 (io_trps.svl 2023.06)
