@<TRIPOS>MOLECULE
NONAME
34 34 1 0 0 
SMALL
USER_CHARGES


@<TRIPOS>ATOM
  1 O       -1.1640    -0.1790     0.0400 O.2   1 <1>  -0.5700 
  2 C       -0.5780    -0.7560    -0.8540 C.2   1 <1>   0.7800 
  3 O        0.5430    -1.4190    -0.6200 O.3   1 <1>  -0.4300 
  4 N       -1.0310    -0.7860    -2.1220 N.am  1 <1>  -0.7300 
  5 C        1.0640    -1.4750     0.6880 C.3   1 <1>   0.2630 
  6 C       -2.3520    -0.2350    -2.5540 C.3   1 <1>   0.2010 
  7 C        2.3390    -2.3020     0.6640 C.ar  1 <1>  -0.1440 
  8 C       -3.5390    -1.1060    -2.1380 C.2   1 <1>   0.5690 
  9 C        2.2910    -3.6690     0.8890 C.ar  1 <1>  -0.1500 
 10 C        3.5610    -1.6960     0.4150 C.ar  1 <1>  -0.1500 
 11 O       -4.2610    -1.5660    -2.9900 O.2   1 <1>  -0.5700 
 12 N       -3.7540    -1.3420    -0.8240 N.am  1 <1>  -0.7300 
 13 C        3.4520    -4.4220     0.8710 C.ar  1 <1>  -0.1500 
 14 C        4.7240    -2.4480     0.3980 C.ar  1 <1>  -0.1500 
 15 C       -4.7500    -2.2510    -0.3030 C.3   1 <1>   0.4200 
 16 C        4.6700    -3.8110     0.6270 C.ar  1 <1>  -0.1500 
 17 O       -4.2410    -2.6610     0.9130 O.3   1 <1>  -0.5600 
 18 C       -5.0550    -3.5710     1.5780 C.3   1 <1>   0.0400 
 19 H       -0.5620    -1.4270    -2.7620 H     1 <1>   0.3700 
 20 H        0.3270    -1.9250     1.3310 H     1 <1>   0.0800 
 21 H        1.2630    -0.4710     1.0210 H     1 <1>   0.0800 
 22 H       -2.3570    -0.1280    -3.6240 H     1 <1>   0.0800 
 23 H       -2.4840     0.7410    -2.1220 H     1 <1>   0.0800 
 24 H        1.3480    -4.1530     1.0760 H     1 <1>   0.1500 
 25 H        3.6120    -0.6370     0.2320 H     1 <1>   0.1500 
 26 H       -3.0780    -1.0240    -0.1180 H     1 <1>   0.3700 
 27 H        3.4080    -5.4830     1.0470 H     1 <1>   0.1500 
 28 H        5.6700    -1.9720     0.2040 H     1 <1>   0.1500 
 29 H       -4.8740    -3.1020    -0.9520 H     1 <1>   0.0800 
 30 H       -5.6880    -1.7430    -0.1480 H     1 <1>   0.0800 
 31 H        5.5730    -4.3960     0.6130 H     1 <1>   0.1500 
 32 H       -4.5780    -3.8280     2.5070 H     1 <1>   0.0800 
 33 H       -5.1700    -4.4540     0.9740 H     1 <1>   0.0800 
 34 H       -6.0110    -3.1170     1.7760 H     1 <1>   0.0800 
@<TRIPOS>BOND
  1   1   2  2   
  2   2   3  1   
  3   2   4  am  
  4   3   5  1   
  5   4   6  1   
  6   4  19  1   
  7   5   7  1   
  8   5  20  1   
  9   5  21  1   
 10   6   8  1   
 11   6  22  1   
 12   6  23  1   
 13   7   9  ar  
 14   7  10  ar  
 15   8  11  2   
 16   8  12  am  
 17   9  13  ar  
 18   9  24  1   
 19  10  14  ar  
 20  10  25  1   
 21  12  15  1   
 22  12  26  1   
 23  13  16  ar  
 24  13  27  1   
 25  14  16  ar  
 26  14  28  1   
 27  15  17  1   
 28  15  29  1   
 29  15  30  1   
 30  16  31  1   
 31  17  18  1   
 32  18  32  1   
 33  18  33  1   
 34  18  34  1   
@<TRIPOS>SUBSTRUCTURE
  1 ****   3 GROUP 4 **** **** 0

# MOE 2024.06 (io_trps.svl 2023.06)
