@<TRIPOS>MOLECULE
NONAME
50 52 1 0 0 
SMALL
USER_CHARGES


@<TRIPOS>ATOM
  1 F        0.3390    -2.7140     3.3190 F     1 <1>  -0.1900 
  2 C        0.0220    -3.2130     2.1550 C.ar  1 <1>   0.1900 
  3 C        0.9610    -3.9670     1.4810 C.ar  1 <1>  -0.1500 
  4 C       -1.2410    -2.9740     1.6500 C.ar  1 <1>  -0.1500 
  5 C        0.6180    -4.5060     0.2450 C.ar  1 <1>   0.0830 
  6 C       -1.5740    -3.5060     0.4170 C.ar  1 <1>  -0.1500 
  7 O        1.4620    -5.2840    -0.4800 O.3   1 <1>  -0.3630 
  8 C       -0.6460    -4.2640    -0.2880 C.ar  1 <1>  -0.1440 
  9 C        2.8390    -5.3500    -0.1660 C.3   1 <1>   0.0400 
 10 C       -1.0120    -4.8530    -1.6390 C.3   1 <1>   0.4870 
 11 N       -2.0720    -5.8680    -1.4390 N.4   1 <1>  -0.9590 
 12 C       -1.7710    -6.8760    -0.3550 C.3   1 <1>   0.3430 
 13 C       -2.6250    -6.4520    -2.6830 C.3   1 <1>   0.3430 
 14 C       -2.8350    -8.0200    -0.2260 C.3   1 <1>   0.4230 
 15 C       -3.8960    -7.2710    -2.3690 C.3   1 <1>  -0.1600 
 16 N       -3.0710    -8.4900     1.1870 N.4   1 <1>  -0.9590 
 17 C       -4.1660    -7.5610    -0.8550 C.3   1 <1>  -0.1060 
 18 C       -4.0030    -9.6480     1.2530 C.3   1 <1>   0.3430 
 19 C       -1.8640    -8.6980     2.0380 C.3   1 <1>   0.2630 
 20 C       -4.5560    -6.2810    -0.0860 C.2   1 <1>   0.9060 
 21 C       -5.2440    -8.6710    -0.7510 C.3   1 <1>  -0.1600 
 22 C       -5.3600    -9.2550     0.6660 C.3   1 <1>  -0.1600 
 23 O       -4.5470    -5.2020    -0.6860 O.co2 1 <1>  -0.9000 
 24 O       -4.5740    -6.3180     1.1460 O.co2 1 <1>  -0.9000 
 25 H        1.9220    -4.1160     1.9350 H     1 <1>   0.1500 
 26 H       -1.9480    -2.3870     2.2120 H     1 <1>   0.1500 
 27 H       -2.5640    -3.3260     0.0230 H     1 <1>   0.1500 
 28 H        3.3330    -5.9260    -0.9290 H     1 <1>   0.0800 
 29 H        2.9630    -5.8310     0.7880 H     1 <1>   0.0800 
 30 H        3.2440    -4.3530    -0.1470 H     1 <1>   0.0800 
 31 H       -0.1460    -5.3030    -2.0960 H     1 <1>   0.0800 
 32 H       -1.3710    -4.0670    -2.2830 H     1 <1>   0.0800 
 33 H       -2.8900    -5.3100    -1.0720 H     1 <1>   0.4500 
 34 H       -0.8030    -7.3130    -0.5300 H     1 <1>   0.0800 
 35 H       -1.7390    -6.3490     0.5850 H     1 <1>   0.0800 
 36 H       -2.8780    -5.6650    -3.3760 H     1 <1>   0.0800 
 37 H       -1.8860    -7.0850    -3.1460 H     1 <1>   0.0800 
 38 H       -2.4740    -8.8590    -0.7970 H     1 <1>   0.0800 
 39 H       -4.7430    -6.7420    -2.7750 H     1 <1>   0.0800 
 40 H       -3.8270    -8.1910    -2.9230 H     1 <1>   0.0800 
 41 H       -3.6320    -7.6880     1.5920 H     1 <1>   0.4500 
 42 H       -3.5950   -10.4800     0.7030 H     1 <1>   0.0800 
 43 H       -4.1410    -9.9500     2.2790 H     1 <1>   0.0800 
 44 H       -1.2480    -9.4850     1.6340 H     1 <1>   0.0800 
 45 H       -2.1630    -8.9730     3.0380 H     1 <1>   0.0800 
 46 H       -1.2850    -7.7910     2.1010 H     1 <1>   0.0800 
 47 H       -6.2000    -8.2720    -1.0490 H     1 <1>   0.0800 
 48 H       -5.0070    -9.4770    -1.4240 H     1 <1>   0.0800 
 49 H       -5.9980   -10.1210     0.6440 H     1 <1>   0.0800 
 50 H       -5.8310    -8.5400     1.3200 H     1 <1>   0.0800 
@<TRIPOS>BOND
  1   1   2  1   
  2   2   3  ar  
  3   2   4  ar  
  4   3   5  ar  
  5   3  25  1   
  6   4   6  ar  
  7   4  26  1   
  8   5   7  1   
  9   5   8  ar  
 10   6   8  ar  
 11   6  27  1   
 12   7   9  1   
 13   8  10  1   
 14   9  28  1   
 15   9  29  1   
 16   9  30  1   
 17  10  11  1   
 18  10  31  1   
 19  10  32  1   
 20  11  12  1   
 21  11  13  1   
 22  11  33  1   
 23  12  14  1   
 24  12  34  1   
 25  12  35  1   
 26  13  15  1   
 27  13  36  1   
 28  13  37  1   
 29  14  16  1   
 30  14  17  1   
 31  14  38  1   
 32  15  17  1   
 33  15  39  1   
 34  15  40  1   
 35  16  18  1   
 36  16  19  1   
 37  16  41  1   
 38  17  20  1   
 39  17  21  1   
 40  18  22  1   
 41  18  42  1   
 42  18  43  1   
 43  19  44  1   
 44  19  45  1   
 45  19  46  1   
 46  20  23  ar  
 47  20  24  ar  
 48  21  22  1   
 49  21  47  1   
 50  21  48  1   
 51  22  49  1   
 52  22  50  1   
@<TRIPOS>SUBSTRUCTURE
  1 ****  12 GROUP 4 **** **** 0

# MOE 2024.06 (io_trps.svl 2023.06)
