@<TRIPOS>MOLECULE
NONAME
45 45 1 0 0 
SMALL
USER_CHARGES


@<TRIPOS>ATOM
  1 O       -1.4170     4.7220    -0.1360 O.co2 1 <1>  -0.9000 
  2 C       -0.8510     4.0700     0.7360 C.2   1 <1>   0.9060 
  3 O       -0.2370     4.6480     1.6410 O.co2 1 <1>  -0.9000 
  4 C       -0.5690     2.6170     0.4750 C.3   1 <1>  -0.2660 
  5 C        0.8040     2.3890    -0.2090 C.3   1 <1>  -0.1600 
  6 C        1.2930     3.5870    -1.0480 C.3   1 <1>   0.3430 
  7 N        1.8050     4.6760    -0.1620 N.4   1 <1>  -0.9590 
  8 C        1.6450     6.0240    -0.7990 C.3   1 <1>   0.3430 
  9 C        3.1450     4.3830     0.3940 C.3   1 <1>   0.3430 
 10 C        2.1140     7.1950     0.1030 C.3   1 <1>   0.0000 
 11 C        3.5230     5.4770     1.3880 C.3   1 <1>  -0.1600 
 12 C        3.4970     6.8570     0.7180 C.3   1 <1>  -0.1600 
 13 C        2.3310     8.4580    -0.7690 C.3   1 <1>   0.1200 
 14 C        1.1130     7.4510     1.2670 C.3   1 <1>   0.3430 
 15 O        1.1890     8.7700    -1.4960 O.3   1 <1>  -0.6800 
 16 N       -0.0910     8.2660     0.9100 N.4   1 <1>  -0.9590 
 17 C       -0.4620     9.2040     2.0040 C.3   1 <1>   0.2630 
 18 C       -1.2590     7.3920     0.5890 C.3   1 <1>   0.2630 
 19 H       -1.3540     2.2550    -0.1640 H     1 <1>   0.0800 
 20 H       -0.6240     2.0800     1.4030 H     1 <1>   0.0800 
 21 H        0.7100     1.5370    -0.8590 H     1 <1>   0.0800 
 22 H        1.5370     2.1340     0.5350 H     1 <1>   0.0800 
 23 H        0.4610     3.9520    -1.6310 H     1 <1>   0.0800 
 24 H        2.0700     3.2730    -1.7250 H     1 <1>   0.0800 
 25 H        1.1320     4.6800     0.6460 H     1 <1>   0.4500 
 26 H        0.6080     6.1730    -1.0600 H     1 <1>   0.0800 
 27 H        2.2150     6.0440    -1.7120 H     1 <1>   0.0800 
 28 H        3.8710     4.3440    -0.4020 H     1 <1>   0.0800 
 29 H        3.1360     3.4300     0.8980 H     1 <1>   0.0800 
 30 H        4.5140     5.2780     1.7580 H     1 <1>   0.0800 
 31 H        2.8530     5.4380     2.2300 H     1 <1>   0.0800 
 32 H        3.7790     7.6070     1.4390 H     1 <1>   0.0800 
 33 H        4.2490     6.8630    -0.0540 H     1 <1>   0.0800 
 34 H        3.1250     8.2920    -1.4790 H     1 <1>   0.0800 
 35 H        2.5880     9.3100    -0.1610 H     1 <1>   0.0800 
 36 H        1.6520     7.9830     2.0330 H     1 <1>   0.0800 
 37 H        0.8060     6.5180     1.7050 H     1 <1>   0.0800 
 38 H        1.3870     9.4370    -2.1920 H     1 <1>   0.4000 
 39 H        0.1400     8.7840     0.0380 H     1 <1>   0.4500 
 40 H       -0.7130     8.6520     2.8950 H     1 <1>   0.0800 
 41 H       -1.3160     9.7940     1.7130 H     1 <1>   0.0800 
 42 H        0.3580     9.8680     2.2240 H     1 <1>   0.0800 
 43 H       -1.4200     6.6660     1.3700 H     1 <1>   0.0800 
 44 H       -1.0820     6.8620    -0.3310 H     1 <1>   0.0800 
 45 H       -2.1540     7.9770     0.4680 H     1 <1>   0.0800 
@<TRIPOS>BOND
  1   1   2  ar  
  2   2   3  ar  
  3   2   4  1   
  4   4   5  1   
  5   4  19  1   
  6   4  20  1   
  7   5   6  1   
  8   5  21  1   
  9   5  22  1   
 10   6   7  1   
 11   6  23  1   
 12   6  24  1   
 13   7   8  1   
 14   7   9  1   
 15   7  25  1   
 16   8  10  1   
 17   8  26  1   
 18   8  27  1   
 19   9  11  1   
 20   9  28  1   
 21   9  29  1   
 22  10  12  1   
 23  10  13  1   
 24  10  14  1   
 25  11  12  1   
 26  11  30  1   
 27  11  31  1   
 28  12  32  1   
 29  12  33  1   
 30  13  15  1   
 31  13  34  1   
 32  13  35  1   
 33  14  16  1   
 34  14  36  1   
 35  14  37  1   
 36  15  38  1   
 37  16  17  1   
 38  16  18  1   
 39  16  39  1   
 40  17  40  1   
 41  17  41  1   
 42  17  42  1   
 43  18  43  1   
 44  18  44  1   
 45  18  45  1   
@<TRIPOS>SUBSTRUCTURE
  1 ****   8 GROUP 4 **** **** 0

# MOE 2024.06 (io_trps.svl 2023.06)
