@<TRIPOS>MOLECULE
NONAME
39 41 1 0 0 
SMALL
USER_CHARGES


@<TRIPOS>ATOM
  1 CL       1.8880    -2.4570     3.3500 Cl    1 <1>  -0.1770 
  2 C        2.1920    -2.0380     1.6750 C.ar  1 <1>   0.1770 
  3 C        1.5280    -2.7190     0.6470 C.ar  1 <1>   0.4100 
  4 C        3.0930    -1.0400     1.3960 C.ar  1 <1>  -0.1500 
  5 N        1.7380    -2.4430    -0.6360 N.ar  1 <1>  -0.6200 
  6 N        0.6180    -3.7160     0.9360 N.pl3 1 <1>  -0.8690 
  7 C        3.3050    -0.7490     0.0540 C.ar  1 <1>  -0.1430 
  8 C        2.6060    -1.4770    -0.8960 C.ar  1 <1>   0.1600 
  9 C        0.2000    -4.7520    -0.0430 C.3   1 <1>   0.2890 
 10 C        4.2700     0.3310    -0.4230 C.3   1 <1>   1.1640 
 11 C       -1.2060    -5.2110     0.2990 C.3   1 <1>  -0.0800 
 12 C        1.0150    -6.0280     0.1670 C.3   1 <1>   0.1200 
 13 F        5.2180    -0.1620    -1.2060 F     1 <1>  -0.3400 
 14 F        4.8910     0.9530     0.5720 F     1 <1>  -0.3400 
 15 F        3.6540     1.2700    -1.1260 F     1 <1>  -0.3400 
 16 C       -0.9360    -6.2650     1.3750 C.3   1 <1>   0.1200 
 17 C       -1.9210    -5.8060    -0.9290 C.3   1 <1>  -0.0160 
 18 O        0.3170    -6.8140     1.0920 O.3   1 <1>  -0.5600 
 19 C       -3.3380    -6.2440    -0.5900 C.ar  1 <1>  -0.1430 
 20 C       -4.3570    -5.3310    -0.4120 C.ar  1 <1>  -0.1500 
 21 C       -3.6780    -7.5740    -0.4420 C.ar  1 <1>  -0.1500 
 22 C       -5.6300    -5.7770    -0.1000 C.ar  1 <1>   0.1600 
 23 C       -4.9840    -7.9150    -0.1280 C.ar  1 <1>   0.1600 
 24 N       -5.9680    -7.0480     0.0480 N.ar  1 <1>  -0.6200 
 25 H        3.5980    -0.5210     2.1930 H     1 <1>   0.1500 
 26 H        0.6570    -4.0730     1.8960 H     1 <1>   0.4000 
 27 H        2.7660    -1.2580    -1.9410 H     1 <1>   0.1500 
 28 H        0.2790    -4.3850    -1.0520 H     1 <1>   0.0800 
 29 H       -1.7940    -4.3990     0.6880 H     1 <1>   0.0800 
 30 H        2.0030    -5.8240     0.5390 H     1 <1>   0.0800 
 31 H        1.0800    -6.5880    -0.7480 H     1 <1>   0.0800 
 32 H       -1.6700    -7.0500     1.3990 H     1 <1>   0.0800 
 33 H       -0.8760    -5.8050     2.3460 H     1 <1>   0.0800 
 34 H       -1.3670    -6.6440    -1.3150 H     1 <1>   0.0800 
 35 H       -1.9700    -5.0640    -1.7080 H     1 <1>   0.0800 
 36 H       -4.1720    -4.2770    -0.5130 H     1 <1>   0.1500 
 37 H       -2.9420    -8.3470    -0.5650 H     1 <1>   0.1500 
 38 H       -6.4120    -5.0490     0.0350 H     1 <1>   0.1500 
 39 H       -5.2310    -8.9560    -0.0150 H     1 <1>   0.1500 
@<TRIPOS>BOND
  1   1   2  1   
  2   2   3  ar  
  3   2   4  ar  
  4   3   5  ar  
  5   3   6  1   
  6   4   7  ar  
  7   4  25  1   
  8   5   8  ar  
  9   6   9  1   
 10   6  26  1   
 11   7   8  ar  
 12   7  10  1   
 13   8  27  1   
 14   9  11  1   
 15   9  12  1   
 16   9  28  1   
 17  10  13  1   
 18  10  14  1   
 19  10  15  1   
 20  11  16  1   
 21  11  17  1   
 22  11  29  1   
 23  12  18  1   
 24  12  30  1   
 25  12  31  1   
 26  16  18  1   
 27  16  32  1   
 28  16  33  1   
 29  17  19  1   
 30  17  34  1   
 31  17  35  1   
 32  19  20  ar  
 33  19  21  ar  
 34  20  22  ar  
 35  20  36  1   
 36  21  23  ar  
 37  21  37  1   
 38  22  24  ar  
 39  22  38  1   
 40  23  24  ar  
 41  23  39  1   
@<TRIPOS>SUBSTRUCTURE
  1 ****   6 GROUP 4 **** **** 0

# MOE 2024.06 (io_trps.svl 2023.06)
