@<TRIPOS>MOLECULE
NONAME
49 51 1 0 0 
SMALL
USER_CHARGES


@<TRIPOS>ATOM
  1 O       -0.5060     0.2140     0.3580 O.2   1 <1>  -0.5700 
  2 C        0.4500    -0.3290     0.8500 C.2   1 <1>   0.5690 
  3 N        1.5180     0.3630     1.3090 N.am  1 <1>  -0.7300 
  4 C        0.4590    -1.8330     0.9430 C.3   1 <1>  -0.0990 
  5 C        1.6430     1.8400     1.2700 C.3   1 <1>   0.3210 
  6 C        0.4310    -2.4360    -0.4640 C.3   1 <1>   0.0960 
  7 C        2.9100     2.2590     0.5390 C.2   1 <1>   0.0460 
  8 N        0.5360    -3.9040    -0.3840 N.pl3 1 <1>   0.3140 
  9 N        3.4360     3.4860     0.7070 N.2   1 <1>  -0.5650 
 10 C        3.6690     1.5690    -0.3230 C.2   1 <1>  -0.0100 
 11 N        1.7310    -4.4690    -0.1730 N.2   1 <1>  -0.7070 
 12 C       -0.4390    -4.8300    -0.4730 C.2   1 <1>  -0.3320 
 13 C        4.4870     3.4850    -0.0580 C.2   1 <1>   0.4250 
 14 O        4.6530     2.3360    -0.6910 O.3   1 <1>  -0.2800 
 15 C        1.5020    -5.7380    -0.1360 C.2   1 <1>   0.1080 
 16 C        0.1460    -6.0590    -0.3020 C.2   1 <1>  -0.0860 
 17 C       -1.8950    -4.4650    -0.7430 C.3   1 <1>  -0.0600 
 18 C        5.4290     4.5690    -0.2580 C.ar  1 <1>   0.0530 
 19 C        2.6280    -6.7290     0.0780 C.3   1 <1>  -0.0590 
 20 C       -0.3900    -7.3980    -0.2660 C.2   1 <1>   0.5950 
 21 C        6.5300     4.4410    -1.1080 C.ar  1 <1>  -0.1500 
 22 C        5.2690     5.7910     0.3970 C.ar  1 <1>  -0.1500 
 23 O        0.2290    -8.3790    -0.5910 O.2   1 <1>  -0.5700 
 24 C       -1.7980    -7.6340     0.2360 C.3   1 <1>  -0.1790 
 25 C        7.4260     5.4790    -1.2930 C.ar  1 <1>  -0.1500 
 26 C        6.1600     6.8330     0.2170 C.ar  1 <1>  -0.1500 
 27 C        7.2420     6.6790    -0.6300 C.ar  1 <1>  -0.1500 
 28 H        2.3110    -0.1250     1.7290 H     1 <1>   0.3700 
 29 H       -0.4080    -2.1480     1.4920 H     1 <1>   0.0800 
 30 H        1.3400    -2.1630     1.4630 H     1 <1>   0.0800 
 31 H        1.6810     2.2130     2.2790 H     1 <1>   0.0800 
 32 H        0.7910     2.2820     0.7820 H     1 <1>   0.0800 
 33 H        1.2660    -2.0750    -1.0360 H     1 <1>   0.0800 
 34 H       -0.4730    -2.1610    -0.9720 H     1 <1>   0.0800 
 35 H        3.5890     0.5720    -0.7170 H     1 <1>   0.1500 
 36 H       -1.9610    -3.8000    -1.5860 H     1 <1>   0.0800 
 37 H       -2.3220    -3.9790     0.1160 H     1 <1>   0.0800 
 38 H       -2.4820    -5.3310    -0.9780 H     1 <1>   0.0800 
 39 H        3.5440    -6.2080     0.2880 H     1 <1>   0.0800 
 40 H        2.7600    -7.3230    -0.8070 H     1 <1>   0.0800 
 41 H        2.3970    -7.3760     0.9050 H     1 <1>   0.0800 
 42 H        6.6890     3.5150    -1.6320 H     1 <1>   0.1500 
 43 H        4.4300     5.9230     1.0590 H     1 <1>   0.1500 
 44 H       -2.0950    -6.8490     0.9050 H     1 <1>   0.0800 
 45 H       -1.8350    -8.5680     0.7660 H     1 <1>   0.0800 
 46 H       -2.4730    -7.6830    -0.5970 H     1 <1>   0.0800 
 47 H        8.2660     5.3540    -1.9540 H     1 <1>   0.1500 
 48 H        6.0120     7.7640     0.7360 H     1 <1>   0.1500 
 49 H        7.9380     7.4880    -0.7730 H     1 <1>   0.1500 
@<TRIPOS>BOND
  1   1   2  2   
  2   2   3  am  
  3   2   4  1   
  4   3   5  1   
  5   3  28  1   
  6   4   6  1   
  7   4  29  1   
  8   4  30  1   
  9   5   7  1   
 10   5  31  1   
 11   5  32  1   
 12   6   8  1   
 13   6  33  1   
 14   6  34  1   
 15   7   9  1   
 16   7  10  2   
 17   8  11  1   
 18   8  12  1   
 19   9  13  2   
 20  10  14  1   
 21  10  35  1   
 22  11  15  2   
 23  12  16  2   
 24  12  17  1   
 25  13  14  1   
 26  13  18  1   
 27  15  16  1   
 28  15  19  1   
 29  16  20  1   
 30  17  36  1   
 31  17  37  1   
 32  17  38  1   
 33  18  21  ar  
 34  18  22  ar  
 35  19  39  1   
 36  19  40  1   
 37  19  41  1   
 38  20  23  2   
 39  20  24  1   
 40  21  25  ar  
 41  21  42  1   
 42  22  26  ar  
 43  22  43  1   
 44  24  44  1   
 45  24  45  1   
 46  24  46  1   
 47  25  27  ar  
 48  25  47  1   
 49  26  27  ar  
 50  26  48  1   
 51  27  49  1   
@<TRIPOS>SUBSTRUCTURE
  1 ****   3 GROUP 4 **** **** 0

# MOE 2024.06 (io_trps.svl 2023.06)
