@<TRIPOS>MOLECULE
NONAME
45 48 1 0 0 
SMALL
USER_CHARGES


@<TRIPOS>ATOM
  1 S        0.4740     0.3110     2.4670 S.3   1 <1>  -0.0800 
  2 C       -0.2260     0.8790     0.9320 C.2   1 <1>  -0.0450 
  3 C       -1.0460    -0.3930     3.0000 C.2   1 <1>  -0.1100 
  4 C       -1.5350     0.5090     0.9030 C.2   1 <1>   0.0620 
  5 C        0.6210     1.5870     0.0160 C.2   1 <1>   0.7150 
  6 C       -1.9900    -0.1960     2.0650 C.2   1 <1>   0.0620 
  7 O       -2.3840     0.7530    -0.1200 O.3   1 <1>  -0.3420 
  8 O        1.8380     1.5880     0.1330 O.2   1 <1>  -0.5700 
  9 N        0.1230     2.3750    -0.9960 N.am  1 <1>  -0.6600 
 10 O       -3.2780    -0.6190     2.1750 O.3   1 <1>  -0.3420 
 11 C       -3.6030     0.0320    -0.1400 C.3   1 <1>   0.1200 
 12 C        0.7890     2.4260    -2.3390 C.3   1 <1>   0.1400 
 13 C       -0.7850     3.5060    -0.6840 C.3   1 <1>   0.1400 
 14 C       -4.2040    -0.0430     1.2730 C.3   1 <1>   0.1200 
 15 C        2.0820     3.2740    -2.3490 C.3   1 <1>   0.3430 
 16 C        0.0140     4.6900    -0.1200 C.3   1 <1>  -0.1600 
 17 N        2.2110     4.1120    -1.1190 N.4   1 <1>  -0.9590 
 18 C        1.1750     5.1760    -0.9960 C.3   1 <1>   0.3430 
 19 C        3.5930     4.5740    -0.8620 C.3   1 <1>   0.5240 
 20 C        3.6580     5.0490     0.5720 C.2   1 <1>  -0.1810 
 21 C        3.5590     4.3120     1.7000 C.2   1 <1>  -0.0100 
 22 C        3.8250     6.3740     1.0000 C.2   1 <1>  -0.1500 
 23 O        3.6430     5.0820     2.7640 O.3   1 <1>  -0.2800 
 24 C        3.8070     6.3220     2.3490 C.2   1 <1>  -0.0100 
 25 H       -1.0750    -0.8800     3.9580 H     1 <1>   0.1500 
 26 H       -3.4030    -0.9570    -0.5120 H     1 <1>   0.0800 
 27 H       -4.2750     0.5330    -0.8140 H     1 <1>   0.0800 
 28 H        0.0990     2.8170    -3.0660 H     1 <1>   0.0800 
 29 H        1.0320     1.4230    -2.6470 H     1 <1>   0.0800 
 30 H       -1.5170     3.1950     0.0430 H     1 <1>   0.0800 
 31 H       -1.3190     3.7990    -1.5730 H     1 <1>   0.0800 
 32 H       -4.4520     0.9410     1.6290 H     1 <1>   0.0800 
 33 H       -5.0900    -0.6520     1.2780 H     1 <1>   0.0800 
 34 H        2.1120     3.8880    -3.2340 H     1 <1>   0.0800 
 35 H        2.9150     2.5920    -2.3960 H     1 <1>   0.0800 
 36 H        0.3840     4.4440     0.8600 H     1 <1>   0.0800 
 37 H       -0.6680     5.5110     0.0110 H     1 <1>   0.0800 
 38 H        2.0170     3.4330    -0.3560 H     1 <1>   0.4500 
 39 H        1.6040     6.0500    -0.5330 H     1 <1>   0.0800 
 40 H        0.8120     5.4600    -1.9710 H     1 <1>   0.0800 
 41 H        3.8610     5.3710    -1.5350 H     1 <1>   0.0800 
 42 H        4.2850     3.7570    -0.9930 H     1 <1>   0.0800 
 43 H        3.4250     3.2510     1.8460 H     1 <1>   0.1500 
 44 H        3.9490     7.2440     0.3770 H     1 <1>   0.1500 
 45 H        3.9050     7.1040     3.0840 H     1 <1>   0.1500 
@<TRIPOS>BOND
  1   1   2  1   
  2   1   3  1   
  3   2   4  2   
  4   2   5  1   
  5   3   6  2   
  6   3  25  1   
  7   4   6  1   
  8   4   7  1   
  9   5   8  2   
 10   5   9  am  
 11   6  10  1   
 12   7  11  1   
 13   9  12  1   
 14   9  13  1   
 15  10  14  1   
 16  11  14  1   
 17  11  26  1   
 18  11  27  1   
 19  12  15  1   
 20  12  28  1   
 21  12  29  1   
 22  13  16  1   
 23  13  30  1   
 24  13  31  1   
 25  14  32  1   
 26  14  33  1   
 27  15  17  1   
 28  15  34  1   
 29  15  35  1   
 30  16  18  1   
 31  16  36  1   
 32  16  37  1   
 33  17  18  1   
 34  17  19  1   
 35  17  38  1   
 36  18  39  1   
 37  18  40  1   
 38  19  20  1   
 39  19  41  1   
 40  19  42  1   
 41  20  21  2   
 42  20  22  1   
 43  21  23  1   
 44  21  43  1   
 45  22  24  2   
 46  22  44  1   
 47  23  24  1   
 48  24  45  1   
@<TRIPOS>SUBSTRUCTURE
  1 ****   5 GROUP 4 **** **** 0

# MOE 2024.06 (io_trps.svl 2023.06)
