@<TRIPOS>MOLECULE
NONAME
41 43 1 0 0 
SMALL
USER_CHARGES


@<TRIPOS>ATOM
  1 O        1.2720     1.3640     0.3720 O.co2 1 <1>  -0.9000 
  2 C        0.2220     1.5050    -0.2610 C.2   1 <1>   0.9060 
  3 O        0.0650     1.0270    -1.3950 O.co2 1 <1>  -0.9000 
  4 C       -0.9820     2.1580     0.4750 C.3   1 <1>   0.4600 
  5 N       -2.2000     1.2490     0.6690 N.4   1 <1>  -0.9590 
  6 C       -1.4310     3.5100    -0.1020 C.ar  1 <1>  -0.1430 
  7 C       -2.7410     0.8090    -0.6540 C.3   1 <1>   0.3430 
  8 C       -3.2240     1.8770     1.5430 C.3   1 <1>   0.3430 
  9 C       -1.5920     3.7120    -1.4680 C.ar  1 <1>  -0.1500 
 10 C       -1.6860     4.5660     0.7640 C.ar  1 <1>  -0.1500 
 11 C       -3.9200    -0.1380    -0.4570 C.3   1 <1>  -0.1600 
 12 C       -4.3810     0.9130     1.7710 C.3   1 <1>  -0.1600 
 13 C       -2.0280     4.9320    -1.9530 C.ar  1 <1>  -0.1500 
 14 C       -2.1220     5.7870     0.2800 C.ar  1 <1>  -0.1500 
 15 C       -4.9940     0.4860     0.4380 C.3   1 <1>   0.2800 
 16 C       -2.2980     5.9690    -1.0790 C.ar  1 <1>  -0.1500 
 17 O       -5.9200    -0.5120     0.7080 O.3   1 <1>  -0.5600 
 18 C       -5.7800     1.6030    -0.2590 C.3   1 <1>  -0.1600 
 19 C       -7.1460    -0.2980     0.0760 C.3   1 <1>   0.1200 
 20 C       -6.9410     0.8600    -0.8870 C.3   1 <1>  -0.1600 
 21 H       -0.5870     2.3680     1.4510 H     1 <1>   0.0800 
 22 H       -1.8250     0.4040     1.1180 H     1 <1>   0.4500 
 23 H       -1.9770     0.3020    -1.2210 H     1 <1>   0.0800 
 24 H       -3.0590     1.6690    -1.2190 H     1 <1>   0.0800 
 25 H       -3.5950     2.7750     1.0740 H     1 <1>   0.0800 
 26 H       -2.7830     2.1460     2.4890 H     1 <1>   0.0800 
 27 H       -1.3700     2.9240    -2.1700 H     1 <1>   0.1500 
 28 H       -1.5430     4.4500     1.8250 H     1 <1>   0.1500 
 29 H       -3.5610    -1.0500    -0.0140 H     1 <1>   0.0800 
 30 H       -4.3350    -0.3810    -1.4180 H     1 <1>   0.0800 
 31 H       -5.1270     1.3900     2.3810 H     1 <1>   0.0800 
 32 H       -4.0220     0.0490     2.3010 H     1 <1>   0.0800 
 33 H       -2.1480     5.0750    -3.0130 H     1 <1>   0.1500 
 34 H       -2.3190     6.6000     0.9580 H     1 <1>   0.1500 
 35 H       -2.6350     6.9190    -1.4590 H     1 <1>   0.1500 
 36 H       -5.2030     2.1460    -0.9860 H     1 <1>   0.0800 
 37 H       -6.1590     2.2990     0.4680 H     1 <1>   0.0800 
 38 H       -7.8650    -0.0450     0.8370 H     1 <1>   0.0800 
 39 H       -7.4470    -1.2020    -0.4260 H     1 <1>   0.0800 
 40 H       -6.6710     0.4760    -1.8560 H     1 <1>   0.0800 
 41 H       -7.8250     1.4670    -0.9820 H     1 <1>   0.0800 
@<TRIPOS>BOND
  1   1   2  ar  
  2   2   3  ar  
  3   2   4  1   
  4   4   5  1   
  5   4   6  1   
  6   4  21  1   
  7   5   7  1   
  8   5   8  1   
  9   5  22  1   
 10   6   9  ar  
 11   6  10  ar  
 12   7  11  1   
 13   7  23  1   
 14   7  24  1   
 15   8  12  1   
 16   8  25  1   
 17   8  26  1   
 18   9  13  ar  
 19   9  27  1   
 20  10  14  ar  
 21  10  28  1   
 22  11  15  1   
 23  11  29  1   
 24  11  30  1   
 25  12  15  1   
 26  12  31  1   
 27  12  32  1   
 28  13  16  ar  
 29  13  33  1   
 30  14  16  ar  
 31  14  34  1   
 32  15  17  1   
 33  15  18  1   
 34  16  35  1   
 35  17  19  1   
 36  18  20  1   
 37  18  36  1   
 38  18  37  1   
 39  19  20  1   
 40  19  38  1   
 41  19  39  1   
 42  20  40  1   
 43  20  41  1   
@<TRIPOS>SUBSTRUCTURE
  1 ****   5 GROUP 4 **** **** 0

# MOE 2024.06 (io_trps.svl 2023.06)
