@<TRIPOS>MOLECULE
NONAME
55 57 1 0 0 
SMALL
USER_CHARGES


@<TRIPOS>ATOM
  1 O       -6.7620    -2.4930     0.9530 O.co2 1 <1>  -0.9000 
  2 C       -7.2420    -1.5300     1.5710 C.2   1 <1>   0.9060 
  3 O       -8.4230    -1.5970     1.9290 O.co2 1 <1>  -0.9000 
  4 C       -6.4370    -0.2300     1.7320 C.3   1 <1>   0.0140 
  5 O       -6.6750     0.7920     0.7350 O.3   1 <1>  -0.3630 
  6 C       -6.6960     0.3690    -0.5550 C.ar  1 <1>   0.0830 
  7 C       -5.6350     0.5150    -1.4620 C.ar  1 <1>   0.0830 
  8 C       -7.8080    -0.3580    -0.9230 C.ar  1 <1>  -0.1500 
  9 O       -4.5280     1.2900    -1.2820 O.3   1 <1>  -0.3630 
 10 C       -5.6810    -0.1970    -2.6530 C.ar  1 <1>  -0.1500 
 11 C       -7.7900    -1.1590    -2.0450 C.ar  1 <1>  -0.1440 
 12 C       -4.4770     2.2700    -0.2700 C.3   1 <1>   0.0400 
 13 C       -6.7330    -1.0560    -2.9360 C.ar  1 <1>  -0.1500 
 14 C       -8.8820    -2.1990    -2.1280 C.3   1 <1>   0.4860 
 15 N       -8.6500    -3.1150    -0.9840 N.4   1 <1>  -0.9590 
 16 C       -9.8190    -3.4330    -0.1450 C.3   1 <1>   0.3430 
 17 C       -7.8960    -4.3510    -1.2550 C.3   1 <1>   0.3430 
 18 C       -9.3760    -4.6350     0.6780 C.3   1 <1>  -0.0800 
 19 C       -8.3840    -5.3830    -0.2340 C.3   1 <1>  -0.0800 
 20 C      -10.5460    -5.4820     1.2390 C.3   1 <1>   0.2800 
 21 C       -9.0250    -6.5980    -0.9250 C.3   1 <1>  -0.1600 
 22 O      -11.5960    -5.4720     0.3360 O.3   1 <1>  -0.6800 
 23 C      -10.0950    -6.9450     1.3970 C.3   1 <1>  -0.1600 
 24 C      -11.0910    -4.9500     2.5830 C.3   1 <1>  -0.1600 
 25 C       -9.6020    -7.6010     0.0890 C.3   1 <1>  -0.1600 
 26 C      -11.6390    -3.5130     2.5700 C.3   1 <1>  -0.2400 
 27 H       -5.3940    -0.4770     1.6970 H     1 <1>   0.0800 
 28 H       -6.6660     0.1940     2.6890 H     1 <1>   0.0800 
 29 H       -8.6550    -0.3680    -0.2580 H     1 <1>   0.1500 
 30 H       -4.8670    -0.0920    -3.3460 H     1 <1>   0.1500 
 31 H       -3.6210     2.8940    -0.4500 H     1 <1>   0.0800 
 32 H       -4.3780     1.7810     0.6820 H     1 <1>   0.0800 
 33 H       -5.3770     2.8580    -0.3060 H     1 <1>   0.0800 
 34 H       -6.7060    -1.6480    -3.8340 H     1 <1>   0.1500 
 35 H       -8.8410    -2.7330    -3.0610 H     1 <1>   0.0800 
 36 H       -9.8400    -1.7180    -2.0300 H     1 <1>   0.0800 
 37 H       -8.0120    -2.6180    -0.3040 H     1 <1>   0.4500 
 38 H      -10.0760    -2.6020     0.4920 H     1 <1>   0.0800 
 39 H      -10.6580    -3.6980    -0.7650 H     1 <1>   0.0800 
 40 H       -8.0840    -4.7000    -2.2550 H     1 <1>   0.0800 
 41 H       -6.8410    -4.1640    -1.1260 H     1 <1>   0.0800 
 42 H       -8.8080    -4.2540     1.5100 H     1 <1>   0.0800 
 43 H       -7.5430    -5.7180     0.3500 H     1 <1>   0.0800 
 44 H       -9.8250    -6.2540    -1.5600 H     1 <1>   0.0800 
 45 H       -8.3050    -7.0970    -1.5510 H     1 <1>   0.0800 
 46 H      -12.3210    -6.0190     0.6900 H     1 <1>   0.4000 
 47 H       -9.2800    -6.9570     2.1010 H     1 <1>   0.0800 
 48 H      -10.8820    -7.5390     1.8250 H     1 <1>   0.0800 
 49 H      -11.8660    -5.6090     2.9310 H     1 <1>   0.0800 
 50 H      -10.2990    -4.9920     3.3120 H     1 <1>   0.0800 
 51 H       -8.8540    -8.3350     0.3350 H     1 <1>   0.0800 
 52 H      -10.4200    -8.1220    -0.3780 H     1 <1>   0.0800 
 53 H      -12.3760    -3.3830     1.7980 H     1 <1>   0.0800 
 54 H      -10.8430    -2.8030     2.4250 H     1 <1>   0.0800 
 55 H      -12.0990    -3.2920     3.5170 H     1 <1>   0.0800 
@<TRIPOS>BOND
  1   1   2  ar  
  2   2   3  ar  
  3   2   4  1   
  4   4   5  1   
  5   4  27  1   
  6   4  28  1   
  7   5   6  1   
  8   6   7  ar  
  9   6   8  ar  
 10   7   9  1   
 11   7  10  ar  
 12   8  11  ar  
 13   8  29  1   
 14   9  12  1   
 15  10  13  ar  
 16  10  30  1   
 17  11  13  ar  
 18  11  14  1   
 19  12  31  1   
 20  12  32  1   
 21  12  33  1   
 22  13  34  1   
 23  14  15  1   
 24  14  35  1   
 25  14  36  1   
 26  15  16  1   
 27  15  17  1   
 28  15  37  1   
 29  16  18  1   
 30  16  38  1   
 31  16  39  1   
 32  17  19  1   
 33  17  40  1   
 34  17  41  1   
 35  18  19  1   
 36  18  20  1   
 37  18  42  1   
 38  19  21  1   
 39  19  43  1   
 40  20  22  1   
 41  20  23  1   
 42  20  24  1   
 43  21  25  1   
 44  21  44  1   
 45  21  45  1   
 46  22  46  1   
 47  23  25  1   
 48  23  47  1   
 49  23  48  1   
 50  24  26  1   
 51  24  49  1   
 52  24  50  1   
 53  25  51  1   
 54  25  52  1   
 55  26  53  1   
 56  26  54  1   
 57  26  55  1   
@<TRIPOS>SUBSTRUCTURE
  1 ****  15 GROUP 4 **** **** 0

# MOE 2024.06 (io_trps.svl 2023.06)
