@<TRIPOS>MOLECULE
NONAME
40 40 1 0 0 
SMALL
USER_CHARGES


@<TRIPOS>ATOM
  1 O       -0.8580    -1.9860     0.2520 O.co2 1 <1>  -0.9000 
  2 C       -1.2580    -0.8860    -0.1170 C.2   1 <1>   0.9060 
  3 O       -0.8790    -0.3230    -1.1540 O.co2 1 <1>  -0.9000 
  4 C       -2.2030    -0.0890     0.7920 C.3   1 <1>   0.2370 
  5 N       -2.2040     1.4030     0.4910 N.4   1 <1>  -0.9590 
  6 C       -0.8350     1.9720     0.6680 C.3   1 <1>   0.5240 
  7 C       -3.2760     2.1930     1.1460 C.3   1 <1>   0.3430 
  8 C       -0.6890     3.2370    -0.1620 C.2   1 <1>   0.0460 
  9 C       -4.6610     1.8470     0.5740 C.3   1 <1>  -0.0800 
 10 N       -1.2450     4.4170     0.1970 N.2   1 <1>  -0.5650 
 11 C       -0.0360     3.3890    -1.3220 C.2   1 <1>  -0.0100 
 12 C       -4.7230     2.0220    -0.9540 C.3   1 <1>  -0.2400 
 13 C       -5.7240     2.7380     1.2300 C.3   1 <1>  -0.2400 
 14 C       -0.8950     5.2070    -0.7590 C.2   1 <1>   0.2980 
 15 O       -0.1680     4.6320    -1.6900 O.3   1 <1>  -0.2800 
 16 C       -1.2280     6.6910    -0.9150 C.3   1 <1>   0.1000 
 17 C        0.0100     7.5530    -0.6310 C.3   1 <1>  -0.2400 
 18 C       -2.3890     7.1280    -0.0090 C.3   1 <1>  -0.2400 
 19 H       -1.9060    -0.2670     1.8090 H     1 <1>   0.0800 
 20 H       -3.1870    -0.4950     0.6490 H     1 <1>   0.0800 
 21 H       -2.3290     1.4430    -0.5350 H     1 <1>   0.4500 
 22 H       -0.0980     1.2630     0.3260 H     1 <1>   0.0800 
 23 H       -0.6460     2.1880     1.7050 H     1 <1>   0.0800 
 24 H       -3.1010     3.2440     0.9830 H     1 <1>   0.0800 
 25 H       -3.2630     2.0160     2.2090 H     1 <1>   0.0800 
 26 H       -4.8980     0.8260     0.8190 H     1 <1>   0.0800 
 27 H        0.5210     2.6990    -1.9350 H     1 <1>   0.1500 
 28 H       -4.4260     3.0180    -1.2360 H     1 <1>   0.0800 
 29 H       -5.7260     1.8550    -1.3080 H     1 <1>   0.0800 
 30 H       -4.0830     1.3160    -1.4540 H     1 <1>   0.0800 
 31 H       -5.5430     3.7760     1.0070 H     1 <1>   0.0800 
 32 H       -5.7190     2.6100     2.2990 H     1 <1>   0.0800 
 33 H       -6.7040     2.4800     0.8690 H     1 <1>   0.0800 
 34 H       -1.5250     6.8480    -1.9370 H     1 <1>   0.0800 
 35 H        0.3410     7.4090     0.3820 H     1 <1>   0.0800 
 36 H       -0.2150     8.5940    -0.7790 H     1 <1>   0.0800 
 37 H        0.8100     7.2790    -1.2960 H     1 <1>   0.0800 
 38 H       -2.1260     7.0000     1.0270 H     1 <1>   0.0800 
 39 H       -3.2610     6.5330    -0.2170 H     1 <1>   0.0800 
 40 H       -2.6310     8.1610    -0.1800 H     1 <1>   0.0800 
@<TRIPOS>BOND
  1   1   2  ar  
  2   2   3  ar  
  3   2   4  1   
  4   4   5  1   
  5   4  19  1   
  6   4  20  1   
  7   5   6  1   
  8   5   7  1   
  9   5  21  1   
 10   6   8  1   
 11   6  22  1   
 12   6  23  1   
 13   7   9  1   
 14   7  24  1   
 15   7  25  1   
 16   8  10  1   
 17   8  11  2   
 18   9  12  1   
 19   9  13  1   
 20   9  26  1   
 21  10  14  2   
 22  11  15  1   
 23  11  27  1   
 24  12  28  1   
 25  12  29  1   
 26  12  30  1   
 27  13  31  1   
 28  13  32  1   
 29  13  33  1   
 30  14  15  1   
 31  14  16  1   
 32  16  17  1   
 33  16  18  1   
 34  16  34  1   
 35  17  35  1   
 36  17  36  1   
 37  17  37  1   
 38  18  38  1   
 39  18  39  1   
 40  18  40  1   
@<TRIPOS>SUBSTRUCTURE
  1 ****   8 GROUP 4 **** **** 0

# MOE 2024.06 (io_trps.svl 2023.06)
