@<TRIPOS>MOLECULE
NONAME
51 53 1 0 0 
SMALL
USER_CHARGES


@<TRIPOS>ATOM
  1 F        3.0390    -0.0660    -2.2200 F     1 <1>  -0.1900 
  2 C        3.0190    -1.0220    -1.3300 C.ar  1 <1>   0.1900 
  3 C        2.7960    -2.3180    -1.7560 C.ar  1 <1>  -0.1500 
  4 C        3.2180    -0.6990    -0.0010 C.ar  1 <1>  -0.1500 
  5 C        2.7660    -3.3330    -0.8110 C.ar  1 <1>  -0.1440 
  6 C        3.1970    -1.7170     0.9370 C.ar  1 <1>  -0.1500 
  7 C        2.9750    -3.0300     0.5300 C.ar  1 <1>   0.0830 
  8 C        2.5010    -4.7740    -1.2000 C.3   1 <1>   0.4870 
  9 O        2.9610    -4.0530     1.4150 O.3   1 <1>  -0.3630 
 10 N        1.0790    -5.1040    -0.9650 N.4   1 <1>  -0.9590 
 11 C        2.2580    -3.8890     2.6310 C.3   1 <1>   0.0400 
 12 C        0.8080    -6.5850    -1.0250 C.3   1 <1>   0.3430 
 13 C        0.1010    -4.2970    -1.7380 C.3   1 <1>   0.3430 
 14 C       -0.6980    -6.9260    -1.1620 C.3   1 <1>   0.2000 
 15 C       -1.3210    -4.4850    -1.1800 C.3   1 <1>  -0.1600 
 16 O       -1.0190    -6.9870    -2.5210 O.3   1 <1>  -0.6800 
 17 C       -1.5570    -5.8520    -0.4610 C.3   1 <1>  -0.1060 
 18 C       -1.0150    -5.8480     0.9740 C.2   1 <1>   0.9060 
 19 C       -3.0620    -6.2270    -0.4520 C.3   1 <1>  -0.0170 
 20 O       -0.3060    -4.9080     1.3560 O.co2 1 <1>  -0.9000 
 21 O       -1.1040    -6.8850     1.6300 O.co2 1 <1>  -0.9000 
 22 C       -3.9570    -5.1210     0.0950 C.ar  1 <1>  -0.1430 
 23 C       -4.0320    -4.8950     1.4610 C.ar  1 <1>  -0.1500 
 24 C       -4.7080    -4.3310    -0.7630 C.ar  1 <1>  -0.1500 
 25 C       -4.8410    -3.8910     1.9620 C.ar  1 <1>  -0.1500 
 26 C       -5.5200    -3.3270    -0.2640 C.ar  1 <1>  -0.1500 
 27 C       -5.5860    -3.1050     1.1010 C.ar  1 <1>  -0.1500 
 28 H        2.6490    -2.5090    -2.8040 H     1 <1>   0.1500 
 29 H        3.3870     0.3230     0.2890 H     1 <1>   0.1500 
 30 H        3.3600    -1.4910     1.9750 H     1 <1>   0.1500 
 31 H        3.1220    -5.4150    -0.5950 H     1 <1>   0.0800 
 32 H        2.7500    -4.9310    -2.2350 H     1 <1>   0.0800 
 33 H        0.8690    -4.8440     0.0380 H     1 <1>   0.4500 
 34 H        2.0130    -4.8640     3.0130 H     1 <1>   0.0800 
 35 H        1.3460    -3.3460     2.4450 H     1 <1>   0.0800 
 36 H        2.8790    -3.3610     3.3300 H     1 <1>   0.0800 
 37 H        1.3370    -7.0360    -1.8460 H     1 <1>   0.0800 
 38 H        1.1650    -7.0270    -0.1080 H     1 <1>   0.0800 
 39 H        0.3590    -3.2520    -1.6960 H     1 <1>   0.0800 
 40 H        0.1210    -4.6170    -2.7670 H     1 <1>   0.0800 
 41 H       -0.8810    -7.9010    -0.7390 H     1 <1>   0.0800 
 42 H       -1.5420    -3.6800    -0.5000 H     1 <1>   0.0800 
 43 H       -2.0010    -4.3830    -2.0060 H     1 <1>   0.0800 
 44 H       -1.9410    -7.2970    -2.6280 H     1 <1>   0.4000 
 45 H       -3.3870    -6.4620    -1.4490 H     1 <1>   0.0800 
 46 H       -3.2090    -7.1140     0.1410 H     1 <1>   0.0800 
 47 H       -3.4570    -5.5010     2.1430 H     1 <1>   0.1500 
 48 H       -4.6670    -4.4930    -1.8250 H     1 <1>   0.1500 
 49 H       -4.8850    -3.7240     3.0240 H     1 <1>   0.1500 
 50 H       -6.0990    -2.7180    -0.9350 H     1 <1>   0.1500 
 51 H       -6.2130    -2.3240     1.4920 H     1 <1>   0.1500 
@<TRIPOS>BOND
  1   1   2  1   
  2   2   3  ar  
  3   2   4  ar  
  4   3   5  ar  
  5   3  28  1   
  6   4   6  ar  
  7   4  29  1   
  8   5   7  ar  
  9   5   8  1   
 10   6   7  ar  
 11   6  30  1   
 12   7   9  1   
 13   8  10  1   
 14   8  31  1   
 15   8  32  1   
 16   9  11  1   
 17  10  12  1   
 18  10  13  1   
 19  10  33  1   
 20  11  34  1   
 21  11  35  1   
 22  11  36  1   
 23  12  14  1   
 24  12  37  1   
 25  12  38  1   
 26  13  15  1   
 27  13  39  1   
 28  13  40  1   
 29  14  16  1   
 30  14  17  1   
 31  14  41  1   
 32  15  17  1   
 33  15  42  1   
 34  15  43  1   
 35  16  44  1   
 36  17  18  1   
 37  17  19  1   
 38  18  20  ar  
 39  18  21  ar  
 40  19  22  1   
 41  19  45  1   
 42  19  46  1   
 43  22  23  ar  
 44  22  24  ar  
 45  23  25  ar  
 46  23  47  1   
 47  24  26  ar  
 48  24  48  1   
 49  25  27  ar  
 50  25  49  1   
 51  26  27  ar  
 52  26  50  1   
 53  27  51  1   
@<TRIPOS>SUBSTRUCTURE
  1 ****  15 GROUP 4 **** **** 0

# MOE 2024.06 (io_trps.svl 2023.06)
