@<TRIPOS>MOLECULE
NONAME
51 52 1 0 0 
SMALL
USER_CHARGES


@<TRIPOS>ATOM
  1 O        0.5750    -0.7030     0.3180 O.co2 1 <1>  -0.9000 
  2 C        1.1610     0.0630     1.0910 C.2   1 <1>   0.9060 
  3 O        0.6600     0.4470     2.1550 O.co2 1 <1>  -0.9000 
  4 C        2.5680     0.5120     0.7460 C.3   1 <1>  -0.1220 
  5 C        2.6580     1.9330     0.1870 C.ar  1 <1>  -0.1440 
  6 C        3.2710     2.1780    -1.0300 C.ar  1 <1>  -0.1500 
  7 C        2.1190     2.9890     0.8990 C.ar  1 <1>  -0.1500 
  8 C        3.3550     3.4670    -1.5250 C.ar  1 <1>  -0.1500 
  9 C        2.1960     4.2800     0.4100 C.ar  1 <1>  -0.1500 
 10 C        2.8270     4.5270    -0.8010 C.ar  1 <1>  -0.1440 
 11 C        2.9440     5.9410    -1.3170 C.3   1 <1>   0.4870 
 12 N        3.9650     6.6430    -0.4730 N.4   1 <1>  -0.9590 
 13 C        3.9070     8.1370    -0.6670 C.3   1 <1>   0.3430 
 14 C        5.3210     6.0370    -0.7220 C.3   1 <1>   0.2630 
 15 C        4.7840     8.9460     0.3340 C.3   1 <1>   0.3430 
 16 N        4.7710    10.4450     0.1290 N.4   1 <1>  -0.9590 
 17 C        5.7680    11.1600     0.9970 C.3   1 <1>   0.4230 
 18 C        3.4010    11.0280     0.3360 C.3   1 <1>   0.3430 
 19 C        5.7930    12.6500     0.6270 C.3   1 <1>  -0.1600 
 20 C        7.1700    10.5760     0.8150 C.3   1 <1>  -0.2400 
 21 C        3.3850    12.5020    -0.0630 C.3   1 <1>  -0.1600 
 22 C        4.4120    13.3030     0.7390 C.3   1 <1>  -0.1600 
 23 H        2.9640    -0.1930     0.0420 H     1 <1>   0.0800 
 24 H        3.1510     0.4470     1.6420 H     1 <1>   0.0800 
 25 H        3.6750     1.3550    -1.5950 H     1 <1>   0.1500 
 26 H        1.6240     2.7900     1.8380 H     1 <1>   0.1500 
 27 H        3.8310     3.6190    -2.4780 H     1 <1>   0.1500 
 28 H        1.7460     5.0650     0.9910 H     1 <1>   0.1500 
 29 H        1.9830     6.4230    -1.2330 H     1 <1>   0.0800 
 30 H        3.2400     5.9350    -2.3540 H     1 <1>   0.0800 
 31 H        3.6920     6.3730     0.4870 H     1 <1>   0.4500 
 32 H        2.8840     8.4580    -0.5590 H     1 <1>   0.0800 
 33 H        4.2260     8.3690    -1.6710 H     1 <1>   0.0800 
 34 H        5.6240     6.1900    -1.7450 H     1 <1>   0.0800 
 35 H        5.2930     4.9730    -0.5330 H     1 <1>   0.0800 
 36 H        6.0610     6.4690    -0.0690 H     1 <1>   0.0800 
 37 H        5.7960     8.5920     0.2330 H     1 <1>   0.0800 
 38 H        4.4570     8.7310     1.3380 H     1 <1>   0.0800 
 39 H        5.0590    10.6840    -0.8310 H     1 <1>   0.4500 
 40 H        5.4790    11.0690     2.0330 H     1 <1>   0.0800 
 41 H        3.1180    10.9400     1.3740 H     1 <1>   0.0800 
 42 H        2.6720    10.5030    -0.2600 H     1 <1>   0.0800 
 43 H        6.1700    12.7740    -0.3740 H     1 <1>   0.0800 
 44 H        6.4690    13.1690     1.2860 H     1 <1>   0.0800 
 45 H        7.4520    10.5490    -0.2230 H     1 <1>   0.0800 
 46 H        7.2530     9.5960     1.2480 H     1 <1>   0.0800 
 47 H        7.8840    11.1950     1.3310 H     1 <1>   0.0800 
 48 H        2.4030    12.9070     0.1190 H     1 <1>   0.0800 
 49 H        3.5800    12.5990    -1.1170 H     1 <1>   0.0800 
 50 H        4.4540    14.3170     0.3740 H     1 <1>   0.0800 
 51 H        4.1140    13.3440     1.7740 H     1 <1>   0.0800 
@<TRIPOS>BOND
  1   1   2  ar  
  2   2   3  ar  
  3   2   4  1   
  4   4   5  1   
  5   4  23  1   
  6   4  24  1   
  7   5   6  ar  
  8   5   7  ar  
  9   6   8  ar  
 10   6  25  1   
 11   7   9  ar  
 12   7  26  1   
 13   8  10  ar  
 14   8  27  1   
 15   9  10  ar  
 16   9  28  1   
 17  10  11  1   
 18  11  12  1   
 19  11  29  1   
 20  11  30  1   
 21  12  13  1   
 22  12  14  1   
 23  12  31  1   
 24  13  15  1   
 25  13  32  1   
 26  13  33  1   
 27  14  34  1   
 28  14  35  1   
 29  14  36  1   
 30  15  16  1   
 31  15  37  1   
 32  15  38  1   
 33  16  17  1   
 34  16  18  1   
 35  16  39  1   
 36  17  19  1   
 37  17  20  1   
 38  17  40  1   
 39  18  21  1   
 40  18  41  1   
 41  18  42  1   
 42  19  22  1   
 43  19  43  1   
 44  19  44  1   
 45  20  45  1   
 46  20  46  1   
 47  20  47  1   
 48  21  22  1   
 49  21  48  1   
 50  21  49  1   
 51  22  50  1   
 52  22  51  1   
@<TRIPOS>SUBSTRUCTURE
  1 ****  12 GROUP 4 **** **** 0

# MOE 2024.06 (io_trps.svl 2023.06)
