@<TRIPOS>MOLECULE
NONAME
43 46 1 0 0 
SMALL
USER_CHARGES


@<TRIPOS>ATOM
  1 S       -0.5560    -0.0810     0.8830 S.3   1 <1>  -0.0800 
  2 C        0.4460     1.3080     0.5210 C.ar  1 <1>   0.0400 
  3 C        0.7630    -1.1400     0.3910 C.2   1 <1>   0.1980 
  4 C        1.6670     0.8460     0.0670 C.ar  1 <1>   0.2270 
  5 C        0.1360     2.6500     0.6440 C.ar  1 <1>  -0.1500 
  6 N        1.8130    -0.5390     0.0050 N.2   1 <1>  -0.5650 
  7 C        0.5190    -2.6310     0.4700 C.3   1 <1>   0.0200 
  8 C        2.6330     1.7790    -0.2830 C.ar  1 <1>  -0.1500 
  9 C        1.1110     3.5670     0.2890 C.ar  1 <1>  -0.1500 
 10 C       -0.3390    -3.0900    -0.7070 C.3   1 <1>   0.1400 
 11 C        2.3520     3.1320    -0.1720 C.ar  1 <1>  -0.1500 
 12 N       -0.5210    -4.5580    -0.6590 N.am  1 <1>  -0.7300 
 13 C       -1.5300    -5.2290    -0.0270 C.2   1 <1>   0.7160 
 14 O       -2.3640    -4.5850     0.5860 O.2   1 <1>  -0.5700 
 15 C       -1.5660    -6.6830    -0.0930 C.2   1 <1>   0.2030 
 16 N       -0.6760    -7.4400    -0.7140 N.2   1 <1>  -0.7070 
 17 C       -2.5410    -7.4840     0.4910 C.2   1 <1>  -0.1500 
 18 N       -1.0850    -8.6990    -0.5240 N.pl3 1 <1>   0.3140 
 19 C       -2.2190    -8.7740     0.2120 C.2   1 <1>  -0.2370 
 20 C       -0.3070    -9.8170    -1.0750 C.3   1 <1>   0.0960 
 21 C       -2.9250    -9.9650     0.5830 C.2   1 <1>   0.7150 
 22 C        0.0500   -10.7880     0.0470 C.3   1 <1>   0.2000 
 23 O       -4.0560    -9.8870     1.0100 O.2   1 <1>  -0.5700 
 24 N       -2.4360   -11.2290     0.4950 N.am  1 <1>  -0.7300 
 25 O        1.1800   -11.5030    -0.3310 O.3   1 <1>  -0.6800 
 26 C       -1.0650   -11.7960     0.3640 C.3   1 <1>   0.1400 
 27 H       -0.8290     2.9600     1.0020 H     1 <1>   0.1500 
 28 H        0.0260    -2.8630     1.3970 H     1 <1>   0.0800 
 29 H        1.4670    -3.1360     0.4430 H     1 <1>   0.0800 
 30 H        3.5870     1.4330    -0.6370 H     1 <1>   0.1500 
 31 H        0.9120     4.6220     0.3690 H     1 <1>   0.1500 
 32 H        0.1350    -2.8200    -1.6350 H     1 <1>   0.0800 
 33 H       -1.3010    -2.6070    -0.6650 H     1 <1>   0.0800 
 34 H        3.1010     3.8560    -0.4440 H     1 <1>   0.1500 
 35 H        0.1650    -5.1480    -1.1400 H     1 <1>   0.3700 
 36 H       -3.3860    -7.1240     1.0540 H     1 <1>   0.1500 
 37 H        0.5910    -9.4100    -1.5050 H     1 <1>   0.0800 
 38 H       -0.8860   -10.2980    -1.8410 H     1 <1>   0.0800 
 39 H        0.3190   -10.2410     0.9360 H     1 <1>   0.0800 
 40 H       -3.1400   -11.9130     0.7840 H     1 <1>   0.3700 
 41 H        1.0400   -11.9960    -1.1630 H     1 <1>   0.4000 
 42 H       -0.8160   -12.2970     1.2840 H     1 <1>   0.0800 
 43 H       -1.0970   -12.5350    -0.4180 H     1 <1>   0.0800 
@<TRIPOS>BOND
  1   1   2  1   
  2   1   3  1   
  3   2   4  ar  
  4   2   5  ar  
  5   3   6  2   
  6   3   7  1   
  7   4   6  1   
  8   4   8  ar  
  9   5   9  ar  
 10   5  27  1   
 11   7  10  1   
 12   7  28  1   
 13   7  29  1   
 14   8  11  ar  
 15   8  30  1   
 16   9  11  ar  
 17   9  31  1   
 18  10  12  1   
 19  10  32  1   
 20  10  33  1   
 21  11  34  1   
 22  12  13  am  
 23  12  35  1   
 24  13  14  2   
 25  13  15  1   
 26  15  16  2   
 27  15  17  1   
 28  16  18  1   
 29  17  19  2   
 30  17  36  1   
 31  18  19  1   
 32  18  20  1   
 33  19  21  1   
 34  20  22  1   
 35  20  37  1   
 36  20  38  1   
 37  21  23  2   
 38  21  24  am  
 39  22  25  1   
 40  22  26  1   
 41  22  39  1   
 42  24  26  1   
 43  24  40  1   
 44  25  41  1   
 45  26  42  1   
 46  26  43  1   
@<TRIPOS>SUBSTRUCTURE
  1 ****  12 GROUP 4 **** **** 0

# MOE 2024.06 (io_trps.svl 2023.06)
