@<TRIPOS>MOLECULE
NONAME
41 42 1 0 0 
SMALL
USER_CHARGES


@<TRIPOS>ATOM
  1 O        0.2190     1.3630    -1.3390 O.3   1 <1>  -0.6800 
  2 C        0.1520     2.4460    -0.4760 C.3   1 <1>   0.2640 
  3 C        1.5590     2.9230    -0.1470 C.ar  1 <1>  -0.1430 
  4 C        2.4480     3.2440    -1.1620 C.ar  1 <1>  -0.1500 
  5 C        1.9650     3.0560     1.1720 C.ar  1 <1>  -0.1500 
  6 C        3.7220     3.6940    -0.8640 C.ar  1 <1>  -0.1500 
  7 C        3.2390     3.5070     1.4710 C.ar  1 <1>  -0.1500 
  8 C        4.1260     3.8280     0.4550 C.ar  1 <1>  -0.1430 
  9 C        5.5190     4.3360     0.7760 C.3   1 <1>   0.3530 
 10 N        5.4560     5.8060     0.7650 N.pl3 1 <1>  -0.8690 
 11 C        6.4910     6.6010     0.3480 C.ar  1 <1>   0.4100 
 12 N        7.6970     6.0750     0.3810 N.ar  1 <1>  -0.6200 
 13 C        6.2730     7.9040    -0.0840 C.ar  1 <1>  -0.1430 
 14 C        8.6780     6.8570    -0.0150 C.ar  1 <1>   0.4770 
 15 C        7.3860     8.6100    -0.4740 C.ar  1 <1>   0.1600 
 16 C        4.8520     8.4780    -0.1090 C.3   1 <1>  -0.0170 
 17 N        8.6010     8.1010    -0.4480 N.ar  1 <1>  -0.6200 
 18 C       10.0640     6.2610     0.0220 C.3   1 <1>  -0.0970 
 19 C        4.7330     9.9240    -0.6140 C.3   1 <1>  -0.1600 
 20 C        3.2750    10.3970    -0.6050 C.3   1 <1>  -0.2400 
 21 H       -0.6740     1.0200    -1.5280 H     1 <1>   0.4000 
 22 H       -0.3650     2.1330     0.4150 H     1 <1>   0.0800 
 23 H       -0.4040     3.2300    -0.9580 H     1 <1>   0.0800 
 24 H        2.1460     3.1360    -2.1890 H     1 <1>   0.1500 
 25 H        1.2920     2.8090     1.9740 H     1 <1>   0.1500 
 26 H        4.3990     3.9420    -1.6630 H     1 <1>   0.1500 
 27 H        3.5380     3.6100     2.5000 H     1 <1>   0.1500 
 28 H        6.2210     3.9830     0.0390 H     1 <1>   0.0800 
 29 H        5.8380     3.9970     1.7460 H     1 <1>   0.0800 
 30 H        4.5070     6.1360     0.5930 H     1 <1>   0.4000 
 31 H        7.3050     9.6240    -0.8220 H     1 <1>   0.1500 
 32 H        4.4530     8.4300     0.8900 H     1 <1>   0.0800 
 33 H        4.2450     7.8470    -0.7350 H     1 <1>   0.0800 
 34 H       10.0780     5.3830     0.6400 H     1 <1>   0.0800 
 35 H       10.7570     6.9790     0.4200 H     1 <1>   0.0800 
 36 H       10.3630     5.9970    -0.9740 H     1 <1>   0.0800 
 37 H        5.1130     9.9880    -1.6200 H     1 <1>   0.0800 
 38 H        5.3150    10.5760     0.0150 H     1 <1>   0.0800 
 39 H        2.6710     9.7730    -1.2400 H     1 <1>   0.0800 
 40 H        3.2150    11.4090    -0.9650 H     1 <1>   0.0800 
 41 H        2.8750    10.3670     0.3940 H     1 <1>   0.0800 
@<TRIPOS>BOND
  1   1   2  1   
  2   1  21  1   
  3   2   3  1   
  4   2  22  1   
  5   2  23  1   
  6   3   4  ar  
  7   3   5  ar  
  8   4   6  ar  
  9   4  24  1   
 10   5   7  ar  
 11   5  25  1   
 12   6   8  ar  
 13   6  26  1   
 14   7   8  ar  
 15   7  27  1   
 16   8   9  1   
 17   9  10  1   
 18   9  28  1   
 19   9  29  1   
 20  10  11  1   
 21  10  30  1   
 22  11  12  ar  
 23  11  13  ar  
 24  12  14  ar  
 25  13  15  ar  
 26  13  16  1   
 27  14  17  ar  
 28  14  18  1   
 29  15  17  ar  
 30  15  31  1   
 31  16  19  1   
 32  16  32  1   
 33  16  33  1   
 34  18  34  1   
 35  18  35  1   
 36  18  36  1   
 37  19  20  1   
 38  19  37  1   
 39  19  38  1   
 40  20  39  1   
 41  20  40  1   
 42  20  41  1   
@<TRIPOS>SUBSTRUCTURE
  1 ****  10 GROUP 4 **** **** 0

# MOE 2024.06 (io_trps.svl 2023.06)
