@<TRIPOS>MOLECULE
NONAME
49 53 1 0 0 
SMALL
USER_CHARGES


@<TRIPOS>ATOM
  1 O        0.5100    -0.4710     0.6630 O.3   1 <1>  -0.6800 
  2 C       -0.1320    -1.7060     0.6700 C.3   1 <1>   0.4240 
  3 C        0.9640    -2.2420    -0.3050 C.ar  1 <1>  -0.1440 
  4 C       -1.4880    -0.9490     0.1810 C.3   1 <1>  -0.0800 
  5 C       -0.7970    -3.1190     0.8070 C.3   1 <1>  -0.1600 
  6 C        0.8770    -2.3260    -1.6940 C.ar  1 <1>  -0.1500 
  7 C        2.1560    -2.6730     0.2780 C.ar  1 <1>  -0.1500 
  8 C       -2.9100    -1.5990     0.3070 C.3   1 <1>   0.2890 
  9 C       -1.4610    -0.1800    -1.1800 C.3   1 <1>  -0.1600 
 10 C       -1.6820    -3.6710    -0.3130 C.3   1 <1>   0.2090 
 11 C        1.9190    -2.8260    -2.4570 C.ar  1 <1>  -0.1500 
 12 C        3.2020    -3.1740    -0.4760 C.ar  1 <1>  -0.1500 
 13 N       -2.9650    -2.9550    -0.2940 N.pl3 1 <1>  -0.8380 
 14 C       -4.0420    -0.7560    -0.3320 C.3   1 <1>  -0.1600 
 15 C       -2.4430     1.0080    -1.1910 C.3   1 <1>  -0.1600 
 16 C        3.0840    -3.2540    -1.8500 C.ar  1 <1>  -0.1500 
 17 C       -4.1040    -3.7170    -0.1570 C.ar  1 <1>   0.4100 
 18 C       -3.7250     0.7430    -0.3840 C.3   1 <1>  -0.1600 
 19 N       -4.7580    -3.6850     0.9820 N.ar  1 <1>  -0.6200 
 20 C       -4.5490    -4.5270    -1.2080 C.ar  1 <1>   0.0000 
 21 C       -5.8480    -4.4640     1.0650 C.ar  1 <1>   0.4700 
 22 C       -5.6690    -5.2730    -0.9950 C.ar  1 <1>   0.1050 
 23 C       -4.1740    -4.8300    -2.5250 C.2   1 <1>   0.1390 
 24 N       -6.3540    -5.2620     0.1570 N.ar  1 <1>  -0.5670 
 25 N       -5.8970    -5.9610    -2.1390 N.pl3 1 <1>   0.3000 
 26 N       -4.9650    -5.6860    -3.0910 N.2   1 <1>  -0.7070 
 27 H        0.1100     0.1130     1.3270 H     1 <1>   0.4000 
 28 H       -1.6200    -0.1740     0.9200 H     1 <1>   0.0800 
 29 H       -0.0500    -3.8730     0.9860 H     1 <1>   0.0800 
 30 H       -1.3720    -3.1420     1.7150 H     1 <1>   0.0800 
 31 H        0.0010    -2.0120    -2.2170 H     1 <1>   0.1500 
 32 H        2.2740    -2.6080     1.3460 H     1 <1>   0.1500 
 33 H       -3.1280    -1.6890     1.3580 H     1 <1>   0.0800 
 34 H       -0.4850     0.1900    -1.4390 H     1 <1>   0.0800 
 35 H       -1.7620    -0.8570    -1.9600 H     1 <1>   0.0800 
 36 H       -1.8570    -4.7190    -0.1320 H     1 <1>   0.0800 
 37 H       -1.2320    -3.5820    -1.2820 H     1 <1>   0.0800 
 38 H        1.8230    -2.8800    -3.5270 H     1 <1>   0.1500 
 39 H        4.1080    -3.4970     0.0060 H     1 <1>   0.1500 
 40 H       -4.2130    -1.0920    -1.3400 H     1 <1>   0.0800 
 41 H       -4.9490    -0.9130     0.2230 H     1 <1>   0.0800 
 42 H       -1.9560     1.8810    -0.7920 H     1 <1>   0.0800 
 43 H       -2.7020     1.2240    -2.2130 H     1 <1>   0.0800 
 44 H        3.8950    -3.6410    -2.4420 H     1 <1>   0.1500 
 45 H       -4.5480     1.2780    -0.8250 H     1 <1>   0.0800 
 46 H       -3.6020     1.1100     0.6210 H     1 <1>   0.0800 
 47 H       -6.3670    -4.4200     2.0080 H     1 <1>   0.1500 
 48 H       -3.3170    -4.3870    -3.0050 H     1 <1>   0.1500 
 49 H       -6.6790    -6.6090    -2.2800 H     1 <1>   0.2700 
@<TRIPOS>BOND
  1   1   2  1   
  2   1  27  1   
  3   2   3  1   
  4   2   4  1   
  5   2   5  1   
  6   3   6  ar  
  7   3   7  ar  
  8   4   8  1   
  9   4   9  1   
 10   4  28  1   
 11   5  10  1   
 12   5  29  1   
 13   5  30  1   
 14   6  11  ar  
 15   6  31  1   
 16   7  12  ar  
 17   7  32  1   
 18   8  13  1   
 19   8  14  1   
 20   8  33  1   
 21   9  15  1   
 22   9  34  1   
 23   9  35  1   
 24  10  13  1   
 25  10  36  1   
 26  10  37  1   
 27  11  16  ar  
 28  11  38  1   
 29  12  16  ar  
 30  12  39  1   
 31  13  17  1   
 32  14  18  1   
 33  14  40  1   
 34  14  41  1   
 35  15  18  1   
 36  15  42  1   
 37  15  43  1   
 38  16  44  1   
 39  17  19  ar  
 40  17  20  ar  
 41  18  45  1   
 42  18  46  1   
 43  19  21  ar  
 44  20  22  ar  
 45  20  23  1   
 46  21  24  ar  
 47  21  47  1   
 48  22  24  ar  
 49  22  25  1   
 50  23  26  2   
 51  23  48  1   
 52  25  26  1   
 53  25  49  1   
@<TRIPOS>SUBSTRUCTURE
  1 ****  13 GROUP 4 **** **** 0

# MOE 2024.06 (io_trps.svl 2023.06)
