@<TRIPOS>MOLECULE
NONAME
39 41 1 0 0 
SMALL
USER_CHARGES


@<TRIPOS>ATOM
  1 O       -2.2810     0.7160    -1.8380 O.2   1 <1>  -0.5700 
  2 C       -1.9620     0.8530    -0.6690 C.2   1 <1>   0.7160 
  3 N       -1.8300    -0.2630     0.1040 N.am  1 <1>  -0.7300 
  4 C       -1.7430     2.1630    -0.0770 C.2   1 <1>   0.1410 
  5 C       -2.1280    -1.6470    -0.3150 C.3   1 <1>   0.2200 
  6 N       -1.4500     2.3470     1.2470 N.2   1 <1>  -0.5650 
  7 C       -1.7860     3.3830    -0.6850 C.2   1 <1>  -0.3020 
  8 C       -3.5320    -2.0310     0.1360 C.3   1 <1>  -0.0800 
  9 C       -1.2200    -2.6650     0.3790 C.3   1 <1>   0.1200 
 10 C       -1.3310     3.6260     1.3810 C.2   1 <1>   0.0360 
 11 N       -1.5240     4.3160     0.2360 N.pl3 1 <1>   0.0480 
 12 C       -3.3300    -3.3890     0.8010 C.3   1 <1>   0.1200 
 13 C       -4.5460    -2.0450    -1.0180 C.3   1 <1>  -0.0160 
 14 O       -2.0250    -3.3650     1.2760 O.3   1 <1>  -0.5600 
 15 C       -1.4630     5.7740     0.0440 C.3   1 <1>   0.0160 
 16 C       -5.9230    -2.4670    -0.5310 C.ar  1 <1>  -0.1430 
 17 C       -6.4310    -3.7300    -0.7570 C.ar  1 <1>  -0.1500 
 18 C       -6.7360    -1.6000     0.1700 C.ar  1 <1>  -0.1500 
 19 C       -7.6900    -4.0560    -0.2810 C.ar  1 <1>   0.1600 
 20 C       -7.9810    -2.0260     0.6020 C.ar  1 <1>   0.1600 
 21 N       -8.4770    -3.2350     0.3950 N.ar  1 <1>  -0.6200 
 22 H       -1.6440    -0.1000     1.0980 H     1 <1>   0.3700 
 23 H       -2.0100    -1.7380    -1.3820 H     1 <1>   0.0800 
 24 H       -1.9910     3.5980    -1.7180 H     1 <1>   0.1500 
 25 H       -3.8730    -1.3510     0.8970 H     1 <1>   0.0800 
 26 H       -0.4120    -2.2030     0.9180 H     1 <1>   0.0800 
 27 H       -0.8330    -3.3720    -0.3330 H     1 <1>   0.0800 
 28 H       -1.1000     4.1190     2.3090 H     1 <1>   0.1500 
 29 H       -3.4110    -4.1950     0.0930 H     1 <1>   0.0800 
 30 H       -4.0060    -3.5490     1.6230 H     1 <1>   0.0800 
 31 H       -4.2130    -2.7110    -1.7940 H     1 <1>   0.0800 
 32 H       -4.6090    -1.0580    -1.4450 H     1 <1>   0.0800 
 33 H       -1.4720     5.9990    -1.0070 H     1 <1>   0.0800 
 34 H       -0.5580     6.1550     0.4830 H     1 <1>   0.0800 
 35 H       -2.3130     6.2310     0.5170 H     1 <1>   0.0800 
 36 H       -5.8620    -4.4640    -1.2980 H     1 <1>   0.1500 
 37 H       -6.4130    -0.5970     0.3830 H     1 <1>   0.1500 
 38 H       -8.0710    -5.0460    -0.4670 H     1 <1>   0.1500 
 39 H       -8.6000    -1.3350     1.1480 H     1 <1>   0.1500 
@<TRIPOS>BOND
  1   1   2  2   
  2   2   3  am  
  3   2   4  1   
  4   3   5  1   
  5   3  22  1   
  6   4   6  1   
  7   4   7  2   
  8   5   8  1   
  9   5   9  1   
 10   5  23  1   
 11   6  10  2   
 12   7  11  1   
 13   7  24  1   
 14   8  12  1   
 15   8  13  1   
 16   8  25  1   
 17   9  14  1   
 18   9  26  1   
 19   9  27  1   
 20  10  11  1   
 21  10  28  1   
 22  11  15  1   
 23  12  14  1   
 24  12  29  1   
 25  12  30  1   
 26  13  16  1   
 27  13  31  1   
 28  13  32  1   
 29  15  33  1   
 30  15  34  1   
 31  15  35  1   
 32  16  17  ar  
 33  16  18  ar  
 34  17  19  ar  
 35  17  36  1   
 36  18  20  ar  
 37  18  37  1   
 38  19  21  ar  
 39  19  38  1   
 40  20  21  ar  
 41  20  39  1   
@<TRIPOS>SUBSTRUCTURE
  1 ****   8 GROUP 4 **** **** 0

# MOE 2024.06 (io_trps.svl 2023.06)
