@<TRIPOS>MOLECULE
NONAME
44 46 1 0 0 
SMALL
USER_CHARGES


@<TRIPOS>ATOM
  1 O       -0.3160    -0.5210     0.9630 O.3   1 <1>  -0.3630 
  2 C       -0.3940    -1.8600     0.9500 C.ar  1 <1>   0.7020 
  3 C        0.6170     0.1890     0.1720 C.3   1 <1>   0.0400 
  4 N        0.4150    -2.5340     0.1320 N.ar  1 <1>  -0.6200 
  5 N       -1.2990    -2.3710     1.7730 N.ar  1 <1>  -0.6200 
  6 C        0.2880    -3.8380     0.1510 C.ar  1 <1>   0.1600 
  7 C       -1.3980    -3.6760     1.7750 C.ar  1 <1>   0.1600 
  8 C       -0.6320    -4.4720     0.9540 C.ar  1 <1>  -0.1430 
  9 C       -0.8190    -5.9730     0.9350 C.3   1 <1>   0.4870 
 10 N       -1.6180    -6.4160    -0.2550 N.4   1 <1>  -0.9590 
 11 C       -2.9380    -5.7030    -0.3120 C.3   1 <1>   0.4230 
 12 C       -1.7200    -7.9110    -0.2480 C.3   1 <1>   0.2630 
 13 C       -4.1320    -6.5200    -0.7900 C.3   1 <1>  -0.1600 
 14 C       -2.8970    -4.5510    -1.3150 C.3   1 <1>  -0.1600 
 15 C       -5.1720    -5.4610    -1.1720 C.3   1 <1>  -0.0800 
 16 C       -4.3650    -4.2430    -1.6530 C.3   1 <1>  -0.0800 
 17 C       -6.0150    -4.9760     0.0270 C.3   1 <1>  -0.1600 
 18 C       -4.9220    -3.0340    -0.8840 C.3   1 <1>  -0.1600 
 19 C       -5.5160    -3.5840     0.4040 C.3   1 <1>   0.2000 
 20 O       -4.5040    -3.7070     1.3400 O.3   1 <1>  -0.6800 
 21 H        0.4910     1.2390     0.3640 H     1 <1>   0.0800 
 22 H        0.4280    -0.0220    -0.8660 H     1 <1>   0.0800 
 23 H        1.6110    -0.1200     0.4450 H     1 <1>   0.0800 
 24 H        0.9350    -4.4010    -0.5010 H     1 <1>   0.1500 
 25 H       -2.1230    -4.1110     2.4450 H     1 <1>   0.1500 
 26 H       -1.3230    -6.2760     1.8390 H     1 <1>   0.0800 
 27 H        0.1490    -6.4480     0.9210 H     1 <1>   0.0800 
 28 H       -1.1130    -6.1270    -1.1020 H     1 <1>   0.4500 
 29 H       -3.1820    -5.3200     0.6630 H     1 <1>   0.0800 
 30 H       -2.3030    -8.2430     0.5960 H     1 <1>   0.0800 
 31 H       -0.7390    -8.3560    -0.1890 H     1 <1>   0.0800 
 32 H       -2.1940    -8.2600    -1.1510 H     1 <1>   0.0800 
 33 H       -3.8830    -7.0720    -1.6800 H     1 <1>   0.0800 
 34 H       -4.5050    -7.1860    -0.0320 H     1 <1>   0.0800 
 35 H       -2.4000    -3.6820    -0.9240 H     1 <1>   0.0800 
 36 H       -2.4030    -4.8640    -2.2170 H     1 <1>   0.0800 
 37 H       -5.8240    -5.8320    -1.9460 H     1 <1>   0.0800 
 38 H       -4.4740    -4.0890    -2.7140 H     1 <1>   0.0800 
 39 H       -6.0050    -5.6460     0.8690 H     1 <1>   0.0800 
 40 H       -7.0350    -4.8790    -0.3020 H     1 <1>   0.0800 
 41 H       -5.7250    -2.6120    -1.4620 H     1 <1>   0.0800 
 42 H       -4.1970    -2.2570    -0.7110 H     1 <1>   0.0800 
 43 H       -6.2920    -2.9590     0.8160 H     1 <1>   0.0800 
 44 H       -4.1910    -2.8120     1.5970 H     1 <1>   0.4000 
@<TRIPOS>BOND
  1   1   2  1   
  2   1   3  1   
  3   2   4  ar  
  4   2   5  ar  
  5   3  21  1   
  6   3  22  1   
  7   3  23  1   
  8   4   6  ar  
  9   5   7  ar  
 10   6   8  ar  
 11   6  24  1   
 12   7   8  ar  
 13   7  25  1   
 14   8   9  1   
 15   9  10  1   
 16   9  26  1   
 17   9  27  1   
 18  10  11  1   
 19  10  12  1   
 20  10  28  1   
 21  11  13  1   
 22  11  14  1   
 23  11  29  1   
 24  12  30  1   
 25  12  31  1   
 26  12  32  1   
 27  13  15  1   
 28  13  33  1   
 29  13  34  1   
 30  14  16  1   
 31  14  35  1   
 32  14  36  1   
 33  15  16  1   
 34  15  17  1   
 35  15  37  1   
 36  16  18  1   
 37  16  38  1   
 38  17  19  1   
 39  17  39  1   
 40  17  40  1   
 41  18  19  1   
 42  18  41  1   
 43  18  42  1   
 44  19  20  1   
 45  19  43  1   
 46  20  44  1   
@<TRIPOS>SUBSTRUCTURE
  1 ****  14 GROUP 4 **** **** 0

# MOE 2024.06 (io_trps.svl 2023.06)
