@<TRIPOS>MOLECULE
NONAME
54 56 1 0 0 
SMALL
USER_CHARGES


@<TRIPOS>ATOM
  1 S        0.2670     0.2040    -0.5750 S.3   1 <1>  -0.4600 
  2 C        0.2620    -1.3740     0.3160 C.3   1 <1>   0.1500 
  3 C        1.8540     0.9490    -0.1220 C.3   1 <1>   0.0700 
  4 C        1.1870    -2.3530    -0.4160 C.3   1 <1>  -0.1600 
  5 C       -1.1850    -1.8760     0.3580 C.3   1 <1>  -0.1600 
  6 C        1.8960     2.3520    -0.7270 C.3   1 <1>  -0.1600 
  7 C        1.1060    -3.7550     0.2080 C.3   1 <1>  -0.1600 
  8 C       -1.2640    -3.2760     0.9840 C.3   1 <1>  -0.1600 
  9 C        3.2210     3.0370    -0.4090 C.3   1 <1>   0.2090 
 10 C       -0.3430    -4.2620     0.2510 C.3   1 <1>  -0.1600 
 11 N        3.2120     4.3970    -0.9830 N.pl3 1 <1>  -0.8690 
 12 C        4.2590     5.2700    -0.8490 C.ar  1 <1>   0.4100 
 13 N        5.2570     4.9160    -0.0490 N.ar  1 <1>  -0.6200 
 14 C        4.2450     6.4750    -1.5460 C.ar  1 <1>  -0.1500 
 15 C        6.2540     5.7780     0.0570 C.ar  1 <1>   0.1600 
 16 C        5.2870     7.3610    -1.4180 C.ar  1 <1>  -0.1500 
 17 C        6.3400     7.0160    -0.5750 C.ar  1 <1>   0.0860 
 18 C        7.4810     7.8730    -0.3540 C.2   1 <1>   0.5440 
 19 O        8.5930     7.3800    -0.3130 O.2   1 <1>  -0.5700 
 20 N        7.3550     9.2350    -0.1720 N.am  1 <1>  -0.6600 
 21 C        8.5330    10.1540    -0.2410 C.3   1 <1>   0.1400 
 22 C        6.1410     9.8860     0.4070 C.3   1 <1>   0.1400 
 23 C        8.7430    10.8660     1.1040 C.3   1 <1>   0.1200 
 24 C        6.4910    10.6280     1.7090 C.3   1 <1>   0.1200 
 25 O        7.5650    11.5030     1.5120 O.3   1 <1>  -0.5600 
 26 H        0.6190    -1.1810     1.3130 H     1 <1>   0.0800 
 27 H        2.6320     0.3220    -0.5200 H     1 <1>   0.0800 
 28 H        1.9030     0.9770     0.9520 H     1 <1>   0.0800 
 29 H        2.2010    -2.0020    -0.3730 H     1 <1>   0.0800 
 30 H        0.8920    -2.4090    -1.4500 H     1 <1>   0.0800 
 31 H       -1.5750    -1.9140    -0.6440 H     1 <1>   0.0800 
 32 H       -1.7870    -1.1890     0.9260 H     1 <1>   0.0800 
 33 H        1.0870     2.9330    -0.3200 H     1 <1>   0.0800 
 34 H        1.7770     2.2770    -1.7930 H     1 <1>   0.0800 
 35 H        1.5010    -3.7230     1.2090 H     1 <1>   0.0800 
 36 H        1.7100    -4.4390    -0.3640 H     1 <1>   0.0800 
 37 H       -2.2790    -3.6320     0.9430 H     1 <1>   0.0800 
 38 H       -0.9750    -3.2210     2.0200 H     1 <1>   0.0800 
 39 H        4.0430     2.4800    -0.8280 H     1 <1>   0.0800 
 40 H        3.3610     3.1050     0.6570 H     1 <1>   0.0800 
 41 H       -0.3750    -5.2190     0.7430 H     1 <1>   0.0800 
 42 H       -0.7010    -4.3990    -0.7560 H     1 <1>   0.0800 
 43 H        2.5710     4.5310    -1.7660 H     1 <1>   0.4000 
 44 H        3.4100     6.6990    -2.1820 H     1 <1>   0.1500 
 45 H        7.0740     5.4910     0.6940 H     1 <1>   0.1500 
 46 H        5.3020     8.2940    -1.9540 H     1 <1>   0.1500 
 47 H        8.3620    10.8900    -1.0060 H     1 <1>   0.0800 
 48 H        9.4260     9.6120    -0.5010 H     1 <1>   0.0800 
 49 H        5.3810     9.1560     0.6200 H     1 <1>   0.0800 
 50 H        5.7430    10.5890    -0.3030 H     1 <1>   0.0800 
 51 H        9.5090    11.6150     1.0130 H     1 <1>   0.0800 
 52 H        9.0380    10.1600     1.8620 H     1 <1>   0.0800 
 53 H        6.7550     9.9290     2.4840 H     1 <1>   0.0800 
 54 H        5.6500    11.2110     2.0430 H     1 <1>   0.0800 
@<TRIPOS>BOND
  1   1   2  1   
  2   1   3  1   
  3   2   4  1   
  4   2   5  1   
  5   2  26  1   
  6   3   6  1   
  7   3  27  1   
  8   3  28  1   
  9   4   7  1   
 10   4  29  1   
 11   4  30  1   
 12   5   8  1   
 13   5  31  1   
 14   5  32  1   
 15   6   9  1   
 16   6  33  1   
 17   6  34  1   
 18   7  10  1   
 19   7  35  1   
 20   7  36  1   
 21   8  10  1   
 22   8  37  1   
 23   8  38  1   
 24   9  11  1   
 25   9  39  1   
 26   9  40  1   
 27  10  41  1   
 28  10  42  1   
 29  11  12  1   
 30  11  43  1   
 31  12  13  ar  
 32  12  14  ar  
 33  13  15  ar  
 34  14  16  ar  
 35  14  44  1   
 36  15  17  ar  
 37  15  45  1   
 38  16  17  ar  
 39  16  46  1   
 40  17  18  1   
 41  18  19  2   
 42  18  20  am  
 43  20  21  1   
 44  20  22  1   
 45  21  23  1   
 46  21  47  1   
 47  21  48  1   
 48  22  24  1   
 49  22  49  1   
 50  22  50  1   
 51  23  25  1   
 52  23  51  1   
 53  23  52  1   
 54  24  25  1   
 55  24  53  1   
 56  24  54  1   
@<TRIPOS>SUBSTRUCTURE
  1 ****  12 GROUP 4 **** **** 0

# MOE 2024.06 (io_trps.svl 2023.06)
