@<TRIPOS>MOLECULE
NONAME
39 41 1 0 0 
SMALL
USER_CHARGES


@<TRIPOS>ATOM
  1 S       -1.7700     0.3120    -0.7940 S.3   1 <1>  -0.0800 
  2 C       -1.6840    -1.2470     0.0340 C.2   1 <1>  -0.0450 
  3 C       -1.2940     1.1900     0.6430 C.2   1 <1>  -0.1400 
  4 C       -2.0000    -2.4470    -0.6990 C.2   1 <1>   0.7150 
  5 C       -1.3080    -1.0290     1.3220 C.2   1 <1>  -0.1500 
  6 C       -1.0900     0.3380     1.6640 C.2   1 <1>  -0.1500 
  7 C       -1.1860     2.6960     0.5330 C.3   1 <1>  -0.0600 
  8 O       -2.2870    -2.4330    -1.8810 O.2   1 <1>  -0.5700 
  9 N       -2.0000    -3.6470    -0.0550 N.am  1 <1>  -0.7300 
 10 C       -2.2830    -4.9620    -0.6740 C.3   1 <1>   0.2200 
 11 C       -3.6860    -5.4450    -0.3300 C.3   1 <1>  -0.0800 
 12 C       -1.4470    -6.0210     0.0290 C.3   1 <1>   0.1200 
 13 C       -3.4990    -6.1040     1.0420 C.3   1 <1>   0.1200 
 14 C       -4.7990    -4.3810    -0.3770 C.3   1 <1>  -0.0160 
 15 O       -2.1220    -6.2760     1.2220 O.3   1 <1>  -0.5600 
 16 C       -6.1570    -5.0050    -0.0960 C.ar  1 <1>  -0.1430 
 17 C       -6.7540    -4.9340     1.1470 C.ar  1 <1>  -0.1500 
 18 C       -6.8630    -5.6760    -1.0730 C.ar  1 <1>  -0.1500 
 19 C       -7.9890    -5.5280     1.3470 C.ar  1 <1>   0.1600 
 20 C       -8.0930    -6.2350    -0.7680 C.ar  1 <1>   0.1600 
 21 N       -8.6720    -6.1790     0.4200 N.ar  1 <1>  -0.6200 
 22 H       -1.1720    -1.7960     2.0630 H     1 <1>   0.1500 
 23 H       -0.7890     0.6210     2.6580 H     1 <1>   0.1500 
 24 H       -0.8880     3.1180     1.4760 H     1 <1>   0.0800 
 25 H       -2.1370     3.1110     0.2510 H     1 <1>   0.0800 
 26 H       -0.4560     2.9570    -0.2120 H     1 <1>   0.0800 
 27 H       -1.8090    -3.6870     0.9470 H     1 <1>   0.3700 
 28 H       -2.1000    -4.9340    -1.7360 H     1 <1>   0.0800 
 29 H       -3.9430    -6.2250    -1.0260 H     1 <1>   0.0800 
 30 H       -0.4440    -5.6930     0.2390 H     1 <1>   0.0800 
 31 H       -1.4240    -6.9340    -0.5410 H     1 <1>   0.0800 
 32 H       -3.9830    -7.0640     1.0920 H     1 <1>   0.0800 
 33 H       -3.8550    -5.4760     1.8390 H     1 <1>   0.0800 
 34 H       -4.8130    -3.9210    -1.3500 H     1 <1>   0.0800 
 35 H       -4.6100    -3.6040     0.3430 H     1 <1>   0.0800 
 36 H       -6.2740    -4.4230     1.9610 H     1 <1>   0.1500 
 37 H       -6.4680    -5.7700    -2.0680 H     1 <1>   0.1500 
 38 H       -8.4400    -5.4630     2.3230 H     1 <1>   0.1500 
 39 H       -8.6290    -6.7550    -1.5430 H     1 <1>   0.1500 
@<TRIPOS>BOND
  1   1   2  1   
  2   1   3  1   
  3   2   4  1   
  4   2   5  2   
  5   3   6  2   
  6   3   7  1   
  7   4   8  2   
  8   4   9  am  
  9   5   6  1   
 10   5  22  1   
 11   6  23  1   
 12   7  24  1   
 13   7  25  1   
 14   7  26  1   
 15   9  10  1   
 16   9  27  1   
 17  10  11  1   
 18  10  12  1   
 19  10  28  1   
 20  11  13  1   
 21  11  14  1   
 22  11  29  1   
 23  12  15  1   
 24  12  30  1   
 25  12  31  1   
 26  13  15  1   
 27  13  32  1   
 28  13  33  1   
 29  14  16  1   
 30  14  34  1   
 31  14  35  1   
 32  16  17  ar  
 33  16  18  ar  
 34  17  19  ar  
 35  17  36  1   
 36  18  20  ar  
 37  18  37  1   
 38  19  21  ar  
 39  19  38  1   
 40  20  21  ar  
 41  20  39  1   
@<TRIPOS>SUBSTRUCTURE
  1 ****  14 GROUP 4 **** **** 0

# MOE 2024.06 (io_trps.svl 2023.06)
