@<TRIPOS>MOLECULE
NONAME
40 41 1 0 0 
SMALL
USER_CHARGES


@<TRIPOS>ATOM
  1 S       -0.0880    -0.1810    -0.9830 S.o2  1 <1>   1.3330 
  2 O       -0.9800    -1.2870    -0.7210 O.2   1 <1>  -0.6500 
  3 O        0.5690    -0.0760    -2.2670 O.2   1 <1>  -0.6500 
  4 N        1.1080    -0.1920     0.2240 N.am  1 <1>  -0.8490 
  5 C       -0.9620     1.3590    -0.6890 C.3   1 <1>  -0.0550 
  6 C        0.6390    -0.7220     1.5090 C.3   1 <1>   0.1160 
  7 C        2.3240    -0.8980    -0.1940 C.3   1 <1>   0.1160 
  8 C       -0.1300     2.6280    -0.9820 C.3   1 <1>  -0.0800 
  9 C       -0.9300     3.9310    -0.9190 C.3   1 <1>   0.2000 
 10 C        1.0450     2.8610    -0.0230 C.3   1 <1>   0.1400 
 11 O       -1.7220     3.9210     0.2200 O.3   1 <1>  -0.6800 
 12 C        0.1410     5.0040    -0.7380 C.3   1 <1>   0.1400 
 13 N        1.1870     4.3370     0.0790 N.am  1 <1>  -0.6600 
 14 C        2.3230     4.9330     0.5740 C.2   1 <1>   0.5440 
 15 O        3.2230     4.2240     0.9790 O.2   1 <1>  -0.5700 
 16 C        2.4780     6.3730     0.6090 C.ar  1 <1>   0.0860 
 17 C        3.5680     7.0050     0.0300 C.ar  1 <1>  -0.1500 
 18 C        1.5680     7.2200     1.2250 C.ar  1 <1>  -0.1500 
 19 C        3.6780     8.3810     0.0700 C.ar  1 <1>   0.1600 
 20 C        1.7690     8.5870     1.2110 C.ar  1 <1>   0.1600 
 21 N        2.7990     9.1880     0.6410 N.ar  1 <1>  -0.6200 
 22 H       -1.8270     1.3760    -1.3230 H     1 <1>   0.0800 
 23 H       -1.3120     1.3800     0.3240 H     1 <1>   0.0800 
 24 H        1.4060    -0.6090     2.2570 H     1 <1>   0.0800 
 25 H        0.3880    -1.7660     1.4170 H     1 <1>   0.0800 
 26 H       -0.2350    -0.1850     1.8350 H     1 <1>   0.0800 
 27 H        3.0630    -0.8650     0.5880 H     1 <1>   0.0800 
 28 H        2.7410    -0.4270    -1.0690 H     1 <1>   0.0800 
 29 H        2.0980    -1.9250    -0.4280 H     1 <1>   0.0800 
 30 H        0.2770     2.5460    -1.9760 H     1 <1>   0.0800 
 31 H       -1.5590     4.0950    -1.7770 H     1 <1>   0.0800 
 32 H        1.9520     2.4140    -0.3980 H     1 <1>   0.0800 
 33 H        0.8370     2.4630     0.9550 H     1 <1>   0.0800 
 34 H       -1.1360     3.9350     1.0040 H     1 <1>   0.4000 
 35 H       -0.2590     5.8810    -0.2620 H     1 <1>   0.0800 
 36 H        0.5600     5.2700    -1.6930 H     1 <1>   0.0800 
 37 H        4.3280     6.4140    -0.4480 H     1 <1>   0.1500 
 38 H        0.7080     6.8100     1.7210 H     1 <1>   0.1500 
 39 H        4.5350     8.8450    -0.3900 H     1 <1>   0.1500 
 40 H        1.0470     9.2230     1.6960 H     1 <1>   0.1500 
@<TRIPOS>BOND
  1   1   2  2   
  2   1   3  2   
  3   1   4  am  
  4   1   5  1   
  5   4   6  1   
  6   4   7  1   
  7   5   8  1   
  8   5  22  1   
  9   5  23  1   
 10   6  24  1   
 11   6  25  1   
 12   6  26  1   
 13   7  27  1   
 14   7  28  1   
 15   7  29  1   
 16   8   9  1   
 17   8  10  1   
 18   8  30  1   
 19   9  11  1   
 20   9  12  1   
 21   9  31  1   
 22  10  13  1   
 23  10  32  1   
 24  10  33  1   
 25  11  34  1   
 26  12  13  1   
 27  12  35  1   
 28  12  36  1   
 29  13  14  am  
 30  14  15  2   
 31  14  16  1   
 32  16  17  ar  
 33  16  18  ar  
 34  17  19  ar  
 35  17  37  1   
 36  18  20  ar  
 37  18  38  1   
 38  19  21  ar  
 39  19  39  1   
 40  20  21  ar  
 41  20  40  1   
@<TRIPOS>SUBSTRUCTURE
  1 ****  13 GROUP 4 **** **** 0

# MOE 2024.06 (io_trps.svl 2023.06)
