@<TRIPOS>MOLECULE
NONAME
38 39 1 0 0 
SMALL
USER_CHARGES


@<TRIPOS>ATOM
  1 CL      -1.3110     1.4940     2.3120 Cl    1 <1>  -0.1770 
  2 C       -1.6810     1.7170     0.6080 C.ar  1 <1>   0.1770 
  3 C       -1.7760     3.0370     0.1020 C.ar  1 <1>   0.4100 
  4 C       -1.8710     0.6600    -0.2280 C.ar  1 <1>   0.2170 
  5 N       -2.0690     3.2710    -1.1650 N.ar  1 <1>  -0.6200 
  6 N       -1.5540     4.1060     0.8980 N.pl3 1 <1>  -0.8690 
  7 N       -2.1500     0.9550    -1.5270 N.ar  1 <1>  -0.1790 
  8 C       -1.7950    -0.8090     0.1690 C.3   1 <1>  -0.0970 
  9 C       -2.2390     2.2300    -1.9540 C.ar  1 <1>   0.7710 
 10 C       -1.3750     5.5120     0.4490 C.3   1 <1>   0.4690 
 11 N       -2.5110     2.4930    -3.2280 N.pl3 1 <1>  -0.9000 
 12 C        0.0650     5.7580    -0.0220 C.2   1 <1>   0.2980 
 13 C       -1.7880     6.4090     1.6160 C.3   1 <1>  -0.2400 
 14 O        0.4230     5.2280    -1.1660 O.3   1 <1>  -0.0190 
 15 N        0.9770     6.4210     0.5770 N.2   1 <1>  -0.5650 
 16 N        1.6620     5.5810    -1.3070 N.2   1 <1>  -0.4100 
 17 C        1.9760     6.2780    -0.2850 C.2   1 <1>   0.3350 
 18 C        3.3380     6.9210    -0.0150 C.3   1 <1>   0.1010 
 19 C        3.3370     8.3910    -0.4560 C.3   1 <1>  -0.2400 
 20 C        4.4930     6.1690    -0.6960 C.3   1 <1>  -0.2400 
 21 H       -1.2620     3.9650     1.8710 H     1 <1>   0.4000 
 22 H       -2.2980     0.2270    -2.2200 H     1 <1>   0.4570 
 23 H       -1.5720    -0.9230     1.2150 H     1 <1>   0.0800 
 24 H       -1.0230    -1.3100    -0.3870 H     1 <1>   0.0800 
 25 H       -2.7350    -1.2990    -0.0200 H     1 <1>   0.0800 
 26 H       -2.0340     5.7120    -0.3790 H     1 <1>   0.0800 
 27 H       -2.6690     1.8470    -4.0040 H     1 <1>   0.4000 
 28 H       -2.5500     3.4800    -3.5070 H     1 <1>   0.4000 
 29 H       -1.1490     6.2430     2.4650 H     1 <1>   0.0800 
 30 H       -2.8100     6.2180     1.8890 H     1 <1>   0.0800 
 31 H       -1.7000     7.4400     1.3240 H     1 <1>   0.0800 
 32 H        3.5030     6.8870     1.0480 H     1 <1>   0.0800 
 33 H        3.1620     8.4610    -1.5150 H     1 <1>   0.0800 
 34 H        4.2790     8.8550    -0.2250 H     1 <1>   0.0800 
 35 H        2.5560     8.9260     0.0550 H     1 <1>   0.0800 
 36 H        4.3810     6.1960    -1.7650 H     1 <1>   0.0800 
 37 H        4.4980     5.1410    -0.3790 H     1 <1>   0.0800 
 38 H        5.4360     6.6130    -0.4350 H     1 <1>   0.0800 
@<TRIPOS>BOND
  1   1   2  1   
  2   2   3  ar  
  3   2   4  ar  
  4   3   5  ar  
  5   3   6  1   
  6   4   7  ar  
  7   4   8  1   
  8   5   9  ar  
  9   6  10  1   
 10   6  21  1   
 11   7   9  ar  
 12   7  22  1   
 13   8  23  1   
 14   8  24  1   
 15   8  25  1   
 16   9  11  1   
 17  10  12  1   
 18  10  13  1   
 19  10  26  1   
 20  11  27  1   
 21  11  28  1   
 22  12  14  1   
 23  12  15  2   
 24  13  29  1   
 25  13  30  1   
 26  13  31  1   
 27  14  16  1   
 28  15  17  1   
 29  16  17  2   
 30  17  18  1   
 31  18  19  1   
 32  18  20  1   
 33  18  32  1   
 34  19  33  1   
 35  19  34  1   
 36  19  35  1   
 37  20  36  1   
 38  20  37  1   
 39  20  38  1   
@<TRIPOS>SUBSTRUCTURE
  1 ****  14 GROUP 4 **** **** 0

# MOE 2024.06 (io_trps.svl 2023.06)
