@<TRIPOS>MOLECULE
NONAME
54 58 1 0 0 
SMALL
USER_CHARGES


@<TRIPOS>ATOM
  1 S       -2.6830    -3.6670    -1.9550 S.3   1 <1>  -0.2820 
  2 C       -2.7100    -3.7580    -0.2160 C.2   1 <1>   0.6510 
  3 C       -2.1840    -1.9790    -1.8560 C.2   1 <1>   0.5300 
  4 N       -3.0330    -4.8330     0.4320 N.2   1 <1>  -0.6210 
  5 N       -2.3560    -2.5350     0.2860 N.am  1 <1>  -0.0580 
  6 N       -2.0630    -1.5480    -0.6690 N.2   1 <1>  -0.5120 
  7 C       -1.9690    -1.2680    -3.1840 C.3   1 <1>  -0.0990 
  8 C       -2.9980    -4.7290     1.7990 C.2   1 <1>   0.0330 
  9 C       -2.3380    -2.4050     1.6660 C.2   1 <1>   0.6160 
 10 C       -1.5410     0.2000    -3.0340 C.3   1 <1>  -0.2400 
 11 C       -2.6700    -3.5630     2.4170 C.2   1 <1>  -0.1360 
 12 C       -3.3510    -5.9980     2.5780 C.3   1 <1>   0.4810 
 13 O       -2.0620    -1.3550     2.2240 O.2   1 <1>  -0.5700 
 14 N       -4.4960    -6.6530     1.8980 N.4   1 <1>  -0.9590 
 15 C       -5.8000    -5.9660     2.1700 C.3   1 <1>   0.3430 
 16 C       -4.6580    -8.0840     2.2800 C.3   1 <1>   0.3430 
 17 C       -6.6900    -7.0010     2.8730 C.3   1 <1>   0.2000 
 18 C       -6.1690    -8.3340     2.3450 C.3   1 <1>  -0.0800 
 19 O       -6.4180    -6.9430     4.2340 O.3   1 <1>  -0.6800 
 20 C       -6.7950    -8.6990     0.9790 C.3   1 <1>  -0.0170 
 21 C       -5.9340    -9.7150     0.2370 C.ar  1 <1>  -0.1430 
 22 C       -4.9490    -9.3470    -0.7140 C.ar  1 <1>   0.0000 
 23 C       -6.0790   -11.0430     0.5160 C.ar  1 <1>  -0.1500 
 24 C       -4.1370   -10.3810    -1.2450 C.ar  1 <1>   0.3100 
 25 C       -4.7070    -8.0260    -1.1620 C.ar  1 <1>  -0.1500 
 26 C       -5.2480   -11.9880    -0.0970 C.ar  1 <1>   0.1600 
 27 N       -4.3050   -11.6880    -0.9300 N.ar  1 <1>  -0.6200 
 28 C       -3.1010   -10.0460    -2.1310 C.ar  1 <1>  -0.1500 
 29 C       -3.6900    -7.7330    -2.0290 C.ar  1 <1>  -0.1500 
 30 C       -2.8700    -8.7530    -2.5150 C.ar  1 <1>  -0.1500 
 31 H       -1.2160    -1.8000    -3.7360 H     1 <1>   0.0800 
 32 H       -2.8850    -1.3120    -3.7460 H     1 <1>   0.0800 
 33 H       -0.6140     0.2670    -2.4900 H     1 <1>   0.0800 
 34 H       -2.2910     0.7580    -2.4990 H     1 <1>   0.0800 
 35 H       -1.4040     0.6490    -4.0020 H     1 <1>   0.0800 
 36 H       -2.6370    -3.4490     3.4860 H     1 <1>   0.1500 
 37 H       -3.5950    -5.7700     3.6030 H     1 <1>   0.0800 
 38 H       -2.4980    -6.6570     2.5620 H     1 <1>   0.0800 
 39 H       -4.2660    -6.5720     0.8930 H     1 <1>   0.4500 
 40 H       -5.6790    -5.0910     2.7870 H     1 <1>   0.0800 
 41 H       -6.2530    -5.6780     1.2360 H     1 <1>   0.0800 
 42 H       -4.1560    -8.7430     1.5900 H     1 <1>   0.0800 
 43 H       -4.2480    -8.2380     3.2660 H     1 <1>   0.0800 
 44 H       -7.7420    -6.8310     2.7170 H     1 <1>   0.0800 
 45 H       -6.3710    -9.1380     3.0320 H     1 <1>   0.0800 
 46 H       -7.0780    -7.4510     4.7520 H     1 <1>   0.4000 
 47 H       -6.9630    -7.8320     0.3700 H     1 <1>   0.0800 
 48 H       -7.7690    -9.1280     1.1520 H     1 <1>   0.0800 
 49 H       -6.8160   -11.4020     1.2110 H     1 <1>   0.1500 
 50 H       -5.3350    -7.2220    -0.8370 H     1 <1>   0.1500 
 51 H       -5.3980   -13.0270     0.1450 H     1 <1>   0.1500 
 52 H       -2.4910   -10.8480    -2.5030 H     1 <1>   0.1500 
 53 H       -3.5100    -6.7240    -2.3600 H     1 <1>   0.1500 
 54 H       -2.0710    -8.5130    -3.1960 H     1 <1>   0.1500 
@<TRIPOS>BOND
  1   1   2  1   
  2   1   3  1   
  3   2   4  2   
  4   2   5  1   
  5   3   6  2   
  6   3   7  1   
  7   4   8  1   
  8   5   6  1   
  9   5   9  am  
 10   7  10  1   
 11   7  31  1   
 12   7  32  1   
 13   8  11  2   
 14   8  12  1   
 15   9  11  1   
 16   9  13  2   
 17  10  33  1   
 18  10  34  1   
 19  10  35  1   
 20  11  36  1   
 21  12  14  1   
 22  12  37  1   
 23  12  38  1   
 24  14  15  1   
 25  14  16  1   
 26  14  39  1   
 27  15  17  1   
 28  15  40  1   
 29  15  41  1   
 30  16  18  1   
 31  16  42  1   
 32  16  43  1   
 33  17  18  1   
 34  17  19  1   
 35  17  44  1   
 36  18  20  1   
 37  18  45  1   
 38  19  46  1   
 39  20  21  1   
 40  20  47  1   
 41  20  48  1   
 42  21  22  ar  
 43  21  23  ar  
 44  22  24  ar  
 45  22  25  ar  
 46  23  26  ar  
 47  23  49  1   
 48  24  27  ar  
 49  24  28  ar  
 50  25  29  ar  
 51  25  50  1   
 52  26  27  ar  
 53  26  51  1   
 54  28  30  ar  
 55  28  52  1   
 56  29  30  ar  
 57  29  53  1   
 58  30  54  1   
@<TRIPOS>SUBSTRUCTURE
  1 ****   4 GROUP 4 **** **** 0

# MOE 2024.06 (io_trps.svl 2023.06)
