@<TRIPOS>MOLECULE
NONAME
50 52 1 0 0 
SMALL
USER_CHARGES


@<TRIPOS>ATOM
  1 CL      -0.6040    -3.4130    -1.4690 Cl    1 <1>  -0.1770 
  2 C       -1.9180    -2.9520    -0.4080 C.ar  1 <1>   0.1770 
  3 C       -2.5360    -1.7040    -0.4840 C.ar  1 <1>   0.0820 
  4 C       -2.3540    -3.9050     0.4950 C.ar  1 <1>  -0.1500 
  5 O       -2.1730    -0.7190    -1.3400 O.3   1 <1>  -0.3630 
  6 C       -3.6090    -1.4410     0.3530 C.ar  1 <1>  -0.1500 
  7 C       -3.4340    -3.6350     1.3250 C.ar  1 <1>  -0.1430 
  8 C       -0.8260    -0.3000    -1.3850 C.3   1 <1>   0.1200 
  9 C       -4.0550    -2.3950     1.2520 C.ar  1 <1>  -0.1500 
 10 C       -3.9360    -4.7030     2.2760 C.3   1 <1>   0.4870 
 11 C       -0.8020     1.1870    -1.7430 C.3   1 <1>  -0.1600 
 12 N       -4.7180    -5.6620     1.4640 N.4   1 <1>  -0.9590 
 13 C        0.6330     1.7190    -1.8170 C.3   1 <1>  -0.2400 
 14 C       -6.0600    -5.1790     1.0200 C.3   1 <1>   0.3430 
 15 C       -4.9100    -7.0210     2.0150 C.3   1 <1>   0.3430 
 16 C       -6.8960    -6.4450     0.7780 C.3   1 <1>   0.2000 
 17 C       -5.9910    -7.6380     1.1250 C.3   1 <1>  -0.0800 
 18 O       -7.9920    -6.4440     1.6310 O.3   1 <1>  -0.6800 
 19 C       -5.4150    -8.3450    -0.1300 C.3   1 <1>  -0.0170 
 20 C       -4.2630    -7.6330    -0.8410 C.ar  1 <1>   0.1670 
 21 N       -4.5090    -6.4260    -1.3300 N.ar  1 <1>  -0.6200 
 22 C       -3.0200    -8.2570    -0.9450 C.ar  1 <1>   0.1600 
 23 C       -3.4650    -5.9140    -1.9670 C.ar  1 <1>   0.1600 
 24 N       -1.9640    -7.7210    -1.5280 N.ar  1 <1>  -0.6200 
 25 C       -2.2290    -6.5410    -2.0590 C.ar  1 <1>   0.1600 
 26 H       -1.8430    -4.8520     0.5280 H     1 <1>   0.1500 
 27 H       -4.0900    -0.4790     0.2920 H     1 <1>   0.1500 
 28 H       -0.3730    -0.4660    -0.4230 H     1 <1>   0.0800 
 29 H       -0.3160    -0.8740    -2.1380 H     1 <1>   0.0800 
 30 H       -4.8900    -2.1550     1.8890 H     1 <1>   0.1500 
 31 H       -4.5470    -4.2700     3.0510 H     1 <1>   0.0800 
 32 H       -3.0930    -5.1980     2.7310 H     1 <1>   0.0800 
 33 H       -1.2820     1.3280    -2.6960 H     1 <1>   0.0800 
 34 H       -1.3470     1.7390    -0.9980 H     1 <1>   0.0800 
 35 H       -4.2090    -5.7810     0.5660 H     1 <1>   0.4500 
 36 H        1.1940     1.1900    -2.5680 H     1 <1>   0.0800 
 37 H        1.1280     1.6050    -0.8690 H     1 <1>   0.0800 
 38 H        0.6240     2.7640    -2.0730 H     1 <1>   0.0800 
 39 H       -6.5260    -4.5720     1.7780 H     1 <1>   0.0800 
 40 H       -5.9640    -4.6120     0.1080 H     1 <1>   0.0800 
 41 H       -3.9960    -7.5940     1.9920 H     1 <1>   0.0800 
 42 H       -5.2670    -6.9560     3.0300 H     1 <1>   0.0800 
 43 H       -7.2690    -6.4780    -0.2330 H     1 <1>   0.0800 
 44 H       -6.5460    -8.3770     1.6780 H     1 <1>   0.0800 
 45 H       -7.7600    -6.5940     2.5680 H     1 <1>   0.4000 
 46 H       -6.2060    -8.5020    -0.8440 H     1 <1>   0.0800 
 47 H       -5.0800    -9.3240     0.1650 H     1 <1>   0.0800 
 48 H       -2.8860    -9.2410    -0.5300 H     1 <1>   0.1500 
 49 H       -3.5850    -4.9510    -2.4360 H     1 <1>   0.1500 
 50 H       -1.4320    -6.0460    -2.5890 H     1 <1>   0.1500 
@<TRIPOS>BOND
  1   1   2  1   
  2   2   3  ar  
  3   2   4  ar  
  4   3   5  1   
  5   3   6  ar  
  6   4   7  ar  
  7   4  26  1   
  8   5   8  1   
  9   6   9  ar  
 10   6  27  1   
 11   7   9  ar  
 12   7  10  1   
 13   8  11  1   
 14   8  28  1   
 15   8  29  1   
 16   9  30  1   
 17  10  12  1   
 18  10  31  1   
 19  10  32  1   
 20  11  13  1   
 21  11  33  1   
 22  11  34  1   
 23  12  14  1   
 24  12  15  1   
 25  12  35  1   
 26  13  36  1   
 27  13  37  1   
 28  13  38  1   
 29  14  16  1   
 30  14  39  1   
 31  14  40  1   
 32  15  17  1   
 33  15  41  1   
 34  15  42  1   
 35  16  17  1   
 36  16  18  1   
 37  16  43  1   
 38  17  19  1   
 39  17  44  1   
 40  18  45  1   
 41  19  20  1   
 42  19  46  1   
 43  19  47  1   
 44  20  21  ar  
 45  20  22  ar  
 46  21  23  ar  
 47  22  24  ar  
 48  22  48  1   
 49  23  25  ar  
 50  23  49  1   
 51  24  25  ar  
 52  25  50  1   
@<TRIPOS>SUBSTRUCTURE
  1 ****   4 GROUP 4 **** **** 0

# MOE 2024.06 (io_trps.svl 2023.06)
