@<TRIPOS>MOLECULE
NONAME
48 50 1 0 0 
SMALL
USER_CHARGES


@<TRIPOS>ATOM
  1 F       -2.6620     1.1110    -1.0470 F     1 <1>  -0.1900 
  2 C       -1.6170     1.8490    -0.7890 C.ar  1 <1>   0.1900 
  3 C       -1.5310     2.5090     0.4340 C.ar  1 <1>   0.0860 
  4 C       -0.6460     1.9380    -1.7670 C.ar  1 <1>  -0.1500 
  5 C       -0.3890     3.2910     0.6540 C.ar  1 <1>  -0.1440 
  6 C       -2.5880     2.3880     1.4130 C.2   1 <1>   0.5440 
  7 C        0.4690     2.7190    -1.5290 C.ar  1 <1>  -0.1500 
  8 C        0.5930     3.3890    -0.3220 C.ar  1 <1>  -0.1500 
  9 C       -0.2160     4.0380     1.9700 C.3   1 <1>  -0.0960 
 10 O       -2.4410     1.6290     2.3540 O.2   1 <1>  -0.5700 
 11 N       -3.7450     3.1360     1.3200 N.am  1 <1>  -0.6600 
 12 C       -4.8930     2.9480     2.2430 C.3   1 <1>   0.1400 
 13 C       -4.0040     4.1490     0.2670 C.3   1 <1>   0.1400 
 14 C       -6.1140     2.5020     1.4360 C.3   1 <1>  -0.1600 
 15 C       -5.2120     3.7100    -0.5640 C.3   1 <1>  -0.1600 
 16 C       -6.4780     3.4770     0.2950 C.3   1 <1>   0.2800 
 17 O       -6.7890     4.7050     0.9210 O.3   1 <1>  -0.5600 
 18 C       -7.6950     2.9170    -0.5310 C.3   1 <1>   0.2000 
 19 C       -7.6680     5.5650     0.2710 C.3   1 <1>   0.1200 
 20 O       -7.6000     3.2750    -1.8890 O.3   1 <1>  -0.6800 
 21 C       -9.0620     3.4060     0.0280 C.3   1 <1>   0.2800 
 22 C       -9.0710     4.9410     0.1860 C.3   1 <1>  -0.1600 
 23 O       -9.2610     2.8530     1.2780 O.3   1 <1>  -0.6800 
 24 C      -10.2610     2.9240    -0.7980 C.3   1 <1>  -0.2400 
 25 H       -0.7640     1.4060    -2.6940 H     1 <1>   0.1500 
 26 H        1.2410     2.8040    -2.2760 H     1 <1>   0.1500 
 27 H        1.4690     3.9910    -0.1480 H     1 <1>   0.1500 
 28 H        0.6970     4.6060     1.9800 H     1 <1>   0.0800 
 29 H       -0.1890     3.3380     2.7870 H     1 <1>   0.0800 
 30 H       -1.0390     4.7130     2.1240 H     1 <1>   0.0800 
 31 H       -4.6660     2.2100     2.9930 H     1 <1>   0.0800 
 32 H       -5.1020     3.8790     2.7430 H     1 <1>   0.0800 
 33 H       -4.2110     5.0960     0.7380 H     1 <1>   0.0800 
 34 H       -3.1490     4.2760    -0.3720 H     1 <1>   0.0800 
 35 H       -6.9420     2.3930     2.1090 H     1 <1>   0.0800 
 36 H       -5.9050     1.5310     1.0260 H     1 <1>   0.0800 
 37 H       -4.9600     2.7980    -1.0760 H     1 <1>   0.0800 
 38 H       -5.3980     4.4560    -1.3130 H     1 <1>   0.0800 
 39 H       -7.6730     1.8420    -0.5160 H     1 <1>   0.0800 
 40 H       -7.7020     6.4830     0.8310 H     1 <1>   0.0800 
 41 H       -7.2730     5.7770    -0.7060 H     1 <1>   0.0800 
 42 H       -7.5610     4.2450    -1.9710 H     1 <1>   0.4000 
 43 H       -9.5580     5.3870    -0.6620 H     1 <1>   0.0800 
 44 H       -9.6400     5.2260     1.0530 H     1 <1>   0.0800 
 45 H      -10.0990     3.1790     1.6520 H     1 <1>   0.4000 
 46 H      -10.2140     3.3190    -1.7970 H     1 <1>   0.0800 
 47 H      -11.1870     3.2450    -0.3570 H     1 <1>   0.0800 
 48 H      -10.2520     1.8510    -0.8690 H     1 <1>   0.0800 
@<TRIPOS>BOND
  1   1   2  1   
  2   2   3  ar  
  3   2   4  ar  
  4   3   5  ar  
  5   3   6  1   
  6   4   7  ar  
  7   4  25  1   
  8   5   8  ar  
  9   5   9  1   
 10   6  10  2   
 11   6  11  am  
 12   7   8  ar  
 13   7  26  1   
 14   8  27  1   
 15   9  28  1   
 16   9  29  1   
 17   9  30  1   
 18  11  12  1   
 19  11  13  1   
 20  12  14  1   
 21  12  31  1   
 22  12  32  1   
 23  13  15  1   
 24  13  33  1   
 25  13  34  1   
 26  14  16  1   
 27  14  35  1   
 28  14  36  1   
 29  15  16  1   
 30  15  37  1   
 31  15  38  1   
 32  16  17  1   
 33  16  18  1   
 34  17  19  1   
 35  18  20  1   
 36  18  21  1   
 37  18  39  1   
 38  19  22  1   
 39  19  40  1   
 40  19  41  1   
 41  20  42  1   
 42  21  22  1   
 43  21  23  1   
 44  21  24  1   
 45  22  43  1   
 46  22  44  1   
 47  23  45  1   
 48  24  46  1   
 49  24  47  1   
 50  24  48  1   
@<TRIPOS>SUBSTRUCTURE
  1 ****  13 GROUP 4 **** **** 0

# MOE 2024.06 (io_trps.svl 2023.06)
